REMARK SMILES Cc1nc(NC(=O)[C@H]2[C@@H]3CC[C@@H](C3)[C@@H]2C(=O)OCCOCCOCCOCCOC(=O)c2ccc(-c3c4nc(c(-c5cccc(S(=O)(=O)[O-])c5F)c5ccc([nH]5)c(-c5cccc(S(=O)(=O)[O-])c5F)c5nc(c(-c6cccc(S(=O)(=O)[O-])c6F)c6ccc3[nH]6)C=C5)C=C4)cc2)sc1-c1ccccc1
REMARK SMILES IDX 23 1 22 2 21 3 20 4 19 5 18 6 17 7 15 8 16 9 14 10 8 11 9 12
REMARK SMILES IDX 10 13 13 14 12 15 11 16 6 17 5 18 7 20 4 21 1 22 2 23 3 24
REMARK SMILES IDX 96 25 95 26 97 27 98 28 102 29 99 30 101 31 100 32 24 33
REMARK SMILES IDX 25 34 26 35 27 36 28 37 29 38 30 39 31 40 32 41 33 42 94 43
REMARK SMILES IDX 34 44 93 45 35 46 36 47 37 48 87 49 38 50 92 51 86 52 88 53
REMARK SMILES IDX 39 54 91 55 85 56 84 57 40 59 72 60 52 61 71 62 53 63 56 64
REMARK SMILES IDX 70 65 89 66 54 67 55 68 69 70 90 71 57 72 41 73 42 74 50 75
REMARK SMILES IDX 43 76 45 77 51 78 44 79 46 80 47 81 48 82 49 83 73 84 74 85
REMARK SMILES IDX 82 86 75 87 77 88 83 89 76 90 78 91 79 92 80 93 81 94 58 95
REMARK SMILES IDX 59 96 67 97 60 98 62 99 68 100 61 101 63 102 64 103 65 104
REMARK SMILES IDX 66 105
REMARK H PARENT 5 19 88 58 56 69
REMARK Flexibility Score: inf
ROOT
ATOM      1  O   UNL     1      -0.496   0.003   2.552  1.00  0.00    -0.377 OA
ENDROOT
BRANCH   1   2
ATOM      2  C   UNL     1      -0.084   1.008   3.470  1.00  0.00     0.188 C 
BRANCH   2   3
ATOM      3  C   UNL     1      -1.040   2.200   3.490  1.00  0.00     0.188 C 
BRANCH   3   4
ATOM      4  O   UNL     1      -2.163   2.067   4.364  1.00  0.00    -0.376 OA
BRANCH   4   5
ATOM      5  C   UNL     1      -3.244   1.232   3.946  1.00  0.00     0.202 C 
BRANCH   5   6
ATOM      6  C   UNL     1      -4.244   1.858   2.967  1.00  0.00     0.261 C 
BRANCH   6   7
ATOM      7  O   UNL     1      -3.691   1.931   1.651  1.00  0.00    -0.463 OA
BRANCH   7   8
ATOM      8  C   UNL     1      -3.266   3.152   1.220  1.00  0.00     0.310 C 
ATOM      9  O   UNL     1      -3.421   4.212   1.810  1.00  0.00    -0.252 OA
BRANCH   8  10
ATOM     10  C   UNL     1      -2.449   2.952  -0.038  1.00  0.00     0.115 C 
ATOM     11  C   UNL     1      -1.214   3.842  -0.165  1.00  0.00     0.096 C 
ATOM     12  C   UNL     1      -1.543   4.678  -1.426  1.00  0.00     0.003 C 
ATOM     13  C   UNL     1      -2.798   5.547  -1.166  1.00  0.00     0.005 C 
ATOM     14  C   UNL     1      -2.100   3.598  -2.347  1.00  0.00     0.009 C 
ATOM     15  C   UNL     1      -3.209   3.201  -1.360  1.00  0.00     0.004 C 
ATOM     16  C   UNL     1      -3.955   4.539  -1.277  1.00  0.00     0.005 C 
BRANCH  11  17
ATOM     17  C   UNL     1       0.185   3.211  -0.306  1.00  0.00     0.230 C 
ATOM     18  N   UNL     1       0.540   1.951  -0.656  1.00  0.00    -0.302 N 
ATOM     19  H   UNL     1       1.514   1.834  -0.736  1.00  0.00     0.172 HD
ATOM     20  O   UNL     1       1.154   3.966  -0.091  1.00  0.00    -0.274 OA
BRANCH  18  21
ATOM     21  C   UNL     1      -0.160   0.807  -0.923  1.00  0.00     0.190 A 
ATOM     22  C   UNL     1      -3.146  -1.163  -1.087  1.00  0.00     0.068 C 
ATOM     23  C   UNL     1      -1.724  -0.772  -0.956  1.00  0.00     0.058 A 
ATOM     24  N   UNL     1      -1.419   0.577  -1.158  1.00  0.00    -0.225 NA
ATOM     25  C   UNL     1      -0.636  -1.575  -0.664  1.00  0.00     0.059 A 
ATOM     26  S   UNL     1       0.793  -0.595  -0.958  1.00  0.00    -0.096 S 
BRANCH  25  27
ATOM     27  C   UNL     1      -0.444  -3.033  -0.464  1.00  0.00    -0.006 A 
ATOM     28  C   UNL     1      -0.140  -3.828   1.167  1.00  0.00     0.009 A 
ATOM     29  C   UNL     1       0.302  -3.786  -1.929  1.00  0.00     0.009 A 
ATOM     30  C   UNL     1       1.029  -5.233   1.329  1.00  0.00     0.001 A 
ATOM     31  C   UNL     1       1.443  -5.164  -1.780  1.00  0.00     0.001 A 
ATOM     32  C   UNL     1       1.873  -5.851  -0.167  1.00  0.00     0.000 A 
ENDBRANCH  25  27
ENDBRANCH  18  21
ENDBRANCH  11  17
ENDBRANCH   8  10
ENDBRANCH   7   8
ENDBRANCH   6   7
ENDBRANCH   5   6
ENDBRANCH   4   5
ENDBRANCH   3   4
ENDBRANCH   2   3
ENDBRANCH   1   2
BRANCH   1  33
ATOM     33  C   UNL     1      -0.699  -1.273   3.155  1.00  0.00     0.188 C 
BRANCH  33  34
ATOM     34  C   UNL     1       0.573  -1.950   3.755  1.00  0.00     0.188 C 
BRANCH  34  35
ATOM     35  O   UNL     1       1.444  -2.771   2.953  1.00  0.00    -0.376 OA
BRANCH  35  36
ATOM     36  C   UNL     1       1.981  -2.216   1.745  1.00  0.00     0.202 C 
BRANCH  36  37
ATOM     37  C   UNL     1       2.373  -3.291   0.627  1.00  0.00     0.261 C 
BRANCH  37  38
ATOM     38  O   UNL     1       1.084  -4.086  -0.212  1.00  0.00    -0.460 OA
BRANCH  38  39
ATOM     39  C   UNL     1      -0.297  -5.345  -0.351  1.00  0.00     0.338 C 
ATOM     40  O   UNL     1      -0.202  -6.603  -0.181  1.00  0.00    -0.246 OA
BRANCH  39  41
ATOM     41  C   UNL     1      -1.842  -5.165  -0.523  1.00  0.00     0.060 A 
ATOM     42  C   UNL     1      -2.675  -4.955   0.611  1.00  0.00     0.016 A 
ATOM     43  C   UNL     1      -2.382  -5.840  -1.621  1.00  0.00     0.016 A 
ATOM     44  C   UNL     1      -3.955  -5.488   0.694  1.00  0.00     0.010 A 
ATOM     45  C   UNL     1      -3.659  -6.386  -1.535  1.00  0.00     0.010 A 
ATOM     46  C   UNL     1      -4.413  -6.267  -0.356  1.00  0.00    -0.014 A 
BRANCH  46  47
ATOM     47  C   UNL     1      -5.637  -7.077  -0.243  1.00  0.00     0.031 A 
ATOM     48  C   UNL     1      -5.494  -8.566  -0.203  1.00  0.00     0.074 A 
ATOM     49  C   UNL     1      -6.814  -6.461  -0.421  1.00  0.00     0.049 A 
ATOM     50  N   UNL     1      -6.323  -9.483  -0.613  1.00  0.00    -0.248 NA
ATOM     51  C   UNL     1      -4.223  -9.088   0.332  1.00  0.00     0.031 C 
ATOM     52  C   UNL     1      -7.013  -5.013  -0.426  1.00  0.00     0.029 A 
ATOM     53  N   UNL     1      -8.032  -6.982  -0.763  1.00  0.00    -0.354 N 
ATOM     54  C   UNL     1      -5.644 -10.689  -0.476  1.00  0.00     0.074 A 
ATOM     55  C   UNL     1      -4.351 -10.389   0.098  1.00  0.00     0.031 C 
ATOM     56  C   UNL     1      -8.250  -4.750  -0.872  1.00  0.00     0.029 A 
ATOM     57  C   UNL     1      -8.888  -6.012  -1.230  1.00  0.00     0.049 A 
ATOM     58  H   UNL     1      -8.267  -7.935  -0.685  1.00  0.00     0.167 HD
ATOM     59  C   UNL     1      -6.073 -11.924  -0.831  1.00  0.00     0.034 A 
ATOM     60  C   UNL     1     -10.016  -6.132  -1.953  1.00  0.00     0.034 A 
ATOM     61  C   UNL     1      -7.385 -12.162  -1.374  1.00  0.00     0.049 A 
ATOM     62  C   UNL     1     -10.492  -7.511  -2.305  1.00  0.00     0.074 A 
ATOM     63  C   UNL     1      -7.982 -13.364  -1.703  1.00  0.00     0.029 A 
ATOM     64  N   UNL     1      -8.305 -11.162  -1.666  1.00  0.00    -0.354 N 
ATOM     65  N   UNL     1      -9.892  -8.662  -2.109  1.00  0.00    -0.248 NA
ATOM     66  C   UNL     1     -11.811  -7.616  -2.937  1.00  0.00     0.031 C 
ATOM     67  C   UNL     1      -9.258 -13.089  -2.207  1.00  0.00     0.029 A 
ATOM     68  C   UNL     1      -9.467 -11.718  -2.165  1.00  0.00     0.049 A 
ATOM     69  H   UNL     1      -8.150 -10.198  -1.536  1.00  0.00     0.167 HD
ATOM     70  C   UNL     1     -10.781  -9.634  -2.546  1.00  0.00     0.074 A 
ATOM     71  C   UNL     1     -11.960  -8.932  -3.019  1.00  0.00     0.031 C 
ATOM     72  C   UNL     1     -10.642 -10.983  -2.561  1.00  0.00     0.034 A 
BRANCH  59  73
ATOM     73  C   UNL     1      -5.144 -13.096  -0.635  1.00  0.00     0.023 A 
ATOM     74  C   UNL     1      -4.838 -13.540   0.667  1.00  0.00     0.012 A 
ATOM     75  C   UNL     1      -4.625 -13.805  -1.740  1.00  0.00     0.148 A 
ATOM     76  C   UNL     1      -4.009 -14.644   0.869  1.00  0.00     0.002 A 
ATOM     77  C   UNL     1      -3.835 -14.932  -1.531  1.00  0.00     0.091 A 
ATOM     78  F   UNL     1      -4.907 -13.363  -2.974  1.00  0.00    -0.205 F 
ATOM     79  C   UNL     1      -3.517 -15.345  -0.228  1.00  0.00     0.022 A 
BRANCH  77  80
ATOM     80  S   UNL     1      -3.220 -15.954  -2.877  1.00  0.00     0.127 S 
ATOM     81  O   UNL     1      -1.789 -15.653  -2.849  1.00  0.00    -0.237 OA
ATOM     82  O   UNL     1      -3.567 -17.302  -2.423  1.00  0.00    -0.237 OA
ATOM     83  O   UNL     1      -3.928 -15.516  -4.071  1.00  0.00    -0.744 OA
ENDBRANCH  77  80
ENDBRANCH  59  73
BRANCH  60  84
ATOM     84  C   UNL     1     -10.765  -4.905  -2.333  1.00  0.00     0.023 A 
ATOM     85  C   UNL     1     -11.941  -4.590  -1.629  1.00  0.00     0.012 A 
ATOM     86  C   UNL     1     -10.266  -3.995  -3.288  1.00  0.00     0.148 A 
ATOM     87  C   UNL     1     -12.620  -3.398  -1.880  1.00  0.00     0.002 A 
ATOM     88  C   UNL     1     -10.921  -2.786  -3.496  1.00  0.00     0.091 A 
ATOM     89  F   UNL     1      -9.142  -4.314  -3.945  1.00  0.00    -0.205 F 
ATOM     90  C   UNL     1     -12.104  -2.492  -2.802  1.00  0.00     0.022 A 
BRANCH  88  91
ATOM     91  S   UNL     1     -10.251  -1.494  -4.552  1.00  0.00     0.127 S 
ATOM     92  O   UNL     1     -11.153  -1.547  -5.699  1.00  0.00    -0.237 OA
ATOM     93  O   UNL     1     -10.396  -0.307  -3.708  1.00  0.00    -0.237 OA
ATOM     94  O   UNL     1      -8.869  -1.876  -4.811  1.00  0.00    -0.744 OA
ENDBRANCH  88  91
ENDBRANCH  60  84
BRANCH  72  95
ATOM     95  C   UNL     1     -11.816 -11.793  -3.035  1.00  0.00     0.023 A 
ATOM     96  C   UNL     1     -12.093 -11.892  -4.411  1.00  0.00     0.012 A 
ATOM     97  C   UNL     1     -12.576 -12.538  -2.112  1.00  0.00     0.148 A 
ATOM     98  C   UNL     1     -13.128 -12.710  -4.861  1.00  0.00     0.002 A 
ATOM     99  C   UNL     1     -13.573 -13.385  -2.572  1.00  0.00     0.091 A 
ATOM    100  F   UNL     1     -12.300 -12.409  -0.806  1.00  0.00    -0.205 F 
ATOM    101  C   UNL     1     -13.857 -13.466  -3.945  1.00  0.00     0.022 A 
BRANCH  99 102
ATOM    102  S   UNL     1     -14.498 -14.466  -1.476  1.00  0.00     0.127 S 
ATOM    103  O   UNL     1     -15.826 -13.855  -1.507  1.00  0.00    -0.237 OA
ATOM    104  O   UNL     1     -14.403 -15.755  -2.161  1.00  0.00    -0.237 OA
ATOM    105  O   UNL     1     -13.819 -14.413  -0.188  1.00  0.00    -0.744 OA
ENDBRANCH  99 102
ENDBRANCH  72  95
ENDBRANCH  46  47
ENDBRANCH  39  41
ENDBRANCH  38  39
ENDBRANCH  37  38
ENDBRANCH  36  37
ENDBRANCH  35  36
ENDBRANCH  34  35
ENDBRANCH  33  34
ENDBRANCH   1  33
TORSDOF 26
