REMARK SMILES Cc1nc(C[NH2+][C@@H](C(=O)OCCOCCOCCOCCOC(=O)c2ccc(-c3c4nc(c(-c5cccc(S(=O)(=O)[O-])c5F)c5ccc([nH]5)c(-c5cccc(S(=O)(=O)[O-])c5F)c5nc(c(-c6cccc(S(=O)(=O)[O-])c6F)c6ccc3[nH]6)C=C5)C=C4)cc2)c2ccccc2)sc1C
REMARK SMILES IDX 16 1 15 2 14 3 13 4 12 5 11 6 10 7 8 8 9 9 7 10 6 11 5 14
REMARK SMILES IDX 4 15 1 16 2 17 3 18 95 19 94 20 96 21 88 22 89 23 93 24
REMARK SMILES IDX 90 25 92 26 91 27 17 28 18 29 19 30 20 31 21 32 22 33 23 34
REMARK SMILES IDX 24 35 25 36 26 37 87 38 27 39 86 40 28 41 29 42 30 43 80 44
REMARK SMILES IDX 31 45 85 46 79 47 81 48 32 49 84 50 78 51 77 52 33 54 65 55
REMARK SMILES IDX 45 56 64 57 46 58 49 59 63 60 82 61 47 62 48 63 62 65 83 66
REMARK SMILES IDX 50 67 34 68 35 69 43 70 36 71 38 72 44 73 37 74 39 75 40 76
REMARK SMILES IDX 41 77 42 78 66 79 67 80 75 81 68 82 70 83 76 84 69 85 71 86
REMARK SMILES IDX 72 87 73 88 74 89 51 90 52 91 60 92 53 93 55 94 61 95 54 96
REMARK SMILES IDX 56 97 57 98 58 99 59 100
REMARK H PARENT 6 12 6 13 81 53 49 64
REMARK Flexibility Score: inf
ROOT
ATOM      1  O   UNL     1      -4.423   1.385   1.407  1.00  0.00    -0.377 OA
ENDROOT
BRANCH   1   2
ATOM      2  C   UNL     1      -3.944   2.132   2.501  1.00  0.00     0.188 C 
BRANCH   2   3
ATOM      3  C   UNL     1      -4.938   3.170   3.044  1.00  0.00     0.188 C 
BRANCH   3   4
ATOM      4  O   UNL     1      -6.291   3.092   2.632  1.00  0.00    -0.376 OA
BRANCH   4   5
ATOM      5  C   UNL     1      -6.618   3.117   1.248  1.00  0.00     0.202 C 
BRANCH   5   6
ATOM      6  C   UNL     1      -5.746   3.769   0.149  1.00  0.00     0.261 C 
BRANCH   6   7
ATOM      7  O   UNL     1      -4.329   3.840   0.380  1.00  0.00    -0.459 OA
BRANCH   7   8
ATOM      8  C   UNL     1      -3.759   5.066   0.444  1.00  0.00     0.369 C 
ATOM      9  O   UNL     1      -4.406   6.106   0.316  1.00  0.00    -0.245 OA
BRANCH   8  10
ATOM     10  C   UNL     1      -2.233   5.081   0.776  1.00  0.00     0.325 C 
BRANCH  10  11
ATOM     11  N   UNL     1      -1.425   3.848   0.691  1.00  0.00    -0.325 N 
ATOM     12  H   UNL     1      -0.447   4.135   0.685  1.00  0.00     0.347 HD
ATOM     13  H   UNL     1      -1.747   3.300   1.490  1.00  0.00     0.347 HD
BRANCH  11  14
ATOM     14  C   UNL     1      -1.606   2.933  -0.439  1.00  0.00     0.330 C 
BRANCH  14  15
ATOM     15  C   UNL     1      -0.694   1.718  -0.294  1.00  0.00     0.148 A 
ATOM     16  C   UNL     1       2.623   0.362   0.081  1.00  0.00     0.068 C 
ATOM     17  C   UNL     1       1.148   0.491  -0.050  1.00  0.00     0.052 A 
ATOM     18  N   UNL     1       0.610   1.770  -0.097  1.00  0.00    -0.240 NA
ATOM     19  C   UNL     1       0.224  -0.535  -0.144  1.00  0.00     0.025 A 
ATOM     20  S   UNL     1      -1.349   0.122  -0.333  1.00  0.00    -0.118 S 
ATOM     21  C   UNL     1       0.454  -2.006  -0.126  1.00  0.00     0.058 C 
ENDBRANCH  14  15
ENDBRANCH  11  14
ENDBRANCH  10  11
BRANCH  10  22
ATOM     22  C   UNL     1      -2.055   5.776   2.146  1.00  0.00     0.021 A 
ATOM     23  C   UNL     1      -2.003   5.079   3.369  1.00  0.00     0.010 A 
ATOM     24  C   UNL     1      -2.090   7.179   2.202  1.00  0.00     0.010 A 
ATOM     25  C   UNL     1      -2.043   5.752   4.594  1.00  0.00     0.001 A 
ATOM     26  C   UNL     1      -2.111   7.853   3.427  1.00  0.00     0.001 A 
ATOM     27  C   UNL     1      -2.104   7.140   4.622  1.00  0.00     0.000 A 
ENDBRANCH  10  22
ENDBRANCH   8  10
ENDBRANCH   7   8
ENDBRANCH   6   7
ENDBRANCH   5   6
ENDBRANCH   4   5
ENDBRANCH   3   4
ENDBRANCH   2   3
ENDBRANCH   1   2
BRANCH   1  28
ATOM     28  C   UNL     1      -5.024   0.134   1.684  1.00  0.00     0.188 C 
BRANCH  28  29
ATOM     29  C   UNL     1      -5.728  -0.084   3.036  1.00  0.00     0.188 C 
BRANCH  29  30
ATOM     30  O   UNL     1      -4.994   0.353   4.177  1.00  0.00    -0.376 OA
BRANCH  30  31
ATOM     31  C   UNL     1      -4.253  -0.612   4.912  1.00  0.00     0.202 C 
BRANCH  31  32
ATOM     32  C   UNL     1      -2.981  -1.167   4.253  1.00  0.00     0.261 C 
BRANCH  32  33
ATOM     33  O   UNL     1      -3.161  -1.871   3.018  1.00  0.00    -0.460 OA
BRANCH  33  34
ATOM     34  C   UNL     1      -3.995  -2.933   3.003  1.00  0.00     0.338 C 
ATOM     35  O   UNL     1      -4.606  -3.406   3.946  1.00  0.00    -0.246 OA
BRANCH  34  36
ATOM     36  C   UNL     1      -4.188  -3.316   1.591  1.00  0.00     0.060 A 
ATOM     37  C   UNL     1      -5.468  -3.242   1.026  1.00  0.00     0.016 A 
ATOM     38  C   UNL     1      -3.092  -3.707   0.822  1.00  0.00     0.016 A 
ATOM     39  C   UNL     1      -5.657  -3.582  -0.315  1.00  0.00     0.010 A 
ATOM     40  C   UNL     1      -3.285  -4.064  -0.512  1.00  0.00     0.010 A 
ATOM     41  C   UNL     1      -4.572  -4.032  -1.078  1.00  0.00    -0.014 A 
BRANCH  41  42
ATOM     42  C   UNL     1      -4.792  -4.672  -2.396  1.00  0.00     0.031 A 
ATOM     43  C   UNL     1      -4.825  -6.174  -2.451  1.00  0.00     0.074 A 
ATOM     44  C   UNL     1      -4.909  -3.946  -3.522  1.00  0.00     0.049 A 
ATOM     45  N   UNL     1      -4.881  -6.966  -3.488  1.00  0.00    -0.248 NA
ATOM     46  C   UNL     1      -4.774  -6.876  -1.157  1.00  0.00     0.031 C 
ATOM     47  C   UNL     1      -4.904  -2.487  -3.595  1.00  0.00     0.029 A 
ATOM     48  N   UNL     1      -5.015  -4.351  -4.830  1.00  0.00    -0.354 N 
ATOM     49  C   UNL     1      -4.834  -8.257  -2.977  1.00  0.00     0.074 A 
ATOM     50  C   UNL     1      -4.738  -8.144  -1.538  1.00  0.00     0.031 C 
ATOM     51  C   UNL     1      -4.966  -2.117  -4.887  1.00  0.00     0.029 A 
ATOM     52  C   UNL     1      -4.979  -3.312  -5.730  1.00  0.00     0.049 A 
ATOM     53  H   UNL     1      -5.109  -5.294  -5.098  1.00  0.00     0.167 HD
ATOM     54  C   UNL     1      -4.873  -9.434  -3.643  1.00  0.00     0.034 A 
ATOM     55  C   UNL     1      -4.927  -3.329  -7.078  1.00  0.00     0.034 A 
ATOM     56  C   UNL     1      -4.976  -9.543  -5.072  1.00  0.00     0.049 A 
ATOM     57  C   UNL     1      -4.935  -4.654  -7.800  1.00  0.00     0.074 A 
ATOM     58  C   UNL     1      -5.065 -10.689  -5.842  1.00  0.00     0.029 A 
ATOM     59  N   UNL     1      -4.986  -8.469  -5.948  1.00  0.00    -0.354 N 
ATOM     60  N   UNL     1      -4.995  -5.867  -7.304  1.00  0.00    -0.248 NA
ATOM     61  C   UNL     1      -4.895  -4.612  -9.270  1.00  0.00     0.031 C 
ATOM     62  C   UNL     1      -5.092 -10.308  -7.187  1.00  0.00     0.029 A 
ATOM     63  C   UNL     1      -5.066  -8.924  -7.252  1.00  0.00     0.049 A 
ATOM     64  H   UNL     1      -4.943  -7.522  -5.681  1.00  0.00     0.167 HD
ATOM     65  C   UNL     1      -5.047  -6.726  -8.397  1.00  0.00     0.074 A 
ATOM     66  C   UNL     1      -5.023  -5.895  -9.582  1.00  0.00     0.031 C 
ATOM     67  C   UNL     1      -5.101  -8.081  -8.420  1.00  0.00     0.034 A 
BRANCH  54  68
ATOM     68  C   UNL     1      -4.809 -10.699  -2.830  1.00  0.00     0.023 A 
ATOM     69  C   UNL     1      -5.911 -11.082  -2.039  1.00  0.00     0.012 A 
ATOM     70  C   UNL     1      -3.673 -11.529  -2.883  1.00  0.00     0.148 A 
ATOM     71  C   UNL     1      -5.871 -12.255  -1.287  1.00  0.00     0.002 A 
ATOM     72  C   UNL     1      -3.659 -12.721  -2.170  1.00  0.00     0.091 A 
ATOM     73  F   UNL     1      -2.626 -11.134  -3.621  1.00  0.00    -0.205 F 
ATOM     74  C   UNL     1      -4.751 -13.079  -1.361  1.00  0.00     0.022 A 
BRANCH  72  75
ATOM     75  S   UNL     1      -2.298 -13.888  -2.262  1.00  0.00     0.127 S 
ATOM     76  O   UNL     1      -1.726 -13.780  -0.921  1.00  0.00    -0.237 OA
ATOM     77  O   UNL     1      -2.993 -15.148  -2.529  1.00  0.00    -0.237 OA
ATOM     78  O   UNL     1      -1.442 -13.424  -3.345  1.00  0.00    -0.744 OA
ENDBRANCH  72  75
ENDBRANCH  54  68
BRANCH  55  79
ATOM     79  C   UNL     1      -4.880  -2.050  -7.844  1.00  0.00     0.023 A 
ATOM     80  C   UNL     1      -5.980  -1.676  -8.640  1.00  0.00     0.012 A 
ATOM     81  C   UNL     1      -3.753  -1.207  -7.791  1.00  0.00     0.148 A 
ATOM     82  C   UNL     1      -5.946  -0.504  -9.397  1.00  0.00     0.002 A 
ATOM     83  C   UNL     1      -3.748  -0.012  -8.502  1.00  0.00     0.091 A 
ATOM     84  F   UNL     1      -2.710  -1.588  -7.041  1.00  0.00    -0.205 F 
ATOM     85  C   UNL     1      -4.835   0.332  -9.321  1.00  0.00     0.022 A 
BRANCH  83  86
ATOM     86  S   UNL     1      -2.417   1.186  -8.370  1.00  0.00     0.127 S 
ATOM     87  O   UNL     1      -1.837   1.137  -9.710  1.00  0.00    -0.237 OA
ATOM     88  O   UNL     1      -3.150   2.413  -8.059  1.00  0.00    -0.237 OA
ATOM     89  O   UNL     1      -1.560   0.706  -7.294  1.00  0.00    -0.744 OA
ENDBRANCH  83  86
ENDBRANCH  55  79
BRANCH  67  90
ATOM     90  C   UNL     1      -5.205  -8.763  -9.761  1.00  0.00     0.023 A 
ATOM     91  C   UNL     1      -4.094  -8.802 -10.625  1.00  0.00     0.012 A 
ATOM     92  C   UNL     1      -6.387  -9.442 -10.122  1.00  0.00     0.148 A 
ATOM     93  C   UNL     1      -4.169  -9.479 -11.843  1.00  0.00     0.002 A 
ATOM     94  C   UNL     1      -6.436 -10.159 -11.311  1.00  0.00     0.091 A 
ATOM     95  F   UNL     1      -7.439  -9.380  -9.292  1.00  0.00    -0.205 F 
ATOM     96  C   UNL     1      -5.333 -10.167 -12.179  1.00  0.00     0.022 A 
BRANCH  94  97
ATOM     97  S   UNL     1      -7.854 -11.158 -11.777  1.00  0.00     0.127 S 
ATOM     98  O   UNL     1      -8.402 -10.393 -12.896  1.00  0.00    -0.237 OA
ATOM     99  O   UNL     1      -7.229 -12.426 -12.153  1.00  0.00    -0.237 OA
ATOM    100  O   UNL     1      -8.704 -11.229 -10.596  1.00  0.00    -0.744 OA
ENDBRANCH  94  97
ENDBRANCH  67  90
ENDBRANCH  41  42
ENDBRANCH  34  36
ENDBRANCH  33  34
ENDBRANCH  32  33
ENDBRANCH  31  32
ENDBRANCH  30  31
ENDBRANCH  29  30
ENDBRANCH  28  29
ENDBRANCH   1  28
TORSDOF 27
