REMARK SMILES CC[C@@H](C)N1C(=O)c2ccc(C(=O)OCCOCCOCCOCCOC(=O)c3ccc(-c4c5nc(c(-c6cccc(S(=O)(=O)[O-])c6F)c6ccc([nH]6)c(-c6cccc(S(=O)(=O)[O-])c6F)c6nc(c(-c7cccc(S(=O)(=O)[O-])c7F)c7ccc4[nH]7)C=C6)C=C5)cc3)cc2S1(=O)=O
REMARK SMILES IDX 21 1 20 2 19 3 18 4 17 5 16 6 15 7 14 8 12 9 13 10 11 11
REMARK SMILES IDX 5 12 6 13 94 14 7 15 8 16 93 17 95 18 96 19 9 20 92 21 10 22
REMARK SMILES IDX 3 23 4 24 2 25 1 26 22 27 23 28 24 29 25 30 26 31 27 32
REMARK SMILES IDX 28 33 29 34 30 35 91 36 31 37 90 38 32 39 33 40 34 41 84 42
REMARK SMILES IDX 35 43 89 44 83 45 85 46 36 47 88 48 82 49 81 50 37 52 69 53
REMARK SMILES IDX 49 54 68 55 50 56 53 57 67 58 86 59 51 60 52 61 66 63 87 64
REMARK SMILES IDX 54 65 38 66 39 67 47 68 40 69 42 70 48 71 41 72 43 73 44 74
REMARK SMILES IDX 45 75 46 76 70 77 71 78 79 79 72 80 74 81 80 82 73 83 75 84
REMARK SMILES IDX 76 85 77 86 78 87 55 88 56 89 64 90 57 91 59 92 65 93 58 94
REMARK SMILES IDX 60 95 61 96 62 97 63 98
REMARK H PARENT 85 51 53 62
REMARK Flexibility Score: inf
ROOT
ATOM      1  C   UNL     1       1.524   8.826   8.586  1.00  0.00     0.188 C 
ENDROOT
BRANCH   1   2
ATOM      2  O   UNL     1       0.953   7.940   7.622  1.00  0.00    -0.377 OA
BRANCH   2   3
ATOM      3  C   UNL     1       1.464   7.933   6.302  1.00  0.00     0.188 C 
BRANCH   3   4
ATOM      4  C   UNL     1       1.138   9.189   5.474  1.00  0.00     0.188 C 
BRANCH   4   5
ATOM      5  O   UNL     1       0.708  10.283   6.268  1.00  0.00    -0.376 OA
BRANCH   5   6
ATOM      6  C   UNL     1      -0.675  10.591   6.330  1.00  0.00     0.202 C 
BRANCH   6   7
ATOM      7  C   UNL     1      -1.699   9.527   6.764  1.00  0.00     0.261 C 
BRANCH   7   8
ATOM      8  O   UNL     1      -1.544   8.219   6.205  1.00  0.00    -0.460 OA
BRANCH   8   9
ATOM      9  C   UNL     1      -1.851   8.049   4.906  1.00  0.00     0.338 C 
ATOM     10  O   UNL     1      -2.260   8.891   4.127  1.00  0.00    -0.246 OA
BRANCH   9  11
ATOM     11  C   UNL     1      -1.376   6.701   4.508  1.00  0.00     0.061 A 
ATOM     12  N   UNL     1       0.417   3.246   1.724  1.00  0.00    -0.229 N 
ATOM     13  C   UNL     1      -0.032   2.958   3.049  1.00  0.00     0.269 C 
ATOM     14  S   UNL     1       0.628   4.919   1.498  1.00  0.00     0.267 S 
ATOM     15  O   UNL     1      -0.121   1.860   3.570  1.00  0.00    -0.268 OA
ATOM     16  C   UNL     1      -0.450   4.204   3.720  1.00  0.00     0.061 A 
ATOM     17  C   UNL     1      -0.209   5.334   2.957  1.00  0.00     0.101 A 
ATOM     18  O   UNL     1       2.019   5.245   1.656  1.00  0.00    -0.201 OA
ATOM     19  O   UNL     1      -0.182   5.383   0.388  1.00  0.00    -0.201 OA
ATOM     20  C   UNL     1      -1.101   4.309   4.940  1.00  0.00     0.016 A 
ATOM     21  C   UNL     1      -0.682   6.587   3.298  1.00  0.00     0.038 A 
ATOM     22  C   UNL     1      -1.555   5.574   5.342  1.00  0.00     0.016 A 
BRANCH  12  23
ATOM     23  C   UNL     1       1.010   2.310   0.720  1.00  0.00     0.100 C 
ATOM     24  C   UNL     1       0.588   2.711  -0.700  1.00  0.00     0.032 C 
BRANCH  23  25
ATOM     25  C   UNL     1       0.609   0.848   1.009  1.00  0.00     0.023 C 
ATOM     26  C   UNL     1       1.119  -0.176   0.002  1.00  0.00     0.006 C 
ENDBRANCH  23  25
ENDBRANCH  12  23
ENDBRANCH   9  11
ENDBRANCH   8   9
ENDBRANCH   7   8
ENDBRANCH   6   7
ENDBRANCH   5   6
ENDBRANCH   4   5
ENDBRANCH   3   4
ENDBRANCH   2   3
ENDBRANCH   1   2
BRANCH   1  27
ATOM     27  C   UNL     1       2.625   9.859   8.236  1.00  0.00     0.188 C 
BRANCH  27  28
ATOM     28  O   UNL     1       3.492   9.483   7.174  1.00  0.00    -0.376 OA
BRANCH  28  29
ATOM     29  C   UNL     1       4.817   9.115   7.518  1.00  0.00     0.202 C 
BRANCH  29  30
ATOM     30  C   UNL     1       4.948   7.761   8.227  1.00  0.00     0.261 C 
BRANCH  30  31
ATOM     31  O   UNL     1       4.263   7.659   9.483  1.00  0.00    -0.460 OA
BRANCH  31  32
ATOM     32  C   UNL     1       4.648   8.505  10.465  1.00  0.00     0.338 C 
ATOM     33  O   UNL     1       5.541   9.331  10.417  1.00  0.00    -0.246 OA
BRANCH  32  34
ATOM     34  C   UNL     1       3.668   8.389  11.563  1.00  0.00     0.060 A 
ATOM     35  C   UNL     1       2.970   9.532  11.974  1.00  0.00     0.016 A 
ATOM     36  C   UNL     1       3.439   7.156  12.175  1.00  0.00     0.016 A 
ATOM     37  C   UNL     1       2.066   9.450  13.033  1.00  0.00     0.010 A 
ATOM     38  C   UNL     1       2.546   7.078  13.245  1.00  0.00     0.010 A 
ATOM     39  C   UNL     1       1.884   8.232  13.702  1.00  0.00    -0.014 A 
BRANCH  39  40
ATOM     40  C   UNL     1       1.160   8.199  14.995  1.00  0.00     0.031 A 
ATOM     41  C   UNL     1       1.969   8.215  16.263  1.00  0.00     0.074 A 
ATOM     42  C   UNL     1      -0.182   8.142  15.046  1.00  0.00     0.049 A 
ATOM     43  N   UNL     1       1.566   8.152  17.504  1.00  0.00    -0.248 NA
ATOM     44  C   UNL     1       3.431   8.310  16.108  1.00  0.00     0.031 C 
ATOM     45  C   UNL     1      -1.074   8.124  13.889  1.00  0.00     0.029 A 
ATOM     46  N   UNL     1      -1.026   8.062  16.126  1.00  0.00    -0.354 N 
ATOM     47  C   UNL     1       2.721   8.170  18.277  1.00  0.00     0.074 A 
ATOM     48  C   UNL     1       3.842   8.237  17.365  1.00  0.00     0.031 C 
ATOM     49  C   UNL     1      -2.342   8.006  14.320  1.00  0.00     0.029 A 
ATOM     50  C   UNL     1      -2.349   7.916  15.779  1.00  0.00     0.049 A 
ATOM     51  H   UNL     1      -0.715   8.104  17.058  1.00  0.00     0.167 HD
ATOM     52  C   UNL     1       2.841   8.147  19.625  1.00  0.00     0.034 A 
ATOM     53  C   UNL     1      -3.434   7.709  16.553  1.00  0.00     0.034 A 
ATOM     54  C   UNL     1       1.726   8.091  20.530  1.00  0.00     0.049 A 
ATOM     55  C   UNL     1      -3.272   7.658  18.052  1.00  0.00     0.074 A 
ATOM     56  C   UNL     1       1.741   8.110  21.913  1.00  0.00     0.029 A 
ATOM     57  N   UNL     1       0.399   7.987  20.144  1.00  0.00    -0.354 N 
ATOM     58  N   UNL     1      -2.186   7.798  18.773  1.00  0.00    -0.248 NA
ATOM     59  C   UNL     1      -4.493   7.452  18.846  1.00  0.00     0.031 C 
ATOM     60  C   UNL     1       0.423   7.983  22.364  1.00  0.00     0.029 A 
ATOM     61  C   UNL     1      -0.415   7.926  21.262  1.00  0.00     0.049 A 
ATOM     62  H   UNL     1       0.082   7.961  19.212  1.00  0.00     0.167 HD
ATOM     63  C   UNL     1      -2.596   7.739  20.101  1.00  0.00     0.074 A 
ATOM     64  C   UNL     1      -4.034   7.567  20.085  1.00  0.00     0.031 C 
ATOM     65  C   UNL     1      -1.850   7.809  21.232  1.00  0.00     0.034 A 
BRANCH  52  66
ATOM     66  C   UNL     1       4.230   8.196  20.202  1.00  0.00     0.023 A 
ATOM     67  C   UNL     1       4.974   9.392  20.138  1.00  0.00     0.012 A 
ATOM     68  C   UNL     1       4.781   7.073  20.848  1.00  0.00     0.148 A 
ATOM     69  C   UNL     1       6.257   9.460  20.679  1.00  0.00     0.002 A 
ATOM     70  C   UNL     1       6.042   7.162  21.426  1.00  0.00     0.091 A 
ATOM     71  F   UNL     1       4.068   5.938  20.876  1.00  0.00    -0.205 F 
ATOM     72  C   UNL     1       6.785   8.349  21.331  1.00  0.00     0.022 A 
BRANCH  70  73
ATOM     73  S   UNL     1       6.777   5.813  22.356  1.00  0.00     0.127 S 
ATOM     74  O   UNL     1       7.863   5.400  21.468  1.00  0.00    -0.237 OA
ATOM     75  O   UNL     1       7.213   6.487  23.580  1.00  0.00    -0.237 OA
ATOM     76  O   UNL     1       5.719   4.831  22.546  1.00  0.00    -0.744 OA
ENDBRANCH  70  73
ENDBRANCH  52  66
BRANCH  53  77
ATOM     77  C   UNL     1      -4.780   7.561  15.929  1.00  0.00     0.023 A 
ATOM     78  C   UNL     1      -5.753   8.560  16.126  1.00  0.00     0.012 A 
ATOM     79  C   UNL     1      -5.099   6.438  15.140  1.00  0.00     0.148 A 
ATOM     80  C   UNL     1      -7.030   8.427  15.577  1.00  0.00     0.002 A 
ATOM     81  C   UNL     1      -6.353   6.340  14.549  1.00  0.00     0.091 A 
ATOM     82  F   UNL     1      -4.165   5.490  14.979  1.00  0.00    -0.205 F 
ATOM     83  C   UNL     1      -7.326   7.324  14.781  1.00  0.00     0.022 A 
BRANCH  81  84
ATOM     84  S   UNL     1      -6.781   5.022  13.407  1.00  0.00     0.127 S 
ATOM     85  O   UNL     1      -7.775   4.274  14.172  1.00  0.00    -0.237 OA
ATOM     86  O   UNL     1      -7.314   5.772  12.269  1.00  0.00    -0.237 OA
ATOM     87  O   UNL     1      -5.536   4.318  13.131  1.00  0.00    -0.744 OA
ENDBRANCH  81  84
ENDBRANCH  53  77
BRANCH  65  88
ATOM     88  C   UNL     1      -2.570   7.750  22.556  1.00  0.00     0.023 A 
ATOM     89  C   UNL     1      -3.133   6.538  23.001  1.00  0.00     0.012 A 
ATOM     90  C   UNL     1      -2.616   8.882  23.395  1.00  0.00     0.148 A 
ATOM     91  C   UNL     1      -3.761   6.463  24.244  1.00  0.00     0.002 A 
ATOM     92  C   UNL     1      -3.197   8.786  24.654  1.00  0.00     0.091 A 
ATOM     93  F   UNL     1      -2.089  10.031  22.948  1.00  0.00    -0.205 F 
ATOM     94  C   UNL     1      -3.782   7.581  25.075  1.00  0.00     0.022 A 
BRANCH  92  95
ATOM     95  S   UNL     1      -3.182  10.145  25.829  1.00  0.00     0.127 S 
ATOM     96  O   UNL     1      -4.585  10.554  25.829  1.00  0.00    -0.237 OA
ATOM     97  O   UNL     1      -2.738   9.486  27.058  1.00  0.00    -0.237 OA
ATOM     98  O   UNL     1      -2.245  11.126  25.297  1.00  0.00    -0.744 OA
ENDBRANCH  92  95
ENDBRANCH  65  88
ENDBRANCH  39  40
ENDBRANCH  32  34
ENDBRANCH  31  32
ENDBRANCH  30  31
ENDBRANCH  29  30
ENDBRANCH  28  29
ENDBRANCH  27  28
ENDBRANCH   1  27
TORSDOF 25
