REMARK SMILES C=C(C)COc1ccc2c(C)c(CC(=O)OCCOCCOCCOCCOC(=O)c3ccc(-c4c5nc(c(-c6cccc(S(=O)(=O)[O-])c6F)c6ccc([nH]6)c(-c6cccc(S(=O)(=O)[O-])c6F)c6nc(c(-c7cccc(S(=O)(=O)[O-])c7F)c7ccc4[nH]7)C=C6)C=C5)cc3)c(=O)oc2c1
REMARK SMILES IDX 21 1 20 2 19 3 18 4 17 5 16 6 14 7 15 8 13 9 12 10 6 11 7 12
REMARK SMILES IDX 98 13 8 14 97 15 9 16 96 17 10 18 94 19 11 20 95 21 5 22
REMARK SMILES IDX 4 23 2 24 1 25 3 26 22 27 23 28 24 29 25 30 26 31 27 32
REMARK SMILES IDX 28 33 29 34 30 35 31 36 32 37 93 38 33 39 92 40 34 41 35 42
REMARK SMILES IDX 36 43 86 44 37 45 91 46 85 47 87 48 38 49 90 50 84 51 83 52
REMARK SMILES IDX 39 54 71 55 51 56 70 57 52 58 55 59 69 60 88 61 53 62 54 63
REMARK SMILES IDX 68 65 89 66 56 67 40 68 41 69 49 70 42 71 44 72 50 73 43 74
REMARK SMILES IDX 45 75 46 76 47 77 48 78 72 79 73 80 81 81 74 82 76 83 82 84
REMARK SMILES IDX 75 85 77 86 78 87 79 88 80 89 57 90 58 91 66 92 59 93 61 94
REMARK SMILES IDX 67 95 60 96 62 97 63 98 64 99 65 100
REMARK H PARENT 87 53 55 64
REMARK Flexibility Score: inf
ROOT
ATOM      1  C   UNL     1       0.392   6.490   5.067  1.00  0.00     0.188 C 
ENDROOT
BRANCH   1   2
ATOM      2  C   UNL     1      -0.385   7.719   5.584  1.00  0.00     0.188 C 
BRANCH   2   3
ATOM      3  O   UNL     1      -0.326   8.070   6.959  1.00  0.00    -0.376 OA
BRANCH   3   4
ATOM      4  C   UNL     1      -0.296   7.047   7.944  1.00  0.00     0.202 C 
BRANCH   4   5
ATOM      5  C   UNL     1      -1.220   5.810   7.856  1.00  0.00     0.261 C 
BRANCH   5   6
ATOM      6  O   UNL     1      -1.743   5.460   6.558  1.00  0.00    -0.463 OA
BRANCH   6   7
ATOM      7  C   UNL     1      -3.003   5.862   6.269  1.00  0.00     0.310 C 
ATOM      8  O   UNL     1      -3.723   6.477   7.052  1.00  0.00    -0.252 OA
BRANCH   7   9
ATOM      9  C   UNL     1      -3.464   5.564   4.833  1.00  0.00     0.166 C 
BRANCH   9  10
ATOM     10  C   UNL     1      -2.497   4.991   3.805  1.00  0.00     0.052 A 
ATOM     11  C   UNL     1       0.859   3.446   0.322  1.00  0.00     0.123 A 
ATOM     12  C   UNL     1       0.696   4.805   0.083  1.00  0.00     0.047 A 
ATOM     13  C   UNL     1       0.193   2.845   1.383  1.00  0.00     0.094 A 
ATOM     14  C   UNL     1      -0.205   5.545   0.866  1.00  0.00     0.016 A 
ATOM     15  C   UNL     1      -0.709   3.592   2.139  1.00  0.00     0.142 A 
ATOM     16  C   UNL     1      -0.942   4.943   1.905  1.00  0.00     0.021 A 
ATOM     17  O   UNL     1      -1.387   2.897   3.150  1.00  0.00    -0.422 OA
ATOM     18  C   UNL     1      -1.897   5.661   2.787  1.00  0.00    -0.029 A 
ATOM     19  C   UNL     1      -2.300   3.522   3.976  1.00  0.00     0.340 A 
ATOM     20  C   UNL     1      -2.061   7.137   2.520  1.00  0.00     0.046 C 
ATOM     21  O   UNL     1      -2.958   2.887   4.793  1.00  0.00    -0.246 OA
BRANCH  11  22
ATOM     22  O   UNL     1       1.726   2.721  -0.449  1.00  0.00    -0.489 OA
BRANCH  22  23
ATOM     23  C   UNL     1       1.046   1.996  -1.491  1.00  0.00     0.260 C 
BRANCH  23  24
ATOM     24  C   UNL     1       0.351   0.753  -0.977  1.00  0.00    -0.043 C 
ATOM     25  C   UNL     1       1.028  -0.251  -0.393  1.00  0.00     0.011 C 
ATOM     26  C   UNL     1      -1.147   0.731  -1.097  1.00  0.00     0.042 C 
ENDBRANCH  23  24
ENDBRANCH  22  23
ENDBRANCH  11  22
ENDBRANCH   9  10
ENDBRANCH   7   9
ENDBRANCH   6   7
ENDBRANCH   5   6
ENDBRANCH   4   5
ENDBRANCH   3   4
ENDBRANCH   2   3
ENDBRANCH   1   2
BRANCH   1  27
ATOM     27  O   UNL     1       1.227   5.880   6.020  1.00  0.00    -0.377 OA
BRANCH  27  28
ATOM     28  C   UNL     1       2.579   6.286   6.082  1.00  0.00     0.188 C 
BRANCH  28  29
ATOM     29  C   UNL     1       2.981   7.731   5.726  1.00  0.00     0.188 C 
BRANCH  29  30
ATOM     30  O   UNL     1       2.202   8.348   4.710  1.00  0.00    -0.376 OA
BRANCH  30  31
ATOM     31  C   UNL     1       2.794   8.591   3.445  1.00  0.00     0.202 C 
BRANCH  31  32
ATOM     32  C   UNL     1       2.989   7.371   2.532  1.00  0.00     0.261 C 
BRANCH  32  33
ATOM     33  O   UNL     1       3.640   6.254   3.144  1.00  0.00    -0.460 OA
BRANCH  33  34
ATOM     34  C   UNL     1       4.966   6.386   3.349  1.00  0.00     0.338 C 
ATOM     35  O   UNL     1       5.656   7.357   3.071  1.00  0.00    -0.246 OA
BRANCH  34  36
ATOM     36  C   UNL     1       5.415   5.245   4.165  1.00  0.00     0.060 A 
ATOM     37  C   UNL     1       5.915   5.513   5.445  1.00  0.00     0.016 A 
ATOM     38  C   UNL     1       5.299   3.929   3.705  1.00  0.00     0.016 A 
ATOM     39  C   UNL     1       6.315   4.465   6.266  1.00  0.00     0.010 A 
ATOM     40  C   UNL     1       5.737   2.879   4.518  1.00  0.00     0.010 A 
ATOM     41  C   UNL     1       6.269   3.149   5.791  1.00  0.00    -0.014 A 
BRANCH  41  42
ATOM     42  C   UNL     1       6.960   2.102   6.575  1.00  0.00     0.031 A 
ATOM     43  C   UNL     1       8.385   1.776   6.226  1.00  0.00     0.074 A 
ATOM     44  C   UNL     1       6.359   1.513   7.624  1.00  0.00     0.049 A 
ATOM     45  N   UNL     1       9.221   0.971   6.824  1.00  0.00    -0.248 NA
ATOM     46  C   UNL     1       8.945   2.461   5.048  1.00  0.00     0.031 C 
ATOM     47  C   UNL     1       4.987   1.763   8.062  1.00  0.00     0.029 A 
ATOM     48  N   UNL     1       6.833   0.578   8.508  1.00  0.00    -0.354 N 
ATOM     49  C   UNL     1      10.399   1.038   6.091  1.00  0.00     0.074 A 
ATOM     50  C   UNL     1      10.167   1.952   4.995  1.00  0.00     0.031 C 
ATOM     51  C   UNL     1       4.722   0.983   9.125  1.00  0.00     0.029 A 
ATOM     52  C   UNL     1       5.898   0.169   9.428  1.00  0.00     0.049 A 
ATOM     53  H   UNL     1       7.754   0.232   8.485  1.00  0.00     0.167 HD
ATOM     54  C   UNL     1      11.572   0.403   6.317  1.00  0.00     0.034 A 
ATOM     55  C   UNL     1       5.982  -0.769  10.393  1.00  0.00     0.034 A 
ATOM     56  C   UNL     1      11.794  -0.510   7.405  1.00  0.00     0.049 A 
ATOM     57  C   UNL     1       7.290  -1.490  10.598  1.00  0.00     0.074 A 
ATOM     58  C   UNL     1      12.955  -1.182   7.741  1.00  0.00     0.029 A 
ATOM     59  N   UNL     1      10.827  -0.899   8.320  1.00  0.00    -0.354 N 
ATOM     60  N   UNL     1       8.431  -1.331   9.970  1.00  0.00    -0.248 NA
ATOM     61  C   UNL     1       7.331  -2.493  11.671  1.00  0.00     0.031 C 
ATOM     62  C   UNL     1      12.678  -2.011   8.833  1.00  0.00     0.029 A 
ATOM     63  C   UNL     1      11.358  -1.818   9.209  1.00  0.00     0.049 A 
ATOM     64  H   UNL     1       9.899  -0.569   8.336  1.00  0.00     0.167 HD
ATOM     65  C   UNL     1       9.332  -2.190  10.591  1.00  0.00     0.074 A 
ATOM     66  C   UNL     1       8.610  -2.841  11.665  1.00  0.00     0.031 C 
ATOM     67  C   UNL     1      10.634  -2.432  10.293  1.00  0.00     0.034 A 
BRANCH  54  68
ATOM     68  C   UNL     1      12.705   0.674   5.362  1.00  0.00     0.023 A 
ATOM     69  C   UNL     1      13.354   1.926   5.375  1.00  0.00     0.012 A 
ATOM     70  C   UNL     1      13.154  -0.328   4.481  1.00  0.00     0.148 A 
ATOM     71  C   UNL     1      14.411   2.187   4.504  1.00  0.00     0.002 A 
ATOM     72  C   UNL     1      14.239  -0.078   3.650  1.00  0.00     0.091 A 
ATOM     73  F   UNL     1      12.507  -1.502   4.466  1.00  0.00    -0.205 F 
ATOM     74  C   UNL     1      14.860   1.182   3.650  1.00  0.00     0.022 A 
BRANCH  72  75
ATOM     75  S   UNL     1      14.942  -1.329   2.571  1.00  0.00     0.127 S 
ATOM     76  O   UNL     1      14.614  -0.797   1.249  1.00  0.00    -0.237 OA
ATOM     77  O   UNL     1      16.362  -1.268   2.918  1.00  0.00    -0.237 OA
ATOM     78  O   UNL     1      14.282  -2.580   2.919  1.00  0.00    -0.744 OA
ENDBRANCH  72  75
ENDBRANCH  54  68
BRANCH  55  79
ATOM     79  C   UNL     1       4.801  -1.072  11.249  1.00  0.00     0.023 A 
ATOM     80  C   UNL     1       4.829  -0.765  12.624  1.00  0.00     0.012 A 
ATOM     81  C   UNL     1       3.649  -1.672  10.704  1.00  0.00     0.148 A 
ATOM     82  C   UNL     1       3.746  -1.082  13.445  1.00  0.00     0.002 A 
ATOM     83  C   UNL     1       2.552  -1.931  11.516  1.00  0.00     0.091 A 
ATOM     84  F   UNL     1       3.649  -1.974   9.398  1.00  0.00    -0.205 F 
ATOM     85  C   UNL     1       2.605  -1.655  12.891  1.00  0.00     0.022 A 
BRANCH  83  86
ATOM     86  S   UNL     1       0.998  -2.555  10.867  1.00  0.00     0.127 S 
ATOM     87  O   UNL     1       0.946  -3.893  11.453  1.00  0.00    -0.237 OA
ATOM     88  O   UNL     1       0.039  -1.601  11.422  1.00  0.00    -0.237 OA
ATOM     89  O   UNL     1       1.129  -2.507   9.418  1.00  0.00    -0.744 OA
ENDBRANCH  83  86
ENDBRANCH  55  79
BRANCH  67  90
ATOM     90  C   UNL     1      11.371  -3.420  11.163  1.00  0.00     0.023 A 
ATOM     91  C   UNL     1      11.043  -4.790  11.111  1.00  0.00     0.012 A 
ATOM     92  C   UNL     1      12.418  -2.994  12.005  1.00  0.00     0.148 A 
ATOM     93  C   UNL     1      11.705  -5.710  11.923  1.00  0.00     0.002 A 
ATOM     94  C   UNL     1      13.112  -3.925  12.769  1.00  0.00     0.091 A 
ATOM     95  F   UNL     1      12.709  -1.686  12.053  1.00  0.00    -0.205 F 
ATOM     96  C   UNL     1      12.744  -5.279  12.744  1.00  0.00     0.022 A 
BRANCH  94  97
ATOM     97  S   UNL     1      14.529  -3.477  13.777  1.00  0.00     0.127 S 
ATOM     98  O   UNL     1      13.976  -3.571  15.127  1.00  0.00    -0.237 OA
ATOM     99  O   UNL     1      15.494  -4.524  13.438  1.00  0.00    -0.237 OA
ATOM    100  O   UNL     1      14.917  -2.139  13.352  1.00  0.00    -0.744 OA
ENDBRANCH  94  97
ENDBRANCH  67  90
ENDBRANCH  41  42
ENDBRANCH  34  36
ENDBRANCH  33  34
ENDBRANCH  32  33
ENDBRANCH  31  32
ENDBRANCH  30  31
ENDBRANCH  29  30
ENDBRANCH  28  29
ENDBRANCH  27  28
ENDBRANCH   1  27
TORSDOF 27
