REMARK SMILES CC[C@H]1CCCCN1S(=O)(=O)c1ccc2oc(C(=O)OCCOCCOCCOCCOC(=O)c3ccc(-c4c5nc(c(-c6cccc(S(=O)(=O)[O-])c6F)c6ccc([nH]6)c(-c6cccc(S(=O)(=O)[O-])c6F)c6nc(c(-c7cccc(S(=O)(=O)[O-])c7F)c7ccc4[nH]7)C=C6)C=C5)cc3)c(C)c2c1
REMARK SMILES IDX 26 1 25 2 24 3 23 4 22 5 21 6 20 7 18 8 19 9 17 10 12 11
REMARK SMILES IDX 13 12 101 13 14 14 100 15 15 16 98 17 16 18 99 19 9 20 10 21
REMARK SMILES IDX 11 22 8 23 3 24 4 25 5 26 7 27 6 28 2 29 1 30 27 31 28 32
REMARK SMILES IDX 29 33 30 34 31 35 32 36 33 37 34 38 35 39 36 40 97 41 37 42
REMARK SMILES IDX 96 43 38 44 39 45 40 46 90 47 41 48 95 49 89 50 91 51 42 52
REMARK SMILES IDX 94 53 88 54 87 55 43 57 75 58 55 59 74 60 56 61 59 62 73 63
REMARK SMILES IDX 92 64 57 65 58 66 72 68 93 69 60 70 44 71 45 72 53 73 46 74
REMARK SMILES IDX 48 75 54 76 47 77 49 78 50 79 51 80 52 81 76 82 77 83 85 84
REMARK SMILES IDX 78 85 80 86 86 87 79 88 81 89 82 90 83 91 84 92 61 93 62 94
REMARK SMILES IDX 70 95 63 96 65 97 71 98 64 99 66 100 67 101 68 102 69 103
REMARK H PARENT 91 56 59 67
REMARK Flexibility Score: inf
ROOT
ATOM      1  O   UNL     1      11.514  -3.906  -2.637  1.00  0.00    -0.377 OA
ENDROOT
BRANCH   1   2
ATOM      2  C   UNL     1      11.346  -2.630  -2.037  1.00  0.00     0.188 C 
BRANCH   2   3
ATOM      3  C   UNL     1      12.108  -2.516  -0.706  1.00  0.00     0.188 C 
BRANCH   3   4
ATOM      4  O   UNL     1      13.043  -3.575  -0.495  1.00  0.00    -0.376 OA
BRANCH   4   5
ATOM      5  C   UNL     1      12.651  -4.614   0.397  1.00  0.00     0.202 C 
BRANCH   5   6
ATOM      6  C   UNL     1      11.518  -5.545  -0.062  1.00  0.00     0.261 C 
BRANCH   6   7
ATOM      7  O   UNL     1      10.259  -4.902  -0.296  1.00  0.00    -0.457 OA
BRANCH   7   8
ATOM      8  C   UNL     1       9.659  -4.249   0.725  1.00  0.00     0.374 C 
ATOM      9  O   UNL     1      10.048  -4.270   1.888  1.00  0.00    -0.242 OA
BRANCH   8  10
ATOM     10  C   UNL     1       8.593  -3.426   0.194  1.00  0.00     0.215 A 
ATOM     11  C   UNL     1       5.138  -0.827  -1.264  1.00  0.00     0.083 A 
ATOM     12  C   UNL     1       5.487  -0.120  -0.108  1.00  0.00     0.025 A 
ATOM     13  C   UNL     1       5.946  -1.864  -1.751  1.00  0.00     0.034 A 
ATOM     14  C   UNL     1       6.596  -0.513   0.656  1.00  0.00     0.049 A 
ATOM     15  C   UNL     1       6.966  -2.353  -0.927  1.00  0.00     0.025 A 
ATOM     16  C   UNL     1       7.258  -1.669   0.241  1.00  0.00     0.135 A 
ATOM     17  C   UNL     1       7.829  -3.486  -0.970  1.00  0.00     0.010 A 
ATOM     18  O   UNL     1       8.256  -2.301   0.909  1.00  0.00    -0.449 OA
ATOM     19  C   UNL     1       7.819  -4.523  -2.041  1.00  0.00     0.049 C 
BRANCH  11  20
ATOM     20  S   UNL     1       3.693  -0.396  -2.212  1.00  0.00     0.243 S 
ATOM     21  O   UNL     1       4.125  -0.380  -3.590  1.00  0.00    -0.207 OA
ATOM     22  O   UNL     1       3.123   0.792  -1.605  1.00  0.00    -0.207 OA
BRANCH  20  23
ATOM     23  N   UNL     1       2.577  -1.674  -1.968  1.00  0.00    -0.195 NA
ATOM     24  C   UNL     1       1.147  -1.400  -2.341  1.00  0.00     0.073 C 
ATOM     25  C   UNL     1       0.269  -2.285  -1.426  1.00  0.00     0.020 C 
ATOM     26  C   UNL     1       0.605  -3.773  -1.555  1.00  0.00     0.003 C 
ATOM     27  C   UNL     1       2.964  -3.083  -2.219  1.00  0.00     0.103 C 
ATOM     28  C   UNL     1       2.097  -4.013  -1.367  1.00  0.00     0.017 C 
BRANCH  24  29
ATOM     29  C   UNL     1       0.767  -1.660  -3.817  1.00  0.00     0.017 C 
ATOM     30  C   UNL     1       1.579  -0.954  -4.884  1.00  0.00     0.005 C 
ENDBRANCH  24  29
ENDBRANCH  20  23
ENDBRANCH  11  20
ENDBRANCH   8  10
ENDBRANCH   7   8
ENDBRANCH   6   7
ENDBRANCH   5   6
ENDBRANCH   4   5
ENDBRANCH   3   4
ENDBRANCH   2   3
ENDBRANCH   1   2
BRANCH   1  31
ATOM     31  C   UNL     1      12.570  -4.025  -3.589  1.00  0.00     0.188 C 
BRANCH  31  32
ATOM     32  C   UNL     1      13.912  -3.313  -3.319  1.00  0.00     0.188 C 
BRANCH  32  33
ATOM     33  O   UNL     1      13.784  -1.896  -3.175  1.00  0.00    -0.376 OA
BRANCH  33  34
ATOM     34  C   UNL     1      14.260  -1.108  -4.263  1.00  0.00     0.202 C 
BRANCH  34  35
ATOM     35  C   UNL     1      13.294  -1.046  -5.452  1.00  0.00     0.261 C 
BRANCH  35  36
ATOM     36  O   UNL     1      13.091  -2.295  -6.131  1.00  0.00    -0.460 OA
BRANCH  36  37
ATOM     37  C   UNL     1      14.181  -2.901  -6.651  1.00  0.00     0.338 C 
ATOM     38  O   UNL     1      15.322  -2.478  -6.670  1.00  0.00    -0.246 OA
BRANCH  37  39
ATOM     39  C   UNL     1      13.791  -4.270  -7.036  1.00  0.00     0.060 A 
ATOM     40  C   UNL     1      14.533  -5.352  -6.542  1.00  0.00     0.016 A 
ATOM     41  C   UNL     1      12.709  -4.478  -7.894  1.00  0.00     0.016 A 
ATOM     42  C   UNL     1      14.221  -6.649  -6.949  1.00  0.00     0.010 A 
ATOM     43  C   UNL     1      12.409  -5.772  -8.311  1.00  0.00     0.010 A 
ATOM     44  C   UNL     1      13.188  -6.857  -7.872  1.00  0.00    -0.014 A 
BRANCH  44  45
ATOM     45  C   UNL     1      13.036  -8.160  -8.557  1.00  0.00     0.031 A 
ATOM     46  C   UNL     1      13.697  -8.329  -9.897  1.00  0.00     0.074 A 
ATOM     47  C   UNL     1      12.264  -9.133  -8.043  1.00  0.00     0.049 A 
ATOM     48  N   UNL     1      13.600  -9.314 -10.748  1.00  0.00    -0.248 NA
ATOM     49  C   UNL     1      14.575  -7.232 -10.341  1.00  0.00     0.031 C 
ATOM     50  C   UNL     1      11.573  -9.074  -6.757  1.00  0.00     0.029 A 
ATOM     51  N   UNL     1      11.897 -10.345  -8.570  1.00  0.00    -0.354 N 
ATOM     52  C   UNL     1      14.371  -8.941 -11.842  1.00  0.00     0.074 A 
ATOM     53  C   UNL     1      14.933  -7.642 -11.548  1.00  0.00     0.031 C 
ATOM     54  C   UNL     1      10.825 -10.183  -6.615  1.00  0.00     0.029 A 
ATOM     55  C   UNL     1      10.966 -11.013  -7.811  1.00  0.00     0.049 A 
ATOM     56  H   UNL     1      12.265 -10.702  -9.411  1.00  0.00     0.167 HD
ATOM     57  C   UNL     1      14.597  -9.624 -12.987  1.00  0.00     0.034 A 
ATOM     58  C   UNL     1      10.284 -12.148  -8.070  1.00  0.00     0.034 A 
ATOM     59  C   UNL     1      14.053 -10.921 -13.268  1.00  0.00     0.049 A 
ATOM     60  C   UNL     1      10.551 -12.887  -9.358  1.00  0.00     0.074 A 
ATOM     61  C   UNL     1      14.260 -11.718 -14.379  1.00  0.00     0.029 A 
ATOM     62  N   UNL     1      13.185 -11.608 -12.434  1.00  0.00    -0.354 N 
ATOM     63  N   UNL     1      11.384 -12.586 -10.325  1.00  0.00    -0.248 NA
ATOM     64  C   UNL     1       9.809 -14.138  -9.579  1.00  0.00     0.031 C 
ATOM     65  C   UNL     1      13.504 -12.883 -14.223  1.00  0.00     0.029 A 
ATOM     66  C   UNL     1      12.842 -12.818 -13.007  1.00  0.00     0.049 A 
ATOM     67  H   UNL     1      12.861 -11.282 -11.563  1.00  0.00     0.167 HD
ATOM     68  C   UNL     1      11.300 -13.629 -11.243  1.00  0.00     0.074 A 
ATOM     69  C   UNL     1      10.340 -14.575 -10.714  1.00  0.00     0.031 C 
ATOM     70  C   UNL     1      11.948 -13.784 -12.424  1.00  0.00     0.034 A 
BRANCH  57  71
ATOM     71  C   UNL     1      15.497  -8.993 -14.012  1.00  0.00     0.023 A 
ATOM     72  C   UNL     1      16.889  -8.980 -13.798  1.00  0.00     0.012 A 
ATOM     73  C   UNL     1      14.973  -8.473 -15.211  1.00  0.00     0.148 A 
ATOM     74  C   UNL     1      17.747  -8.439 -14.755  1.00  0.00     0.002 A 
ATOM     75  C   UNL     1      15.837  -7.970 -16.176  1.00  0.00     0.091 A 
ATOM     76  F   UNL     1      13.643  -8.470 -15.379  1.00  0.00    -0.205 F 
ATOM     77  C   UNL     1      17.223  -7.946 -15.947  1.00  0.00     0.022 A 
BRANCH  75  78
ATOM     78  S   UNL     1      15.263  -7.377 -17.771  1.00  0.00     0.127 S 
ATOM     79  O   UNL     1      15.463  -5.935 -17.639  1.00  0.00    -0.237 OA
ATOM     80  O   UNL     1      16.185  -8.038 -18.696  1.00  0.00    -0.237 OA
ATOM     81  O   UNL     1      13.877  -7.809 -17.885  1.00  0.00    -0.744 OA
ENDBRANCH  75  78
ENDBRANCH  57  71
BRANCH  58  82
ATOM     82  C   UNL     1       9.305 -12.675  -7.077  1.00  0.00     0.023 A 
ATOM     83  C   UNL     1       9.596 -13.867  -6.385  1.00  0.00     0.012 A 
ATOM     84  C   UNL     1       8.097 -12.003  -6.806  1.00  0.00     0.148 A 
ATOM     85  C   UNL     1       8.690 -14.396  -5.465  1.00  0.00     0.002 A 
ATOM     86  C   UNL     1       7.223 -12.506  -5.848  1.00  0.00     0.091 A 
ATOM     87  F   UNL     1       7.824 -10.883  -7.490  1.00  0.00    -0.205 F 
ATOM     88  C   UNL     1       7.509 -13.711  -5.189  1.00  0.00     0.022 A 
BRANCH  86  89
ATOM     89  S   UNL     1       5.747 -11.616  -5.341  1.00  0.00     0.127 S 
ATOM     90  O   UNL     1       4.695 -12.362  -6.026  1.00  0.00    -0.237 OA
ATOM     91  O   UNL     1       5.772 -11.780  -3.887  1.00  0.00    -0.237 OA
ATOM     92  O   UNL     1       5.950 -10.243  -5.786  1.00  0.00    -0.744 OA
ENDBRANCH  86  89
ENDBRANCH  58  82
BRANCH  70  93
ATOM     93  C   UNL     1      11.701 -15.042 -13.212  1.00  0.00     0.023 A 
ATOM     94  C   UNL     1      10.508 -15.186 -13.944  1.00  0.00     0.012 A 
ATOM     95  C   UNL     1      12.711 -16.018 -13.328  1.00  0.00     0.148 A 
ATOM     96  C   UNL     1      10.317 -16.293 -14.771  1.00  0.00     0.002 A 
ATOM     97  C   UNL     1      12.532 -17.095 -14.188  1.00  0.00     0.091 A 
ATOM     98  F   UNL     1      13.832 -15.866 -12.609  1.00  0.00    -0.205 F 
ATOM     99  C   UNL     1      11.332 -17.238 -14.904  1.00  0.00     0.022 A 
BRANCH  97 100
ATOM    100  S   UNL     1      13.824 -18.304 -14.498  1.00  0.00     0.127 S 
ATOM    101  O   UNL     1      13.305 -19.479 -13.800  1.00  0.00    -0.237 OA
ATOM    102  O   UNL     1      13.812 -18.406 -15.957  1.00  0.00    -0.237 OA
ATOM    103  O   UNL     1      15.046 -17.738 -13.943  1.00  0.00    -0.744 OA
ENDBRANCH  97 100
ENDBRANCH  70  93
ENDBRANCH  44  45
ENDBRANCH  37  39
ENDBRANCH  36  37
ENDBRANCH  35  36
ENDBRANCH  34  35
ENDBRANCH  33  34
ENDBRANCH  32  33
ENDBRANCH  31  32
ENDBRANCH   1  31
TORSDOF 26
