REMARK SMILES CC[C@H](C)c1ccccc1Oc1cccc(F)c1C(=O)OCCOCCOCCOCCOC(=O)c1ccc(-c2c3nc(c(-c4cccc(S(=O)(=O)[O-])c4F)c4ccc([nH]4)c(-c4cccc(S(=O)(=O)[O-])c4F)c4nc(c(-c5cccc(S(=O)(=O)[O-])c5F)c5ccc2[nH]5)C=C4)C=C3)cc1
REMARK SMILES IDX 26 1 25 2 24 3 23 4 22 5 21 6 19 7 20 8 18 9 12 10 13 11
REMARK SMILES IDX 14 12 16 13 15 14 17 15 11 16 10 17 5 18 6 19 7 20 9 21 8 22
REMARK SMILES IDX 3 23 4 24 2 25 1 26 27 27 28 28 29 29 30 30 31 31 32 32
REMARK SMILES IDX 33 33 34 34 35 35 36 36 37 37 98 38 38 39 97 40 39 41 40 42
REMARK SMILES IDX 41 43 91 44 42 45 96 46 90 47 92 48 43 49 95 50 89 51 88 52
REMARK SMILES IDX 44 54 76 55 56 56 75 57 57 58 60 59 74 60 93 61 58 62 59 63
REMARK SMILES IDX 73 65 94 66 61 67 45 68 46 69 54 70 47 71 49 72 55 73 48 74
REMARK SMILES IDX 50 75 51 76 52 77 53 78 77 79 78 80 86 81 79 82 81 83 87 84
REMARK SMILES IDX 80 85 82 86 83 87 84 88 85 89 62 90 63 91 71 92 64 93 66 94
REMARK SMILES IDX 72 95 65 96 67 97 68 98 69 99 70 100
REMARK H PARENT 92 53 60 64
REMARK Flexibility Score: inf
ROOT
ATOM      1  C   UNL     1       3.433   0.451   3.563  1.00  0.00     0.188 C 
ENDROOT
BRANCH   1   2
ATOM      2  C   UNL     1       4.478   0.458   2.424  1.00  0.00     0.188 C 
BRANCH   2   3
ATOM      3  O   UNL     1       5.344   1.561   2.207  1.00  0.00    -0.376 OA
BRANCH   3   4
ATOM      4  C   UNL     1       4.912   2.909   2.105  1.00  0.00     0.202 C 
BRANCH   4   5
ATOM      5  C   UNL     1       3.547   3.362   1.574  1.00  0.00     0.261 C 
BRANCH   5   6
ATOM      6  O   UNL     1       2.464   2.471   1.799  1.00  0.00    -0.459 OA
BRANCH   6   7
ATOM      7  C   UNL     1       2.227   1.607   0.797  1.00  0.00     0.345 C 
ATOM      8  O   UNL     1       2.880   1.508  -0.231  1.00  0.00    -0.246 OA
BRANCH   7   9
ATOM      9  C   UNL     1       1.086   0.723   1.127  1.00  0.00     0.138 A 
ATOM     10  C   UNL     1      -0.071   1.112   1.809  1.00  0.00     0.144 A 
ATOM     11  C   UNL     1      -1.053   0.142   2.095  1.00  0.00     0.048 A 
ATOM     12  C   UNL     1      -0.944  -1.167   1.632  1.00  0.00     0.007 A 
ATOM     13  C   UNL     1       1.182  -0.600   0.669  1.00  0.00     0.141 A 
ATOM     14  C   UNL     1       0.177  -1.534   0.903  1.00  0.00     0.040 A 
ATOM     15  F   UNL     1       2.272  -1.027   0.013  1.00  0.00    -0.206 F 
BRANCH  10  16
ATOM     16  O   UNL     1      -0.408   2.331   2.325  1.00  0.00    -0.456 OA
BRANCH  16  17
ATOM     17  C   UNL     1      -0.191   3.565   1.755  1.00  0.00     0.130 A 
ATOM     18  C   UNL     1      -0.090   3.951   0.394  1.00  0.00    -0.002 A 
ATOM     19  C   UNL     1       0.162   5.321   0.155  1.00  0.00     0.008 A 
ATOM     20  C   UNL     1       0.265   6.264   1.188  1.00  0.00     0.001 A 
ATOM     21  C   UNL     1      -0.138   4.539   2.780  1.00  0.00     0.047 A 
ATOM     22  C   UNL     1       0.090   5.879   2.503  1.00  0.00     0.004 A 
BRANCH  18  23
ATOM     23  C   UNL     1      -0.166   2.979  -0.784  1.00  0.00     0.019 C 
ATOM     24  C   UNL     1      -1.462   2.162  -0.856  1.00  0.00     0.013 C 
BRANCH  23  25
ATOM     25  C   UNL     1       0.261   3.423  -2.211  1.00  0.00     0.005 C 
ATOM     26  C   UNL     1       1.174   2.384  -2.876  1.00  0.00     0.004 C 
ENDBRANCH  23  25
ENDBRANCH  18  23
ENDBRANCH  16  17
ENDBRANCH  10  16
ENDBRANCH   7   9
ENDBRANCH   6   7
ENDBRANCH   5   6
ENDBRANCH   4   5
ENDBRANCH   3   4
ENDBRANCH   2   3
ENDBRANCH   1   2
BRANCH   1  27
ATOM     27  O   UNL     1       3.204   1.695   4.185  1.00  0.00    -0.377 OA
BRANCH  27  28
ATOM     28  C   UNL     1       4.081   2.096   5.226  1.00  0.00     0.188 C 
BRANCH  28  29
ATOM     29  C   UNL     1       5.512   1.518   5.301  1.00  0.00     0.188 C 
BRANCH  29  30
ATOM     30  O   UNL     1       5.640   0.156   4.926  1.00  0.00    -0.376 OA
BRANCH  30  31
ATOM     31  C   UNL     1       5.672  -0.865   5.905  1.00  0.00     0.202 C 
BRANCH  31  32
ATOM     32  C   UNL     1       4.453  -1.048   6.824  1.00  0.00     0.261 C 
BRANCH  32  33
ATOM     33  O   UNL     1       4.015   0.123   7.521  1.00  0.00    -0.460 OA
BRANCH  33  34
ATOM     34  C   UNL     1       4.894   0.671   8.382  1.00  0.00     0.338 C 
ATOM     35  O   UNL     1       6.003   0.240   8.671  1.00  0.00    -0.246 OA
BRANCH  34  36
ATOM     36  C   UNL     1       4.392   2.002   8.764  1.00  0.00     0.060 A 
ATOM     37  C   UNL     1       5.212   3.112   8.528  1.00  0.00     0.016 A 
ATOM     38  C   UNL     1       3.131   2.156   9.347  1.00  0.00     0.016 A 
ATOM     39  C   UNL     1       4.803   4.375   8.938  1.00  0.00     0.010 A 
ATOM     40  C   UNL     1       2.732   3.421   9.783  1.00  0.00     0.010 A 
ATOM     41  C   UNL     1       3.595   4.520   9.629  1.00  0.00    -0.014 A 
BRANCH  41  42
ATOM     42  C   UNL     1       3.386   5.764  10.402  1.00  0.00     0.031 A 
ATOM     43  C   UNL     1       3.750   5.757  11.861  1.00  0.00     0.074 A 
ATOM     44  C   UNL     1       2.968   6.893   9.806  1.00  0.00     0.049 A 
ATOM     45  N   UNL     1       3.750   6.740  12.721  1.00  0.00    -0.248 NA
ATOM     46  C   UNL     1       4.179   4.465  12.424  1.00  0.00     0.031 C 
ATOM     47  C   UNL     1       2.618   7.023   8.394  1.00  0.00     0.029 A 
ATOM     48  N   UNL     1       2.774   8.146  10.324  1.00  0.00    -0.354 N 
ATOM     49  C   UNL     1       4.154   6.183  13.929  1.00  0.00     0.074 A 
ATOM     50  C   UNL     1       4.366   4.772  13.697  1.00  0.00     0.031 C 
ATOM     51  C   UNL     1       2.247   8.292   8.156  1.00  0.00     0.029 A 
ATOM     52  C   UNL     1       2.314   9.054   9.402  1.00  0.00     0.049 A 
ATOM     53  H   UNL     1       2.947   8.374  11.266  1.00  0.00     0.167 HD
ATOM     54  C   UNL     1       4.348   6.792  15.122  1.00  0.00     0.034 A 
ATOM     55  C   UNL     1       1.981  10.351   9.555  1.00  0.00     0.034 A 
ATOM     56  C   UNL     1       4.133   8.195  15.344  1.00  0.00     0.049 A 
ATOM     57  C   UNL     1       2.155  10.999  10.903  1.00  0.00     0.074 A 
ATOM     58  C   UNL     1       4.329   8.923  16.503  1.00  0.00     0.029 A 
ATOM     59  N   UNL     1       3.652   9.081  14.391  1.00  0.00    -0.354 N 
ATOM     60  N   UNL     1       2.631  10.486  12.013  1.00  0.00    -0.248 NA
ATOM     61  C   UNL     1       1.781  12.417  11.010  1.00  0.00     0.031 C 
ATOM     62  C   UNL     1       3.919  10.240  16.264  1.00  0.00     0.029 A 
ATOM     63  C   UNL     1       3.523  10.345  14.940  1.00  0.00     0.049 A 
ATOM     64  H   UNL     1       3.435   8.845  13.460  1.00  0.00     0.167 HD
ATOM     65  C   UNL     1       2.657  11.527  12.936  1.00  0.00     0.074 A 
ATOM     66  C   UNL     1       2.156  12.701  12.250  1.00  0.00     0.031 C 
ATOM     67  C   UNL     1       3.059  11.513  14.232  1.00  0.00     0.034 A 
BRANCH  54  68
ATOM     68  C   UNL     1       4.801   5.929  16.271  1.00  0.00     0.023 A 
ATOM     69  C   UNL     1       6.094   5.364  16.266  1.00  0.00     0.012 A 
ATOM     70  C   UNL     1       3.943   5.674  17.358  1.00  0.00     0.148 A 
ATOM     71  C   UNL     1       6.504   4.516  17.295  1.00  0.00     0.002 A 
ATOM     72  C   UNL     1       4.379   4.871  18.406  1.00  0.00     0.091 A 
ATOM     73  F   UNL     1       2.709   6.196  17.336  1.00  0.00    -0.205 F 
ATOM     74  C   UNL     1       5.650   4.277  18.367  1.00  0.00     0.022 A 
BRANCH  72  75
ATOM     75  S   UNL     1       3.381   4.574  19.869  1.00  0.00     0.127 S 
ATOM     76  O   UNL     1       2.973   3.184  19.670  1.00  0.00    -0.237 OA
ATOM     77  O   UNL     1       4.349   4.777  20.947  1.00  0.00    -0.237 OA
ATOM     78  O   UNL     1       2.307   5.556  19.827  1.00  0.00    -0.744 OA
ENDBRANCH  72  75
ENDBRANCH  54  68
BRANCH  55  79
ATOM     79  C   UNL     1       1.504  11.133   8.380  1.00  0.00     0.023 A 
ATOM     80  C   UNL     1       2.323  12.141   7.837  1.00  0.00     0.012 A 
ATOM     81  C   UNL     1       0.264  10.852   7.776  1.00  0.00     0.148 A 
ATOM     82  C   UNL     1       1.904  12.872   6.724  1.00  0.00     0.002 A 
ATOM     83  C   UNL     1      -0.122  11.545   6.636  1.00  0.00     0.091 A 
ATOM     84  F   UNL     1      -0.501   9.893   8.316  1.00  0.00    -0.205 F 
ATOM     85  C   UNL     1       0.688  12.568   6.118  1.00  0.00     0.022 A 
BRANCH  83  86
ATOM     86  S   UNL     1      -1.607  11.137   5.711  1.00  0.00     0.127 S 
ATOM     87  O   UNL     1      -2.382  12.369   5.829  1.00  0.00    -0.237 OA
ATOM     88  O   UNL     1      -1.061  10.874   4.379  1.00  0.00    -0.237 OA
ATOM     89  O   UNL     1      -2.179   9.972   6.372  1.00  0.00    -0.744 OA
ENDBRANCH  83  86
ENDBRANCH  55  79
BRANCH  67  90
ATOM     90  C   UNL     1       3.031  12.817  14.989  1.00  0.00     0.023 A 
ATOM     91  C   UNL     1       1.803  13.400  15.359  1.00  0.00     0.012 A 
ATOM     92  C   UNL     1       4.235  13.427  15.397  1.00  0.00     0.148 A 
ATOM     93  C   UNL     1       1.774  14.589  16.087  1.00  0.00     0.002 A 
ATOM     94  C   UNL     1       4.198  14.580  16.171  1.00  0.00     0.091 A 
ATOM     95  F   UNL     1       5.394  12.866  15.023  1.00  0.00    -0.205 F 
ATOM     96  C   UNL     1       2.969  15.172  16.503  1.00  0.00     0.022 A 
BRANCH  94  97
ATOM     97  S   UNL     1       5.682  15.340  16.838  1.00  0.00     0.127 S 
ATOM     98  O   UNL     1       5.772  16.565  16.043  1.00  0.00    -0.237 OA
ATOM     99  O   UNL     1       5.319  15.548  18.240  1.00  0.00    -0.237 OA
ATOM    100  O   UNL     1       6.757  14.380  16.627  1.00  0.00    -0.744 OA
ENDBRANCH  94  97
ENDBRANCH  67  90
ENDBRANCH  41  42
ENDBRANCH  34  36
ENDBRANCH  33  34
ENDBRANCH  32  33
ENDBRANCH  31  32
ENDBRANCH  30  31
ENDBRANCH  29  30
ENDBRANCH  28  29
ENDBRANCH  27  28
ENDBRANCH   1  27
TORSDOF 27
