REMARK SMILES Cc1c(Cc2nc(C(C)(C)C)cs2)cccc1C(=O)OCCOCCOCCOCCOC(=O)c1ccc(-c2c3nc(c(-c4cccc(S(=O)(=O)[O-])c4F)c4ccc([nH]4)c(-c4cccc(S(=O)(=O)[O-])c4F)c4nc(c(-c5cccc(S(=O)(=O)[O-])c5F)c5ccc2[nH]5)C=C4)C=C3)cc1
REMARK SMILES IDX 26 1 25 2 24 3 23 4 22 5 21 6 20 7 18 8 19 9 17 10 1 11 2 12
REMARK SMILES IDX 3 13 14 14 16 15 15 16 4 17 5 18 6 19 13 20 7 21 12 22 8 23
REMARK SMILES IDX 9 24 10 25 11 26 27 27 28 28 29 29 30 30 31 31 32 32 33 33
REMARK SMILES IDX 34 34 35 35 36 36 97 37 37 38 96 39 38 40 39 41 40 42 90 43
REMARK SMILES IDX 41 44 95 45 89 46 91 47 42 48 94 49 88 50 87 51 43 53 75 54
REMARK SMILES IDX 55 55 74 56 56 57 59 58 73 59 92 60 57 61 58 62 72 64 93 65
REMARK SMILES IDX 60 66 44 67 45 68 53 69 46 70 48 71 54 72 47 73 49 74 50 75
REMARK SMILES IDX 51 76 52 77 76 78 77 79 85 80 78 81 80 82 86 83 79 84 81 85
REMARK SMILES IDX 82 86 83 87 84 88 61 89 62 90 70 91 63 92 65 93 71 94 64 95
REMARK SMILES IDX 66 96 67 97 68 98 69 99
REMARK H PARENT 91 52 59 63
REMARK Flexibility Score: inf
ROOT
ATOM      1  O   UNL     1       0.610   2.260  -3.698  1.00  0.00    -0.377 OA
ENDROOT
BRANCH   1   2
ATOM      2  C   UNL     1      -0.128   1.817  -2.580  1.00  0.00     0.188 C 
BRANCH   2   3
ATOM      3  C   UNL     1      -1.296   2.697  -2.127  1.00  0.00     0.188 C 
BRANCH   3   4
ATOM      4  O   UNL     1      -0.982   3.997  -1.633  1.00  0.00    -0.376 OA
BRANCH   4   5
ATOM      5  C   UNL     1       0.070   4.085  -0.672  1.00  0.00     0.202 C 
BRANCH   5   6
ATOM      6  C   UNL     1      -0.333   3.642   0.705  1.00  0.00     0.261 C 
BRANCH   6   7
ATOM      7  O   UNL     1      -0.216   2.223   0.713  1.00  0.00    -0.460 OA
BRANCH   7   8
ATOM      8  C   UNL     1      -1.232   1.572   1.295  1.00  0.00     0.338 C 
ATOM      9  O   UNL     1      -2.066   2.022   2.033  1.00  0.00    -0.246 OA
BRANCH   8  10
ATOM     10  C   UNL     1      -1.343   0.248   0.621  1.00  0.00     0.063 A 
ATOM     11  C   UNL     1       1.163  -0.234   0.212  1.00  0.00     0.045 C 
ATOM     12  C   UNL     1      -0.294  -0.605   0.200  1.00  0.00    -0.033 A 
ATOM     13  C   UNL     1      -0.640  -1.901  -0.243  1.00  0.00    -0.037 A 
ATOM     14  C   UNL     1      -1.996  -2.226  -0.455  1.00  0.00     0.004 A 
ATOM     15  C   UNL     1      -2.683  -0.103   0.392  1.00  0.00     0.016 A 
ATOM     16  C   UNL     1      -3.009  -1.319  -0.179  1.00  0.00     0.001 A 
BRANCH  13  17
ATOM     17  C   UNL     1       0.375  -3.042  -0.258  1.00  0.00     0.103 C 
BRANCH  17  18
ATOM     18  C   UNL     1       0.310  -3.752   1.066  1.00  0.00     0.097 A 
ATOM     19  N   UNL     1      -0.761  -4.404   1.458  1.00  0.00    -0.245 NA
ATOM     20  S   UNL     1       1.545  -3.616   2.248  1.00  0.00    -0.127 S 
ATOM     21  C   UNL     1      -0.753  -4.559   2.829  1.00  0.00     0.057 A 
ATOM     22  C   UNL     1       0.468  -4.271   3.416  1.00  0.00     0.091 A 
BRANCH  21  23
ATOM     23  C   UNL     1      -2.041  -5.012   3.492  1.00  0.00     0.005 C 
ATOM     24  C   UNL     1      -1.941  -6.503   3.847  1.00  0.00     0.017 C 
ATOM     25  C   UNL     1      -2.330  -4.190   4.763  1.00  0.00     0.017 C 
ATOM     26  C   UNL     1      -3.242  -4.811   2.535  1.00  0.00     0.017 C 
ENDBRANCH  21  23
ENDBRANCH  17  18
ENDBRANCH  13  17
ENDBRANCH   8  10
ENDBRANCH   7   8
ENDBRANCH   6   7
ENDBRANCH   5   6
ENDBRANCH   4   5
ENDBRANCH   3   4
ENDBRANCH   2   3
ENDBRANCH   1   2
BRANCH   1  27
ATOM     27  C   UNL     1       0.902   3.642  -3.777  1.00  0.00     0.188 C 
BRANCH  27  28
ATOM     28  C   UNL     1      -0.019   4.373  -4.771  1.00  0.00     0.188 C 
BRANCH  28  29
ATOM     29  O   UNL     1      -0.609   3.575  -5.785  1.00  0.00    -0.376 OA
BRANCH  29  30
ATOM     30  C   UNL     1       0.260   2.614  -6.387  1.00  0.00     0.202 C 
BRANCH  30  31
ATOM     31  C   UNL     1       1.810   2.903  -6.539  1.00  0.00     0.261 C 
BRANCH  31  32
ATOM     32  O   UNL     1       2.178   4.296  -6.222  1.00  0.00    -0.460 OA
BRANCH  32  33
ATOM     33  C   UNL     1       3.446   4.807  -6.132  1.00  0.00     0.338 C 
ATOM     34  O   UNL     1       4.372   4.455  -6.843  1.00  0.00    -0.246 OA
BRANCH  33  35
ATOM     35  C   UNL     1       3.559   5.770  -4.928  1.00  0.00     0.060 A 
ATOM     36  C   UNL     1       4.755   5.925  -4.237  1.00  0.00     0.016 A 
ATOM     37  C   UNL     1       2.455   6.315  -4.288  1.00  0.00     0.016 A 
ATOM     38  C   UNL     1       4.763   6.128  -2.831  1.00  0.00     0.010 A 
ATOM     39  C   UNL     1       2.426   6.393  -2.890  1.00  0.00     0.010 A 
ATOM     40  C   UNL     1       3.570   6.130  -2.131  1.00  0.00    -0.014 A 
BRANCH  40  41
ATOM     41  C   UNL     1       3.392   5.675  -0.723  1.00  0.00     0.031 A 
ATOM     42  C   UNL     1       2.527   6.492   0.230  1.00  0.00     0.074 A 
ATOM     43  C   UNL     1       3.618   4.352  -0.447  1.00  0.00     0.049 A 
ATOM     44  N   UNL     1       2.102   6.110   1.394  1.00  0.00    -0.248 NA
ATOM     45  C   UNL     1       2.017   7.824  -0.094  1.00  0.00     0.031 C 
ATOM     46  C   UNL     1       2.912   3.622   0.594  1.00  0.00     0.029 A 
ATOM     47  N   UNL     1       4.423   3.336  -1.003  1.00  0.00    -0.354 N 
ATOM     48  C   UNL     1       1.063   6.928   1.802  1.00  0.00     0.074 A 
ATOM     49  C   UNL     1       1.109   8.028   0.872  1.00  0.00     0.031 C 
ATOM     50  C   UNL     1       3.231   2.329   0.603  1.00  0.00     0.029 A 
ATOM     51  C   UNL     1       4.474   2.245  -0.105  1.00  0.00     0.049 A 
ATOM     52  H   UNL     1       4.877   3.380  -1.875  1.00  0.00     0.167 HD
ATOM     53  C   UNL     1       0.225   6.528   2.811  1.00  0.00     0.034 A 
ATOM     54  C   UNL     1       5.558   1.751   0.574  1.00  0.00     0.034 A 
ATOM     55  C   UNL     1       0.725   5.306   3.505  1.00  0.00     0.049 A 
ATOM     56  C   UNL     1       5.478   2.029   2.087  1.00  0.00     0.074 A 
ATOM     57  C   UNL     1       0.171   4.081   3.857  1.00  0.00     0.029 A 
ATOM     58  N   UNL     1       2.079   5.202   3.847  1.00  0.00    -0.354 N 
ATOM     59  N   UNL     1       4.593   2.851   2.602  1.00  0.00    -0.248 NA
ATOM     60  C   UNL     1       6.263   1.399   3.147  1.00  0.00     0.031 C 
ATOM     61  C   UNL     1       1.237   3.191   4.193  1.00  0.00     0.029 A 
ATOM     62  C   UNL     1       2.427   3.906   4.194  1.00  0.00     0.049 A 
ATOM     63  H   UNL     1       2.708   5.959   3.841  1.00  0.00     0.167 HD
ATOM     64  C   UNL     1       4.618   2.846   3.958  1.00  0.00     0.074 A 
ATOM     65  C   UNL     1       5.721   1.945   4.258  1.00  0.00     0.031 C 
ATOM     66  C   UNL     1       3.758   3.593   4.719  1.00  0.00     0.034 A 
BRANCH  53  67
ATOM     67  C   UNL     1      -1.159   7.139   3.150  1.00  0.00     0.023 A 
ATOM     68  C   UNL     1      -1.791   6.692   4.338  1.00  0.00     0.012 A 
ATOM     69  C   UNL     1      -1.930   8.048   2.369  1.00  0.00     0.148 A 
ATOM     70  C   UNL     1      -3.084   7.084   4.721  1.00  0.00     0.002 A 
ATOM     71  C   UNL     1      -3.196   8.502   2.793  1.00  0.00     0.091 A 
ATOM     72  F   UNL     1      -1.486   8.438   1.171  1.00  0.00    -0.205 F 
ATOM     73  C   UNL     1      -3.783   8.002   3.958  1.00  0.00     0.022 A 
BRANCH  71  74
ATOM     74  S   UNL     1      -4.154   9.768   1.923  1.00  0.00     0.127 S 
ATOM     75  O   UNL     1      -5.378   9.050   1.568  1.00  0.00    -0.237 OA
ATOM     76  O   UNL     1      -4.333  10.789   2.957  1.00  0.00    -0.237 OA
ATOM     77  O   UNL     1      -3.337  10.191   0.792  1.00  0.00    -0.744 OA
ENDBRANCH  71  74
ENDBRANCH  53  67
BRANCH  54  78
ATOM     78  C   UNL     1       6.693   1.353  -0.295  1.00  0.00     0.023 A 
ATOM     79  C   UNL     1       6.436   0.237  -1.140  1.00  0.00     0.012 A 
ATOM     80  C   UNL     1       7.530   2.370  -0.751  1.00  0.00     0.148 A 
ATOM     81  C   UNL     1       6.799   0.259  -2.488  1.00  0.00     0.002 A 
ATOM     82  C   UNL     1       7.777   2.441  -2.116  1.00  0.00     0.091 A 
ATOM     83  F   UNL     1       7.847   3.361   0.091  1.00  0.00    -0.205 F 
ATOM     84  C   UNL     1       7.415   1.393  -2.989  1.00  0.00     0.022 A 
BRANCH  82  85
ATOM     85  S   UNL     1       7.811   4.057  -2.896  1.00  0.00     0.127 S 
ATOM     86  O   UNL     1       9.012   4.021  -3.718  1.00  0.00    -0.237 OA
ATOM     87  O   UNL     1       6.552   3.948  -3.624  1.00  0.00    -0.237 OA
ATOM     88  O   UNL     1       7.807   5.029  -1.813  1.00  0.00    -0.744 OA
ENDBRANCH  82  85
ENDBRANCH  54  78
BRANCH  66  89
ATOM     89  C   UNL     1       4.123   4.147   6.079  1.00  0.00     0.023 A 
ATOM     90  C   UNL     1       5.473   4.288   6.452  1.00  0.00     0.012 A 
ATOM     91  C   UNL     1       3.155   4.795   6.893  1.00  0.00     0.148 A 
ATOM     92  C   UNL     1       5.848   5.006   7.588  1.00  0.00     0.002 A 
ATOM     93  C   UNL     1       3.543   5.603   7.955  1.00  0.00     0.091 A 
ATOM     94  F   UNL     1       1.848   4.637   6.644  1.00  0.00    -0.205 F 
ATOM     95  C   UNL     1       4.887   5.688   8.323  1.00  0.00     0.022 A 
BRANCH  93  96
ATOM     96  S   UNL     1       2.374   6.701   8.771  1.00  0.00     0.127 S 
ATOM     97  O   UNL     1       2.036   5.938   9.971  1.00  0.00    -0.237 OA
ATOM     98  O   UNL     1       3.189   7.893   9.015  1.00  0.00    -0.237 OA
ATOM     99  O   UNL     1       1.295   6.903   7.815  1.00  0.00    -0.744 OA
ENDBRANCH  93  96
ENDBRANCH  66  89
ENDBRANCH  40  41
ENDBRANCH  33  35
ENDBRANCH  32  33
ENDBRANCH  31  32
ENDBRANCH  30  31
ENDBRANCH  29  30
ENDBRANCH  28  29
ENDBRANCH  27  28
ENDBRANCH   1  27
TORSDOF 26
