REMARK SMILES CCC[NH2+][C@@]1(C(=O)OCCOCCOCCOCCOC(=O)c2ccc(-c3c4nc(c(-c5cccc(S(=O)(=O)[O-])c5F)c5ccc([nH]5)c(-c5cccc(S(=O)(=O)[O-])c5F)c5nc(c(-c6cccc(S(=O)(=O)[O-])c6F)c6ccc3[nH]6)C=C5)C=C4)cc2)CC[C@@H](Sc2ccc(Cl)cc2)C1
REMARK SMILES IDX 14 1 13 2 12 3 11 4 10 5 9 6 8 7 6 8 7 9 5 10 86 11 97 12
REMARK SMILES IDX 87 13 88 14 4 15 3 18 2 19 1 20 89 21 90 22 91 23 96 24
REMARK SMILES IDX 92 25 95 26 93 27 94 28 15 29 16 30 17 31 18 32 19 33 20 34
REMARK SMILES IDX 21 35 22 36 23 37 24 38 85 39 25 40 84 41 26 42 27 43 28 44
REMARK SMILES IDX 78 45 29 46 83 47 77 48 79 49 30 50 82 51 76 52 75 53 31 55
REMARK SMILES IDX 63 56 43 57 62 58 44 59 47 60 61 61 80 62 45 63 46 64 60 66
REMARK SMILES IDX 81 67 48 68 32 69 33 70 41 71 34 72 36 73 42 74 35 75 37 76
REMARK SMILES IDX 38 77 39 78 40 79 64 80 65 81 73 82 66 83 68 84 74 85 67 86
REMARK SMILES IDX 69 87 70 88 71 89 72 90 49 91 50 92 58 93 51 94 53 95 59 96
REMARK SMILES IDX 52 97 54 98 55 99 56 100 57 101
REMARK H PARENT 4 16 4 17 79 54 47 65
REMARK Flexibility Score: inf
ROOT
ATOM      1  O   UNL     1       3.194  -1.219  -5.793  1.00  0.00    -0.377 OA
ENDROOT
BRANCH   1   2
ATOM      2  C   UNL     1       2.774  -0.396  -4.729  1.00  0.00     0.188 C 
BRANCH   2   3
ATOM      3  C   UNL     1       3.811  -0.170  -3.624  1.00  0.00     0.188 C 
BRANCH   3   4
ATOM      4  O   UNL     1       5.146  -0.577  -3.841  1.00  0.00    -0.376 OA
BRANCH   4   5
ATOM      5  C   UNL     1       5.417  -1.921  -4.224  1.00  0.00     0.202 C 
BRANCH   5   6
ATOM      6  C   UNL     1       4.587  -3.142  -3.754  1.00  0.00     0.261 C 
BRANCH   6   7
ATOM      7  O   UNL     1       3.149  -3.102  -3.895  1.00  0.00    -0.459 OA
BRANCH   7   8
ATOM      8  C   UNL     1       2.427  -3.113  -2.745  1.00  0.00     0.368 C 
ATOM      9  O   UNL     1       2.933  -3.100  -1.622  1.00  0.00    -0.245 OA
BRANCH   8  10
ATOM     10  C   UNL     1       0.868  -3.110  -2.930  1.00  0.00     0.195 C 
ATOM     11  C   UNL     1       0.378  -4.545  -2.649  1.00  0.00     0.082 C 
ATOM     12  C   UNL     1       0.262  -2.842  -4.323  1.00  0.00     0.096 C 
ATOM     13  C   UNL     1       0.440  -5.257  -3.998  1.00  0.00     0.022 C 
ATOM     14  C   UNL     1       0.120  -4.187  -5.035  1.00  0.00     0.059 C 
BRANCH  10  15
ATOM     15  N   UNL     1       0.283  -2.211  -1.862  1.00  0.00    -0.332 N 
ATOM     16  H   UNL     1      -0.724  -2.366  -1.827  1.00  0.00     0.347 HD
ATOM     17  H   UNL     1       0.750  -2.452  -0.987  1.00  0.00     0.347 HD
BRANCH  15  18
ATOM     18  C   UNL     1       0.520  -0.782  -2.085  1.00  0.00     0.261 C 
BRANCH  18  19
ATOM     19  C   UNL     1       0.031   0.140  -0.966  1.00  0.00     0.058 C 
ATOM     20  C   UNL     1       0.790  -0.036   0.340  1.00  0.00     0.010 C 
ENDBRANCH  18  19
ENDBRANCH  15  18
ENDBRANCH  10  15
BRANCH  14  21
ATOM     21  S   UNL     1      -1.475  -4.350  -5.948  1.00  0.00    -0.122 SA
BRANCH  21  22
ATOM     22  C   UNL     1      -2.692  -4.489  -4.654  1.00  0.00     0.008 A 
ATOM     23  C   UNL     1      -3.263  -5.737  -4.386  1.00  0.00     0.016 A 
ATOM     24  C   UNL     1      -3.165  -3.365  -3.968  1.00  0.00     0.016 A 
ATOM     25  C   UNL     1      -4.253  -5.868  -3.407  1.00  0.00     0.021 A 
ATOM     26  C   UNL     1      -4.135  -3.495  -2.971  1.00  0.00     0.021 A 
ATOM     27  C   UNL     1      -4.673  -4.748  -2.693  1.00  0.00     0.041 A 
ATOM     28  Cl  UNL     1      -5.879  -4.906  -1.475  1.00  0.00    -0.084 Cl
ENDBRANCH  21  22
ENDBRANCH  14  21
ENDBRANCH   8  10
ENDBRANCH   7   8
ENDBRANCH   6   7
ENDBRANCH   5   6
ENDBRANCH   4   5
ENDBRANCH   3   4
ENDBRANCH   2   3
ENDBRANCH   1   2
BRANCH   1  29
ATOM     29  C   UNL     1       3.827  -0.588  -6.897  1.00  0.00     0.188 C 
BRANCH  29  30
ATOM     30  C   UNL     1       4.449   0.806  -6.689  1.00  0.00     0.188 C 
BRANCH  30  31
ATOM     31  O   UNL     1       3.588   1.742  -6.053  1.00  0.00    -0.376 OA
BRANCH  31  32
ATOM     32  C   UNL     1       2.776   2.594  -6.847  1.00  0.00     0.202 C 
BRANCH  32  33
ATOM     33  C   UNL     1       1.759   1.977  -7.822  1.00  0.00     0.261 C 
BRANCH  33  34
ATOM     34  O   UNL     1       2.266   1.097  -8.836  1.00  0.00    -0.460 OA
BRANCH  34  35
ATOM     35  C   UNL     1       3.260   1.517  -9.645  1.00  0.00     0.338 C 
ATOM     36  O   UNL     1       3.760   2.629  -9.679  1.00  0.00    -0.246 OA
BRANCH  35  37
ATOM     37  C   UNL     1       3.796   0.315 -10.324  1.00  0.00     0.060 A 
ATOM     38  C   UNL     1       5.128  -0.065 -10.097  1.00  0.00     0.016 A 
ATOM     39  C   UNL     1       2.967  -0.474 -11.122  1.00  0.00     0.016 A 
ATOM     40  C   UNL     1       5.629  -1.240 -10.662  1.00  0.00     0.010 A 
ATOM     41  C   UNL     1       3.481  -1.629 -11.717  1.00  0.00     0.010 A 
ATOM     42  C   UNL     1       4.817  -2.011 -11.500  1.00  0.00    -0.014 A 
BRANCH  42  43
ATOM     43  C   UNL     1       5.390  -3.135 -12.279  1.00  0.00     0.031 A 
ATOM     44  C   UNL     1       5.802  -2.879 -13.701  1.00  0.00     0.074 A 
ATOM     45  C   UNL     1       5.492  -4.369 -11.752  1.00  0.00     0.049 A 
ATOM     46  N   UNL     1       6.207  -3.724 -14.610  1.00  0.00    -0.248 NA
ATOM     47  C   UNL     1       5.746  -1.480 -14.161  1.00  0.00     0.031 C 
ATOM     48  C   UNL     1       5.150  -4.735 -10.379  1.00  0.00     0.029 A 
ATOM     49  N   UNL     1       5.876  -5.554 -12.331  1.00  0.00    -0.354 N 
ATOM     50  C   UNL     1       6.408  -2.972 -15.761  1.00  0.00     0.074 A 
ATOM     51  C   UNL     1       6.099  -1.598 -15.432  1.00  0.00     0.031 C 
ATOM     52  C   UNL     1       5.297  -6.064 -10.233  1.00  0.00     0.029 A 
ATOM     53  C   UNL     1       5.701  -6.646 -11.512  1.00  0.00     0.049 A 
ATOM     54  H   UNL     1       6.241  -5.617 -13.243  1.00  0.00     0.167 HD
ATOM     55  C   UNL     1       6.810  -3.392 -16.982  1.00  0.00     0.034 A 
ATOM     56  C   UNL     1       5.810  -7.964 -11.780  1.00  0.00     0.034 A 
ATOM     57  C   UNL     1       7.132  -4.755 -17.300  1.00  0.00     0.049 A 
ATOM     58  C   UNL     1       6.203  -8.403 -13.171  1.00  0.00     0.074 A 
ATOM     59  C   UNL     1       7.619  -5.264 -18.491  1.00  0.00     0.029 A 
ATOM     60  N   UNL     1       6.971  -5.828 -16.440  1.00  0.00    -0.354 N 
ATOM     61  N   UNL     1       6.528  -7.671 -14.209  1.00  0.00    -0.248 NA
ATOM     62  C   UNL     1       6.261  -9.852 -13.422  1.00  0.00     0.031 C 
ATOM     63  C   UNL     1       7.703  -6.654 -18.367  1.00  0.00     0.029 A 
ATOM     64  C   UNL     1       7.312  -7.004 -17.085  1.00  0.00     0.049 A 
ATOM     65  H   UNL     1       6.661  -5.764 -15.508  1.00  0.00     0.167 HD
ATOM     66  C   UNL     1       6.859  -8.568 -15.222  1.00  0.00     0.074 A 
ATOM     67  C   UNL     1       6.722  -9.896 -14.664  1.00  0.00     0.031 C 
ATOM     68  C   UNL     1       7.224  -8.317 -16.503  1.00  0.00     0.034 A 
BRANCH  55  69
ATOM     69  C   UNL     1       6.921  -2.373 -18.082  1.00  0.00     0.023 A 
ATOM     70  C   UNL     1       7.997  -1.464 -18.096  1.00  0.00     0.012 A 
ATOM     71  C   UNL     1       6.009  -2.388 -19.156  1.00  0.00     0.148 A 
ATOM     72  C   UNL     1       8.156  -0.575 -19.158  1.00  0.00     0.002 A 
ATOM     73  C   UNL     1       6.200  -1.531 -20.231  1.00  0.00     0.091 A 
ATOM     74  F   UNL     1       4.981  -3.247 -19.107  1.00  0.00    -0.205 F 
ATOM     75  C   UNL     1       7.268  -0.618 -20.230  1.00  0.00     0.022 A 
BRANCH  73  76
ATOM     76  S   UNL     1       5.161  -1.565 -21.695  1.00  0.00     0.127 S 
ATOM     77  O   UNL     1       4.519  -0.252 -21.631  1.00  0.00    -0.237 OA
ATOM     78  O   UNL     1       6.147  -1.710 -22.765  1.00  0.00    -0.237 OA
ATOM     79  O   UNL     1       4.264  -2.700 -21.529  1.00  0.00    -0.744 OA
ENDBRANCH  73  76
ENDBRANCH  55  69
BRANCH  56  80
ATOM     80  C   UNL     1       5.531  -8.983 -10.726  1.00  0.00     0.023 A 
ATOM     81  C   UNL     1       6.572  -9.819 -10.276  1.00  0.00     0.012 A 
ATOM     82  C   UNL     1       4.237  -9.157 -10.196  1.00  0.00     0.148 A 
ATOM     83  C   UNL     1       6.321 -10.838  -9.355  1.00  0.00     0.002 A 
ATOM     84  C   UNL     1       4.007 -10.133  -9.233  1.00  0.00     0.091 A 
ATOM     85  F   UNL     1       3.252  -8.369 -10.650  1.00  0.00    -0.205 F 
ATOM     86  C   UNL     1       5.042 -10.990  -8.828  1.00  0.00     0.022 A 
BRANCH  84  87
ATOM     87  S   UNL     1       2.423 -10.318  -8.407  1.00  0.00     0.127 S 
ATOM     88  O   UNL     1       1.940 -11.579  -8.962  1.00  0.00    -0.237 OA
ATOM     89  O   UNL     1       2.822 -10.376  -7.000  1.00  0.00    -0.237 OA
ATOM     90  O   UNL     1       1.655  -9.132  -8.762  1.00  0.00    -0.744 OA
ENDBRANCH  84  87
ENDBRANCH  56  80
BRANCH  68  91
ATOM     91  C   UNL     1       7.537  -9.492 -17.393  1.00  0.00     0.023 A 
ATOM     92  C   UNL     1       6.494 -10.319 -17.855  1.00  0.00     0.012 A 
ATOM     93  C   UNL     1       8.852  -9.719 -17.848  1.00  0.00     0.148 A 
ATOM     94  C   UNL     1       6.759 -11.371 -18.732  1.00  0.00     0.002 A 
ATOM     95  C   UNL     1       9.100 -10.735 -18.762  1.00  0.00     0.091 A 
ATOM     96  F   UNL     1       9.831  -8.926 -17.389  1.00  0.00    -0.205 F 
ATOM     97  C   UNL     1       8.058 -11.570 -19.195  1.00  0.00     0.022 A 
BRANCH  95  98
ATOM     98  S   UNL     1      10.720 -11.009 -19.490  1.00  0.00     0.127 S 
ATOM     99  O   UNL     1      11.077 -12.315 -18.938  1.00  0.00    -0.237 OA
ATOM    100  O   UNL     1      10.416 -11.014 -20.922  1.00  0.00    -0.237 OA
ATOM    101  O   UNL     1      11.556  -9.901 -19.049  1.00  0.00    -0.744 OA
ENDBRANCH  95  98
ENDBRANCH  68  91
ENDBRANCH  42  43
ENDBRANCH  35  37
ENDBRANCH  34  35
ENDBRANCH  33  34
ENDBRANCH  32  33
ENDBRANCH  31  32
ENDBRANCH  30  31
ENDBRANCH  29  30
ENDBRANCH   1  29
TORSDOF 28
