REMARK SMILES O=C(OCCOCCOCCOCCOC(=O)[C@H]1CCc2[nH]nc(C(F)(F)F)c2C1)c1ccc(-c2c3nc(c(-c4cccc(S(=O)(=O)[O-])c4F)c4ccc([nH]4)c(-c4cccc(S(=O)(=O)[O-])c4F)c4nc(c(-c5cccc(S(=O)(=O)[O-])c5F)c5ccc2[nH]5)C=C4)C=C3)cc1
REMARK SMILES IDX 8 1 7 2 6 3 5 4 4 5 3 6 2 7 1 8 31 9 32 10 93 11 33 12 92 13
REMARK SMILES IDX 34 14 35 15 36 16 86 17 37 18 91 19 85 20 87 21 38 22 90 23
REMARK SMILES IDX 84 24 83 25 39 27 71 28 51 29 70 30 52 31 55 32 69 33 88 34
REMARK SMILES IDX 53 35 54 36 68 38 89 39 56 40 40 41 41 42 49 43 42 44 44 45
REMARK SMILES IDX 50 46 43 47 45 48 46 49 47 50 48 51 72 52 73 53 81 54 74 55
REMARK SMILES IDX 76 56 82 57 75 58 77 59 78 60 79 61 80 62 57 63 58 64 66 65
REMARK SMILES IDX 59 66 61 67 67 68 60 69 62 70 63 71 64 72 65 73 9 74 10 75
REMARK SMILES IDX 11 76 12 77 13 78 14 79 15 80 16 81 17 82 18 83 19 84 30 85
REMARK SMILES IDX 20 86 29 87 21 88 24 89 22 90 23 91 25 93 26 94 27 95 28 96
REMARK H PARENT 87 26 55 37 22 92
REMARK Flexibility Score: inf
ROOT
ATOM      1  C   UNL     1       5.104  -6.495  -0.284  1.00  0.00     0.188 C 
ENDROOT
BRANCH   1   2
ATOM      2  C   UNL     1       6.503  -6.659   0.286  1.00  0.00     0.188 C 
BRANCH   2   3
ATOM      3  O   UNL     1       6.909  -5.393   0.786  1.00  0.00    -0.376 OA
BRANCH   3   4
ATOM      4  C   UNL     1       8.211  -4.958   0.442  1.00  0.00     0.202 C 
BRANCH   4   5
ATOM      5  C   UNL     1       9.068  -4.848   1.700  1.00  0.00     0.261 C 
BRANCH   5   6
ATOM      6  O   UNL     1       9.158  -6.119   2.371  1.00  0.00    -0.460 OA
BRANCH   6   7
ATOM      7  C   UNL     1       8.224  -6.757   3.118  1.00  0.00     0.338 C 
ATOM      8  O   UNL     1       8.364  -7.971   3.276  1.00  0.00    -0.246 OA
BRANCH   7   9
ATOM      9  C   UNL     1       7.066  -6.096   3.816  1.00  0.00     0.060 A 
ATOM     10  C   UNL     1       6.474  -4.872   3.481  1.00  0.00     0.016 A 
ATOM     11  C   UNL     1       6.492  -6.820   4.879  1.00  0.00     0.016 A 
ATOM     12  C   UNL     1       5.361  -4.383   4.160  1.00  0.00     0.010 A 
ATOM     13  C   UNL     1       5.398  -6.322   5.594  1.00  0.00     0.010 A 
ATOM     14  C   UNL     1       4.850  -5.085   5.246  1.00  0.00    -0.014 A 
BRANCH  14  15
ATOM     15  C   UNL     1       3.946  -4.369   6.160  1.00  0.00     0.031 A 
ATOM     16  C   UNL     1       4.584  -3.640   7.306  1.00  0.00     0.074 A 
ATOM     17  C   UNL     1       2.626  -4.303   5.923  1.00  0.00     0.049 A 
ATOM     18  N   UNL     1       4.030  -2.966   8.274  1.00  0.00    -0.248 NA
ATOM     19  C   UNL     1       6.058  -3.665   7.354  1.00  0.00     0.031 C 
ATOM     20  C   UNL     1       1.943  -4.897   4.775  1.00  0.00     0.029 A 
ATOM     21  N   UNL     1       1.624  -3.710   6.644  1.00  0.00    -0.354 N 
ATOM     22  C   UNL     1       5.082  -2.526   9.068  1.00  0.00     0.074 A 
ATOM     23  C   UNL     1       6.308  -2.990   8.463  1.00  0.00     0.031 C 
ATOM     24  C   UNL     1       0.623  -4.665   4.886  1.00  0.00     0.029 A 
ATOM     25  C   UNL     1       0.371  -3.945   6.132  1.00  0.00     0.049 A 
ATOM     26  H   UNL     1       1.786  -3.169   7.450  1.00  0.00     0.167 HD
ATOM     27  C   UNL     1       5.025  -1.807  10.210  1.00  0.00     0.034 A 
ATOM     28  C   UNL     1      -0.837  -3.639   6.645  1.00  0.00     0.034 A 
ATOM     29  C   UNL     1       3.790  -1.377  10.799  1.00  0.00     0.049 A 
ATOM     30  C   UNL     1      -0.881  -2.891   7.954  1.00  0.00     0.074 A 
ATOM     31  C   UNL     1       3.589  -0.678  11.973  1.00  0.00     0.029 A 
ATOM     32  N   UNL     1       2.538  -1.628  10.254  1.00  0.00    -0.354 N 
ATOM     33  N   UNL     1       0.117  -2.452   8.688  1.00  0.00    -0.248 NA
ATOM     34  C   UNL     1      -2.208  -2.577   8.499  1.00  0.00     0.031 C 
ATOM     35  C   UNL     1       2.209  -0.535  12.153  1.00  0.00     0.029 A 
ATOM     36  C   UNL     1       1.554  -1.107  11.070  1.00  0.00     0.049 A 
ATOM     37  H   UNL     1       2.376  -2.107   9.409  1.00  0.00     0.167 HD
ATOM     38  C   UNL     1      -0.459  -1.783   9.761  1.00  0.00     0.074 A 
ATOM     39  C   UNL     1      -1.895  -1.862   9.572  1.00  0.00     0.031 C 
ATOM     40  C   UNL     1       0.137  -1.167  10.813  1.00  0.00     0.034 A 
BRANCH  27  41
ATOM     41  C   UNL     1       6.330  -1.507  10.895  1.00  0.00     0.023 A 
ATOM     42  C   UNL     1       7.230  -0.578  10.332  1.00  0.00     0.012 A 
ATOM     43  C   UNL     1       6.687  -2.186  12.075  1.00  0.00     0.148 A 
ATOM     44  C   UNL     1       8.483  -0.365  10.907  1.00  0.00     0.002 A 
ATOM     45  C   UNL     1       7.919  -1.935  12.668  1.00  0.00     0.091 A 
ATOM     46  F   UNL     1       5.833  -3.089  12.576  1.00  0.00    -0.205 F 
ATOM     47  C   UNL     1       8.824  -1.038  12.077  1.00  0.00     0.022 A 
BRANCH  45  48
ATOM     48  S   UNL     1       8.429  -2.709  14.205  1.00  0.00     0.127 S 
ATOM     49  O   UNL     1       9.496  -3.597  13.750  1.00  0.00    -0.237 OA
ATOM     50  O   UNL     1       8.882  -1.561  14.989  1.00  0.00    -0.237 OA
ATOM     51  O   UNL     1       7.244  -3.376  14.732  1.00  0.00    -0.744 OA
ENDBRANCH  45  48
ENDBRANCH  27  41
BRANCH  28  52
ATOM     52  C   UNL     1      -2.083  -4.037   5.928  1.00  0.00     0.023 A 
ATOM     53  C   UNL     1      -2.924  -3.050   5.380  1.00  0.00     0.012 A 
ATOM     54  C   UNL     1      -2.427  -5.395   5.764  1.00  0.00     0.148 A 
ATOM     55  C   UNL     1      -4.094  -3.405   4.704  1.00  0.00     0.002 A 
ATOM     56  C   UNL     1      -3.564  -5.744   5.043  1.00  0.00     0.091 A 
ATOM     57  F   UNL     1      -1.627  -6.322   6.309  1.00  0.00    -0.205 F 
ATOM     58  C   UNL     1      -4.408  -4.750   4.526  1.00  0.00     0.022 A 
BRANCH  56  59
ATOM     59  S   UNL     1      -3.983  -7.449   4.663  1.00  0.00     0.127 S 
ATOM     60  O   UNL     1      -5.190  -7.646   5.461  1.00  0.00    -0.237 OA
ATOM     61  O   UNL     1      -4.203  -7.391   3.218  1.00  0.00    -0.237 OA
ATOM     62  O   UNL     1      -2.826  -8.239   5.064  1.00  0.00    -0.744 OA
ENDBRANCH  56  59
ENDBRANCH  28  52
BRANCH  40  63
ATOM     63  C   UNL     1      -0.755  -0.487  11.815  1.00  0.00     0.023 A 
ATOM     64  C   UNL     1      -1.493  -1.253  12.736  1.00  0.00     0.012 A 
ATOM     65  C   UNL     1      -0.763   0.918  11.910  1.00  0.00     0.148 A 
ATOM     66  C   UNL     1      -2.248  -0.627  13.727  1.00  0.00     0.002 A 
ATOM     67  C   UNL     1      -1.473   1.532  12.933  1.00  0.00     0.091 A 
ATOM     68  F   UNL     1      -0.066   1.625  11.009  1.00  0.00    -0.205 F 
ATOM     69  C   UNL     1      -2.225   0.762  13.835  1.00  0.00     0.022 A 
BRANCH  67  70
ATOM     70  S   UNL     1      -1.405   3.304  13.214  1.00  0.00     0.127 S 
ATOM     71  O   UNL     1      -2.737   3.725  12.783  1.00  0.00    -0.237 OA
ATOM     72  O   UNL     1      -1.178   3.380  14.658  1.00  0.00    -0.237 OA
ATOM     73  O   UNL     1      -0.300   3.798  12.403  1.00  0.00    -0.744 OA
ENDBRANCH  67  70
ENDBRANCH  40  63
ENDBRANCH  14  15
ENDBRANCH   7   9
ENDBRANCH   6   7
ENDBRANCH   5   6
ENDBRANCH   4   5
ENDBRANCH   3   4
ENDBRANCH   2   3
ENDBRANCH   1   2
BRANCH   1  74
ATOM     74  O   UNL     1       4.998  -5.293  -1.050  1.00  0.00    -0.377 OA
BRANCH  74  75
ATOM     75  C   UNL     1       4.527  -4.171  -0.301  1.00  0.00     0.188 C 
BRANCH  75  76
ATOM     76  C   UNL     1       3.067  -3.837  -0.605  1.00  0.00     0.188 C 
BRANCH  76  77
ATOM     77  O   UNL     1       2.104  -4.769  -0.147  1.00  0.00    -0.376 OA
BRANCH  77  78
ATOM     78  C   UNL     1       1.939  -6.018  -0.809  1.00  0.00     0.202 C 
BRANCH  78  79
ATOM     79  C   UNL     1       2.025  -6.125  -2.342  1.00  0.00     0.261 C 
BRANCH  79  80
ATOM     80  O   UNL     1       3.316  -5.857  -2.938  1.00  0.00    -0.463 OA
BRANCH  80  81
ATOM     81  C   UNL     1       3.381  -4.820  -3.813  1.00  0.00     0.309 C 
ATOM     82  O   UNL     1       2.443  -4.065  -4.056  1.00  0.00    -0.252 OA
BRANCH  81  83
ATOM     83  C   UNL     1       4.679  -4.717  -4.608  1.00  0.00     0.104 C 
ATOM     84  C   UNL     1       6.010  -4.489  -3.846  1.00  0.00     0.022 C 
ATOM     85  C   UNL     1       4.728  -5.857  -5.634  1.00  0.00     0.055 C 
ATOM     86  C   UNL     1       6.869  -5.724  -3.486  1.00  0.00     0.057 C 
ATOM     87  C   UNL     1       5.335  -7.061  -5.019  1.00  0.00     0.006 A 
ATOM     88  C   UNL     1       6.303  -6.966  -4.053  1.00  0.00     0.039 A 
ATOM     89  C   UNL     1       5.070  -8.448  -5.155  1.00  0.00     0.169 A 
ATOM     90  N   UNL     1       6.583  -8.236  -3.659  1.00  0.00    -0.282 N 
ATOM     91  N   UNL     1       5.872  -9.160  -4.330  1.00  0.00    -0.171 NA
ATOM     92  H   UNL     1       7.236  -8.456  -2.955  1.00  0.00     0.190 HD
BRANCH  89  93
ATOM     93  C   UNL     1       4.038  -9.096  -6.042  1.00  0.00     0.435 C 
ATOM     94  F   UNL     1       4.542 -10.130  -6.769  1.00  0.00    -0.164 F 
ATOM     95  F   UNL     1       2.981  -9.580  -5.338  1.00  0.00    -0.164 F 
ATOM     96  F   UNL     1       3.520  -8.221  -6.951  1.00  0.00    -0.164 F 
ENDBRANCH  89  93
ENDBRANCH  81  83
ENDBRANCH  80  81
ENDBRANCH  79  80
ENDBRANCH  78  79
ENDBRANCH  77  78
ENDBRANCH  76  77
ENDBRANCH  75  76
ENDBRANCH  74  75
ENDBRANCH   1  74
TORSDOF 24
