REMARK SMILES C[N@H+](Cc1cc(Cl)ccc1[N+](=O)[O-])[C@H]1COC[C@@H]1C(=O)OCCOCCOCCOCCOC(=O)c1ccc(-c2c3nc(c(-c4cccc(S(=O)(=O)[O-])c4F)c4ccc([nH]4)c(-c4cccc(S(=O)(=O)[O-])c4F)c4nc(c(-c5cccc(S(=O)(=O)[O-])c5F)c5ccc2[nH]5)C=C4)C=C3)cc1
REMARK SMILES IDX 26 1 25 2 24 3 23 4 22 5 21 6 19 7 20 8 18 9 14 10 15 11
REMARK SMILES IDX 16 12 17 13 2 14 1 15 3 17 4 18 5 19 10 20 6 21 9 22 7 23
REMARK SMILES IDX 8 24 11 25 12 26 13 27 27 28 28 29 29 30 30 31 31 32 32 33
REMARK SMILES IDX 33 34 34 35 35 36 36 37 37 38 98 39 38 40 97 41 39 42 40 43
REMARK SMILES IDX 41 44 91 45 42 46 96 47 90 48 92 49 43 50 95 51 89 52 88 53
REMARK SMILES IDX 44 55 76 56 56 57 75 58 57 59 60 60 74 61 93 62 58 63 59 64
REMARK SMILES IDX 73 66 94 67 61 68 45 69 46 70 54 71 47 72 49 73 55 74 48 75
REMARK SMILES IDX 50 76 51 77 52 78 53 79 77 80 78 81 86 82 79 83 81 84 87 85
REMARK SMILES IDX 80 86 82 87 83 88 84 89 85 90 62 91 63 92 71 93 64 94 66 95
REMARK SMILES IDX 72 96 65 97 67 98 68 99 69 100 70 101
REMARK H PARENT 2 16 92 54 60 65
REMARK Flexibility Score: inf
ROOT
ATOM      1  C   UNL     1      -0.250   4.214  -0.072  1.00  0.00     0.188 C 
ENDROOT
BRANCH   1   2
ATOM      2  C   UNL     1      -1.220   3.038  -0.279  1.00  0.00     0.188 C 
BRANCH   2   3
ATOM      3  O   UNL     1      -2.575   3.387  -0.467  1.00  0.00    -0.376 OA
BRANCH   3   4
ATOM      4  C   UNL     1      -3.400   3.806   0.610  1.00  0.00     0.202 C 
BRANCH   4   5
ATOM      5  C   UNL     1      -2.943   4.208   2.031  1.00  0.00     0.261 C 
BRANCH   5   6
ATOM      6  O   UNL     1      -1.597   3.940   2.426  1.00  0.00    -0.463 OA
BRANCH   6   7
ATOM      7  C   UNL     1      -1.301   2.705   2.896  1.00  0.00     0.317 C 
ATOM      8  O   UNL     1      -2.112   1.797   3.005  1.00  0.00    -0.252 OA
BRANCH   7   9
ATOM      9  C   UNL     1       0.203   2.605   3.150  1.00  0.00     0.185 C 
ATOM     10  C   UNL     1       0.816   1.378   2.457  1.00  0.00     0.227 C 
ATOM     11  C   UNL     1       0.441   0.310   3.511  1.00  0.00     0.226 C 
ATOM     12  O   UNL     1       0.456   0.935   4.804  1.00  0.00    -0.374 OA
ATOM     13  C   UNL     1       0.452   2.356   4.615  1.00  0.00     0.182 C 
BRANCH  10  14
ATOM     14  N   UNL     1       2.303   1.420   2.203  1.00  0.00    -0.328 N 
ATOM     15  C   UNL     1       2.696   2.605   1.424  1.00  0.00     0.333 C 
ATOM     16  H   UNL     1       2.761   1.472   3.113  1.00  0.00     0.348 HD
BRANCH  14  17
ATOM     17  C   UNL     1       2.741   0.192   1.484  1.00  0.00     0.306 C 
BRANCH  17  18
ATOM     18  C   UNL     1       4.251   0.038   1.396  1.00  0.00     0.085 A 
ATOM     19  C   UNL     1       4.936  -0.471   2.519  1.00  0.00     0.037 A 
ATOM     20  C   UNL     1       5.030   0.427   0.287  1.00  0.00     0.278 A 
ATOM     21  C   UNL     1       6.331  -0.571   2.528  1.00  0.00     0.042 A 
ATOM     22  C   UNL     1       6.434   0.365   0.309  1.00  0.00     0.088 A 
ATOM     23  Cl  UNL     1       7.132  -1.236   3.897  1.00  0.00    -0.084 Cl
ATOM     24  C   UNL     1       7.082  -0.138   1.437  1.00  0.00     0.027 A 
BRANCH  20  25
ATOM     25  N   UNL     1       4.417   0.913  -0.943  1.00  0.00     0.063 N 
ATOM     26  O   UNL     1       4.832   1.989  -1.396  1.00  0.00    -0.258 OA
ATOM     27  O   UNL     1       3.553   0.201  -1.470  1.00  0.00    -0.258 OA
ENDBRANCH  20  25
ENDBRANCH  17  18
ENDBRANCH  14  17
ENDBRANCH  10  14
ENDBRANCH   7   9
ENDBRANCH   6   7
ENDBRANCH   5   6
ENDBRANCH   4   5
ENDBRANCH   3   4
ENDBRANCH   2   3
ENDBRANCH   1   2
BRANCH   1  28
ATOM     28  O   UNL     1      -0.899   5.424   0.261  1.00  0.00    -0.377 OA
BRANCH  28  29
ATOM     29  C   UNL     1      -1.371   6.237  -0.807  1.00  0.00     0.188 C 
BRANCH  29  30
ATOM     30  C   UNL     1      -1.746   5.609  -2.169  1.00  0.00     0.188 C 
BRANCH  30  31
ATOM     31  O   UNL     1      -0.844   4.608  -2.628  1.00  0.00    -0.376 OA
BRANCH  31  32
ATOM     32  C   UNL     1       0.072   4.937  -3.658  1.00  0.00     0.202 C 
BRANCH  32  33
ATOM     33  C   UNL     1       1.196   5.917  -3.295  1.00  0.00     0.261 C 
BRANCH  33  34
ATOM     34  O   UNL     1       0.778   7.186  -2.776  1.00  0.00    -0.460 OA
BRANCH  34  35
ATOM     35  C   UNL     1       0.032   7.972  -3.582  1.00  0.00     0.338 C 
ATOM     36  O   UNL     1      -0.304   7.734  -4.731  1.00  0.00    -0.246 OA
BRANCH  35  37
ATOM     37  C   UNL     1      -0.486   9.088  -2.765  1.00  0.00     0.060 A 
ATOM     38  C   UNL     1      -1.872   9.253  -2.640  1.00  0.00     0.016 A 
ATOM     39  C   UNL     1       0.393   9.954  -2.109  1.00  0.00     0.016 A 
ATOM     40  C   UNL     1      -2.384  10.309  -1.886  1.00  0.00     0.010 A 
ATOM     41  C   UNL     1      -0.122  11.024  -1.374  1.00  0.00     0.010 A 
ATOM     42  C   UNL     1      -1.511  11.227  -1.290  1.00  0.00    -0.014 A 
BRANCH  42  43
ATOM     43  C   UNL     1      -2.041  12.506  -0.758  1.00  0.00     0.031 A 
ATOM     44  C   UNL     1      -1.948  13.729  -1.632  1.00  0.00     0.074 A 
ATOM     45  C   UNL     1      -2.594  12.586   0.466  1.00  0.00     0.049 A 
ATOM     46  N   UNL     1      -2.288  14.963  -1.371  1.00  0.00    -0.248 NA
ATOM     47  C   UNL     1      -1.396  13.530  -2.984  1.00  0.00     0.031 C 
ATOM     48  C   UNL     1      -2.756  11.471   1.397  1.00  0.00     0.029 A 
ATOM     49  N   UNL     1      -3.098  13.668   1.144  1.00  0.00    -0.354 N 
ATOM     50  C   UNL     1      -1.968  15.691  -2.510  1.00  0.00     0.074 A 
ATOM     51  C   UNL     1      -1.395  14.766  -3.462  1.00  0.00     0.031 C 
ATOM     52  C   UNL     1      -3.291  11.935   2.541  1.00  0.00     0.029 A 
ATOM     53  C   UNL     1      -3.480  13.380   2.433  1.00  0.00     0.049 A 
ATOM     54  H   UNL     1      -3.178  14.565   0.745  1.00  0.00     0.167 HD
ATOM     55  C   UNL     1      -2.149  17.010  -2.751  1.00  0.00     0.034 A 
ATOM     56  C   UNL     1      -3.903  14.198   3.419  1.00  0.00     0.034 A 
ATOM     57  C   UNL     1      -2.728  17.928  -1.809  1.00  0.00     0.049 A 
ATOM     58  C   UNL     1      -4.050  15.675   3.138  1.00  0.00     0.074 A 
ATOM     59  C   UNL     1      -2.979  19.279  -1.969  1.00  0.00     0.029 A 
ATOM     60  N   UNL     1      -3.135  17.593  -0.527  1.00  0.00    -0.354 N 
ATOM     61  N   UNL     1      -3.839  16.331   2.022  1.00  0.00    -0.248 NA
ATOM     62  C   UNL     1      -4.524  16.519   4.245  1.00  0.00     0.031 C 
ATOM     63  C   UNL     1      -3.507  19.769  -0.771  1.00  0.00     0.029 A 
ATOM     64  C   UNL     1      -3.627  18.713   0.119  1.00  0.00     0.049 A 
ATOM     65  H   UNL     1      -3.083  16.692  -0.135  1.00  0.00     0.167 HD
ATOM     66  C   UNL     1      -4.198  17.650   2.281  1.00  0.00     0.074 A 
ATOM     67  C   UNL     1      -4.659  17.697   3.652  1.00  0.00     0.031 C 
ATOM     68  C   UNL     1      -4.142  18.731   1.463  1.00  0.00     0.034 A 
BRANCH  55  69
ATOM     69  C   UNL     1      -1.735  17.543  -4.096  1.00  0.00     0.023 A 
ATOM     70  C   UNL     1      -2.499  17.227  -5.238  1.00  0.00     0.012 A 
ATOM     71  C   UNL     1      -0.636  18.416  -4.217  1.00  0.00     0.148 A 
ATOM     72  C   UNL     1      -2.161  17.753  -6.484  1.00  0.00     0.002 A 
ATOM     73  C   UNL     1      -0.334  18.973  -5.453  1.00  0.00     0.091 A 
ATOM     74  F   UNL     1       0.088  18.685  -3.122  1.00  0.00    -0.205 F 
ATOM     75  C   UNL     1      -1.088  18.635  -6.589  1.00  0.00     0.022 A 
BRANCH  73  76
ATOM     76  S   UNL     1       0.977  20.179  -5.681  1.00  0.00     0.127 S 
ATOM     77  O   UNL     1       1.907  19.446  -6.538  1.00  0.00    -0.237 OA
ATOM     78  O   UNL     1       0.270  21.275  -6.344  1.00  0.00    -0.237 OA
ATOM     79  O   UNL     1       1.476  20.491  -4.349  1.00  0.00    -0.744 OA
ENDBRANCH  73  76
ENDBRANCH  55  69
BRANCH  56  80
ATOM     80  C   UNL     1      -4.229  13.655   4.770  1.00  0.00     0.023 A 
ATOM     81  C   UNL     1      -5.554  13.710   5.246  1.00  0.00     0.012 A 
ATOM     82  C   UNL     1      -3.225  13.120   5.600  1.00  0.00     0.148 A 
ATOM     83  C   UNL     1      -5.864  13.289   6.540  1.00  0.00     0.002 A 
ATOM     84  C   UNL     1      -3.551  12.646   6.866  1.00  0.00     0.091 A 
ATOM     85  F   UNL     1      -1.967  13.092   5.139  1.00  0.00    -0.205 F 
ATOM     86  C   UNL     1      -4.865  12.751   7.347  1.00  0.00     0.022 A 
BRANCH  84  87
ATOM     87  S   UNL     1      -2.354  11.825   7.923  1.00  0.00     0.127 S 
ATOM     88  O   UNL     1      -2.155  12.817   8.976  1.00  0.00    -0.237 OA
ATOM     89  O   UNL     1      -3.088  10.628   8.334  1.00  0.00    -0.237 OA
ATOM     90  O   UNL     1      -1.200  11.559   7.075  1.00  0.00    -0.744 OA
ENDBRANCH  84  87
ENDBRANCH  56  80
BRANCH  68  91
ATOM     91  C   UNL     1      -4.649  20.046   1.996  1.00  0.00     0.023 A 
ATOM     92  C   UNL     1      -3.920  20.741   2.981  1.00  0.00     0.012 A 
ATOM     93  C   UNL     1      -5.816  20.629   1.460  1.00  0.00     0.148 A 
ATOM     94  C   UNL     1      -4.366  21.976   3.453  1.00  0.00     0.002 A 
ATOM     95  C   UNL     1      -6.223  21.883   1.895  1.00  0.00     0.091 A 
ATOM     96  F   UNL     1      -6.503  19.946   0.533  1.00  0.00    -0.205 F 
ATOM     97  C   UNL     1      -5.509  22.551   2.903  1.00  0.00     0.022 A 
BRANCH  95  98
ATOM     98  S   UNL     1      -7.623  22.747   1.174  1.00  0.00     0.127 S 
ATOM     99  O   UNL     1      -8.594  22.706   2.266  1.00  0.00    -0.237 OA
ATOM    100  O   UNL     1      -7.063  24.072   0.905  1.00  0.00    -0.237 OA
ATOM    101  O   UNL     1      -7.993  21.993  -0.016  1.00  0.00    -0.744 OA
ENDBRANCH  95  98
ENDBRANCH  68  91
ENDBRANCH  42  43
ENDBRANCH  35  37
ENDBRANCH  34  35
ENDBRANCH  33  34
ENDBRANCH  32  33
ENDBRANCH  31  32
ENDBRANCH  30  31
ENDBRANCH  29  30
ENDBRANCH  28  29
ENDBRANCH   1  28
TORSDOF 27
