REMARK SMILES C[C@@H]1CCC[C@]1(Sc1ccc(F)cc1)C(=O)OCCOCCOCCOCCOC(=O)c1ccc(-c2c3nc(c(-c4cccc(S(=O)(=O)[O-])c4F)c4ccc([nH]4)c(-c4cccc(S(=O)(=O)[O-])c4F)c4nc(c(-c5cccc(S(=O)(=O)[O-])c5F)c5ccc2[nH]5)C=C4)C=C3)cc1
REMARK SMILES IDX 24 1 23 2 22 3 21 4 20 5 19 6 18 7 17 8 15 9 16 10 6 11 1 12
REMARK SMILES IDX 2 13 3 14 4 15 5 16 7 17 8 18 9 19 14 20 10 21 13 22 11 23
REMARK SMILES IDX 12 24 25 25 26 26 27 27 28 28 29 29 30 30 31 31 32 32 33 33
REMARK SMILES IDX 94 34 34 35 93 36 35 37 36 38 37 39 87 40 38 41 92 42 86 43
REMARK SMILES IDX 88 44 39 45 91 46 85 47 84 48 40 50 72 51 52 52 71 53 53 54
REMARK SMILES IDX 56 55 70 56 89 57 54 58 55 59 69 61 90 62 57 63 41 64 42 65
REMARK SMILES IDX 50 66 43 67 45 68 51 69 44 70 46 71 47 72 48 73 49 74 73 75
REMARK SMILES IDX 74 76 82 77 75 78 77 79 83 80 76 81 78 82 79 83 80 84 81 85
REMARK SMILES IDX 58 86 59 87 67 88 60 89 62 90 68 91 61 92 63 93 64 94 65 95
REMARK SMILES IDX 66 96
REMARK H PARENT 88 49 56 60
REMARK Flexibility Score: inf
ROOT
ATOM      1  C   UNL     1       3.778   2.405  -1.619  1.00  0.00     0.188 C 
ENDROOT
BRANCH   1   2
ATOM      2  O   UNL     1       2.366   2.359  -1.425  1.00  0.00    -0.377 OA
BRANCH   2   3
ATOM      3  C   UNL     1       1.466   2.663  -2.473  1.00  0.00     0.188 C 
BRANCH   3   4
ATOM      4  C   UNL     1       0.551   3.843  -2.151  1.00  0.00     0.188 C 
BRANCH   4   5
ATOM      5  O   UNL     1       1.156   5.054  -1.727  1.00  0.00    -0.376 OA
BRANCH   5   6
ATOM      6  C   UNL     1       1.972   5.049  -0.557  1.00  0.00     0.202 C 
BRANCH   6   7
ATOM      7  C   UNL     1       1.457   4.451   0.771  1.00  0.00     0.261 C 
BRANCH   7   8
ATOM      8  O   UNL     1       1.285   3.008   0.837  1.00  0.00    -0.462 OA
BRANCH   8   9
ATOM      9  C   UNL     1      -0.003   2.593   0.852  1.00  0.00     0.322 C 
ATOM     10  O   UNL     1      -0.947   3.381   0.718  1.00  0.00    -0.251 OA
BRANCH   9  11
ATOM     11  C   UNL     1      -0.293   1.088   1.148  1.00  0.00     0.120 C 
ATOM     12  C   UNL     1       1.770  -0.080  -0.061  1.00  0.00     0.010 C 
ATOM     13  C   UNL     1       0.649  -0.136   0.958  1.00  0.00     0.014 C 
ATOM     14  C   UNL     1      -0.277  -1.301   0.531  1.00  0.00     0.005 C 
ATOM     15  C   UNL     1      -1.440  -0.681  -0.207  1.00  0.00     0.002 C 
ATOM     16  C   UNL     1      -1.493   0.775   0.212  1.00  0.00     0.030 C 
BRANCH  11  17
ATOM     17  S   UNL     1      -0.761   1.243   3.002  1.00  0.00    -0.107 SA
BRANCH  17  18
ATOM     18  C   UNL     1      -1.557  -0.278   3.418  1.00  0.00     0.009 A 
ATOM     19  C   UNL     1      -0.812  -1.381   3.852  1.00  0.00     0.018 A 
ATOM     20  C   UNL     1      -2.953  -0.346   3.411  1.00  0.00     0.018 A 
ATOM     21  C   UNL     1      -1.453  -2.575   4.182  1.00  0.00     0.040 A 
ATOM     22  C   UNL     1      -3.596  -1.529   3.774  1.00  0.00     0.040 A 
ATOM     23  C   UNL     1      -2.840  -2.637   4.139  1.00  0.00     0.123 A 
ATOM     24  F   UNL     1      -3.460  -3.780   4.460  1.00  0.00    -0.207 F 
ENDBRANCH  17  18
ENDBRANCH  11  17
ENDBRANCH   9  11
ENDBRANCH   8   9
ENDBRANCH   7   8
ENDBRANCH   6   7
ENDBRANCH   5   6
ENDBRANCH   4   5
ENDBRANCH   3   4
ENDBRANCH   2   3
ENDBRANCH   1   2
BRANCH   1  25
ATOM     25  C   UNL     1       4.276   2.682  -3.030  1.00  0.00     0.188 C 
BRANCH  25  26
ATOM     26  O   UNL     1       3.931   1.716  -4.029  1.00  0.00    -0.376 OA
BRANCH  26  27
ATOM     27  C   UNL     1       3.756   0.358  -3.628  1.00  0.00     0.202 C 
BRANCH  27  28
ATOM     28  C   UNL     1       5.041  -0.462  -3.524  1.00  0.00     0.261 C 
BRANCH  28  29
ATOM     29  O   UNL     1       5.875  -0.027  -2.441  1.00  0.00    -0.460 OA
BRANCH  29  30
ATOM     30  C   UNL     1       6.878   0.810  -2.797  1.00  0.00     0.338 C 
ATOM     31  O   UNL     1       7.145   1.210  -3.915  1.00  0.00    -0.246 OA
BRANCH  30  32
ATOM     32  C   UNL     1       7.542   1.314  -1.583  1.00  0.00     0.060 A 
ATOM     33  C   UNL     1       7.761   2.693  -1.471  1.00  0.00     0.016 A 
ATOM     34  C   UNL     1       8.026   0.430  -0.617  1.00  0.00     0.016 A 
ATOM     35  C   UNL     1       8.521   3.190  -0.419  1.00  0.00     0.010 A 
ATOM     36  C   UNL     1       8.800   0.927   0.429  1.00  0.00     0.010 A 
ATOM     37  C   UNL     1       9.088   2.301   0.501  1.00  0.00    -0.014 A 
BRANCH  37  38
ATOM     38  C   UNL     1      10.144   2.782   1.414  1.00  0.00     0.031 A 
ATOM     39  C   UNL     1      11.578   2.522   1.048  1.00  0.00     0.074 A 
ATOM     40  C   UNL     1       9.827   3.435   2.543  1.00  0.00     0.049 A 
ATOM     41  N   UNL     1      12.663   2.798   1.717  1.00  0.00    -0.248 NA
ATOM     42  C   UNL     1      11.819   1.855  -0.244  1.00  0.00     0.031 C 
ATOM     43  C   UNL     1       8.468   3.752   2.978  1.00  0.00     0.029 A 
ATOM     44  N   UNL     1      10.628   3.925   3.541  1.00  0.00    -0.354 N 
ATOM     45  C   UNL     1      13.713   2.308   0.950  1.00  0.00     0.074 A 
ATOM     46  C   UNL     1      13.136   1.710  -0.233  1.00  0.00     0.031 C 
ATOM     47  C   UNL     1       8.527   4.359   4.174  1.00  0.00     0.029 A 
ATOM     48  C   UNL     1       9.924   4.443   4.600  1.00  0.00     0.049 A 
ATOM     49  H   UNL     1      11.612   3.908   3.502  1.00  0.00     0.167 HD
ATOM     50  C   UNL     1      15.039   2.364   1.206  1.00  0.00     0.034 A 
ATOM     51  C   UNL     1      10.358   4.903   5.790  1.00  0.00     0.034 A 
ATOM     52  C   UNL     1      15.598   2.984   2.376  1.00  0.00     0.049 A 
ATOM     53  C   UNL     1      11.837   4.935   6.065  1.00  0.00     0.074 A 
ATOM     54  C   UNL     1      16.930   3.147   2.705  1.00  0.00     0.029 A 
ATOM     55  N   UNL     1      14.857   3.529   3.414  1.00  0.00    -0.354 N 
ATOM     56  N   UNL     1      12.826   4.563   5.289  1.00  0.00    -0.248 NA
ATOM     57  C   UNL     1      12.265   5.476   7.363  1.00  0.00     0.031 C 
ATOM     58  C   UNL     1      16.995   3.750   3.963  1.00  0.00     0.029 A 
ATOM     59  C   UNL     1      15.703   4.008   4.396  1.00  0.00     0.049 A 
ATOM     60  H   UNL     1      13.873   3.568   3.446  1.00  0.00     0.167 HD
ATOM     61  C   UNL     1      13.993   4.848   5.989  1.00  0.00     0.074 A 
ATOM     62  C   UNL     1      13.587   5.440   7.247  1.00  0.00     0.031 C 
ATOM     63  C   UNL     1      15.282   4.633   5.626  1.00  0.00     0.034 A 
BRANCH  50  64
ATOM     64  C   UNL     1      15.981   1.753   0.204  1.00  0.00     0.023 A 
ATOM     65  C   UNL     1      16.186   2.378  -1.042  1.00  0.00     0.012 A 
ATOM     66  C   UNL     1      16.723   0.600   0.530  1.00  0.00     0.148 A 
ATOM     67  C   UNL     1      17.097   1.853  -1.958  1.00  0.00     0.002 A 
ATOM     68  C   UNL     1      17.665   0.112  -0.366  1.00  0.00     0.091 A 
ATOM     69  F   UNL     1      16.493   0.005   1.709  1.00  0.00    -0.205 F 
ATOM     70  C   UNL     1      17.845   0.729  -1.615  1.00  0.00     0.022 A 
BRANCH  68  71
ATOM     71  S   UNL     1      18.739  -1.275   0.017  1.00  0.00     0.127 S 
ATOM     72  O   UNL     1      18.251  -2.292  -0.913  1.00  0.00    -0.237 OA
ATOM     73  O   UNL     1      20.060  -0.737  -0.306  1.00  0.00    -0.237 OA
ATOM     74  O   UNL     1      18.529  -1.571   1.427  1.00  0.00    -0.744 OA
ENDBRANCH  68  71
ENDBRANCH  50  64
BRANCH  51  75
ATOM     75  C   UNL     1       9.365   5.397   6.783  1.00  0.00     0.023 A 
ATOM     76  C   UNL     1       9.272   6.776   7.048  1.00  0.00     0.012 A 
ATOM     77  C   UNL     1       8.455   4.514   7.399  1.00  0.00     0.148 A 
ATOM     78  C   UNL     1       8.296   7.268   7.915  1.00  0.00     0.002 A 
ATOM     79  C   UNL     1       7.449   5.016   8.215  1.00  0.00     0.091 A 
ATOM     80  F   UNL     1       8.570   3.204   7.139  1.00  0.00    -0.205 F 
ATOM     81  C   UNL     1       7.376   6.391   8.486  1.00  0.00     0.022 A 
BRANCH  79  82
ATOM     82  S   UNL     1       6.135   3.984   8.875  1.00  0.00     0.127 S 
ATOM     83  O   UNL     1       6.371   4.084  10.313  1.00  0.00    -0.237 OA
ATOM     84  O   UNL     1       4.942   4.681   8.395  1.00  0.00    -0.237 OA
ATOM     85  O   UNL     1       6.338   2.663   8.296  1.00  0.00    -0.744 OA
ENDBRANCH  79  82
ENDBRANCH  51  75
BRANCH  63  86
ATOM     86  C   UNL     1      16.370   5.054   6.579  1.00  0.00     0.023 A 
ATOM     87  C   UNL     1      16.606   4.304   7.747  1.00  0.00     0.012 A 
ATOM     88  C   UNL     1      17.245   6.107   6.242  1.00  0.00     0.148 A 
ATOM     89  C   UNL     1      17.688   4.606   8.574  1.00  0.00     0.002 A 
ATOM     90  C   UNL     1      18.351   6.366   7.041  1.00  0.00     0.091 A 
ATOM     91  F   UNL     1      16.993   6.814   5.131  1.00  0.00    -0.205 F 
ATOM     92  C   UNL     1      18.568   5.624   8.213  1.00  0.00     0.022 A 
BRANCH  90  93
ATOM     93  S   UNL     1      19.600   7.580   6.599  1.00  0.00     0.127 S 
ATOM     94  O   UNL     1      19.413   8.591   7.639  1.00  0.00    -0.237 OA
ATOM     95  O   UNL     1      20.836   6.806   6.715  1.00  0.00    -0.237 OA
ATOM     96  O   UNL     1      19.280   8.015   5.246  1.00  0.00    -0.744 OA
ENDBRANCH  90  93
ENDBRANCH  63  86
ENDBRANCH  37  38
ENDBRANCH  30  32
ENDBRANCH  29  30
ENDBRANCH  28  29
ENDBRANCH  27  28
ENDBRANCH  26  27
ENDBRANCH  25  26
ENDBRANCH   1  25
TORSDOF 25
