REMARK SMILES C/C=C/c1cncc(-c2ccc([C@@H](C)C(=O)OCCOCCOCCOCCOC(=O)c3ccc(-c4c5nc(c(-c6cccc(S(=O)(=O)[O-])c6F)c6ccc([nH]6)c(-c6cccc(S(=O)(=O)[O-])c6F)c6nc(c(-c7cccc(S(=O)(=O)[O-])c7F)c7ccc4[nH]7)C=C6)C=C5)cc3)cc2)c1
REMARK SMILES IDX 23 1 22 2 21 3 20 4 19 5 18 6 17 7 15 8 16 9 13 10 14 11
REMARK SMILES IDX 12 12 9 13 10 14 96 15 11 16 95 17 8 18 4 19 5 20 97 21 6 22
REMARK SMILES IDX 7 23 3 24 1 25 2 26 24 27 25 28 26 29 27 30 28 31 29 32
REMARK SMILES IDX 30 33 31 34 32 35 33 36 94 37 34 38 93 39 35 40 36 41 37 42
REMARK SMILES IDX 87 43 38 44 92 45 86 46 88 47 39 48 91 49 85 50 84 51 40 53
REMARK SMILES IDX 72 54 52 55 71 56 53 57 56 58 70 59 89 60 54 61 55 62 69 64
REMARK SMILES IDX 90 65 57 66 41 67 42 68 50 69 43 70 45 71 51 72 44 73 46 74
REMARK SMILES IDX 47 75 48 76 49 77 73 78 74 79 82 80 75 81 77 82 83 83 76 84
REMARK SMILES IDX 78 85 79 86 80 87 81 88 58 89 59 90 67 91 60 92 62 93 68 94
REMARK SMILES IDX 61 95 63 96 64 97 65 98 66 99
REMARK H PARENT 88 52 56 63
REMARK Flexibility Score: inf
ROOT
ATOM      1  O   UNL     1       2.408  -6.365   6.629  1.00  0.00    -0.377 OA
ENDROOT
BRANCH   1   2
ATOM      2  C   UNL     1       3.473  -5.466   6.846  1.00  0.00     0.188 C 
BRANCH   2   3
ATOM      3  C   UNL     1       4.719  -6.079   7.500  1.00  0.00     0.188 C 
BRANCH   3   4
ATOM      4  O   UNL     1       4.840  -7.482   7.688  1.00  0.00    -0.376 OA
BRANCH   4   5
ATOM      5  C   UNL     1       3.708  -8.268   8.036  1.00  0.00     0.202 C 
BRANCH   5   6
ATOM      6  C   UNL     1       2.807  -7.891   9.228  1.00  0.00     0.261 C 
BRANCH   6   7
ATOM      7  O   UNL     1       2.325  -6.533   9.282  1.00  0.00    -0.463 OA
BRANCH   7   8
ATOM      8  C   UNL     1       2.911  -5.719  10.188  1.00  0.00     0.313 C 
ATOM      9  O   UNL     1       3.807  -6.087  10.949  1.00  0.00    -0.252 OA
BRANCH   8  10
ATOM     10  C   UNL     1       2.388  -4.283  10.241  1.00  0.00     0.126 C 
ATOM     11  C   UNL     1       1.599  -4.110  11.534  1.00  0.00     0.025 C 
BRANCH  10  12
ATOM     12  C   UNL     1       1.655  -3.653   9.055  1.00  0.00    -0.034 A 
ATOM     13  C   UNL     1       0.345  -2.363   6.846  1.00  0.00    -0.017 A 
ATOM     14  C   UNL     1      -0.158  -3.544   7.423  1.00  0.00     0.009 A 
ATOM     15  C   UNL     1       1.532  -1.849   7.382  1.00  0.00     0.009 A 
ATOM     16  C   UNL     1       0.478  -4.176   8.509  1.00  0.00     0.005 A 
ATOM     17  C   UNL     1       2.166  -2.473   8.472  1.00  0.00     0.005 A 
BRANCH  13  18
ATOM     18  C   UNL     1      -0.405  -1.641   5.797  1.00  0.00     0.001 A 
ATOM     19  C   UNL     1      -0.622  -0.526   3.632  1.00  0.00    -0.007 A 
ATOM     20  C   UNL     1      -1.931  -0.214   3.993  1.00  0.00     0.119 A 
ATOM     21  C   UNL     1       0.147  -1.246   4.563  1.00  0.00     0.020 A 
ATOM     22  N   UNL     1      -2.504  -0.560   5.165  1.00  0.00    -0.263 NA
ATOM     23  C   UNL     1      -1.733  -1.266   6.024  1.00  0.00     0.119 A 
BRANCH  19  24
ATOM     24  C   UNL     1      -0.122  -0.021   2.345  1.00  0.00     0.005 C 
ATOM     25  C   UNL     1       1.047  -0.168   0.145  1.00  0.00     0.035 C 
ATOM     26  C   UNL     1       0.635  -0.712   1.479  1.00  0.00    -0.030 C 
ENDBRANCH  19  24
ENDBRANCH  13  18
ENDBRANCH  10  12
ENDBRANCH   8  10
ENDBRANCH   7   8
ENDBRANCH   6   7
ENDBRANCH   5   6
ENDBRANCH   4   5
ENDBRANCH   3   4
ENDBRANCH   2   3
ENDBRANCH   1   2
BRANCH   1  27
ATOM     27  C   UNL     1       2.227  -6.841   5.307  1.00  0.00     0.188 C 
BRANCH  27  28
ATOM     28  C   UNL     1       3.499  -7.169   4.504  1.00  0.00     0.188 C 
BRANCH  28  29
ATOM     29  O   UNL     1       4.442  -6.104   4.451  1.00  0.00    -0.376 OA
BRANCH  29  30
ATOM     30  C   UNL     1       4.409  -5.217   3.341  1.00  0.00     0.202 C 
BRANCH  30  31
ATOM     31  C   UNL     1       3.168  -4.328   3.138  1.00  0.00     0.261 C 
BRANCH  31  32
ATOM     32  O   UNL     1       1.904  -4.989   2.973  1.00  0.00    -0.460 OA
BRANCH  32  33
ATOM     33  C   UNL     1       1.782  -5.911   1.997  1.00  0.00     0.338 C 
ATOM     34  O   UNL     1       2.621  -6.201   1.159  1.00  0.00    -0.246 OA
BRANCH  33  35
ATOM     35  C   UNL     1       0.534  -6.669   2.237  1.00  0.00     0.060 A 
ATOM     36  C   UNL     1       0.612  -8.057   2.422  1.00  0.00     0.016 A 
ATOM     37  C   UNL     1      -0.702  -6.021   2.283  1.00  0.00     0.016 A 
ATOM     38  C   UNL     1      -0.550  -8.806   2.610  1.00  0.00     0.010 A 
ATOM     39  C   UNL     1      -1.868  -6.777   2.444  1.00  0.00     0.010 A 
ATOM     40  C   UNL     1      -1.800  -8.177   2.568  1.00  0.00    -0.014 A 
BRANCH  40  41
ATOM     41  C   UNL     1      -3.030  -8.997   2.442  1.00  0.00     0.031 A 
ATOM     42  C   UNL     1      -3.621  -9.185   1.069  1.00  0.00     0.074 A 
ATOM     43  C   UNL     1      -3.611  -9.570   3.511  1.00  0.00     0.049 A 
ATOM     44  N   UNL     1      -4.709  -9.813   0.712  1.00  0.00    -0.248 NA
ATOM     45  C   UNL     1      -2.881  -8.579  -0.052  1.00  0.00     0.031 C 
ATOM     46  C   UNL     1      -3.126  -9.484   4.887  1.00  0.00     0.029 A 
ATOM     47  N   UNL     1      -4.759 -10.319   3.604  1.00  0.00    -0.354 N 
ATOM     48  C   UNL     1      -4.807  -9.648  -0.664  1.00  0.00     0.074 A 
ATOM     49  C   UNL     1      -3.669  -8.858  -1.080  1.00  0.00     0.031 C 
ATOM     50  C   UNL     1      -3.989 -10.127   5.694  1.00  0.00     0.029 A 
ATOM     51  C   UNL     1      -5.101 -10.642   4.897  1.00  0.00     0.049 A 
ATOM     52  H   UNL     1      -5.285 -10.598   2.821  1.00  0.00     0.167 HD
ATOM     53  C   UNL     1      -5.753 -10.118  -1.510  1.00  0.00     0.034 A 
ATOM     54  C   UNL     1      -6.202 -11.255   5.380  1.00  0.00     0.034 A 
ATOM     55  C   UNL     1      -6.876 -10.915  -1.099  1.00  0.00     0.049 A 
ATOM     56  C   UNL     1      -7.263 -11.732   4.419  1.00  0.00     0.074 A 
ATOM     57  C   UNL     1      -7.864 -11.477  -1.887  1.00  0.00     0.029 A 
ATOM     58  N   UNL     1      -7.173 -11.246   0.213  1.00  0.00    -0.354 N 
ATOM     59  N   UNL     1      -7.286 -11.664   3.109  1.00  0.00    -0.248 NA
ATOM     60  C   UNL     1      -8.437 -12.401   5.001  1.00  0.00     0.031 C 
ATOM     61  C   UNL     1      -8.784 -12.111  -1.047  1.00  0.00     0.029 A 
ATOM     62  C   UNL     1      -8.339 -11.989   0.260  1.00  0.00     0.049 A 
ATOM     63  H   UNL     1      -6.634 -10.990   0.997  1.00  0.00     0.167 HD
ATOM     64  C   UNL     1      -8.449 -12.317   2.712  1.00  0.00     0.074 A 
ATOM     65  C   UNL     1      -9.095 -12.790   3.918  1.00  0.00     0.031 C 
ATOM     66  C   UNL     1      -8.943 -12.503   1.462  1.00  0.00     0.034 A 
BRANCH  53  67
ATOM     67  C   UNL     1      -5.616  -9.787  -2.972  1.00  0.00     0.023 A 
ATOM     68  C   UNL     1      -4.611 -10.403  -3.744  1.00  0.00     0.012 A 
ATOM     69  C   UNL     1      -6.529  -8.912  -3.595  1.00  0.00     0.148 A 
ATOM     70  C   UNL     1      -4.498 -10.133  -5.108  1.00  0.00     0.002 A 
ATOM     71  C   UNL     1      -6.441  -8.686  -4.963  1.00  0.00     0.091 A 
ATOM     72  F   UNL     1      -7.463  -8.320  -2.838  1.00  0.00    -0.205 F 
ATOM     73  C   UNL     1      -5.419  -9.285  -5.718  1.00  0.00     0.022 A 
BRANCH  71  74
ATOM     74  S   UNL     1      -7.627  -7.677  -5.857  1.00  0.00     0.127 S 
ATOM     75  O   UNL     1      -6.798  -6.543  -6.267  1.00  0.00    -0.237 OA
ATOM     76  O   UNL     1      -8.024  -8.567  -6.947  1.00  0.00    -0.237 OA
ATOM     77  O   UNL     1      -8.685  -7.361  -4.908  1.00  0.00    -0.744 OA
ENDBRANCH  71  74
ENDBRANCH  53  67
BRANCH  54  78
ATOM     78  C   UNL     1      -6.364 -11.467   6.847  1.00  0.00     0.023 A 
ATOM     79  C   UNL     1      -6.360 -12.776   7.369  1.00  0.00     0.012 A 
ATOM     80  C   UNL     1      -6.544 -10.380   7.725  1.00  0.00     0.148 A 
ATOM     81  C   UNL     1      -6.574 -13.001   8.730  1.00  0.00     0.002 A 
ATOM     82  C   UNL     1      -6.697 -10.608   9.088  1.00  0.00     0.091 A 
ATOM     83  F   UNL     1      -6.563  -9.144   7.209  1.00  0.00    -0.205 F 
ATOM     84  C   UNL     1      -6.733 -11.918   9.590  1.00  0.00     0.022 A 
BRANCH  82  85
ATOM     85  S   UNL     1      -6.784  -9.272  10.285  1.00  0.00     0.127 S 
ATOM     86  O   UNL     1      -8.166  -9.373  10.746  1.00  0.00    -0.237 OA
ATOM     87  O   UNL     1      -5.776  -9.681  11.263  1.00  0.00    -0.237 OA
ATOM     88  O   UNL     1      -6.450  -8.060   9.549  1.00  0.00    -0.744 OA
ENDBRANCH  82  85
ENDBRANCH  54  78
BRANCH  66  89
ATOM     89  C   UNL     1     -10.213 -13.302   1.315  1.00  0.00     0.023 A 
ATOM     90  C   UNL     1     -11.446 -12.761   1.732  1.00  0.00     0.012 A 
ATOM     91  C   UNL     1     -10.190 -14.564   0.688  1.00  0.00     0.148 A 
ATOM     92  C   UNL     1     -12.629 -13.480   1.561  1.00  0.00     0.002 A 
ATOM     93  C   UNL     1     -11.379 -15.250   0.470  1.00  0.00     0.091 A 
ATOM     94  F   UNL     1      -9.006 -15.068   0.310  1.00  0.00    -0.205 F 
ATOM     95  C   UNL     1     -12.597 -14.717   0.919  1.00  0.00     0.022 A 
BRANCH  93  96
ATOM     96  S   UNL     1     -11.447 -16.799  -0.437  1.00  0.00     0.127 S 
ATOM     97  O   UNL     1     -11.787 -17.749   0.622  1.00  0.00    -0.237 OA
ATOM     98  O   UNL     1     -12.521 -16.547  -1.398  1.00  0.00    -0.237 OA
ATOM     99  O   UNL     1     -10.130 -16.977  -1.033  1.00  0.00    -0.744 OA
ENDBRANCH  93  96
ENDBRANCH  66  89
ENDBRANCH  40  41
ENDBRANCH  33  35
ENDBRANCH  32  33
ENDBRANCH  31  32
ENDBRANCH  30  31
ENDBRANCH  29  30
ENDBRANCH  28  29
ENDBRANCH  27  28
ENDBRANCH   1  27
TORSDOF 26
