REMARK SMILES Cc1cc(C(=O)Nc2cccc(C(=O)NCC(=O)OCCOCCOCCOCCOC(=O)c3ccc(-c4c5nc(c(-c6cccc(S(=O)(=O)[O-])c6F)c6ccc([nH]6)c(-c6cccc(S(=O)(=O)[O-])c6F)c6nc(c(-c7cccc(S(=O)(=O)[O-])c7F)c7ccc4[nH]7)C=C6)C=C5)cc3)c2)no1
REMARK SMILES IDX 24 1 23 2 22 3 21 4 20 5 19 6 17 7 18 8 16 9 15 10 13 11
REMARK SMILES IDX 14 12 12 14 8 15 9 16 97 17 10 18 11 19 7 20 5 21 6 22 4 24
REMARK SMILES IDX 1 25 2 26 3 27 99 28 98 29 25 30 26 31 27 32 28 33 29 34
REMARK SMILES IDX 30 35 31 36 32 37 33 38 34 39 35 40 96 41 36 42 95 43 37 44
REMARK SMILES IDX 38 45 39 46 89 47 40 48 94 49 88 50 90 51 41 52 93 53 87 54
REMARK SMILES IDX 86 55 42 57 74 58 54 59 73 60 55 61 58 62 72 63 91 64 56 65
REMARK SMILES IDX 57 66 71 68 92 69 59 70 43 71 44 72 52 73 45 74 47 75 53 76
REMARK SMILES IDX 46 77 48 78 49 79 50 80 51 81 75 82 76 83 84 84 77 85 79 86
REMARK SMILES IDX 85 87 78 88 80 89 81 90 82 91 83 92 60 93 61 94 69 95 62 96
REMARK SMILES IDX 64 97 70 98 63 99 65 100 66 101 67 102 68 103
REMARK H PARENT 15 13 7 23 90 56 58 67
REMARK Flexibility Score: inf
ROOT
ATOM      1  C   UNL     1       1.353  -1.055   5.554  1.00  0.00     0.188 C 
ENDROOT
BRANCH   1   2
ATOM      2  C   UNL     1       0.230  -0.022   5.727  1.00  0.00     0.188 C 
BRANCH   2   3
ATOM      3  O   UNL     1      -0.910  -0.275   6.535  1.00  0.00    -0.376 OA
BRANCH   3   4
ATOM      4  C   UNL     1      -1.613  -1.511   6.510  1.00  0.00     0.202 C 
BRANCH   4   5
ATOM      5  C   UNL     1      -2.048  -2.190   5.202  1.00  0.00     0.261 C 
BRANCH   5   6
ATOM      6  O   UNL     1      -1.001  -2.366   4.242  1.00  0.00    -0.462 OA
BRANCH   6   7
ATOM      7  C   UNL     1      -0.982  -1.471   3.230  1.00  0.00     0.325 C 
ATOM      8  O   UNL     1      -1.854  -0.637   3.018  1.00  0.00    -0.250 OA
BRANCH   7   9
ATOM      9  C   UNL     1       0.322  -1.513   2.426  1.00  0.00     0.239 C 
BRANCH   9  10
ATOM     10  N   UNL     1       1.263  -2.620   2.571  1.00  0.00    -0.341 N 
ATOM     11  C   UNL     1       1.431  -3.790   1.880  1.00  0.00     0.251 C 
ATOM     12  O   UNL     1       2.467  -4.422   2.084  1.00  0.00    -0.269 OA
ATOM     13  H   UNL     1       1.903  -2.502   3.310  1.00  0.00     0.164 HD
BRANCH  11  14
ATOM     14  C   UNL     1       0.472  -4.268   0.847  1.00  0.00     0.041 A 
ATOM     15  C   UNL     1      -1.530  -3.978  -0.486  1.00  0.00     0.042 A 
ATOM     16  C   UNL     1      -1.182  -5.062  -1.281  1.00  0.00     0.026 A 
ATOM     17  C   UNL     1      -0.781  -3.699   0.649  1.00  0.00     0.040 A 
ATOM     18  C   UNL     1       0.019  -5.732  -1.034  1.00  0.00     0.003 A 
ATOM     19  C   UNL     1       0.866  -5.304  -0.006  1.00  0.00     0.014 A 
BRANCH  15  20
ATOM     20  N   UNL     1      -2.608  -3.158  -0.841  1.00  0.00    -0.321 N 
ATOM     21  C   UNL     1      -2.725  -1.772  -0.739  1.00  0.00     0.277 C 
ATOM     22  O   UNL     1      -3.861  -1.294  -0.801  1.00  0.00    -0.267 OA
ATOM     23  H   UNL     1      -3.392  -3.623  -1.213  1.00  0.00     0.170 HD
BRANCH  21  24
ATOM     24  C   UNL     1      -1.518  -0.912  -0.682  1.00  0.00     0.171 A 
ATOM     25  C   UNL     1       1.993   0.207  -0.509  1.00  0.00     0.091 C 
ATOM     26  C   UNL     1       0.552  -0.084  -0.653  1.00  0.00     0.134 A 
ATOM     27  C   UNL     1      -0.175  -1.157  -1.115  1.00  0.00     0.082 A 
ATOM     28  O   UNL     1      -0.304   0.827  -0.126  1.00  0.00    -0.361 OA
ATOM     29  N   UNL     1      -1.591   0.331  -0.167  1.00  0.00    -0.074 NA
ENDBRANCH  21  24
ENDBRANCH  15  20
ENDBRANCH  11  14
ENDBRANCH   9  10
ENDBRANCH   7   9
ENDBRANCH   6   7
ENDBRANCH   5   6
ENDBRANCH   4   5
ENDBRANCH   3   4
ENDBRANCH   2   3
ENDBRANCH   1   2
BRANCH   1  30
ATOM     30  O   UNL     1       1.016  -2.374   5.908  1.00  0.00    -0.377 OA
BRANCH  30  31
ATOM     31  C   UNL     1       1.401  -2.812   7.206  1.00  0.00     0.188 C 
BRANCH  31  32
ATOM     32  C   UNL     1       1.484  -1.760   8.333  1.00  0.00     0.188 C 
BRANCH  32  33
ATOM     33  O   UNL     1       2.215  -0.583   8.006  1.00  0.00    -0.376 OA
BRANCH  33  34
ATOM     34  C   UNL     1       3.608  -0.526   8.283  1.00  0.00     0.202 C 
BRANCH  34  35
ATOM     35  C   UNL     1       4.543  -1.548   7.608  1.00  0.00     0.261 C 
BRANCH  35  36
ATOM     36  O   UNL     1       4.306  -2.931   7.905  1.00  0.00    -0.460 OA
BRANCH  36  37
ATOM     37  C   UNL     1       4.258  -3.295   9.204  1.00  0.00     0.338 C 
ATOM     38  O   UNL     1       4.498  -2.598  10.167  1.00  0.00    -0.246 OA
BRANCH  37  39
ATOM     39  C   UNL     1       3.641  -4.638   9.277  1.00  0.00     0.060 A 
ATOM     40  C   UNL     1       2.498  -4.799  10.071  1.00  0.00     0.016 A 
ATOM     41  C   UNL     1       4.190  -5.725   8.595  1.00  0.00     0.016 A 
ATOM     42  C   UNL     1       1.940  -6.062  10.241  1.00  0.00     0.010 A 
ATOM     43  C   UNL     1       3.645  -6.998   8.786  1.00  0.00     0.010 A 
ATOM     44  C   UNL     1       2.552  -7.176   9.654  1.00  0.00    -0.014 A 
BRANCH  44  45
ATOM     45  C   UNL     1       2.204  -8.523  10.162  1.00  0.00     0.031 A 
ATOM     46  C   UNL     1       3.092  -9.132  11.216  1.00  0.00     0.074 A 
ATOM     47  C   UNL     1       1.101  -9.169   9.747  1.00  0.00     0.049 A 
ATOM     48  N   UNL     1       2.981 -10.277  11.835  1.00  0.00    -0.248 NA
ATOM     49  C   UNL     1       4.263  -8.338  11.627  1.00  0.00     0.031 C 
ATOM     50  C   UNL     1       0.155  -8.676   8.749  1.00  0.00     0.029 A 
ATOM     51  N   UNL     1       0.602 -10.394  10.112  1.00  0.00    -0.354 N 
ATOM     52  C   UNL     1       4.079 -10.355  12.684  1.00  0.00     0.074 A 
ATOM     53  C   UNL     1       4.853  -9.149  12.491  1.00  0.00     0.031 C 
ATOM     54  C   UNL     1      -0.801  -9.603   8.562  1.00  0.00     0.029 A 
ATOM     55  C   UNL     1      -0.522 -10.760   9.411  1.00  0.00     0.049 A 
ATOM     56  H   UNL     1       1.010 -10.957  10.809  1.00  0.00     0.167 HD
ATOM     57  C   UNL     1       4.407 -11.333  13.560  1.00  0.00     0.034 A 
ATOM     58  C   UNL     1      -1.229 -11.907   9.441  1.00  0.00     0.034 A 
ATOM     59  C   UNL     1       3.631 -12.525  13.761  1.00  0.00     0.049 A 
ATOM     60  C   UNL     1      -0.826 -12.995  10.406  1.00  0.00     0.074 A 
ATOM     61  C   UNL     1       3.858 -13.560  14.649  1.00  0.00     0.029 A 
ATOM     62  N   UNL     1       2.485 -12.850  13.051  1.00  0.00    -0.354 N 
ATOM     63  N   UNL     1       0.152 -13.008  11.279  1.00  0.00    -0.248 NA
ATOM     64  C   UNL     1      -1.653 -14.211  10.415  1.00  0.00     0.031 C 
ATOM     65  C   UNL     1       2.870 -14.530  14.450  1.00  0.00     0.029 A 
ATOM     66  C   UNL     1       2.000 -14.077  13.471  1.00  0.00     0.049 A 
ATOM     67  H   UNL     1       2.076 -12.291  12.351  1.00  0.00     0.167 HD
ATOM     68  C   UNL     1       0.035 -14.212  11.968  1.00  0.00     0.074 A 
ATOM     69  C   UNL     1      -1.125 -14.889  11.424  1.00  0.00     0.031 C 
ATOM     70  C   UNL     1       0.819 -14.718  12.953  1.00  0.00     0.034 A 
BRANCH  57  71
ATOM     71  C   UNL     1       5.663 -11.147  14.371  1.00  0.00     0.023 A 
ATOM     72  C   UNL     1       5.705 -10.177  15.393  1.00  0.00     0.012 A 
ATOM     73  C   UNL     1       6.790 -11.961  14.144  1.00  0.00     0.148 A 
ATOM     74  C   UNL     1       6.861  -9.995  16.152  1.00  0.00     0.002 A 
ATOM     75  C   UNL     1       7.920 -11.808  14.937  1.00  0.00     0.091 A 
ATOM     76  F   UNL     1       6.739 -12.860  13.150  1.00  0.00    -0.205 F 
ATOM     77  C   UNL     1       7.963 -10.817  15.931  1.00  0.00     0.022 A 
BRANCH  75  78
ATOM     78  S   UNL     1       9.360 -12.870  14.785  1.00  0.00     0.127 S 
ATOM     79  O   UNL     1      10.356 -11.942  14.251  1.00  0.00    -0.237 OA
ATOM     80  O   UNL     1       9.587 -13.276  16.172  1.00  0.00    -0.237 OA
ATOM     81  O   UNL     1       8.972 -13.951  13.890  1.00  0.00    -0.744 OA
ENDBRANCH  75  78
ENDBRANCH  57  71
BRANCH  58  82
ATOM     82  C   UNL     1      -2.411 -12.082   8.550  1.00  0.00     0.023 A 
ATOM     83  C   UNL     1      -3.703 -12.157   9.106  1.00  0.00     0.012 A 
ATOM     84  C   UNL     1      -2.258 -12.178   7.153  1.00  0.00     0.148 A 
ATOM     85  C   UNL     1      -4.817 -12.363   8.291  1.00  0.00     0.002 A 
ATOM     86  C   UNL     1      -3.377 -12.324   6.342  1.00  0.00     0.091 A 
ATOM     87  F   UNL     1      -1.019 -12.119   6.644  1.00  0.00    -0.205 F 
ATOM     88  C   UNL     1      -4.655 -12.437   6.910  1.00  0.00     0.022 A 
BRANCH  86  89
ATOM     89  S   UNL     1      -3.279 -12.306   4.549  1.00  0.00     0.127 S 
ATOM     90  O   UNL     1      -3.655 -13.677   4.214  1.00  0.00    -0.237 OA
ATOM     91  O   UNL     1      -4.276 -11.292   4.205  1.00  0.00    -0.237 OA
ATOM     92  O   UNL     1      -1.908 -11.934   4.230  1.00  0.00    -0.744 OA
ENDBRANCH  86  89
ENDBRANCH  58  82
BRANCH  70  93
ATOM     93  C   UNL     1       0.424 -16.047  13.548  1.00  0.00     0.023 A 
ATOM     94  C   UNL     1       0.546 -17.229  12.789  1.00  0.00     0.012 A 
ATOM     95  C   UNL     1      -0.021 -16.129  14.882  1.00  0.00     0.148 A 
ATOM     96  C   UNL     1       0.184 -18.461  13.331  1.00  0.00     0.002 A 
ATOM     97  C   UNL     1      -0.327 -17.368  15.434  1.00  0.00     0.091 A 
ATOM     98  F   UNL     1      -0.146 -14.995  15.587  1.00  0.00    -0.205 F 
ATOM     99  C   UNL     1      -0.243 -18.532  14.655  1.00  0.00     0.022 A 
BRANCH  97 100
ATOM    100  S   UNL     1      -0.785 -17.564  17.160  1.00  0.00     0.127 S 
ATOM    101  O   UNL     1      -2.219 -17.830  17.059  1.00  0.00    -0.237 OA
ATOM    102  O   UNL     1       0.021 -18.715  17.567  1.00  0.00    -0.237 OA
ATOM    103  O   UNL     1      -0.424 -16.314  17.815  1.00  0.00    -0.744 OA
ENDBRANCH  97 100
ENDBRANCH  70  93
ENDBRANCH  44  45
ENDBRANCH  37  39
ENDBRANCH  36  37
ENDBRANCH  35  36
ENDBRANCH  34  35
ENDBRANCH  33  34
ENDBRANCH  32  33
ENDBRANCH  31  32
ENDBRANCH  30  31
ENDBRANCH   1  30
TORSDOF 27
