REMARK SMILES Cc1cccc(-c2cc(C(=O)OCCOCCOCCOCCOC(=O)c3ccc(-c4c5nc(c(-c6cccc(S(=O)(=O)[O-])c6F)c6ccc([nH]6)c(-c6cccc(S(=O)(=O)[O-])c6F)c6nc(c(-c7cccc(S(=O)(=O)[O-])c7F)c7ccc4[nH]7)C=C6)C=C5)cc3)ccn2)c1
REMARK SMILES IDX 19 1 18 2 17 3 16 4 15 5 14 6 13 7 12 8 10 9 11 10 9 11 7 12
REMARK SMILES IDX 8 13 92 14 91 15 90 16 6 17 1 18 2 19 3 20 93 21 4 22 5 23
REMARK SMILES IDX 20 24 21 25 22 26 23 27 24 28 25 29 26 30 27 31 28 32 89 33
REMARK SMILES IDX 29 34 88 35 30 36 31 37 32 38 82 39 33 40 87 41 81 42 83 43
REMARK SMILES IDX 34 44 86 45 80 46 79 47 35 49 67 50 47 51 66 52 48 53 51 54
REMARK SMILES IDX 65 55 84 56 49 57 50 58 64 60 85 61 52 62 36 63 37 64 45 65
REMARK SMILES IDX 38 66 40 67 46 68 39 69 41 70 42 71 43 72 44 73 68 74 69 75
REMARK SMILES IDX 77 76 70 77 72 78 78 79 71 80 73 81 74 82 75 83 76 84 53 85
REMARK SMILES IDX 54 86 62 87 55 88 57 89 63 90 56 91 58 92 59 93 60 94 61 95
REMARK H PARENT 83 48 51 59
REMARK Flexibility Score: inf
ROOT
ATOM      1  C   UNL     1      -4.979   2.123  -4.979  1.00  0.00     0.188 C 
ENDROOT
BRANCH   1   2
ATOM      2  O   UNL     1      -4.596   2.429  -3.647  1.00  0.00    -0.377 OA
BRANCH   2   3
ATOM      3  C   UNL     1      -5.477   3.065  -2.751  1.00  0.00     0.188 C 
BRANCH   3   4
ATOM      4  C   UNL     1      -5.482   4.591  -2.596  1.00  0.00     0.188 C 
BRANCH   4   5
ATOM      5  O   UNL     1      -4.741   5.461  -3.390  1.00  0.00    -0.376 OA
BRANCH   5   6
ATOM      6  C   UNL     1      -3.479   5.222  -3.961  1.00  0.00     0.202 C 
BRANCH   6   7
ATOM      7  C   UNL     1      -2.481   4.169  -3.556  1.00  0.00     0.261 C 
BRANCH   7   8
ATOM      8  O   UNL     1      -1.945   4.250  -2.244  1.00  0.00    -0.460 OA
BRANCH   8   9
ATOM      9  C   UNL     1      -2.511   4.977  -1.262  1.00  0.00     0.338 C 
ATOM     10  O   UNL     1      -3.089   6.036  -1.272  1.00  0.00    -0.246 OA
BRANCH   9  11
ATOM     11  C   UNL     1      -2.479   4.091  -0.097  1.00  0.00     0.063 A 
ATOM     12  C   UNL     1      -1.932   1.981   0.853  1.00  0.00     0.071 A 
ATOM     13  C   UNL     1      -1.788   2.892  -0.166  1.00  0.00     0.044 A 
ATOM     14  N   UNL     1      -2.723   2.210   1.924  1.00  0.00    -0.256 NA
ATOM     15  C   UNL     1      -3.351   3.417   1.977  1.00  0.00     0.112 A 
ATOM     16  C   UNL     1      -3.262   4.389   1.002  1.00  0.00     0.036 A 
BRANCH  12  17
ATOM     17  C   UNL     1      -1.185   0.735   0.726  1.00  0.00     0.000 A 
ATOM     18  C   UNL     1       2.457  -0.187   0.080  1.00  0.00     0.044 C 
ATOM     19  C   UNL     1       0.973  -0.312   0.239  1.00  0.00    -0.050 A 
ATOM     20  C   UNL     1       0.315  -1.524   0.017  1.00  0.00     0.003 A 
ATOM     21  C   UNL     1       0.217   0.800   0.614  1.00  0.00     0.013 A 
ATOM     22  C   UNL     1      -1.076  -1.609   0.135  1.00  0.00     0.001 A 
ATOM     23  C   UNL     1      -1.826  -0.483   0.481  1.00  0.00     0.010 A 
ENDBRANCH  12  17
ENDBRANCH   9  11
ENDBRANCH   8   9
ENDBRANCH   7   8
ENDBRANCH   6   7
ENDBRANCH   5   6
ENDBRANCH   4   5
ENDBRANCH   3   4
ENDBRANCH   2   3
ENDBRANCH   1   2
BRANCH   1  24
ATOM     24  C   UNL     1      -5.151   3.266  -5.977  1.00  0.00     0.188 C 
BRANCH  24  25
ATOM     25  O   UNL     1      -5.853   4.361  -5.436  1.00  0.00    -0.376 OA
BRANCH  25  26
ATOM     26  C   UNL     1      -7.260   4.379  -5.507  1.00  0.00     0.202 C 
BRANCH  26  27
ATOM     27  C   UNL     1      -7.723   4.737  -6.914  1.00  0.00     0.261 C 
BRANCH  27  28
ATOM     28  O   UNL     1      -7.154   6.013  -7.264  1.00  0.00    -0.460 OA
BRANCH  28  29
ATOM     29  C   UNL     1      -5.975   5.938  -7.946  1.00  0.00     0.338 C 
ATOM     30  O   UNL     1      -5.760   5.155  -8.858  1.00  0.00    -0.246 OA
BRANCH  29  31
ATOM     31  C   UNL     1      -4.947   6.821  -7.317  1.00  0.00     0.060 A 
ATOM     32  C   UNL     1      -3.641   6.857  -7.834  1.00  0.00     0.016 A 
ATOM     33  C   UNL     1      -5.212   7.440  -6.096  1.00  0.00     0.016 A 
ATOM     34  C   UNL     1      -2.588   7.435  -7.103  1.00  0.00     0.010 A 
ATOM     35  C   UNL     1      -4.162   7.975  -5.363  1.00  0.00     0.010 A 
ATOM     36  C   UNL     1      -2.834   7.958  -5.842  1.00  0.00    -0.014 A 
BRANCH  36  37
ATOM     37  C   UNL     1      -1.801   8.381  -4.876  1.00  0.00     0.031 A 
ATOM     38  C   UNL     1      -1.962   9.687  -4.181  1.00  0.00     0.074 A 
ATOM     39  C   UNL     1      -1.092   7.423  -4.229  1.00  0.00     0.049 A 
ATOM     40  N   UNL     1      -1.280  10.068  -3.153  1.00  0.00    -0.248 NA
ATOM     41  C   UNL     1      -2.928  10.697  -4.605  1.00  0.00     0.031 C 
ATOM     42  C   UNL     1      -0.881   7.407  -2.784  1.00  0.00     0.029 A 
ATOM     43  N   UNL     1      -0.556   6.209  -4.639  1.00  0.00    -0.354 N 
ATOM     44  C   UNL     1      -2.039  11.025  -2.524  1.00  0.00     0.074 A 
ATOM     45  C   UNL     1      -2.876  11.547  -3.574  1.00  0.00     0.031 C 
ATOM     46  C   UNL     1      -0.110   6.379  -2.438  1.00  0.00     0.029 A 
ATOM     47  C   UNL     1       0.311   5.730  -3.660  1.00  0.00     0.049 A 
ATOM     48  H   UNL     1      -0.759   5.757  -5.490  1.00  0.00     0.167 HD
ATOM     49  C   UNL     1      -2.018  11.108  -1.160  1.00  0.00     0.034 A 
ATOM     50  C   UNL     1       1.522   5.138  -3.794  1.00  0.00     0.034 A 
ATOM     51  C   UNL     1      -0.994  10.192  -0.556  1.00  0.00     0.049 A 
ATOM     52  C   UNL     1       2.484   6.049  -3.069  1.00  0.00     0.074 A 
ATOM     53  C   UNL     1      -1.028   9.189   0.403  1.00  0.00     0.029 A 
ATOM     54  N   UNL     1       0.297  10.109  -1.116  1.00  0.00    -0.354 N 
ATOM     55  N   UNL     1       2.157   7.304  -2.851  1.00  0.00    -0.248 NA
ATOM     56  C   UNL     1       3.688   5.672  -2.330  1.00  0.00     0.031 C 
ATOM     57  C   UNL     1       0.213   8.470   0.352  1.00  0.00     0.029 A 
ATOM     58  C   UNL     1       1.031   9.032  -0.624  1.00  0.00     0.049 A 
ATOM     59  H   UNL     1       0.644  10.745  -1.783  1.00  0.00     0.167 HD
ATOM     60  C   UNL     1       2.827   7.757  -1.765  1.00  0.00     0.074 A 
ATOM     61  C   UNL     1       3.879   6.767  -1.561  1.00  0.00     0.031 C 
ATOM     62  C   UNL     1       2.441   8.816  -0.992  1.00  0.00     0.034 A 
BRANCH  49  63
ATOM     63  C   UNL     1      -3.032  11.924  -0.327  1.00  0.00     0.023 A 
ATOM     64  C   UNL     1      -2.797  12.036   1.062  1.00  0.00     0.012 A 
ATOM     65  C   UNL     1      -4.207  12.588  -0.788  1.00  0.00     0.148 A 
ATOM     66  C   UNL     1      -3.627  12.782   1.919  1.00  0.00     0.002 A 
ATOM     67  C   UNL     1      -4.979  13.412   0.046  1.00  0.00     0.091 A 
ATOM     68  F   UNL     1      -4.676  12.355  -2.015  1.00  0.00    -0.205 F 
ATOM     69  C   UNL     1      -4.697  13.501   1.407  1.00  0.00     0.022 A 
BRANCH  67  70
ATOM     70  S   UNL     1      -6.340  14.437  -0.565  1.00  0.00     0.127 S 
ATOM     71  O   UNL     1      -7.482  13.926   0.195  1.00  0.00    -0.237 OA
ATOM     72  O   UNL     1      -5.914  15.783  -0.180  1.00  0.00    -0.237 OA
ATOM     73  O   UNL     1      -6.413  14.215  -2.003  1.00  0.00    -0.744 OA
ENDBRANCH  67  70
ENDBRANCH  49  63
BRANCH  50  74
ATOM     74  C   UNL     1       1.590   4.155  -4.903  1.00  0.00     0.023 A 
ATOM     75  C   UNL     1       1.014   2.887  -4.609  1.00  0.00     0.012 A 
ATOM     76  C   UNL     1       1.509   4.626  -6.223  1.00  0.00     0.148 A 
ATOM     77  C   UNL     1       0.227   2.208  -5.549  1.00  0.00     0.002 A 
ATOM     78  C   UNL     1       0.650   3.991  -7.124  1.00  0.00     0.091 A 
ATOM     79  F   UNL     1       2.091   5.798  -6.506  1.00  0.00    -0.205 F 
ATOM     80  C   UNL     1      -0.003   2.794  -6.787  1.00  0.00     0.022 A 
BRANCH  78  81
ATOM     81  S   UNL     1       0.060   4.840  -8.600  1.00  0.00     0.127 S 
ATOM     82  O   UNL     1       0.796   4.156  -9.657  1.00  0.00    -0.237 OA
ATOM     83  O   UNL     1      -1.374   4.556  -8.560  1.00  0.00    -0.237 OA
ATOM     84  O   UNL     1       0.394   6.239  -8.383  1.00  0.00    -0.744 OA
ENDBRANCH  78  81
ENDBRANCH  50  74
BRANCH  62  85
ATOM     85  C   UNL     1       3.476   9.864  -0.685  1.00  0.00     0.023 A 
ATOM     86  C   UNL     1       4.718   9.875  -1.357  1.00  0.00     0.012 A 
ATOM     87  C   UNL     1       3.144  10.993   0.093  1.00  0.00     0.148 A 
ATOM     88  C   UNL     1       5.606  10.940  -1.236  1.00  0.00     0.002 A 
ATOM     89  C   UNL     1       3.977  12.101   0.108  1.00  0.00     0.091 A 
ATOM     90  F   UNL     1       2.021  11.000   0.825  1.00  0.00    -0.205 F 
ATOM     91  C   UNL     1       5.222  12.067  -0.525  1.00  0.00     0.022 A 
BRANCH  89  92
ATOM     92  S   UNL     1       3.410  13.663   0.784  1.00  0.00     0.127 S 
ATOM     93  O   UNL     1       4.003  13.639   2.119  1.00  0.00    -0.237 OA
ATOM     94  O   UNL     1       4.009  14.633  -0.135  1.00  0.00    -0.237 OA
ATOM     95  O   UNL     1       1.956  13.605   0.726  1.00  0.00    -0.744 OA
ENDBRANCH  89  92
ENDBRANCH  62  85
ENDBRANCH  36  37
ENDBRANCH  29  31
ENDBRANCH  28  29
ENDBRANCH  27  28
ENDBRANCH  26  27
ENDBRANCH  25  26
ENDBRANCH  24  25
ENDBRANCH   1  24
TORSDOF 24
