REMARK SMILES O=C(CCN1C(=O)S/C(=C\c2ccc(F)cc2)C1=O)Nc1ccc(O)cc1C(=O)OCCOCCOCCOCCOC(=O)c1ccc(-c2c3nc(c(-c4cccc(S(=O)(=O)[O-])c4F)c4ccc([nH]4)c(-c4cccc(S(=O)(=O)[O-])c4F)c4nc(c(-c5cccc(S(=O)(=O)[O-])c5F)c5ccc2[nH]5)C=C4)C=C3)cc1
REMARK SMILES IDX 35 1 34 2 33 3 32 4 31 5 30 6 28 7 29 8 27 9 21 10 22 11
REMARK SMILES IDX 23 12 26 13 24 14 20 15 1 16 2 17 3 19 4 20 5 21 6 22 18 23
REMARK SMILES IDX 7 24 8 25 9 26 19 27 10 28 11 29 12 30 17 31 13 32 16 33
REMARK SMILES IDX 14 34 15 35 25 36 36 38 37 39 38 40 39 41 40 42 41 43 42 44
REMARK SMILES IDX 43 45 44 46 45 47 46 48 107 49 47 50 106 51 48 52 49 53
REMARK SMILES IDX 50 54 100 55 51 56 105 57 99 58 101 59 52 60 104 61 98 62
REMARK SMILES IDX 97 63 53 65 85 66 65 67 84 68 66 69 69 70 83 71 102 72 67 73
REMARK SMILES IDX 68 74 82 76 103 77 70 78 54 79 55 80 63 81 56 82 58 83 64 84
REMARK SMILES IDX 57 85 59 86 60 87 61 88 62 89 86 90 87 91 95 92 88 93 90 94
REMARK SMILES IDX 96 95 89 96 91 97 92 98 93 99 94 100 71 101 72 102 80 103
REMARK SMILES IDX 73 104 75 105 81 106 74 107 76 108 77 109 78 110 79 111
REMARK H PARENT 20 18 25 37 101 64 69 75
REMARK Flexibility Score: inf
ROOT
ATOM      1  C   UNL     1       2.466  -3.477  -2.092  1.00  0.00     0.188 C 
ENDROOT
BRANCH   1   2
ATOM      2  C   UNL     1       2.626  -3.693  -3.615  1.00  0.00     0.188 C 
BRANCH   2   3
ATOM      3  O   UNL     1       3.822  -4.151  -4.233  1.00  0.00    -0.376 OA
BRANCH   3   4
ATOM      4  C   UNL     1       5.075  -3.920  -3.624  1.00  0.00     0.202 C 
BRANCH   4   5
ATOM      5  C   UNL     1       5.516  -2.485  -3.310  1.00  0.00     0.261 C 
BRANCH   5   6
ATOM      6  O   UNL     1       4.460  -1.560  -3.061  1.00  0.00    -0.460 OA
BRANCH   6   7
ATOM      7  C   UNL     1       4.265  -0.628  -4.015  1.00  0.00     0.340 C 
ATOM      8  O   UNL     1       4.993  -0.393  -4.968  1.00  0.00    -0.246 OA
BRANCH   7   9
ATOM      9  C   UNL     1       2.893  -0.094  -3.880  1.00  0.00     0.087 A 
ATOM     10  C   UNL     1       2.264   0.252  -2.664  1.00  0.00     0.056 A 
ATOM     11  C   UNL     1       0.920   0.651  -2.721  1.00  0.00     0.031 A 
ATOM     12  C   UNL     1       0.202   0.644  -3.924  1.00  0.00     0.048 A 
ATOM     13  C   UNL     1       2.166  -0.106  -5.085  1.00  0.00     0.064 A 
ATOM     14  C   UNL     1       0.827   0.239  -5.092  1.00  0.00     0.116 A 
BRANCH  10  15
ATOM     15  N   UNL     1       2.957   0.219  -1.422  1.00  0.00    -0.325 N 
ATOM     16  O   UNL     1       1.188  -0.062   0.043  1.00  0.00    -0.275 OA
ATOM     17  C   UNL     1       2.386   0.138  -0.163  1.00  0.00     0.226 C 
ATOM     18  H   UNL     1       3.940   0.258  -1.461  1.00  0.00     0.169 HD
BRANCH  17  19
ATOM     19  C   UNL     1       3.333   0.322   1.019  1.00  0.00     0.122 C 
BRANCH  19  20
ATOM     20  C   UNL     1       4.343  -0.804   1.244  1.00  0.00     0.140 C 
BRANCH  20  21
ATOM     21  N   UNL     1       5.619  -0.796   0.525  1.00  0.00    -0.268 N 
ATOM     22  C   UNL     1       6.081   0.233  -0.249  1.00  0.00     0.293 C 
ATOM     23  C   UNL     1       6.431  -1.917   0.584  1.00  0.00     0.268 C 
ATOM     24  O   UNL     1       5.468   1.223  -0.611  1.00  0.00    -0.261 OA
ATOM     25  S   UNL     1       7.655  -0.141  -0.911  1.00  0.00    -0.022 SA
ATOM     26  C   UNL     1       7.587  -1.761  -0.348  1.00  0.00     0.083 C 
ATOM     27  O   UNL     1       6.217  -2.938   1.224  1.00  0.00    -0.268 OA
ATOM     28  C   UNL     1       8.265  -2.825  -0.814  1.00  0.00     0.029 C 
BRANCH  28  29
ATOM     29  C   UNL     1       9.139  -2.815  -2.000  1.00  0.00    -0.024 A 
ATOM     30  C   UNL     1      10.249  -1.970  -2.115  1.00  0.00     0.011 A 
ATOM     31  C   UNL     1       8.802  -3.644  -3.085  1.00  0.00     0.011 A 
ATOM     32  C   UNL     1      10.966  -1.907  -3.313  1.00  0.00     0.040 A 
ATOM     33  C   UNL     1       9.509  -3.570  -4.287  1.00  0.00     0.040 A 
ATOM     34  C   UNL     1      10.582  -2.695  -4.392  1.00  0.00     0.123 A 
ATOM     35  F   UNL     1      11.254  -2.612  -5.547  1.00  0.00    -0.207 F 
ENDBRANCH  28  29
ENDBRANCH  20  21
ENDBRANCH  19  20
ENDBRANCH  17  19
ENDBRANCH  10  15
BRANCH  14  36
ATOM     36  O   UNL     1       0.150   0.146  -6.270  1.00  0.00    -0.508 OA
ATOM     37  H   UNL     1      -0.758   0.373  -6.308  1.00  0.00     0.293 HD
ENDBRANCH  14  36
ENDBRANCH   7   9
ENDBRANCH   6   7
ENDBRANCH   5   6
ENDBRANCH   4   5
ENDBRANCH   3   4
ENDBRANCH   2   3
ENDBRANCH   1   2
BRANCH   1  38
ATOM     38  O   UNL     1       3.651  -3.605  -1.311  1.00  0.00    -0.377 OA
BRANCH  38  39
ATOM     39  C   UNL     1       3.598  -4.679  -0.371  1.00  0.00     0.188 C 
BRANCH  39  40
ATOM     40  C   UNL     1       3.624  -6.068  -1.031  1.00  0.00     0.188 C 
BRANCH  40  41
ATOM     41  O   UNL     1       2.571  -6.225  -1.979  1.00  0.00    -0.376 OA
BRANCH  41  42
ATOM     42  C   UNL     1       1.513  -7.101  -1.617  1.00  0.00     0.202 C 
BRANCH  42  43
ATOM     43  C   UNL     1       0.548  -6.591  -0.532  1.00  0.00     0.261 C 
BRANCH  43  44
ATOM     44  O   UNL     1       1.149  -6.170   0.703  1.00  0.00    -0.460 OA
BRANCH  44  45
ATOM     45  C   UNL     1       1.770  -7.115   1.443  1.00  0.00     0.338 C 
ATOM     46  O   UNL     1       1.853  -8.302   1.182  1.00  0.00    -0.246 OA
BRANCH  45  47
ATOM     47  C   UNL     1       2.514  -6.440   2.532  1.00  0.00     0.060 A 
ATOM     48  C   UNL     1       3.885  -6.696   2.668  1.00  0.00     0.016 A 
ATOM     49  C   UNL     1       1.866  -5.583   3.426  1.00  0.00     0.016 A 
ATOM     50  C   UNL     1       4.597  -6.144   3.736  1.00  0.00     0.010 A 
ATOM     51  C   UNL     1       2.578  -5.045   4.504  1.00  0.00     0.010 A 
ATOM     52  C   UNL     1       3.935  -5.362   4.691  1.00  0.00    -0.014 A 
BRANCH  52  53
ATOM     53  C   UNL     1       4.597  -5.068   5.988  1.00  0.00     0.031 A 
ATOM     54  C   UNL     1       4.276  -5.950   7.168  1.00  0.00     0.074 A 
ATOM     55  C   UNL     1       5.484  -4.065   6.122  1.00  0.00     0.049 A 
ATOM     56  N   UNL     1       4.707  -5.879   8.400  1.00  0.00    -0.248 NA
ATOM     57  C   UNL     1       3.346  -7.068   6.922  1.00  0.00     0.031 C 
ATOM     58  C   UNL     1       5.913  -3.165   5.053  1.00  0.00     0.029 A 
ATOM     59  N   UNL     1       6.176  -3.630   7.227  1.00  0.00    -0.354 N 
ATOM     60  C   UNL     1       4.094  -6.928   9.076  1.00  0.00     0.074 A 
ATOM     61  C   UNL     1       3.243  -7.608   8.127  1.00  0.00     0.031 C 
ATOM     62  C   UNL     1       6.783  -2.273   5.560  1.00  0.00     0.029 A 
ATOM     63  C   UNL     1       6.955  -2.522   6.992  1.00  0.00     0.049 A 
ATOM     64  H   UNL     1       6.119  -4.072   8.106  1.00  0.00     0.167 HD
ATOM     65  C   UNL     1       4.244  -7.309  10.366  1.00  0.00     0.034 A 
ATOM     66  C   UNL     1       7.711  -1.789   7.837  1.00  0.00     0.034 A 
ATOM     67  C   UNL     1       5.105  -6.649  11.307  1.00  0.00     0.049 A 
ATOM     68  C   UNL     1       7.811  -2.196   9.287  1.00  0.00     0.074 A 
ATOM     69  C   UNL     1       5.333  -6.974  12.633  1.00  0.00     0.029 A 
ATOM     70  N   UNL     1       5.878  -5.534  11.028  1.00  0.00    -0.354 N 
ATOM     71  N   UNL     1       7.290  -3.237   9.890  1.00  0.00    -0.248 NA
ATOM     72  C   UNL     1       8.626  -1.345  10.169  1.00  0.00     0.031 C 
ATOM     73  C   UNL     1       6.226  -6.040  13.162  1.00  0.00     0.029 A 
ATOM     74  C   UNL     1       6.579  -5.153  12.157  1.00  0.00     0.049 A 
ATOM     75  H   UNL     1       5.921  -5.081  10.155  1.00  0.00     0.167 HD
ATOM     76  C   UNL     1       7.747  -3.189  11.204  1.00  0.00     0.074 A 
ATOM     77  C   UNL     1       8.597  -2.023  11.309  1.00  0.00     0.031 C 
ATOM     78  C   UNL     1       7.475  -4.029  12.234  1.00  0.00     0.034 A 
BRANCH  65  79
ATOM     79  C   UNL     1       3.495  -8.527  10.836  1.00  0.00     0.023 A 
ATOM     80  C   UNL     1       3.935  -9.805  10.436  1.00  0.00     0.012 A 
ATOM     81  C   UNL     1       2.428  -8.415  11.748  1.00  0.00     0.148 A 
ATOM     82  C   UNL     1       3.314 -10.953  10.925  1.00  0.00     0.002 A 
ATOM     83  C   UNL     1       1.843  -9.565  12.264  1.00  0.00     0.091 A 
ATOM     84  F   UNL     1       2.015  -7.189  12.099  1.00  0.00    -0.205 F 
ATOM     85  C   UNL     1       2.279 -10.833  11.848  1.00  0.00     0.022 A 
BRANCH  83  86
ATOM     86  S   UNL     1       0.558  -9.523  13.519  1.00  0.00     0.127 S 
ATOM     87  O   UNL     1      -0.583 -10.077  12.791  1.00  0.00    -0.237 OA
ATOM     88  O   UNL     1       1.109 -10.402  14.550  1.00  0.00    -0.237 OA
ATOM     89  O   UNL     1       0.422  -8.127  13.912  1.00  0.00    -0.744 OA
ENDBRANCH  83  86
ENDBRANCH  65  79
BRANCH  66  90
ATOM     90  C   UNL     1       8.476  -0.615   7.326  1.00  0.00     0.023 A 
ATOM     91  C   UNL     1       9.884  -0.659   7.303  1.00  0.00     0.012 A 
ATOM     92  C   UNL     1       7.820   0.535   6.846  1.00  0.00     0.148 A 
ATOM     93  C   UNL     1      10.624   0.428   6.836  1.00  0.00     0.002 A 
ATOM     94  C   UNL     1       8.561   1.589   6.324  1.00  0.00     0.091 A 
ATOM     95  F   UNL     1       6.481   0.571   6.898  1.00  0.00    -0.205 F 
ATOM     96  C   UNL     1       9.963   1.547   6.335  1.00  0.00     0.022 A 
BRANCH  94  97
ATOM     97  S   UNL     1       7.791   2.996   5.516  1.00  0.00     0.127 S 
ATOM     98  O   UNL     1       8.075   4.076   6.457  1.00  0.00    -0.237 OA
ATOM     99  O   UNL     1       8.534   3.059   4.256  1.00  0.00    -0.237 OA
ATOM    100  O   UNL     1       6.387   2.640   5.361  1.00  0.00    -0.744 OA
ENDBRANCH  94  97
ENDBRANCH  66  90
BRANCH  78 101
ATOM    101  C   UNL     1       8.123  -3.765  13.569  1.00  0.00     0.023 A 
ATOM    102  C   UNL     1       7.661  -2.705  14.372  1.00  0.00     0.012 A 
ATOM    103  C   UNL     1       9.090  -4.653  14.084  1.00  0.00     0.148 A 
ATOM    104  C   UNL     1       8.161  -2.523  15.661  1.00  0.00     0.002 A 
ATOM    105  C   UNL     1       9.546  -4.496  15.387  1.00  0.00     0.091 A 
ATOM    106  F   UNL     1       9.524  -5.649  13.297  1.00  0.00    -0.205 F 
ATOM    107  C   UNL     1       9.090  -3.426  16.173  1.00  0.00     0.022 A 
BRANCH 105 108
ATOM    108  S   UNL     1      10.661  -5.668  16.171  1.00  0.00     0.127 S 
ATOM    109  O   UNL     1      11.879  -4.872  16.312  1.00  0.00    -0.237 OA
ATOM    110  O   UNL     1       9.970  -5.956  17.428  1.00  0.00    -0.237 OA
ATOM    111  O   UNL     1      10.762  -6.801  15.260  1.00  0.00    -0.744 OA
ENDBRANCH 105 108
ENDBRANCH  78 101
ENDBRANCH  52  53
ENDBRANCH  45  47
ENDBRANCH  44  45
ENDBRANCH  43  44
ENDBRANCH  42  43
ENDBRANCH  41  42
ENDBRANCH  40  41
ENDBRANCH  39  40
ENDBRANCH  38  39
ENDBRANCH   1  38
TORSDOF 29
