REMARK SMILES COCCS(=O)(=O)Cc1ccc(C(=O)OCCOCCOCCOCCOC(=O)c2ccc(-c3c4nc(c(-c5cccc(S(=O)(=O)[O-])c5F)c5ccc([nH]5)c(-c5cccc(S(=O)(=O)[O-])c5F)c5nc(c(-c6cccc(S(=O)(=O)[O-])c6F)c6ccc3[nH]6)C=C5)C=C4)cc2)cn1
REMARK SMILES IDX 20 1 19 2 18 3 17 4 16 5 15 6 13 7 14 8 12 9 9 10 10 11
REMARK SMILES IDX 94 12 11 13 93 14 8 15 5 16 6 17 7 18 4 19 3 20 2 21 1 22
REMARK SMILES IDX 21 23 22 24 23 25 24 26 25 27 26 28 27 29 28 30 29 31 30 32
REMARK SMILES IDX 31 33 92 34 32 35 91 36 33 37 34 38 35 39 85 40 36 41 90 42
REMARK SMILES IDX 84 43 86 44 37 45 89 46 83 47 82 48 38 50 70 51 50 52 69 53
REMARK SMILES IDX 51 54 54 55 68 56 87 57 52 58 53 59 67 61 88 62 55 63 39 64
REMARK SMILES IDX 40 65 48 66 41 67 43 68 49 69 42 70 44 71 45 72 46 73 47 74
REMARK SMILES IDX 71 75 72 76 80 77 73 78 75 79 81 80 74 81 76 82 77 83 78 84
REMARK SMILES IDX 79 85 56 86 57 87 65 88 58 89 60 90 66 91 59 92 61 93 62 94
REMARK SMILES IDX 63 95 64 96
REMARK H PARENT 86 49 54 60
REMARK Flexibility Score: inf
ROOT
ATOM      1  C   UNL     1      -5.433   1.632   1.648  1.00  0.00     0.188 C 
ENDROOT
BRANCH   1   2
ATOM      2  C   UNL     1      -6.238   2.641   0.804  1.00  0.00     0.188 C 
BRANCH   2   3
ATOM      3  O   UNL     1      -7.590   2.272   0.591  1.00  0.00    -0.376 OA
BRANCH   3   4
ATOM      4  C   UNL     1      -7.997   1.821  -0.690  1.00  0.00     0.202 C 
BRANCH   4   5
ATOM      5  C   UNL     1      -7.333   0.569  -1.284  1.00  0.00     0.261 C 
BRANCH   5   6
ATOM      6  O   UNL     1      -5.905   0.548  -1.210  1.00  0.00    -0.460 OA
BRANCH   6   7
ATOM      7  C   UNL     1      -5.246   1.403  -2.017  1.00  0.00     0.339 C 
ATOM      8  O   UNL     1      -5.732   2.153  -2.845  1.00  0.00    -0.246 OA
BRANCH   7   9
ATOM      9  C   UNL     1      -3.844   1.460  -1.571  1.00  0.00     0.078 A 
ATOM     10  C   UNL     1      -1.237   1.790  -0.780  1.00  0.00     0.055 A 
ATOM     11  C   UNL     1      -1.862   0.564  -0.558  1.00  0.00     0.026 A 
ATOM     12  N   UNL     1      -1.907   2.864  -1.260  1.00  0.00    -0.259 NA
ATOM     13  C   UNL     1      -3.173   0.386  -0.990  1.00  0.00     0.019 A 
ATOM     14  C   UNL     1      -3.191   2.678  -1.644  1.00  0.00     0.127 A 
BRANCH  10  15
ATOM     15  C   UNL     1       0.228   1.968  -0.556  1.00  0.00     0.193 C 
BRANCH  15  16
ATOM     16  S   UNL     1       1.129   1.565  -2.057  1.00  0.00     0.158 S 
ATOM     17  O   UNL     1       2.525   1.396  -1.676  1.00  0.00    -0.228 OA
ATOM     18  O   UNL     1       0.813   2.563  -3.067  1.00  0.00    -0.228 OA
BRANCH  16  19
ATOM     19  C   UNL     1       0.556  -0.004  -2.700  1.00  0.00     0.165 C 
BRANCH  19  20
ATOM     20  C   UNL     1       1.229  -1.200  -2.059  1.00  0.00     0.176 C 
BRANCH  20  21
ATOM     21  O   UNL     1       0.653  -1.486  -0.788  1.00  0.00    -0.384 OA
ATOM     22  C   UNL     1       1.578  -1.403   0.289  1.00  0.00     0.194 C 
ENDBRANCH  20  21
ENDBRANCH  19  20
ENDBRANCH  16  19
ENDBRANCH  15  16
ENDBRANCH  10  15
ENDBRANCH   7   9
ENDBRANCH   6   7
ENDBRANCH   5   6
ENDBRANCH   4   5
ENDBRANCH   3   4
ENDBRANCH   2   3
ENDBRANCH   1   2
BRANCH   1  23
ATOM     23  O   UNL     1      -5.990   0.348   1.869  1.00  0.00    -0.377 OA
BRANCH  23  24
ATOM     24  C   UNL     1      -7.309   0.226   2.401  1.00  0.00     0.188 C 
BRANCH  24  25
ATOM     25  C   UNL     1      -8.007   1.391   3.146  1.00  0.00     0.188 C 
BRANCH  25  26
ATOM     26  O   UNL     1      -7.157   2.467   3.507  1.00  0.00    -0.376 OA
BRANCH  26  27
ATOM     27  C   UNL     1      -6.819   2.607   4.875  1.00  0.00     0.202 C 
BRANCH  27  28
ATOM     28  C   UNL     1      -6.008   1.470   5.509  1.00  0.00     0.261 C 
BRANCH  28  29
ATOM     29  O   UNL     1      -6.564   0.152   5.387  1.00  0.00    -0.460 OA
BRANCH  29  30
ATOM     30  C   UNL     1      -7.735  -0.090   6.013  1.00  0.00     0.338 C 
ATOM     31  O   UNL     1      -8.383   0.695   6.688  1.00  0.00    -0.246 OA
BRANCH  30  32
ATOM     32  C   UNL     1      -8.207  -1.420   5.577  1.00  0.00     0.060 A 
ATOM     33  C   UNL     1      -9.425  -1.525   4.891  1.00  0.00     0.016 A 
ATOM     34  C   UNL     1      -7.433  -2.555   5.824  1.00  0.00     0.016 A 
ATOM     35  C   UNL     1      -9.887  -2.775   4.479  1.00  0.00     0.010 A 
ATOM     36  C   UNL     1      -7.908  -3.808   5.430  1.00  0.00     0.010 A 
ATOM     37  C   UNL     1      -9.153  -3.927   4.787  1.00  0.00    -0.014 A 
BRANCH  37  38
ATOM     38  C   UNL     1      -9.770  -5.264   4.617  1.00  0.00     0.031 A 
ATOM     39  C   UNL     1     -10.367  -5.931   5.826  1.00  0.00     0.074 A 
ATOM     40  C   UNL     1      -9.795  -5.880   3.422  1.00  0.00     0.049 A 
ATOM     41  N   UNL     1     -10.913  -7.112   5.937  1.00  0.00    -0.248 NA
ATOM     42  C   UNL     1     -10.338  -5.160   7.081  1.00  0.00     0.031 C 
ATOM     43  C   UNL     1      -9.260  -5.334   2.176  1.00  0.00     0.029 A 
ATOM     44  N   UNL     1     -10.270  -7.120   3.071  1.00  0.00    -0.354 N 
ATOM     45  C   UNL     1     -11.263  -7.241   7.276  1.00  0.00     0.074 A 
ATOM     46  C   UNL     1     -10.858  -6.022   7.940  1.00  0.00     0.031 C 
ATOM     47  C   UNL     1      -9.409  -6.249   1.202  1.00  0.00     0.029 A 
ATOM     48  C   UNL     1     -10.020  -7.454   1.761  1.00  0.00     0.049 A 
ATOM     49  H   UNL     1     -10.744  -7.713   3.698  1.00  0.00     0.167 HD
ATOM     50  C   UNL     1     -11.877  -8.276   7.896  1.00  0.00     0.034 A 
ATOM     51  C   UNL     1     -10.234  -8.610   1.101  1.00  0.00     0.034 A 
ATOM     52  C   UNL     1     -12.287  -9.483   7.232  1.00  0.00     0.049 A 
ATOM     53  C   UNL     1     -10.884  -9.764   1.823  1.00  0.00     0.074 A 
ATOM     54  C   UNL     1     -12.957 -10.570   7.763  1.00  0.00     0.029 A 
ATOM     55  N   UNL     1     -12.046  -9.773   5.898  1.00  0.00    -0.354 N 
ATOM     56  N   UNL     1     -11.313  -9.829   3.061  1.00  0.00    -0.248 NA
ATOM     57  C   UNL     1     -11.108 -10.993   1.048  1.00  0.00     0.031 C 
ATOM     58  C   UNL     1     -13.084 -11.536   6.760  1.00  0.00     0.029 A 
ATOM     59  C   UNL     1     -12.537 -11.030   5.592  1.00  0.00     0.049 A 
ATOM     60  H   UNL     1     -11.593  -9.173   5.262  1.00  0.00     0.167 HD
ATOM     61  C   UNL     1     -11.890 -11.088   3.201  1.00  0.00     0.074 A 
ATOM     62  C   UNL     1     -11.773 -11.744   1.915  1.00  0.00     0.031 C 
ATOM     63  C   UNL     1     -12.457 -11.654   4.295  1.00  0.00     0.034 A 
BRANCH  50  64
ATOM     64  C   UNL     1     -12.146  -8.144   9.372  1.00  0.00     0.023 A 
ATOM     65  C   UNL     1     -13.132  -7.247   9.831  1.00  0.00     0.012 A 
ATOM     66  C   UNL     1     -11.452  -8.943  10.301  1.00  0.00     0.148 A 
ATOM     67  C   UNL     1     -13.398  -7.121  11.194  1.00  0.00     0.002 A 
ATOM     68  C   UNL     1     -11.757  -8.848  11.653  1.00  0.00     0.091 A 
ATOM     69  F   UNL     1     -10.502  -9.772   9.847  1.00  0.00    -0.205 F 
ATOM     70  C   UNL     1     -12.720  -7.929  12.102  1.00  0.00     0.022 A 
BRANCH  68  71
ATOM     71  S   UNL     1     -10.998  -9.901  12.893  1.00  0.00     0.127 S 
ATOM     72  O   UNL     1     -10.183  -8.941  13.636  1.00  0.00    -0.237 OA
ATOM     73  O   UNL     1     -12.162 -10.405  13.621  1.00  0.00    -0.237 OA
ATOM     74  O   UNL     1     -10.252 -10.915  12.160  1.00  0.00    -0.744 OA
ENDBRANCH  68  71
ENDBRANCH  50  64
BRANCH  51  75
ATOM     75  C   UNL     1      -9.845  -8.736  -0.333  1.00  0.00     0.023 A 
ATOM     76  C   UNL     1     -10.842  -8.867  -1.319  1.00  0.00     0.012 A 
ATOM     77  C   UNL     1      -8.492  -8.725  -0.724  1.00  0.00     0.148 A 
ATOM     78  C   UNL     1     -10.499  -9.021  -2.663  1.00  0.00     0.002 A 
ATOM     79  C   UNL     1      -8.158  -8.819  -2.070  1.00  0.00     0.091 A 
ATOM     80  F   UNL     1      -7.557  -8.615   0.230  1.00  0.00    -0.205 F 
ATOM     81  C   UNL     1      -9.159  -8.987  -3.039  1.00  0.00     0.022 A 
BRANCH  79  82
ATOM     82  S   UNL     1      -6.469  -8.658  -2.660  1.00  0.00     0.127 S 
ATOM     83  O   UNL     1      -6.202  -9.999  -3.174  1.00  0.00    -0.237 OA
ATOM     84  O   UNL     1      -6.608  -7.621  -3.683  1.00  0.00    -0.237 OA
ATOM     85  O   UNL     1      -5.681  -8.259  -1.502  1.00  0.00    -0.744 OA
ENDBRANCH  79  82
ENDBRANCH  51  75
BRANCH  63  86
ATOM     86  C   UNL     1     -13.042 -13.037   4.151  1.00  0.00     0.023 A 
ATOM     87  C   UNL     1     -12.195 -14.152   3.997  1.00  0.00     0.012 A 
ATOM     88  C   UNL     1     -14.435 -13.236   4.246  1.00  0.00     0.148 A 
ATOM     89  C   UNL     1     -12.727 -15.438   3.901  1.00  0.00     0.002 A 
ATOM     90  C   UNL     1     -14.953 -14.524   4.205  1.00  0.00     0.091 A 
ATOM     91  F   UNL     1     -15.226 -12.161   4.379  1.00  0.00    -0.205 F 
ATOM     92  C   UNL     1     -14.102 -15.625   4.017  1.00  0.00     0.022 A 
BRANCH  90  93
ATOM     93  S   UNL     1     -16.699 -14.871   4.446  1.00  0.00     0.127 S 
ATOM     94  O   UNL     1     -17.104 -15.303   3.109  1.00  0.00    -0.237 OA
ATOM     95  O   UNL     1     -16.667 -15.936   5.447  1.00  0.00    -0.237 OA
ATOM     96  O   UNL     1     -17.298 -13.625   4.905  1.00  0.00    -0.744 OA
ENDBRANCH  90  93
ENDBRANCH  63  86
ENDBRANCH  37  38
ENDBRANCH  30  32
ENDBRANCH  29  30
ENDBRANCH  28  29
ENDBRANCH  27  28
ENDBRANCH  26  27
ENDBRANCH  25  26
ENDBRANCH  24  25
ENDBRANCH  23  24
ENDBRANCH   1  23
TORSDOF 28
