REMARK SMILES C[C@](Nc1ccc(C(N)=O)nn1)(C(=O)OCCOCCOCCOCCOC(=O)c1ccc(-c2c3nc(c(-c4cccc(S(=O)(=O)[O-])c4F)c4ccc([nH]4)c(-c4cccc(S(=O)(=O)[O-])c4F)c4nc(c(-c5cccc(S(=O)(=O)[O-])c5F)c5ccc2[nH]5)C=C4)C=C3)cc1)c1ccccc1
REMARK SMILES IDX 21 1 20 2 19 3 18 4 17 5 16 6 15 7 13 8 14 9 2 10 1 11 93 12
REMARK SMILES IDX 94 13 98 14 95 15 97 16 96 17 3 18 4 20 5 21 12 22 6 23
REMARK SMILES IDX 11 24 7 25 8 26 9 27 10 28 22 31 23 32 24 33 25 34 26 35
REMARK SMILES IDX 27 36 28 37 29 38 30 39 31 40 92 41 32 42 91 43 33 44 34 45
REMARK SMILES IDX 35 46 85 47 36 48 90 49 84 50 86 51 37 52 89 53 83 54 82 55
REMARK SMILES IDX 38 57 70 58 50 59 69 60 51 61 54 62 68 63 87 64 52 65 53 66
REMARK SMILES IDX 67 68 88 69 55 70 39 71 40 72 48 73 41 74 43 75 49 76 42 77
REMARK SMILES IDX 44 78 45 79 46 80 47 81 71 82 72 83 80 84 73 85 75 86 81 87
REMARK SMILES IDX 74 88 76 89 77 90 78 91 79 92 56 93 57 94 65 95 58 96 60 97
REMARK SMILES IDX 66 98 59 99 61 100 62 101 63 102 64 103
REMARK H PARENT 3 19 9 29 9 30 86 56 54 67
REMARK Flexibility Score: inf
ROOT
ATOM      1  O   UNL     1      -2.575   0.376   0.857  1.00  0.00    -0.377 OA
ENDROOT
BRANCH   1   2
ATOM      2  C   UNL     1      -1.727   1.028  -0.063  1.00  0.00     0.188 C 
BRANCH   2   3
ATOM      3  C   UNL     1      -2.265   1.051  -1.510  1.00  0.00     0.188 C 
BRANCH   3   4
ATOM      4  O   UNL     1      -3.476   0.394  -1.857  1.00  0.00    -0.376 OA
BRANCH   4   5
ATOM      5  C   UNL     1      -3.856  -0.794  -1.181  1.00  0.00     0.202 C 
BRANCH   5   6
ATOM      6  C   UNL     1      -2.874  -1.974  -1.015  1.00  0.00     0.261 C 
BRANCH   6   7
ATOM      7  O   UNL     1      -1.483  -1.672  -0.799  1.00  0.00    -0.461 OA
BRANCH   7   8
ATOM      8  C   UNL     1      -0.689  -1.679  -1.901  1.00  0.00     0.336 C 
ATOM      9  O   UNL     1      -1.113  -1.938  -3.028  1.00  0.00    -0.249 OA
BRANCH   8  10
ATOM     10  C   UNL     1       0.836  -1.385  -1.623  1.00  0.00     0.160 C 
ATOM     11  C   UNL     1       1.474  -2.780  -1.784  1.00  0.00     0.053 C 
BRANCH  10  12
ATOM     12  C   UNL     1       1.315  -0.357  -2.698  1.00  0.00    -0.012 A 
ATOM     13  C   UNL     1       1.926  -0.764  -3.894  1.00  0.00     0.007 A 
ATOM     14  C   UNL     1       1.057   1.028  -2.558  1.00  0.00     0.007 A 
ATOM     15  C   UNL     1       2.246   0.157  -4.899  1.00  0.00     0.000 A 
ATOM     16  C   UNL     1       1.358   1.946  -3.568  1.00  0.00     0.000 A 
ATOM     17  C   UNL     1       1.952   1.508  -4.742  1.00  0.00     0.000 A 
ENDBRANCH  10  12
BRANCH  10  18
ATOM     18  N   UNL     1       1.155  -0.798  -0.292  1.00  0.00    -0.350 N 
ATOM     19  H   UNL     1       1.104   0.183  -0.236  1.00  0.00     0.163 HD
BRANCH  18  20
ATOM     20  C   UNL     1       1.513  -1.443   0.870  1.00  0.00     0.149 A 
ATOM     21  C   UNL     1       2.724  -2.115   0.978  1.00  0.00     0.051 A 
ATOM     22  N   UNL     1       0.809  -1.202   1.995  1.00  0.00    -0.132 NA
ATOM     23  C   UNL     1       3.126  -2.662   2.194  1.00  0.00     0.040 A 
ATOM     24  N   UNL     1       1.205  -1.714   3.226  1.00  0.00    -0.143 NA
ATOM     25  C   UNL     1       2.332  -2.451   3.303  1.00  0.00     0.150 A 
BRANCH  25  26
ATOM     26  C   UNL     1       2.725  -3.021   4.620  1.00  0.00     0.269 C 
ATOM     27  N   UNL     1       1.927  -2.727   5.689  1.00  0.00    -0.364 N 
ATOM     28  O   UNL     1       3.728  -3.718   4.739  1.00  0.00    -0.268 OA
ATOM     29  H   UNL     1       1.127  -2.166   5.567  1.00  0.00     0.160 HD
ATOM     30  H   UNL     1       2.151  -3.077   6.582  1.00  0.00     0.160 HD
ENDBRANCH  25  26
ENDBRANCH  18  20
ENDBRANCH  10  18
ENDBRANCH   8  10
ENDBRANCH   7   8
ENDBRANCH   6   7
ENDBRANCH   5   6
ENDBRANCH   4   5
ENDBRANCH   3   4
ENDBRANCH   2   3
ENDBRANCH   1   2
BRANCH   1  31
ATOM     31  C   UNL     1      -3.393   1.221   1.643  1.00  0.00     0.188 C 
BRANCH  31  32
ATOM     32  C   UNL     1      -4.119   2.354   0.893  1.00  0.00     0.188 C 
BRANCH  32  33
ATOM     33  O   UNL     1      -3.252   3.192   0.132  1.00  0.00    -0.376 OA
BRANCH  33  34
ATOM     34  C   UNL     1      -2.826   4.429   0.679  1.00  0.00     0.202 C 
BRANCH  34  35
ATOM     35  C   UNL     1      -1.842   4.394   1.861  1.00  0.00     0.261 C 
BRANCH  35  36
ATOM     36  O   UNL     1      -2.259   3.661   3.020  1.00  0.00    -0.460 OA
BRANCH  36  37
ATOM     37  C   UNL     1      -3.412   4.036   3.608  1.00  0.00     0.338 C 
ATOM     38  O   UNL     1      -4.104   4.997   3.308  1.00  0.00    -0.246 OA
BRANCH  37  39
ATOM     39  C   UNL     1      -3.829   2.967   4.539  1.00  0.00     0.060 A 
ATOM     40  C   UNL     1      -5.106   2.413   4.381  1.00  0.00     0.016 A 
ATOM     41  C   UNL     1      -2.980   2.514   5.553  1.00  0.00     0.016 A 
ATOM     42  C   UNL     1      -5.567   1.456   5.279  1.00  0.00     0.010 A 
ATOM     43  C   UNL     1      -3.454   1.573   6.472  1.00  0.00     0.010 A 
ATOM     44  C   UNL     1      -4.771   1.089   6.370  1.00  0.00    -0.014 A 
BRANCH  44  45
ATOM     45  C   UNL     1      -5.427   0.431   7.524  1.00  0.00     0.031 A 
ATOM     46  C   UNL     1      -5.868   1.304   8.670  1.00  0.00     0.074 A 
ATOM     47  C   UNL     1      -5.691  -0.886   7.532  1.00  0.00     0.049 A 
ATOM     48  N   UNL     1      -6.511   0.982   9.761  1.00  0.00    -0.248 NA
ATOM     49  C   UNL     1      -5.542   2.738   8.569  1.00  0.00     0.031 C 
ATOM     50  C   UNL     1      -5.339  -1.827   6.471  1.00  0.00     0.029 A 
ATOM     51  N   UNL     1      -6.316  -1.659   8.477  1.00  0.00    -0.354 N 
ATOM     52  C   UNL     1      -6.633   2.160  10.489  1.00  0.00     0.074 A 
ATOM     53  C   UNL     1      -5.990   3.203   9.724  1.00  0.00     0.031 C 
ATOM     54  C   UNL     1      -5.743  -3.059   6.832  1.00  0.00     0.029 A 
ATOM     55  C   UNL     1      -6.361  -2.994   8.155  1.00  0.00     0.049 A 
ATOM     56  H   UNL     1      -6.696  -1.292   9.308  1.00  0.00     0.167 HD
ATOM     57  C   UNL     1      -7.238   2.361  11.682  1.00  0.00     0.034 A 
ATOM     58  C   UNL     1      -6.837  -4.041   8.858  1.00  0.00     0.034 A 
ATOM     59  C   UNL     1      -7.892   1.326  12.433  1.00  0.00     0.049 A 
ATOM     60  C   UNL     1      -7.479  -3.794  10.200  1.00  0.00     0.074 A 
ATOM     61  C   UNL     1      -8.577   1.433  13.629  1.00  0.00     0.029 A 
ATOM     62  N   UNL     1      -7.925  -0.011  12.070  1.00  0.00    -0.354 N 
ATOM     63  N   UNL     1      -7.685  -2.659  10.825  1.00  0.00    -0.248 NA
ATOM     64  C   UNL     1      -7.990  -4.972  10.917  1.00  0.00     0.031 C 
ATOM     65  C   UNL     1      -8.982   0.152  14.015  1.00  0.00     0.029 A 
ATOM     66  C   UNL     1      -8.601  -0.745  13.029  1.00  0.00     0.049 A 
ATOM     67  H   UNL     1      -7.527  -0.385  11.250  1.00  0.00     0.167 HD
ATOM     68  C   UNL     1      -8.390  -2.981  11.981  1.00  0.00     0.074 A 
ATOM     69  C   UNL     1      -8.588  -4.416  11.961  1.00  0.00     0.031 C 
ATOM     70  C   UNL     1      -8.832  -2.166  12.971  1.00  0.00     0.034 A 
BRANCH  57  71
ATOM     71  C   UNL     1      -7.208   3.754  12.254  1.00  0.00     0.023 A 
ATOM     72  C   UNL     1      -7.968   4.783  11.662  1.00  0.00     0.012 A 
ATOM     73  C   UNL     1      -6.447   4.033  13.406  1.00  0.00     0.148 A 
ATOM     74  C   UNL     1      -7.941   6.076  12.184  1.00  0.00     0.002 A 
ATOM     75  C   UNL     1      -6.466   5.310  13.951  1.00  0.00     0.091 A 
ATOM     76  F   UNL     1      -5.709   3.049  13.938  1.00  0.00    -0.205 F 
ATOM     77  C   UNL     1      -7.200   6.336  13.334  1.00  0.00     0.022 A 
BRANCH  75  78
ATOM     78  S   UNL     1      -5.612   5.722  15.476  1.00  0.00     0.127 S 
ATOM     79  O   UNL     1      -4.545   6.596  14.989  1.00  0.00    -0.237 OA
ATOM     80  O   UNL     1      -6.659   6.403  16.238  1.00  0.00    -0.237 OA
ATOM     81  O   UNL     1      -5.170   4.457  16.045  1.00  0.00    -0.744 OA
ENDBRANCH  75  78
ENDBRANCH  57  71
BRANCH  58  82
ATOM     82  C   UNL     1      -6.761  -5.419   8.296  1.00  0.00     0.023 A 
ATOM     83  C   UNL     1      -7.945  -6.094   7.938  1.00  0.00     0.012 A 
ATOM     84  C   UNL     1      -5.523  -6.067   8.122  1.00  0.00     0.148 A 
ATOM     85  C   UNL     1      -7.900  -7.401   7.452  1.00  0.00     0.002 A 
ATOM     86  C   UNL     1      -5.481  -7.348   7.585  1.00  0.00     0.091 A 
ATOM     87  F   UNL     1      -4.410  -5.413   8.482  1.00  0.00    -0.205 F 
ATOM     88  C   UNL     1      -6.669  -8.024   7.268  1.00  0.00     0.022 A 
BRANCH  86  89
ATOM     89  S   UNL     1      -3.939  -8.184   7.203  1.00  0.00     0.127 S 
ATOM     90  O   UNL     1      -3.957  -9.293   8.154  1.00  0.00    -0.237 OA
ATOM     91  O   UNL     1      -4.145  -8.566   5.806  1.00  0.00    -0.237 OA
ATOM     92  O   UNL     1      -2.890  -7.195   7.411  1.00  0.00    -0.744 OA
ENDBRANCH  86  89
ENDBRANCH  58  82
BRANCH  70  93
ATOM     93  C   UNL     1      -9.631  -2.788  14.089  1.00  0.00     0.023 A 
ATOM     94  C   UNL     1      -9.009  -3.639  15.023  1.00  0.00     0.012 A 
ATOM     95  C   UNL     1     -10.997  -2.475  14.244  1.00  0.00     0.148 A 
ATOM     96  C   UNL     1      -9.743  -4.206  16.065  1.00  0.00     0.002 A 
ATOM     97  C   UNL     1     -11.708  -2.997  15.317  1.00  0.00     0.091 A 
ATOM     98  F   UNL     1     -11.577  -1.675  13.337  1.00  0.00    -0.205 F 
ATOM     99  C   UNL     1     -11.088  -3.877  16.218  1.00  0.00     0.022 A 
BRANCH  97 100
ATOM    100  S   UNL     1     -13.414  -2.543  15.651  1.00  0.00     0.127 S 
ATOM    101  O   UNL     1     -14.125  -3.764  15.280  1.00  0.00    -0.237 OA
ATOM    102  O   UNL     1     -13.384  -2.266  17.088  1.00  0.00    -0.237 OA
ATOM    103  O   UNL     1     -13.691  -1.380  14.819  1.00  0.00    -0.744 OA
ENDBRANCH  97 100
ENDBRANCH  70  93
ENDBRANCH  44  45
ENDBRANCH  37  39
ENDBRANCH  36  37
ENDBRANCH  35  36
ENDBRANCH  34  35
ENDBRANCH  33  34
ENDBRANCH  32  33
ENDBRANCH  31  32
ENDBRANCH   1  31
TORSDOF 27
