REMARK SMILES COCCCC(=O)N1CCC[C@]1(C)C(=O)OCCOCCOCCOCCOC(=O)c1ccc(-c2c3nc(c(-c4cccc(S(=O)(=O)[O-])c4F)c4ccc([nH]4)c(-c4cccc(S(=O)(=O)[O-])c4F)c4nc(c(-c5cccc(S(=O)(=O)[O-])c5F)c5ccc2[nH]5)C=C4)C=C3)cc1
REMARK SMILES IDX 21 1 20 2 19 3 18 4 17 5 16 6 14 7 15 8 12 9 8 10 9 11 10 12
REMARK SMILES IDX 11 13 13 14 6 15 7 16 5 17 4 18 3 19 2 20 1 21 22 22 23 23
REMARK SMILES IDX 24 24 25 25 26 26 27 27 28 28 29 29 30 30 31 31 32 32 93 33
REMARK SMILES IDX 33 34 92 35 34 36 35 37 36 38 86 39 37 40 91 41 85 42 87 43
REMARK SMILES IDX 38 44 90 45 84 46 83 47 39 49 71 50 51 51 70 52 52 53 55 54
REMARK SMILES IDX 69 55 88 56 53 57 54 58 68 60 89 61 56 62 40 63 41 64 49 65
REMARK SMILES IDX 42 66 44 67 50 68 43 69 45 70 46 71 47 72 48 73 72 74 73 75
REMARK SMILES IDX 81 76 74 77 76 78 82 79 75 80 77 81 78 82 79 83 80 84 57 85
REMARK SMILES IDX 58 86 66 87 59 88 61 89 67 90 60 91 62 92 63 93 64 94 65 95
REMARK H PARENT 87 48 55 59
REMARK Flexibility Score: inf
ROOT
ATOM      1  C   UNL     1       3.671   4.049  -1.560  1.00  0.00     0.188 C 
ENDROOT
BRANCH   1   2
ATOM      2  C   UNL     1       4.029   4.138  -3.055  1.00  0.00     0.188 C 
BRANCH   2   3
ATOM      3  O   UNL     1       3.191   4.842  -3.965  1.00  0.00    -0.376 OA
BRANCH   3   4
ATOM      4  C   UNL     1       1.777   4.686  -3.893  1.00  0.00     0.202 C 
BRANCH   4   5
ATOM      5  C   UNL     1       1.159   3.282  -3.784  1.00  0.00     0.261 C 
BRANCH   5   6
ATOM      6  O   UNL     1       1.738   2.442  -2.763  1.00  0.00    -0.461 OA
BRANCH   6   7
ATOM      7  C   UNL     1       2.230   1.251  -3.158  1.00  0.00     0.331 C 
ATOM      8  O   UNL     1       2.176   0.847  -4.318  1.00  0.00    -0.249 OA
BRANCH   7   9
ATOM      9  C   UNL     1       2.930   0.428  -2.034  1.00  0.00     0.137 C 
ATOM     10  N   UNL     1       3.145   0.834  -0.586  1.00  0.00    -0.326 N 
ATOM     11  C   UNL     1       4.489   0.402  -0.197  1.00  0.00     0.121 C 
ATOM     12  C   UNL     1       5.350   0.601  -1.410  1.00  0.00     0.025 C 
ATOM     13  C   UNL     1       4.418   0.318  -2.570  1.00  0.00     0.042 C 
ATOM     14  C   UNL     1       2.375  -1.015  -2.118  1.00  0.00     0.047 C 
BRANCH  10  15
ATOM     15  C   UNL     1       2.364   1.178   0.501  1.00  0.00     0.223 C 
ATOM     16  O   UNL     1       2.852   0.961   1.633  1.00  0.00    -0.275 OA
BRANCH  15  17
ATOM     17  C   UNL     1       1.058   1.967   0.576  1.00  0.00     0.102 C 
BRANCH  17  18
ATOM     18  C   UNL     1      -0.121   2.060  -0.363  1.00  0.00     0.038 C 
BRANCH  18  19
ATOM     19  C   UNL     1      -0.588   0.824  -1.099  1.00  0.00     0.160 C 
BRANCH  19  20
ATOM     20  O   UNL     1      -1.092  -0.247  -0.323  1.00  0.00    -0.385 OA
ATOM     21  C   UNL     1      -0.195  -0.903   0.551  1.00  0.00     0.194 C 
ENDBRANCH  19  20
ENDBRANCH  18  19
ENDBRANCH  17  18
ENDBRANCH  15  17
ENDBRANCH  10  15
ENDBRANCH   7   9
ENDBRANCH   6   7
ENDBRANCH   5   6
ENDBRANCH   4   5
ENDBRANCH   3   4
ENDBRANCH   2   3
ENDBRANCH   1   2
BRANCH   1  22
ATOM     22  O   UNL     1       2.378   4.512  -1.234  1.00  0.00    -0.377 OA
BRANCH  22  23
ATOM     23  C   UNL     1       2.285   5.823  -0.700  1.00  0.00     0.188 C 
BRANCH  23  24
ATOM     24  C   UNL     1       3.207   6.896  -1.310  1.00  0.00     0.188 C 
BRANCH  24  25
ATOM     25  O   UNL     1       4.587   6.540  -1.323  1.00  0.00    -0.376 OA
BRANCH  25  26
ATOM     26  C   UNL     1       5.409   6.983  -0.250  1.00  0.00     0.202 C 
BRANCH  26  27
ATOM     27  C   UNL     1       5.148   6.389   1.146  1.00  0.00     0.261 C 
BRANCH  27  28
ATOM     28  O   UNL     1       3.861   6.647   1.726  1.00  0.00    -0.460 OA
BRANCH  28  29
ATOM     29  C   UNL     1       3.458   7.932   1.829  1.00  0.00     0.338 C 
ATOM     30  O   UNL     1       4.096   8.925   1.548  1.00  0.00    -0.246 OA
BRANCH  29  31
ATOM     31  C   UNL     1       2.015   7.927   2.152  1.00  0.00     0.060 A 
ATOM     32  C   UNL     1       1.127   8.547   1.264  1.00  0.00     0.016 A 
ATOM     33  C   UNL     1       1.548   7.332   3.325  1.00  0.00     0.016 A 
ATOM     34  C   UNL     1      -0.230   8.621   1.574  1.00  0.00     0.010 A 
ATOM     35  C   UNL     1       0.192   7.428   3.646  1.00  0.00     0.010 A 
ATOM     36  C   UNL     1      -0.693   8.111   2.793  1.00  0.00    -0.014 A 
BRANCH  36  37
ATOM     37  C   UNL     1      -2.048   8.479   3.264  1.00  0.00     0.031 A 
ATOM     38  C   UNL     1      -2.183   9.616   4.238  1.00  0.00     0.074 A 
ATOM     39  C   UNL     1      -3.139   7.820   2.838  1.00  0.00     0.049 A 
ATOM     40  N   UNL     1      -3.256  10.103   4.802  1.00  0.00    -0.248 NA
ATOM     41  C   UNL     1      -0.935  10.291   4.632  1.00  0.00     0.031 C 
ATOM     42  C   UNL     1      -3.137   6.700   1.901  1.00  0.00     0.029 A 
ATOM     43  N   UNL     1      -4.460   7.983   3.172  1.00  0.00    -0.354 N 
ATOM     44  C   UNL     1      -2.812  11.112   5.648  1.00  0.00     0.074 A 
ATOM     45  C   UNL     1      -1.371  11.165   5.526  1.00  0.00     0.031 C 
ATOM     46  C   UNL     1      -4.395   6.246   1.766  1.00  0.00     0.029 A 
ATOM     47  C   UNL     1      -5.283   7.029   2.627  1.00  0.00     0.049 A 
ATOM     48  H   UNL     1      -4.786   8.713   3.747  1.00  0.00     0.167 HD
ATOM     49  C   UNL     1      -3.536  11.926   6.451  1.00  0.00     0.034 A 
ATOM     50  C   UNL     1      -6.595   6.791   2.826  1.00  0.00     0.034 A 
ATOM     51  C   UNL     1      -4.968  11.877   6.563  1.00  0.00     0.049 A 
ATOM     52  C   UNL     1      -7.383   7.701   3.731  1.00  0.00     0.074 A 
ATOM     53  C   UNL     1      -5.803  12.707   7.290  1.00  0.00     0.029 A 
ATOM     54  N   UNL     1      -5.777  10.929   5.956  1.00  0.00    -0.354 N 
ATOM     55  N   UNL     1      -6.974   8.741   4.417  1.00  0.00    -0.248 NA
ATOM     56  C   UNL     1      -8.822   7.428   3.861  1.00  0.00     0.031 C 
ATOM     57  C   UNL     1      -7.111  12.230   7.162  1.00  0.00     0.029 A 
ATOM     58  C   UNL     1      -7.099  11.133   6.314  1.00  0.00     0.049 A 
ATOM     59  H   UNL     1      -5.459  10.214   5.358  1.00  0.00     0.167 HD
ATOM     60  C   UNL     1      -8.105   9.263   5.036  1.00  0.00     0.074 A 
ATOM     61  C   UNL     1      -9.221   8.435   4.627  1.00  0.00     0.031 C 
ATOM     62  C   UNL     1      -8.209  10.325   5.874  1.00  0.00     0.034 A 
BRANCH  49  63
ATOM     63  C   UNL     1      -2.782  12.932   7.280  1.00  0.00     0.023 A 
ATOM     64  C   UNL     1      -2.152  14.032   6.662  1.00  0.00     0.012 A 
ATOM     65  C   UNL     1      -2.716  12.796   8.680  1.00  0.00     0.148 A 
ATOM     66  C   UNL     1      -1.431  14.954   7.419  1.00  0.00     0.002 A 
ATOM     67  C   UNL     1      -2.038  13.747   9.433  1.00  0.00     0.091 A 
ATOM     68  F   UNL     1      -3.297  11.730   9.248  1.00  0.00    -0.205 F 
ATOM     69  C   UNL     1      -1.382  14.817   8.804  1.00  0.00     0.022 A 
BRANCH  67  70
ATOM     70  S   UNL     1      -1.991  13.701  11.227  1.00  0.00     0.127 S 
ATOM     71  O   UNL     1      -0.609  13.294  11.476  1.00  0.00    -0.237 OA
ATOM     72  O   UNL     1      -2.291  15.090  11.579  1.00  0.00    -0.237 OA
ATOM     73  O   UNL     1      -3.010  12.742  11.630  1.00  0.00    -0.744 OA
ENDBRANCH  67  70
ENDBRANCH  49  63
BRANCH  50  74
ATOM     74  C   UNL     1      -7.241   5.637   2.143  1.00  0.00     0.023 A 
ATOM     75  C   UNL     1      -8.158   5.859   1.099  1.00  0.00     0.012 A 
ATOM     76  C   UNL     1      -6.908   4.315   2.500  1.00  0.00     0.148 A 
ATOM     77  C   UNL     1      -8.746   4.783   0.432  1.00  0.00     0.002 A 
ATOM     78  C   UNL     1      -7.454   3.251   1.795  1.00  0.00     0.091 A 
ATOM     79  F   UNL     1      -6.044   4.130   3.507  1.00  0.00    -0.205 F 
ATOM     80  C   UNL     1      -8.386   3.481   0.771  1.00  0.00     0.022 A 
BRANCH  78  81
ATOM     81  S   UNL     1      -6.948   1.550   2.070  1.00  0.00     0.127 S 
ATOM     82  O   UNL     1      -8.180   0.951   2.578  1.00  0.00    -0.237 OA
ATOM     83  O   UNL     1      -6.571   1.133   0.720  1.00  0.00    -0.237 OA
ATOM     84  O   UNL     1      -5.844   1.614   3.017  1.00  0.00    -0.744 OA
ENDBRANCH  78  81
ENDBRANCH  50  74
BRANCH  62  85
ATOM     85  C   UNL     1      -9.581  10.686   6.386  1.00  0.00     0.023 A 
ATOM     86  C   UNL     1     -10.223   9.862   7.331  1.00  0.00     0.012 A 
ATOM     87  C   UNL     1     -10.201  11.887   5.984  1.00  0.00     0.148 A 
ATOM     88  C   UNL     1     -11.475  10.208   7.840  1.00  0.00     0.002 A 
ATOM     89  C   UNL     1     -11.423  12.252   6.536  1.00  0.00     0.091 A 
ATOM     90  F   UNL     1      -9.583  12.651   5.072  1.00  0.00    -0.205 F 
ATOM     91  C   UNL     1     -12.068  11.408   7.453  1.00  0.00     0.022 A 
BRANCH  89  92
ATOM     92  S   UNL     1     -12.213  13.824   6.171  1.00  0.00     0.127 S 
ATOM     93  O   UNL     1     -13.350  13.403   5.353  1.00  0.00    -0.237 OA
ATOM     94  O   UNL     1     -12.569  14.309   7.506  1.00  0.00    -0.237 OA
ATOM     95  O   UNL     1     -11.213  14.628   5.484  1.00  0.00    -0.744 OA
ENDBRANCH  89  92
ENDBRANCH  62  85
ENDBRANCH  36  37
ENDBRANCH  29  31
ENDBRANCH  28  29
ENDBRANCH  27  28
ENDBRANCH  26  27
ENDBRANCH  25  26
ENDBRANCH  24  25
ENDBRANCH  23  24
ENDBRANCH  22  23
ENDBRANCH   1  22
TORSDOF 28
