REMARK SMILES C[C@@H]1[C@H](C(=O)OCCOCCOCCOCCOC(=O)c2ccc(-c3c4nc(c(-c5cccc(S(=O)(=O)[O-])c5F)c5ccc([nH]5)c(-c5cccc(S(=O)(=O)[O-])c5F)c5nc(c(-c6cccc(S(=O)(=O)[O-])c6F)c6ccc3[nH]6)C=C5)C=C4)cc2)CCN1S(=O)(=O)c1cc(F)cc(F)c1
REMARK SMILES IDX 13 1 12 2 11 3 10 4 9 5 8 6 7 7 6 8 4 9 5 10 3 11 1 12 2 13
REMARK SMILES IDX 86 14 84 15 85 16 87 17 88 18 89 19 90 20 91 21 97 22 92 23
REMARK SMILES IDX 95 24 93 25 94 26 96 27 14 28 15 29 16 30 17 31 18 32 19 33
REMARK SMILES IDX 20 34 21 35 22 36 83 37 23 38 82 39 24 40 25 41 26 42 76 43
REMARK SMILES IDX 27 44 81 45 75 46 77 47 28 48 80 49 74 50 73 51 29 53 61 54
REMARK SMILES IDX 41 55 60 56 42 57 45 58 59 59 78 60 43 61 44 62 58 64 79 65
REMARK SMILES IDX 46 66 30 67 31 68 39 69 32 70 34 71 40 72 33 73 35 74 36 75
REMARK SMILES IDX 37 76 38 77 62 78 63 79 71 80 64 81 66 82 72 83 65 84 67 85
REMARK SMILES IDX 68 86 69 87 70 88 47 89 48 90 56 91 49 92 51 93 57 94 50 95
REMARK SMILES IDX 52 96 53 97 54 98 55 99
REMARK H PARENT 77 52 45 63
REMARK Flexibility Score: inf
ROOT
ATOM      1  C   UNL     1       4.260   2.558  -0.201  1.00  0.00     0.188 C 
ENDROOT
BRANCH   1   2
ATOM      2  O   UNL     1       3.123   1.830  -0.677  1.00  0.00    -0.377 OA
BRANCH   2   3
ATOM      3  C   UNL     1       2.394   2.323  -1.795  1.00  0.00     0.188 C 
BRANCH   3   4
ATOM      4  C   UNL     1       1.827   3.752  -1.736  1.00  0.00     0.188 C 
BRANCH   4   5
ATOM      5  O   UNL     1       2.553   4.586  -0.854  1.00  0.00    -0.376 OA
BRANCH   5   6
ATOM      6  C   UNL     1       1.855   5.162   0.236  1.00  0.00     0.202 C 
BRANCH   6   7
ATOM      7  C   UNL     1       1.095   4.256   1.221  1.00  0.00     0.261 C 
BRANCH   7   8
ATOM      8  O   UNL     1       0.885   2.906   0.785  1.00  0.00    -0.463 OA
BRANCH   8   9
ATOM      9  C   UNL     1      -0.390   2.511   0.581  1.00  0.00     0.310 C 
ATOM     10  O   UNL     1      -1.357   3.266   0.601  1.00  0.00    -0.252 OA
BRANCH   9  11
ATOM     11  C   UNL     1      -0.508   1.056   0.187  1.00  0.00     0.118 C 
ATOM     12  C   UNL     1       1.170   0.195   1.968  1.00  0.00     0.027 C 
ATOM     13  C   UNL     1       0.582   0.034   0.571  1.00  0.00     0.084 C 
ATOM     14  N   UNL     1      -0.121  -1.283   0.355  1.00  0.00    -0.194 NA
ATOM     15  C   UNL     1      -1.754   0.440   0.799  1.00  0.00     0.034 C 
ATOM     16  C   UNL     1      -1.594  -1.039   0.508  1.00  0.00     0.104 C 
BRANCH  14  17
ATOM     17  S   UNL     1       0.355  -2.774   1.011  1.00  0.00     0.243 S 
ATOM     18  O   UNL     1       0.473  -2.640   2.443  1.00  0.00    -0.207 OA
ATOM     19  O   UNL     1      -0.576  -3.739   0.450  1.00  0.00    -0.207 OA
BRANCH  17  20
ATOM     20  C   UNL     1       1.947  -3.248   0.382  1.00  0.00     0.088 A 
ATOM     21  C   UNL     1       2.181  -4.626   0.248  1.00  0.00     0.061 A 
ATOM     22  C   UNL     1       2.959  -2.347   0.059  1.00  0.00     0.061 A 
ATOM     23  C   UNL     1       3.419  -5.082  -0.190  1.00  0.00     0.127 A 
ATOM     24  C   UNL     1       4.189  -2.833  -0.385  1.00  0.00     0.127 A 
ATOM     25  F   UNL     1       3.635  -6.398  -0.302  1.00  0.00    -0.207 F 
ATOM     26  C   UNL     1       4.433  -4.194  -0.509  1.00  0.00     0.078 A 
ATOM     27  F   UNL     1       5.162  -1.967  -0.695  1.00  0.00    -0.207 F 
ENDBRANCH  17  20
ENDBRANCH  14  17
ENDBRANCH   9  11
ENDBRANCH   8   9
ENDBRANCH   7   8
ENDBRANCH   6   7
ENDBRANCH   5   6
ENDBRANCH   4   5
ENDBRANCH   3   4
ENDBRANCH   2   3
ENDBRANCH   1   2
BRANCH   1  28
ATOM     28  C   UNL     1       5.122   3.392  -1.176  1.00  0.00     0.188 C 
BRANCH  28  29
ATOM     29  O   UNL     1       4.973   3.051  -2.548  1.00  0.00    -0.376 OA
BRANCH  29  30
ATOM     30  C   UNL     1       5.981   2.216  -3.104  1.00  0.00     0.202 C 
BRANCH  30  31
ATOM     31  C   UNL     1       6.051   0.800  -2.519  1.00  0.00     0.261 C 
BRANCH  31  32
ATOM     32  O   UNL     1       6.498   0.729  -1.156  1.00  0.00    -0.460 OA
BRANCH  32  33
ATOM     33  C   UNL     1       7.715   1.236  -0.870  1.00  0.00     0.338 C 
ATOM     34  O   UNL     1       8.516   1.729  -1.646  1.00  0.00    -0.246 OA
BRANCH  33  35
ATOM     35  C   UNL     1       7.859   1.252   0.595  1.00  0.00     0.060 A 
ATOM     36  C   UNL     1       8.041   2.478   1.247  1.00  0.00     0.016 A 
ATOM     37  C   UNL     1       7.847   0.054   1.311  1.00  0.00     0.016 A 
ATOM     38  C   UNL     1       8.259   2.502   2.624  1.00  0.00     0.010 A 
ATOM     39  C   UNL     1       8.082   0.079   2.686  1.00  0.00     0.010 A 
ATOM     40  C   UNL     1       8.327   1.299   3.341  1.00  0.00    -0.014 A 
BRANCH  40  41
ATOM     41  C   UNL     1       8.845   1.295   4.728  1.00  0.00     0.031 A 
ATOM     42  C   UNL     1      10.304   1.001   4.945  1.00  0.00     0.074 A 
ATOM     43  C   UNL     1       8.036   1.531   5.776  1.00  0.00     0.049 A 
ATOM     44  N   UNL     1      10.976   0.924   6.062  1.00  0.00    -0.248 NA
ATOM     45  C   UNL     1      11.113   0.759   3.737  1.00  0.00     0.031 C 
ATOM     46  C   UNL     1       6.607   1.822   5.694  1.00  0.00     0.029 A 
ATOM     47  N   UNL     1       8.307   1.535   7.122  1.00  0.00    -0.354 N 
ATOM     48  C   UNL     1      12.278   0.605   5.698  1.00  0.00     0.074 A 
ATOM     49  C   UNL     1      12.301   0.488   4.256  1.00  0.00     0.031 C 
ATOM     50  C   UNL     1       6.117   1.947   6.941  1.00  0.00     0.029 A 
ATOM     51  C   UNL     1       7.194   1.729   7.906  1.00  0.00     0.049 A 
ATOM     52  H   UNL     1       9.211   1.411   7.491  1.00  0.00     0.167 HD
ATOM     53  C   UNL     1      13.364   0.440   6.488  1.00  0.00     0.034 A 
ATOM     54  C   UNL     1       7.062   1.713   9.248  1.00  0.00     0.034 A 
ATOM     55  C   UNL     1      13.346   0.565   7.919  1.00  0.00     0.049 A 
ATOM     56  C   UNL     1       8.283   1.499  10.107  1.00  0.00     0.074 A 
ATOM     57  C   UNL     1      14.403   0.460   8.805  1.00  0.00     0.029 A 
ATOM     58  N   UNL     1      12.210   0.807   8.676  1.00  0.00    -0.354 N 
ATOM     59  N   UNL     1       9.532   1.334   9.744  1.00  0.00    -0.248 NA
ATOM     60  C   UNL     1       8.080   1.502  11.564  1.00  0.00     0.031 C 
ATOM     61  C   UNL     1      13.902   0.616  10.102  1.00  0.00     0.029 A 
ATOM     62  C   UNL     1      12.537   0.843  10.020  1.00  0.00     0.049 A 
ATOM     63  H   UNL     1      11.305   0.934   8.311  1.00  0.00     0.167 HD
ATOM     64  C   UNL     1      10.267   1.254  10.923  1.00  0.00     0.074 A 
ATOM     65  C   UNL     1       9.325   1.406  12.012  1.00  0.00     0.031 C 
ATOM     66  C   UNL     1      11.598   1.056  11.091  1.00  0.00     0.034 A 
BRANCH  53  67
ATOM     67  C   UNL     1      14.674   0.134   5.814  1.00  0.00     0.023 A 
ATOM     68  C   UNL     1      15.349   1.155   5.114  1.00  0.00     0.012 A 
ATOM     69  C   UNL     1      15.259  -1.143   5.911  1.00  0.00     0.148 A 
ATOM     70  C   UNL     1      16.573   0.902   4.497  1.00  0.00     0.002 A 
ATOM     71  C   UNL     1      16.498  -1.376   5.327  1.00  0.00     0.091 A 
ATOM     72  F   UNL     1      14.587  -2.106   6.558  1.00  0.00    -0.205 F 
ATOM     73  C   UNL     1      17.151  -0.359   4.612  1.00  0.00     0.022 A 
BRANCH  71  74
ATOM     74  S   UNL     1      17.358  -2.945   5.481  1.00  0.00     0.127 S 
ATOM     75  O   UNL     1      17.232  -3.484   4.128  1.00  0.00    -0.237 OA
ATOM     76  O   UNL     1      18.711  -2.521   5.844  1.00  0.00    -0.237 OA
ATOM     77  O   UNL     1      16.657  -3.687   6.519  1.00  0.00    -0.744 OA
ENDBRANCH  71  74
ENDBRANCH  53  67
BRANCH  54  78
ATOM     78  C   UNL     1       5.728   1.945   9.870  1.00  0.00     0.023 A 
ATOM     79  C   UNL     1       5.496   3.132  10.592  1.00  0.00     0.012 A 
ATOM     80  C   UNL     1       4.689   1.002   9.748  1.00  0.00     0.148 A 
ATOM     81  C   UNL     1       4.265   3.361  11.209  1.00  0.00     0.002 A 
ATOM     82  C   UNL     1       3.448   1.262  10.318  1.00  0.00     0.091 A 
ATOM     83  F   UNL     1       4.935  -0.130   9.073  1.00  0.00    -0.205 F 
ATOM     84  C   UNL     1       3.239   2.432  11.063  1.00  0.00     0.022 A 
BRANCH  82  85
ATOM     85  S   UNL     1       2.032   0.183  10.076  1.00  0.00     0.127 S 
ATOM     86  O   UNL     1       1.872  -0.401  11.405  1.00  0.00    -0.237 OA
ATOM     87  O   UNL     1       0.991   1.137   9.691  1.00  0.00    -0.237 OA
ATOM     88  O   UNL     1       2.420  -0.740   9.019  1.00  0.00    -0.744 OA
ENDBRANCH  82  85
ENDBRANCH  54  78
BRANCH  66  89
ATOM     89  C   UNL     1      12.135   1.032  12.499  1.00  0.00     0.023 A 
ATOM     90  C   UNL     1      11.886  -0.082  13.325  1.00  0.00     0.012 A 
ATOM     91  C   UNL     1      12.958   2.074  12.973  1.00  0.00     0.148 A 
ATOM     92  C   UNL     1      12.424  -0.145  14.610  1.00  0.00     0.002 A 
ATOM     93  C   UNL     1      13.530   1.981  14.236  1.00  0.00     0.091 A 
ATOM     94  F   UNL     1      13.169   3.134  12.179  1.00  0.00    -0.205 F 
ATOM     95  C   UNL     1      13.254   0.878  15.061  1.00  0.00     0.022 A 
BRANCH  93  96
ATOM     96  S   UNL     1      14.688   3.205  14.859  1.00  0.00     0.127 S 
ATOM     97  O   UNL     1      13.869   3.922  15.835  1.00  0.00    -0.237 OA
ATOM     98  O   UNL     1      15.741   2.372  15.441  1.00  0.00    -0.237 OA
ATOM     99  O   UNL     1      15.108   3.983  13.701  1.00  0.00    -0.744 OA
ENDBRANCH  93  96
ENDBRANCH  66  89
ENDBRANCH  40  41
ENDBRANCH  33  35
ENDBRANCH  32  33
ENDBRANCH  31  32
ENDBRANCH  30  31
ENDBRANCH  29  30
ENDBRANCH  28  29
ENDBRANCH   1  28
TORSDOF 25
