REMARK SMILES CC(=O)N1C[C@@H]2C[N@H+](CC(=O)NCc3ccccc3)C[C@]2(C(=O)OCCOCCOCCOCCOC(=O)c2ccc(-c3c4nc(c(-c5cccc(S(=O)(=O)[O-])c5F)c5ccc([nH]5)c(-c5cccc(S(=O)(=O)[O-])c5F)c5nc(c(-c6cccc(S(=O)(=O)[O-])c6F)c6ccc3[nH]6)C=C5)C=C4)cc2)C1
REMARK SMILES IDX 29 1 28 2 27 3 26 4 25 5 24 6 22 7 23 8 21 9 4 10 5 11
REMARK SMILES IDX 102 12 6 13 7 14 20 15 8 16 2 18 1 19 3 20 9 21 10 22 11 23
REMARK SMILES IDX 12 24 13 26 14 27 15 28 19 29 16 30 18 31 17 32 30 33 31 34
REMARK SMILES IDX 32 35 33 36 34 37 35 38 36 39 37 40 38 41 39 42 40 43 101 44
REMARK SMILES IDX 41 45 100 46 42 47 43 48 44 49 94 50 45 51 99 52 93 53 95 54
REMARK SMILES IDX 46 55 98 56 92 57 91 58 47 60 79 61 59 62 78 63 60 64 63 65
REMARK SMILES IDX 77 66 96 67 61 68 62 69 76 71 97 72 64 73 48 74 49 75 57 76
REMARK SMILES IDX 50 77 52 78 58 79 51 80 53 81 54 82 55 83 56 84 80 85 81 86
REMARK SMILES IDX 89 87 82 88 84 89 90 90 83 91 85 92 86 93 87 94 88 95 65 96
REMARK SMILES IDX 66 97 74 98 67 99 69 100 75 101 68 102 70 103 71 104 72 105
REMARK SMILES IDX 73 106
REMARK H PARENT 8 17 12 25 95 59 63 70
REMARK Flexibility Score: inf
ROOT
ATOM      1  C   UNL     1       5.466   1.900  -5.430  1.00  0.00     0.188 C 
ENDROOT
BRANCH   1   2
ATOM      2  C   UNL     1       6.213   1.597  -4.120  1.00  0.00     0.188 C 
BRANCH   2   3
ATOM      3  O   UNL     1       6.907   0.359  -4.110  1.00  0.00    -0.376 OA
BRANCH   3   4
ATOM      4  C   UNL     1       6.171  -0.762  -3.652  1.00  0.00     0.202 C 
BRANCH   4   5
ATOM      5  C   UNL     1       5.036  -1.256  -4.544  1.00  0.00     0.261 C 
BRANCH   5   6
ATOM      6  O   UNL     1       3.649  -1.068  -4.143  1.00  0.00    -0.463 OA
BRANCH   6   7
ATOM      7  C   UNL     1       2.975   0.094  -3.914  1.00  0.00     0.320 C 
ATOM      8  O   UNL     1       3.472   1.105  -3.444  1.00  0.00    -0.251 OA
BRANCH   7   9
ATOM      9  C   UNL     1       1.486  -0.075  -4.377  1.00  0.00     0.144 C 
ATOM     10  N   UNL     1      -0.419   0.375  -2.894  1.00  0.00    -0.341 N 
ATOM     11  C   UNL     1      -0.999   0.014  -4.150  1.00  0.00     0.130 C 
ATOM     12  C   UNL     1       0.980   0.776  -3.112  1.00  0.00     0.144 C 
ATOM     13  C   UNL     1       0.120   0.349  -5.099  1.00  0.00     0.089 C 
ATOM     14  C   UNL     1      -0.040  -0.338  -6.447  1.00  0.00     0.269 C 
ATOM     15  C   UNL     1       2.093   0.114  -5.844  1.00  0.00     0.284 C 
ATOM     16  N   UNL     1       1.306  -0.816  -6.677  1.00  0.00    -0.326 N 
ATOM     17  H   UNL     1       1.567  -0.813  -7.663  1.00  0.00     0.348 HD
BRANCH  10  18
ATOM     18  C   UNL     1      -1.111   0.102  -1.740  1.00  0.00     0.219 C 
ATOM     19  C   UNL     1      -0.611   0.666  -0.444  1.00  0.00     0.114 C 
ATOM     20  O   UNL     1      -2.145  -0.570  -1.739  1.00  0.00    -0.275 OA
ENDBRANCH  10  18
BRANCH  16  21
ATOM     21  C   UNL     1       1.529  -2.276  -6.341  1.00  0.00     0.363 C 
BRANCH  21  22
ATOM     22  C   UNL     1       0.679  -2.881  -5.194  1.00  0.00     0.275 C 
ATOM     23  O   UNL     1      -0.550  -2.983  -5.305  1.00  0.00    -0.268 OA
ATOM     24  N   UNL     1       1.168  -3.297  -3.993  1.00  0.00    -0.347 N 
ATOM     25  H   UNL     1       0.469  -3.395  -3.306  1.00  0.00     0.164 HD
BRANCH  24  26
ATOM     26  C   UNL     1       2.497  -3.629  -3.503  1.00  0.00     0.151 C 
BRANCH  26  27
ATOM     27  C   UNL     1       2.903  -2.888  -2.228  1.00  0.00    -0.029 A 
ATOM     28  C   UNL     1       2.015  -2.100  -1.485  1.00  0.00     0.005 A 
ATOM     29  C   UNL     1       4.252  -2.892  -1.825  1.00  0.00     0.005 A 
ATOM     30  C   UNL     1       2.488  -1.234  -0.488  1.00  0.00     0.000 A 
ATOM     31  C   UNL     1       4.719  -2.017  -0.833  1.00  0.00     0.000 A 
ATOM     32  C   UNL     1       3.842  -1.151  -0.198  1.00  0.00     0.000 A 
ENDBRANCH  26  27
ENDBRANCH  24  26
ENDBRANCH  21  22
ENDBRANCH  16  21
ENDBRANCH   7   9
ENDBRANCH   6   7
ENDBRANCH   5   6
ENDBRANCH   4   5
ENDBRANCH   3   4
ENDBRANCH   2   3
ENDBRANCH   1   2
BRANCH   1  33
ATOM     33  O   UNL     1       5.639   1.018  -6.529  1.00  0.00    -0.377 OA
BRANCH  33  34
ATOM     34  C   UNL     1       6.944   0.554  -6.865  1.00  0.00     0.188 C 
BRANCH  34  35
ATOM     35  C   UNL     1       8.150   1.453  -6.552  1.00  0.00     0.188 C 
BRANCH  35  36
ATOM     36  O   UNL     1       7.824   2.824  -6.407  1.00  0.00    -0.376 OA
BRANCH  36  37
ATOM     37  C   UNL     1       7.895   3.646  -7.560  1.00  0.00     0.202 C 
BRANCH  37  38
ATOM     38  C   UNL     1       7.042   3.268  -8.780  1.00  0.00     0.261 C 
BRANCH  38  39
ATOM     39  O   UNL     1       7.312   2.013  -9.429  1.00  0.00    -0.460 OA
BRANCH  39  40
ATOM     40  C   UNL     1       8.578   1.649  -9.726  1.00  0.00     0.338 C 
ATOM     41  O   UNL     1       9.590   2.311  -9.585  1.00  0.00    -0.246 OA
BRANCH  40  42
ATOM     42  C   UNL     1       8.546   0.199 -10.036  1.00  0.00     0.060 A 
ATOM     43  C   UNL     1       9.309  -0.691  -9.263  1.00  0.00     0.016 A 
ATOM     44  C   UNL     1       7.717  -0.283 -11.049  1.00  0.00     0.016 A 
ATOM     45  C   UNL     1       9.260  -2.064  -9.520  1.00  0.00     0.010 A 
ATOM     46  C   UNL     1       7.695  -1.651 -11.327  1.00  0.00     0.010 A 
ATOM     47  C   UNL     1       8.489  -2.544 -10.585  1.00  0.00    -0.014 A 
BRANCH  47  48
ATOM     48  C   UNL     1       8.685  -3.923 -11.094  1.00  0.00     0.031 A 
ATOM     49  C   UNL     1       9.675  -4.116 -12.210  1.00  0.00     0.074 A 
ATOM     50  C   UNL     1       7.972  -4.965 -10.632  1.00  0.00     0.049 A 
ATOM     51  N   UNL     1       9.930  -5.183 -12.918  1.00  0.00    -0.248 NA
ATOM     52  C   UNL     1      10.479  -2.938 -12.582  1.00  0.00     0.031 C 
ATOM     53  C   UNL     1       6.997  -4.912  -9.545  1.00  0.00     0.029 A 
ATOM     54  N   UNL     1       7.933  -6.271 -11.059  1.00  0.00    -0.354 N 
ATOM     55  C   UNL     1      10.892  -4.797 -13.843  1.00  0.00     0.074 A 
ATOM     56  C   UNL     1      11.182  -3.402 -13.603  1.00  0.00     0.031 C 
ATOM     57  C   UNL     1       6.417  -6.120  -9.423  1.00  0.00     0.029 A 
ATOM     58  C   UNL     1       6.955  -7.019 -10.445  1.00  0.00     0.049 A 
ATOM     59  H   UNL     1       8.545  -6.636 -11.738  1.00  0.00     0.167 HD
ATOM     60  C   UNL     1      11.484  -5.538 -14.808  1.00  0.00     0.034 A 
ATOM     61  C   UNL     1       6.516  -8.267 -10.711  1.00  0.00     0.034 A 
ATOM     62  C   UNL     1      11.203  -6.926 -15.044  1.00  0.00     0.049 A 
ATOM     63  C   UNL     1       7.161  -9.058 -11.823  1.00  0.00     0.074 A 
ATOM     64  C   UNL     1      11.789  -7.776 -15.963  1.00  0.00     0.029 A 
ATOM     65  N   UNL     1      10.240  -7.661 -14.373  1.00  0.00    -0.354 N 
ATOM     66  N   UNL     1       8.157  -8.723 -12.608  1.00  0.00    -0.248 NA
ATOM     67  C   UNL     1       6.635 -10.410 -12.072  1.00  0.00     0.031 C 
ATOM     68  C   UNL     1      11.155  -9.019 -15.872  1.00  0.00     0.029 A 
ATOM     69  C   UNL     1      10.199  -8.951 -14.872  1.00  0.00     0.049 A 
ATOM     70  H   UNL     1       9.669  -7.317 -13.648  1.00  0.00     0.167 HD
ATOM     71  C   UNL     1       8.395  -9.828 -13.420  1.00  0.00     0.074 A 
ATOM     72  C   UNL     1       7.457 -10.854 -13.014  1.00  0.00     0.031 C 
ATOM     73  C   UNL     1       9.296  -9.978 -14.423  1.00  0.00     0.034 A 
BRANCH  60  74
ATOM     74  C   UNL     1      12.504  -4.860 -15.680  1.00  0.00     0.023 A 
ATOM     75  C   UNL     1      13.777  -4.552 -15.160  1.00  0.00     0.012 A 
ATOM     76  C   UNL     1      12.219  -4.579 -17.030  1.00  0.00     0.148 A 
ATOM     77  C   UNL     1      14.744  -3.953 -15.965  1.00  0.00     0.002 A 
ATOM     78  C   UNL     1      13.202  -4.022 -17.837  1.00  0.00     0.091 A 
ATOM     79  F   UNL     1      10.991  -4.855 -17.494  1.00  0.00    -0.205 F 
ATOM     80  C   UNL     1      14.461  -3.699 -17.305  1.00  0.00     0.022 A 
BRANCH  78  81
ATOM     81  S   UNL     1      12.961  -3.727 -19.592  1.00  0.00     0.127 S 
ATOM     82  O   UNL     1      12.960  -2.266 -19.648  1.00  0.00    -0.237 OA
ATOM     83  O   UNL     1      14.146  -4.359 -20.173  1.00  0.00    -0.237 OA
ATOM     84  O   UNL     1      11.699  -4.364 -19.939  1.00  0.00    -0.744 OA
ENDBRANCH  78  81
ENDBRANCH  60  74
BRANCH  61  85
ATOM     85  C   UNL     1       5.397  -8.856  -9.920  1.00  0.00     0.023 A 
ATOM     86  C   UNL     1       5.640  -9.958  -9.077  1.00  0.00     0.012 A 
ATOM     87  C   UNL     1       4.090  -8.337 -10.008  1.00  0.00     0.148 A 
ATOM     88  C   UNL     1       4.598 -10.554  -8.364  1.00  0.00     0.002 A 
ATOM     89  C   UNL     1       3.070  -8.895  -9.247  1.00  0.00     0.091 A 
ATOM     90  F   UNL     1       3.871  -7.304 -10.834  1.00  0.00    -0.205 F 
ATOM     91  C   UNL     1       3.316 -10.017  -8.441  1.00  0.00     0.022 A 
BRANCH  89  92
ATOM     92  S   UNL     1       1.427  -8.176  -9.169  1.00  0.00     0.127 S 
ATOM     93  O   UNL     1       0.632  -9.169  -9.886  1.00  0.00    -0.237 OA
ATOM     94  O   UNL     1       1.196  -8.122  -7.724  1.00  0.00    -0.237 OA
ATOM     95  O   UNL     1       1.542  -6.871  -9.805  1.00  0.00    -0.744 OA
ENDBRANCH  89  92
ENDBRANCH  61  85
BRANCH  73  96
ATOM     96  C   UNL     1       9.344 -11.305 -15.136  1.00  0.00     0.023 A 
ATOM     97  C   UNL     1       8.310 -11.662 -16.024  1.00  0.00     0.012 A 
ATOM     98  C   UNL     1      10.457 -12.158 -14.992  1.00  0.00     0.148 A 
ATOM     99  C   UNL     1       8.368 -12.861 -16.734  1.00  0.00     0.002 A 
ATOM    100  C   UNL     1      10.531 -13.327 -15.739  1.00  0.00     0.091 A 
ATOM    101  F   UNL     1      11.423 -11.807 -14.131  1.00  0.00    -0.205 F 
ATOM    102  C   UNL     1       9.483 -13.687 -16.601  1.00  0.00     0.022 A 
BRANCH 100 103
ATOM    103  S   UNL     1      11.970 -14.402 -15.708  1.00  0.00     0.127 S 
ATOM    104  O   UNL     1      11.455 -15.568 -14.992  1.00  0.00    -0.237 OA
ATOM    105  O   UNL     1      12.224 -14.623 -17.132  1.00  0.00    -0.237 OA
ATOM    106  O   UNL     1      13.014 -13.657 -15.017  1.00  0.00    -0.744 OA
ENDBRANCH 100 103
ENDBRANCH  73  96
ENDBRANCH  47  48
ENDBRANCH  40  42
ENDBRANCH  39  40
ENDBRANCH  38  39
ENDBRANCH  37  38
ENDBRANCH  36  37
ENDBRANCH  35  36
ENDBRANCH  34  35
ENDBRANCH  33  34
ENDBRANCH   1  33
TORSDOF 28
