REMARK SMILES CCc1cc(S(F)(F)(F)(F)F)cc2c1O[C@@H](C(F)(F)F)C(C(=O)OCCOCCOCCOCCOC(=O)c1ccc(-c3c4nc(c(-c5cccc(S(=O)(=O)[O-])c5F)c5ccc([nH]5)c(-c5cccc(S(=O)(=O)[O-])c5F)c5nc(c(-c6cccc(S(=O)(=O)[O-])c6F)c6ccc3[nH]6)C=C5)C=C4)cc1)=C2
REMARK SMILES IDX 31 1 30 2 29 3 28 4 27 5 26 6 25 7 24 8 22 9 23 10 21 11
REMARK SMILES IDX 3 12 4 13 14 14 5 15 13 16 15 17 12 18 102 19 16 20 2 21
REMARK SMILES IDX 1 22 6 23 7 24 8 25 9 26 10 27 11 28 17 29 18 30 19 31 20 32
REMARK SMILES IDX 32 33 33 34 34 35 35 36 36 37 37 38 38 39 39 40 40 41 101 42
REMARK SMILES IDX 41 43 100 44 42 45 43 46 44 47 94 48 45 49 99 50 93 51 95 52
REMARK SMILES IDX 46 53 98 54 92 55 91 56 47 58 79 59 59 60 78 61 60 62 63 63
REMARK SMILES IDX 77 64 96 65 61 66 62 67 76 69 97 70 64 71 48 72 49 73 57 74
REMARK SMILES IDX 50 75 52 76 58 77 51 78 53 79 54 80 55 81 56 82 80 83 81 84
REMARK SMILES IDX 89 85 82 86 84 87 90 88 83 89 85 90 86 91 87 92 88 93 65 94
REMARK SMILES IDX 66 95 74 96 67 97 69 98 75 99 68 100 70 101 71 102 72 103
REMARK SMILES IDX 73 104
REMARK H PARENT 95 57 63 68
REMARK Flexibility Score: inf
ROOT
ATOM      1  C   UNL     1       2.662   2.773 -10.320  1.00  0.00     0.188 C 
ENDROOT
BRANCH   1   2
ATOM      2  O   UNL     1       1.963   2.087  -9.291  1.00  0.00    -0.377 OA
BRANCH   2   3
ATOM      3  C   UNL     1       1.454   3.028  -8.357  1.00  0.00     0.188 C 
BRANCH   3   4
ATOM      4  C   UNL     1       2.605   3.813  -7.750  1.00  0.00     0.188 C 
BRANCH   4   5
ATOM      5  O   UNL     1       3.304   4.499  -8.778  1.00  0.00    -0.376 OA
BRANCH   5   6
ATOM      6  C   UNL     1       3.813   3.558  -9.713  1.00  0.00     0.202 C 
BRANCH   6   7
ATOM      7  C   UNL     1       4.761   2.604  -9.005  1.00  0.00     0.261 C 
BRANCH   7   8
ATOM      8  O   UNL     1       4.062   1.918  -7.977  1.00  0.00    -0.460 OA
BRANCH   8   9
ATOM      9  C   UNL     1       3.458   2.649  -6.920  1.00  0.00     0.338 C 
ATOM     10  O   UNL     1       3.544   3.917  -6.893  1.00  0.00    -0.246 OA
BRANCH   9  11
ATOM     11  C   UNL     1       2.710   1.915  -5.819  1.00  0.00     0.087 C 
ATOM     12  C   UNL     1       1.078  -0.049  -2.513  1.00  0.00    -0.004 A 
ATOM     13  C   UNL     1       0.789  -1.399  -2.586  1.00  0.00     0.032 A 
ATOM     14  C   UNL     1       1.663   0.560  -3.596  1.00  0.00     0.131 A 
ATOM     15  C   UNL     1       1.082  -2.123  -3.712  1.00  0.00     0.108 A 
ATOM     16  C   UNL     1       1.957  -0.134  -4.756  1.00  0.00     0.019 A 
ATOM     17  O   UNL     1       2.047   1.873  -3.468  1.00  0.00    -0.475 OA
ATOM     18  C   UNL     1       1.657  -1.491  -4.795  1.00  0.00     0.036 A 
ATOM     19  C   UNL     1       2.611   0.591  -5.832  1.00  0.00     0.027 C 
ATOM     20  C   UNL     1       2.057   2.683  -4.677  1.00  0.00     0.316 C 
BRANCH  12  21
ATOM     21  C   UNL     1       0.571   0.718  -1.302  1.00  0.00     0.036 C 
ATOM     22  C   UNL     1       1.078   0.053  -0.033  1.00  0.00     0.009 C 
ENDBRANCH  12  21
BRANCH  15  23
ATOM     23  S   UNL     1       0.717  -3.894  -3.779  1.00  0.00     0.310 S 
ATOM     24  F   UNL     1       0.202  -3.909  -2.279  1.00  0.00    -0.094 F 
ATOM     25  F   UNL     1       2.159  -4.182  -3.214  1.00  0.00    -0.094 F 
ATOM     26  F   UNL     1       0.405  -5.417  -3.836  1.00  0.00    -0.094 F 
ATOM     27  F   UNL     1      -0.770  -3.582  -4.210  1.00  0.00    -0.094 F 
ATOM     28  F   UNL     1       0.981  -2.344  -3.618  1.00  0.00    -0.094 F 
ENDBRANCH  15  23
BRANCH  20  29
ATOM     29  C   UNL     1       2.849   3.953  -4.417  1.00  0.00     0.430 C 
ATOM     30  F   UNL     1       2.859   4.702  -5.516  1.00  0.00    -0.167 F 
ATOM     31  F   UNL     1       2.283   4.633  -3.423  1.00  0.00    -0.167 F 
ATOM     32  F   UNL     1       4.097   3.638  -4.083  1.00  0.00    -0.167 F 
ENDBRANCH  20  29
ENDBRANCH   9  11
ENDBRANCH   8   9
ENDBRANCH   7   8
ENDBRANCH   6   7
ENDBRANCH   5   6
ENDBRANCH   4   5
ENDBRANCH   3   4
ENDBRANCH   2   3
ENDBRANCH   1   2
BRANCH   1  33
ATOM     33  C   UNL     1       1.714   3.728 -11.027  1.00  0.00     0.188 C 
BRANCH  33  34
ATOM     34  O   UNL     1       1.205   4.668 -10.093  1.00  0.00    -0.376 OA
BRANCH  34  35
ATOM     35  C   UNL     1       0.506   3.982  -9.065  1.00  0.00     0.202 C 
BRANCH  35  36
ATOM     36  C   UNL     1      -0.645   3.197  -9.671  1.00  0.00     0.261 C 
BRANCH  36  37
ATOM     37  O   UNL     1      -0.136   2.257 -10.606  1.00  0.00    -0.460 OA
BRANCH  37  38
ATOM     38  C   UNL     1       0.605   2.704 -11.731  1.00  0.00     0.338 C 
ATOM     39  O   UNL     1       0.812   3.946 -11.903  1.00  0.00    -0.246 OA
BRANCH  38  40
ATOM     40  C   UNL     1       1.150   1.698 -12.731  1.00  0.00     0.060 A 
ATOM     41  C   UNL     1       2.502   1.832 -13.004  1.00  0.00     0.016 A 
ATOM     42  C   UNL     1       0.448   0.679 -13.214  1.00  0.00     0.016 A 
ATOM     43  C   UNL     1       2.964   0.989 -14.042  1.00  0.00     0.010 A 
ATOM     44  C   UNL     1       1.007  -0.187 -14.123  1.00  0.00     0.010 A 
ATOM     45  C   UNL     1       2.321  -0.077 -14.483  1.00  0.00    -0.014 A 
BRANCH  45  46
ATOM     46  C   UNL     1       3.006  -1.125 -15.345  1.00  0.00     0.031 A 
ATOM     47  C   UNL     1       2.553  -1.423 -16.631  1.00  0.00     0.074 A 
ATOM     48  C   UNL     1       4.005  -1.829 -14.694  1.00  0.00     0.049 A 
ATOM     49  N   UNL     1       3.000  -2.375 -17.451  1.00  0.00    -0.248 NA
ATOM     50  C   UNL     1       1.469  -0.699 -17.312  1.00  0.00     0.031 C 
ATOM     51  C   UNL     1       4.473  -1.529 -13.400  1.00  0.00     0.029 A 
ATOM     52  N   UNL     1       4.712  -2.916 -15.157  1.00  0.00    -0.354 N 
ATOM     53  C   UNL     1       2.333  -2.340 -18.607  1.00  0.00     0.074 A 
ATOM     54  C   UNL     1       1.334  -1.266 -18.531  1.00  0.00     0.031 C 
ATOM     55  C   UNL     1       5.440  -2.430 -13.082  1.00  0.00     0.029 A 
ATOM     56  C   UNL     1       5.593  -3.306 -14.173  1.00  0.00     0.049 A 
ATOM     57  H   UNL     1       4.606  -3.340 -16.039  1.00  0.00     0.167 HD
ATOM     58  C   UNL     1       2.519  -3.161 -19.720  1.00  0.00     0.034 A 
ATOM     59  C   UNL     1       6.486  -4.366 -14.205  1.00  0.00     0.034 A 
ATOM     60  C   UNL     1       3.442  -4.193 -19.768  1.00  0.00     0.049 A 
ATOM     61  C   UNL     1       6.632  -5.224 -15.298  1.00  0.00     0.074 A 
ATOM     62  C   UNL     1       3.648  -5.025 -20.886  1.00  0.00     0.029 A 
ATOM     63  N   UNL     1       4.306  -4.599 -18.775  1.00  0.00    -0.354 N 
ATOM     64  N   UNL     1       5.992  -5.164 -16.466  1.00  0.00    -0.248 NA
ATOM     65  C   UNL     1       7.551  -6.369 -15.331  1.00  0.00     0.031 C 
ATOM     66  C   UNL     1       4.616  -5.926 -20.568  1.00  0.00     0.029 A 
ATOM     67  C   UNL     1       5.030  -5.672 -19.247  1.00  0.00     0.049 A 
ATOM     68  H   UNL     1       4.392  -4.192 -17.883  1.00  0.00     0.167 HD
ATOM     69  C   UNL     1       6.411  -6.143 -17.271  1.00  0.00     0.074 A 
ATOM     70  C   UNL     1       7.415  -6.937 -16.549  1.00  0.00     0.031 C 
ATOM     71  C   UNL     1       5.999  -6.404 -18.579  1.00  0.00     0.034 A 
BRANCH  58  72
ATOM     72  C   UNL     1       1.660  -2.908 -20.949  1.00  0.00     0.023 A 
ATOM     73  C   UNL     1       1.745  -1.684 -21.590  1.00  0.00     0.012 A 
ATOM     74  C   UNL     1       0.862  -3.869 -21.401  1.00  0.00     0.148 A 
ATOM     75  C   UNL     1       0.723  -1.464 -22.544  1.00  0.00     0.002 A 
ATOM     76  C   UNL     1      -0.017  -3.622 -22.427  1.00  0.00     0.091 A 
ATOM     77  F   UNL     1       0.915  -5.080 -20.855  1.00  0.00    -0.205 F 
ATOM     78  C   UNL     1      -0.029  -2.414 -23.068  1.00  0.00     0.022 A 
BRANCH  76  79
ATOM     79  S   UNL     1      -1.176  -4.914 -22.939  1.00  0.00     0.127 S 
ATOM     80  O   UNL     1      -2.611  -4.410 -22.765  1.00  0.00    -0.237 OA
ATOM     81  O   UNL     1      -0.933  -5.266 -24.408  1.00  0.00    -0.237 OA
ATOM     82  O   UNL     1      -0.941  -6.306 -21.974  1.00  0.00    -0.744 OA
ENDBRANCH  76  79
ENDBRANCH  58  72
BRANCH  59  83
ATOM     83  C   UNL     1       7.356  -4.607 -12.982  1.00  0.00     0.023 A 
ATOM     84  C   UNL     1       8.735  -4.578 -13.116  1.00  0.00     0.012 A 
ATOM     85  C   UNL     1       6.783  -4.863 -11.812  1.00  0.00     0.148 A 
ATOM     86  C   UNL     1       9.429  -5.120 -12.009  1.00  0.00     0.002 A 
ATOM     87  C   UNL     1       7.538  -5.258 -10.735  1.00  0.00     0.091 A 
ATOM     88  F   UNL     1       5.465  -4.736 -11.682  1.00  0.00    -0.205 F 
ATOM     89  C   UNL     1       8.902  -5.308 -10.813  1.00  0.00     0.022 A 
BRANCH  87  90
ATOM     90  S   UNL     1       6.716  -5.717  -9.189  1.00  0.00     0.127 S 
ATOM     91  O   UNL     1       7.059  -7.167  -8.839  1.00  0.00    -0.237 OA
ATOM     92  O   UNL     1       7.192  -4.794  -8.064  1.00  0.00    -0.237 OA
ATOM     93  O   UNL     1       5.023  -5.561  -9.376  1.00  0.00    -0.744 OA
ENDBRANCH  87  90
ENDBRANCH  59  83
BRANCH  71  94
ATOM     94  C   UNL     1       6.654  -7.561 -19.316  1.00  0.00     0.023 A 
ATOM     95  C   UNL     1       6.408  -8.809 -18.767  1.00  0.00     0.012 A 
ATOM     96  C   UNL     1       7.336  -7.428 -20.447  1.00  0.00     0.148 A 
ATOM     97  C   UNL     1       7.178  -9.849 -19.340  1.00  0.00     0.002 A 
ATOM     98  C   UNL     1       7.949  -8.513 -21.025  1.00  0.00     0.091 A 
ATOM     99  F   UNL     1       7.425  -6.235 -21.026  1.00  0.00    -0.205 F 
ATOM    100  C   UNL     1       7.798  -9.768 -20.503  1.00  0.00     0.022 A 
BRANCH  98 101
ATOM    101  S   UNL     1       8.973  -8.279 -22.500  1.00  0.00     0.127 S 
ATOM    102  O   UNL     1      10.402  -8.739 -22.207  1.00  0.00    -0.237 OA
ATOM    103  O   UNL     1       8.398  -9.101 -23.656  1.00  0.00    -0.237 OA
ATOM    104  O   UNL     1       8.983  -6.623 -22.928  1.00  0.00    -0.744 OA
ENDBRANCH  98 101
ENDBRANCH  71  94
ENDBRANCH  45  46
ENDBRANCH  38  40
ENDBRANCH  37  38
ENDBRANCH  36  37
ENDBRANCH  35  36
ENDBRANCH  34  35
ENDBRANCH  33  34
ENDBRANCH   1  33
TORSDOF 26
