REMARK SMILES C[C@@H]1Cc2ccccc2N1c1ccc(F)cc1C(=O)OCCOCCOCCOCCOC(=O)c1ccc(-c2c3nc(c(-c4cccc(S(=O)(=O)[O-])c4F)c4ccc([nH]4)c(-c4cccc(S(=O)(=O)[O-])c4F)c4nc(c(-c5cccc(S(=O)(=O)[O-])c5F)c5ccc2[nH]5)C=C4)C=C3)cc1
REMARK SMILES IDX 27 1 26 2 25 3 24 4 23 5 22 6 21 7 20 8 18 9 19 10 17 11
REMARK SMILES IDX 11 12 12 13 13 14 16 15 14 16 15 17 10 18 1 19 2 20 3 21
REMARK SMILES IDX 4 22 9 23 5 24 8 25 6 26 7 27 28 28 29 29 30 30 31 31 32 32
REMARK SMILES IDX 33 33 34 34 35 35 36 36 97 37 37 38 96 39 38 40 39 41 40 42
REMARK SMILES IDX 90 43 41 44 95 45 89 46 91 47 42 48 94 49 88 50 87 51 43 53
REMARK SMILES IDX 75 54 55 55 74 56 56 57 59 58 73 59 92 60 57 61 58 62 72 64
REMARK SMILES IDX 93 65 60 66 44 67 45 68 53 69 46 70 48 71 54 72 47 73 49 74
REMARK SMILES IDX 50 75 51 76 52 77 76 78 77 79 85 80 78 81 80 82 86 83 79 84
REMARK SMILES IDX 81 85 82 86 83 87 84 88 61 89 62 90 70 91 63 92 65 93 71 94
REMARK SMILES IDX 64 95 66 96 67 97 68 98 69 99
REMARK H PARENT 91 52 59 63
REMARK Flexibility Score: inf
ROOT
ATOM      1  C   UNL     1      -2.952   4.038   3.602  1.00  0.00     0.188 C 
ENDROOT
BRANCH   1   2
ATOM      2  O   UNL     1      -3.330   4.370   2.273  1.00  0.00    -0.377 OA
BRANCH   2   3
ATOM      3  C   UNL     1      -3.518   3.254   1.417  1.00  0.00     0.188 C 
BRANCH   3   4
ATOM      4  C   UNL     1      -4.595   2.245   1.851  1.00  0.00     0.188 C 
BRANCH   4   5
ATOM      5  O   UNL     1      -4.349   1.675   3.135  1.00  0.00    -0.376 OA
BRANCH   5   6
ATOM      6  C   UNL     1      -3.958   0.309   3.176  1.00  0.00     0.202 C 
BRANCH   6   7
ATOM      7  C   UNL     1      -2.478   0.072   2.876  1.00  0.00     0.261 C 
BRANCH   7   8
ATOM      8  O   UNL     1      -2.042   0.681   1.655  1.00  0.00    -0.460 OA
BRANCH   8   9
ATOM      9  C   UNL     1      -2.372   0.087   0.495  1.00  0.00     0.340 C 
ATOM     10  O   UNL     1      -3.032  -0.934   0.381  1.00  0.00    -0.246 OA
BRANCH   9  11
ATOM     11  C   UNL     1      -1.969   0.935  -0.662  1.00  0.00     0.086 A 
ATOM     12  C   UNL     1      -0.805   1.740  -0.738  1.00  0.00     0.056 A 
ATOM     13  C   UNL     1      -0.599   2.459  -1.941  1.00  0.00     0.030 A 
ATOM     14  C   UNL     1      -1.549   2.485  -2.965  1.00  0.00     0.041 A 
ATOM     15  C   UNL     1      -2.920   0.963  -1.704  1.00  0.00     0.057 A 
ATOM     16  C   UNL     1      -2.714   1.756  -2.822  1.00  0.00     0.124 A 
ATOM     17  F   UNL     1      -3.661   1.830  -3.766  1.00  0.00    -0.207 F 
BRANCH  12  18
ATOM     18  N   UNL     1       0.072   1.972   0.335  1.00  0.00    -0.337 N 
ATOM     19  C   UNL     1       0.749  -0.355   1.135  1.00  0.00     0.032 C 
ATOM     20  C   UNL     1       1.182   1.029   0.680  1.00  0.00     0.089 C 
ATOM     21  C   UNL     1       2.008   1.703   1.810  1.00  0.00     0.063 C 
ATOM     22  C   UNL     1       1.722   3.138   1.552  1.00  0.00    -0.022 A 
ATOM     23  C   UNL     1       0.594   3.247   0.737  1.00  0.00     0.045 A 
ATOM     24  C   UNL     1       2.388   4.250   2.045  1.00  0.00     0.006 A 
ATOM     25  C   UNL     1       0.113   4.508   0.406  1.00  0.00     0.026 A 
ATOM     26  C   UNL     1       1.927   5.513   1.677  1.00  0.00     0.000 A 
ATOM     27  C   UNL     1       0.796   5.642   0.859  1.00  0.00     0.002 A 
ENDBRANCH  12  18
ENDBRANCH   9  11
ENDBRANCH   8   9
ENDBRANCH   7   8
ENDBRANCH   6   7
ENDBRANCH   5   6
ENDBRANCH   4   5
ENDBRANCH   3   4
ENDBRANCH   2   3
ENDBRANCH   1   2
BRANCH   1  28
ATOM     28  C   UNL     1      -4.103   4.133   4.628  1.00  0.00     0.188 C 
BRANCH  28  29
ATOM     29  O   UNL     1      -5.332   4.804   4.351  1.00  0.00    -0.376 OA
BRANCH  29  30
ATOM     30  C   UNL     1      -5.439   5.720   3.278  1.00  0.00     0.202 C 
BRANCH  30  31
ATOM     31  C   UNL     1      -4.618   7.019   3.317  1.00  0.00     0.261 C 
BRANCH  31  32
ATOM     32  O   UNL     1      -3.321   6.931   3.913  1.00  0.00    -0.460 OA
BRANCH  32  33
ATOM     33  C   UNL     1      -3.272   7.158   5.247  1.00  0.00     0.338 C 
ATOM     34  O   UNL     1      -4.200   7.462   5.978  1.00  0.00    -0.246 OA
BRANCH  33  35
ATOM     35  C   UNL     1      -1.910   6.827   5.722  1.00  0.00     0.060 A 
ATOM     36  C   UNL     1      -0.782   7.348   5.081  1.00  0.00     0.016 A 
ATOM     37  C   UNL     1      -1.768   5.967   6.818  1.00  0.00     0.016 A 
ATOM     38  C   UNL     1       0.489   7.033   5.564  1.00  0.00     0.010 A 
ATOM     39  C   UNL     1      -0.497   5.632   7.283  1.00  0.00     0.010 A 
ATOM     40  C   UNL     1       0.638   6.189   6.678  1.00  0.00    -0.014 A 
BRANCH  40  41
ATOM     41  C   UNL     1       1.952   6.086   7.351  1.00  0.00     0.031 A 
ATOM     42  C   UNL     1       2.869   4.921   7.158  1.00  0.00     0.074 A 
ATOM     43  C   UNL     1       2.283   7.077   8.201  1.00  0.00     0.049 A 
ATOM     44  N   UNL     1       4.086   4.765   7.608  1.00  0.00    -0.248 NA
ATOM     45  C   UNL     1       2.362   3.784   6.376  1.00  0.00     0.031 C 
ATOM     46  C   UNL     1       1.425   8.221   8.523  1.00  0.00     0.029 A 
ATOM     47  N   UNL     1       3.411   7.282   8.951  1.00  0.00    -0.354 N 
ATOM     48  C   UNL     1       4.493   3.509   7.185  1.00  0.00     0.074 A 
ATOM     49  C   UNL     1       3.386   2.939   6.442  1.00  0.00     0.031 C 
ATOM     50  C   UNL     1       2.063   9.014   9.395  1.00  0.00     0.029 A 
ATOM     51  C   UNL     1       3.369   8.435   9.695  1.00  0.00     0.049 A 
ATOM     52  H   UNL     1       4.176   6.662   8.956  1.00  0.00     0.167 HD
ATOM     53  C   UNL     1       5.686   2.903   7.388  1.00  0.00     0.034 A 
ATOM     54  C   UNL     1       4.285   8.984  10.515  1.00  0.00     0.034 A 
ATOM     55  C   UNL     1       6.785   3.490   8.112  1.00  0.00     0.049 A 
ATOM     56  C   UNL     1       5.614   8.314  10.683  1.00  0.00     0.074 A 
ATOM     57  C   UNL     1       8.070   2.999   8.266  1.00  0.00     0.029 A 
ATOM     58  N   UNL     1       6.724   4.678   8.824  1.00  0.00    -0.354 N 
ATOM     59  N   UNL     1       6.053   7.216  10.118  1.00  0.00    -0.248 NA
ATOM     60  C   UNL     1       6.585   8.967  11.571  1.00  0.00     0.031 C 
ATOM     61  C   UNL     1       8.780   3.879   9.089  1.00  0.00     0.029 A 
ATOM     62  C   UNL     1       7.941   4.926   9.437  1.00  0.00     0.049 A 
ATOM     63  H   UNL     1       5.933   5.260   8.886  1.00  0.00     0.167 HD
ATOM     64  C   UNL     1       7.356   7.053  10.567  1.00  0.00     0.074 A 
ATOM     65  C   UNL     1       7.641   8.173  11.442  1.00  0.00     0.031 C 
ATOM     66  C   UNL     1       8.229   6.056  10.284  1.00  0.00     0.034 A 
BRANCH  53  67
ATOM     67  C   UNL     1       5.911   1.549   6.774  1.00  0.00     0.023 A 
ATOM     68  C   UNL     1       6.216   1.462   5.401  1.00  0.00     0.012 A 
ATOM     69  C   UNL     1       5.946   0.387   7.569  1.00  0.00     0.148 A 
ATOM     70  C   UNL     1       6.547   0.237   4.825  1.00  0.00     0.002 A 
ATOM     71  C   UNL     1       6.302  -0.827   6.993  1.00  0.00     0.091 A 
ATOM     72  F   UNL     1       5.641   0.494   8.870  1.00  0.00    -0.205 F 
ATOM     73  C   UNL     1       6.600  -0.904   5.622  1.00  0.00     0.022 A 
BRANCH  71  74
ATOM     74  S   UNL     1       6.452  -2.347   7.938  1.00  0.00     0.127 S 
ATOM     75  O   UNL     1       5.334  -3.130   7.410  1.00  0.00    -0.237 OA
ATOM     76  O   UNL     1       7.775  -2.828   7.539  1.00  0.00    -0.237 OA
ATOM     77  O   UNL     1       6.337  -1.965   9.338  1.00  0.00    -0.744 OA
ENDBRANCH  71  74
ENDBRANCH  53  67
BRANCH  54  78
ATOM     78  C   UNL     1       3.979  10.295  11.141  1.00  0.00     0.023 A 
ATOM     79  C   UNL     1       4.515  11.464  10.569  1.00  0.00     0.012 A 
ATOM     80  C   UNL     1       3.059  10.398  12.202  1.00  0.00     0.148 A 
ATOM     81  C   UNL     1       4.136  12.719  11.042  1.00  0.00     0.002 A 
ATOM     82  C   UNL     1       2.658  11.652  12.643  1.00  0.00     0.091 A 
ATOM     83  F   UNL     1       2.557   9.265  12.714  1.00  0.00    -0.205 F 
ATOM     84  C   UNL     1       3.200  12.813  12.070  1.00  0.00     0.022 A 
BRANCH  82  85
ATOM     85  S   UNL     1       1.382  11.882  13.885  1.00  0.00     0.127 S 
ATOM     86  O   UNL     1       2.102  12.624  14.919  1.00  0.00    -0.237 OA
ATOM     87  O   UNL     1       0.388  12.661  13.147  1.00  0.00    -0.237 OA
ATOM     88  O   UNL     1       0.952  10.545  14.268  1.00  0.00    -0.744 OA
ENDBRANCH  82  85
ENDBRANCH  54  78
BRANCH  66  89
ATOM     89  C   UNL     1       9.588   6.105  10.926  1.00  0.00     0.023 A 
ATOM     90  C   UNL     1       9.730   5.704  12.268  1.00  0.00     0.012 A 
ATOM     91  C   UNL     1      10.732   6.426  10.171  1.00  0.00     0.148 A 
ATOM     92  C   UNL     1      10.993   5.627  12.853  1.00  0.00     0.002 A 
ATOM     93  C   UNL     1      11.991   6.315  10.749  1.00  0.00     0.091 A 
ATOM     94  F   UNL     1      10.568   6.814   8.898  1.00  0.00    -0.205 F 
ATOM     95  C   UNL     1      12.123   5.920  12.091  1.00  0.00     0.022 A 
BRANCH  93  96
ATOM     96  S   UNL     1      13.509   6.595   9.831  1.00  0.00     0.127 S 
ATOM     97  O   UNL     1      14.042   7.786  10.492  1.00  0.00    -0.237 OA
ATOM     98  O   UNL     1      14.258   5.366  10.091  1.00  0.00    -0.237 OA
ATOM     99  O   UNL     1      13.113   6.784   8.442  1.00  0.00    -0.744 OA
ENDBRANCH  93  96
ENDBRANCH  66  89
ENDBRANCH  40  41
ENDBRANCH  33  35
ENDBRANCH  32  33
ENDBRANCH  31  32
ENDBRANCH  30  31
ENDBRANCH  29  30
ENDBRANCH  28  29
ENDBRANCH   1  28
TORSDOF 24
