REMARK SMILES COc1cc(NS(=O)(=O)c2cc(C(=O)OCCOCCOCCOCCOC(=O)c3ccc(-c4c5nc(c(-c6cccc(S(=O)(=O)[O-])c6F)c6ccc([nH]6)c(-c6cccc(S(=O)(=O)[O-])c6F)c6nc(c(-c7cccc(S(=O)(=O)[O-])c7F)c7ccc4[nH]7)C=C6)C=C5)cc3)cc(C)c2C)ccc1N1CCCC1=O
REMARK SMILES IDX 20 1 19 2 18 3 17 4 16 5 15 6 13 7 14 8 12 9 10 10 11 11
REMARK SMILES IDX 96 12 94 13 97 14 93 15 95 16 7 17 8 18 9 19 6 20 5 22 3 23
REMARK SMILES IDX 4 24 100 25 99 26 98 27 2 28 1 29 101 30 102 31 105 32
REMARK SMILES IDX 103 33 104 34 106 35 21 36 22 37 23 38 24 39 25 40 26 41
REMARK SMILES IDX 27 42 28 43 29 44 30 45 31 46 92 47 32 48 91 49 33 50 34 51
REMARK SMILES IDX 35 52 85 53 36 54 90 55 84 56 86 57 37 58 89 59 83 60 82 61
REMARK SMILES IDX 38 63 70 64 50 65 69 66 51 67 54 68 68 69 87 70 52 71 53 72
REMARK SMILES IDX 67 74 88 75 55 76 39 77 40 78 48 79 41 80 43 81 49 82 42 83
REMARK SMILES IDX 44 84 45 85 46 86 47 87 71 88 72 89 80 90 73 91 75 92 81 93
REMARK SMILES IDX 74 94 76 95 77 96 78 97 79 98 56 99 57 100 65 101 58 102
REMARK SMILES IDX 60 103 66 104 59 105 61 106 62 107 63 108 64 109
REMARK H PARENT 6 21 86 62 54 73
REMARK Flexibility Score: inf
ROOT
ATOM      1  C   UNL     1      -2.653   0.956   4.885  1.00  0.00     0.188 C 
ENDROOT
BRANCH   1   2
ATOM      2  C   UNL     1      -1.145   1.069   5.209  1.00  0.00     0.188 C 
BRANCH   2   3
ATOM      3  O   UNL     1      -0.630   2.392   5.203  1.00  0.00    -0.376 OA
BRANCH   3   4
ATOM      4  C   UNL     1       0.297   2.744   4.191  1.00  0.00     0.202 C 
BRANCH   4   5
ATOM      5  C   UNL     1      -0.244   2.864   2.757  1.00  0.00     0.261 C 
BRANCH   5   6
ATOM      6  O   UNL     1      -1.106   1.802   2.336  1.00  0.00    -0.460 OA
BRANCH   6   7
ATOM      7  C   UNL     1      -0.509   0.612   2.158  1.00  0.00     0.338 C 
ATOM      8  O   UNL     1       0.682   0.368   2.280  1.00  0.00    -0.246 OA
BRANCH   7   9
ATOM      9  C   UNL     1      -1.533  -0.435   1.988  1.00  0.00     0.061 A 
ATOM     10  C   UNL     1      -2.248  -2.692   2.531  1.00  0.00     0.091 A 
ATOM     11  C   UNL     1      -1.375  -1.609   2.716  1.00  0.00     0.038 A 
ATOM     12  C   UNL     1      -3.341  -2.583   1.640  1.00  0.00    -0.028 A 
ATOM     13  C   UNL     1      -3.559  -1.329   0.998  1.00  0.00    -0.046 A 
ATOM     14  C   UNL     1      -4.264  -3.728   1.314  1.00  0.00     0.046 C 
ATOM     15  C   UNL     1      -2.639  -0.275   1.165  1.00  0.00     0.019 A 
ATOM     16  C   UNL     1      -4.741  -1.032   0.105  1.00  0.00     0.044 C 
BRANCH  10  17
ATOM     17  S   UNL     1      -1.772  -4.167   3.426  1.00  0.00     0.262 S 
ATOM     18  O   UNL     1      -2.916  -5.034   3.611  1.00  0.00    -0.201 OA
ATOM     19  O   UNL     1      -1.008  -3.764   4.591  1.00  0.00    -0.201 OA
BRANCH  17  20
ATOM     20  N   UNL     1      -0.678  -4.985   2.379  1.00  0.00    -0.279 N 
ATOM     21  H   UNL     1      -0.795  -5.938   2.159  1.00  0.00     0.180 HD
BRANCH  20  22
ATOM     22  C   UNL     1       0.417  -4.217   1.837  1.00  0.00     0.053 A 
ATOM     23  C   UNL     1       1.179  -2.456   0.311  1.00  0.00     0.144 A 
ATOM     24  C   UNL     1       0.192  -3.345   0.767  1.00  0.00     0.075 A 
ATOM     25  C   UNL     1       2.450  -2.507   0.900  1.00  0.00     0.086 A 
ATOM     26  C   UNL     1       2.704  -3.451   1.911  1.00  0.00     0.032 A 
ATOM     27  C   UNL     1       1.692  -4.298   2.385  1.00  0.00     0.029 A 
BRANCH  23  28
ATOM     28  O   UNL     1       0.776  -1.706  -0.760  1.00  0.00    -0.494 OA
ATOM     29  C   UNL     1       1.071  -0.313  -0.810  1.00  0.00     0.278 C 
ENDBRANCH  23  28
BRANCH  25  30
ATOM     30  N   UNL     1       3.542  -1.747   0.453  1.00  0.00    -0.309 N 
ATOM     31  C   UNL     1       4.131  -1.931  -0.843  1.00  0.00     0.126 C 
ATOM     32  C   UNL     1       4.013  -0.605   1.108  1.00  0.00     0.227 C 
ATOM     33  C   UNL     1       5.329  -0.997  -0.814  1.00  0.00     0.032 C 
ATOM     34  C   UNL     1       4.889   0.124   0.115  1.00  0.00     0.102 C 
ATOM     35  O   UNL     1       3.743  -0.196   2.223  1.00  0.00    -0.275 OA
ENDBRANCH  25  30
ENDBRANCH  20  22
ENDBRANCH  17  20
ENDBRANCH  10  17
ENDBRANCH   7   9
ENDBRANCH   6   7
ENDBRANCH   5   6
ENDBRANCH   4   5
ENDBRANCH   3   4
ENDBRANCH   2   3
ENDBRANCH   1   2
BRANCH   1  36
ATOM     36  O   UNL     1      -3.405   2.104   4.524  1.00  0.00    -0.377 OA
BRANCH  36  37
ATOM     37  C   UNL     1      -3.128   3.345   5.156  1.00  0.00     0.188 C 
BRANCH  37  38
ATOM     38  C   UNL     1      -2.774   3.368   6.661  1.00  0.00     0.188 C 
BRANCH  38  39
ATOM     39  O   UNL     1      -2.791   2.101   7.299  1.00  0.00    -0.376 OA
BRANCH  39  40
ATOM     40  C   UNL     1      -3.927   1.778   8.084  1.00  0.00     0.202 C 
BRANCH  40  41
ATOM     41  C   UNL     1      -5.300   1.761   7.395  1.00  0.00     0.261 C 
BRANCH  41  42
ATOM     42  O   UNL     1      -5.688   2.962   6.713  1.00  0.00    -0.460 OA
BRANCH  42  43
ATOM     43  C   UNL     1      -5.824   4.095   7.438  1.00  0.00     0.338 C 
ATOM     44  O   UNL     1      -5.676   4.224   8.639  1.00  0.00    -0.246 OA
BRANCH  43  45
ATOM     45  C   UNL     1      -5.982   5.202   6.471  1.00  0.00     0.060 A 
ATOM     46  C   UNL     1      -5.000   6.202   6.400  1.00  0.00     0.016 A 
ATOM     47  C   UNL     1      -7.064   5.209   5.590  1.00  0.00     0.016 A 
ATOM     48  C   UNL     1      -5.098   7.209   5.438  1.00  0.00     0.010 A 
ATOM     49  C   UNL     1      -7.178   6.236   4.652  1.00  0.00     0.010 A 
ATOM     50  C   UNL     1      -6.204   7.248   4.582  1.00  0.00    -0.014 A 
BRANCH  50  51
ATOM     51  C   UNL     1      -6.442   8.424   3.714  1.00  0.00     0.031 A 
ATOM     52  C   UNL     1      -7.378   9.491   4.204  1.00  0.00     0.074 A 
ATOM     53  C   UNL     1      -5.879   8.519   2.497  1.00  0.00     0.049 A 
ATOM     54  N   UNL     1      -7.821  10.553   3.586  1.00  0.00    -0.248 NA
ATOM     55  C   UNL     1      -7.884   9.334   5.578  1.00  0.00     0.031 C 
ATOM     56  C   UNL     1      -4.940   7.558   1.923  1.00  0.00     0.029 A 
ATOM     57  N   UNL     1      -6.049   9.459   1.511  1.00  0.00    -0.354 N 
ATOM     58  C   UNL     1      -8.684  11.174   4.480  1.00  0.00     0.074 A 
ATOM     59  C   UNL     1      -8.705  10.367   5.681  1.00  0.00     0.031 C 
ATOM     60  C   UNL     1      -4.643   7.939   0.668  1.00  0.00     0.029 A 
ATOM     61  C   UNL     1      -5.400   9.146   0.340  1.00  0.00     0.049 A 
ATOM     62  H   UNL     1      -6.583  10.277   1.631  1.00  0.00     0.167 HD
ATOM     63  C   UNL     1      -9.390  12.318   4.319  1.00  0.00     0.034 A 
ATOM     64  C   UNL     1      -5.445   9.746  -0.867  1.00  0.00     0.034 A 
ATOM     65  C   UNL     1      -9.368  13.113   3.122  1.00  0.00     0.049 A 
ATOM     66  C   UNL     1      -6.297  10.978  -1.047  1.00  0.00     0.074 A 
ATOM     67  C   UNL     1     -10.010  14.313   2.875  1.00  0.00     0.029 A 
ATOM     68  N   UNL     1      -8.692  12.774   1.960  1.00  0.00    -0.354 N 
ATOM     69  N   UNL     1      -7.013  11.626  -0.160  1.00  0.00    -0.248 NA
ATOM     70  C   UNL     1      -6.333  11.572  -2.392  1.00  0.00     0.031 C 
ATOM     71  C   UNL     1      -9.757  14.677   1.548  1.00  0.00     0.029 A 
ATOM     72  C   UNL     1      -8.927  13.723   0.980  1.00  0.00     0.049 A 
ATOM     73  H   UNL     1      -8.127  11.975   1.848  1.00  0.00     0.167 HD
ATOM     74  C   UNL     1      -7.565  12.713  -0.830  1.00  0.00     0.074 A 
ATOM     75  C   UNL     1      -7.079  12.651  -2.193  1.00  0.00     0.031 C 
ATOM     76  C   UNL     1      -8.409  13.668  -0.365  1.00  0.00     0.034 A 
BRANCH  63  77
ATOM     77  C   UNL     1     -10.247  12.770   5.471  1.00  0.00     0.023 A 
ATOM     78  C   UNL     1      -9.642  13.262   6.646  1.00  0.00     0.012 A 
ATOM     79  C   UNL     1     -11.652  12.729   5.383  1.00  0.00     0.148 A 
ATOM     80  C   UNL     1     -10.420  13.666   7.730  1.00  0.00     0.002 A 
ATOM     81  C   UNL     1     -12.422  13.178   6.450  1.00  0.00     0.091 A 
ATOM     82  F   UNL     1     -12.210  12.234   4.269  1.00  0.00    -0.205 F 
ATOM     83  C   UNL     1     -11.808  13.633   7.628  1.00  0.00     0.022 A 
BRANCH  81  84
ATOM     84  S   UNL     1     -14.215  13.248   6.386  1.00  0.00     0.127 S 
ATOM     85  O   UNL     1     -14.584  12.170   7.303  1.00  0.00    -0.237 OA
ATOM     86  O   UNL     1     -14.487  14.595   6.888  1.00  0.00    -0.237 OA
ATOM     87  O   UNL     1     -14.576  13.035   4.992  1.00  0.00    -0.744 OA
ENDBRANCH  81  84
ENDBRANCH  63  77
BRANCH  64  88
ATOM     88  C   UNL     1      -4.648   9.197  -2.001  1.00  0.00     0.023 A 
ATOM     89  C   UNL     1      -3.554   9.932  -2.497  1.00  0.00     0.012 A 
ATOM     90  C   UNL     1      -4.950   7.945  -2.574  1.00  0.00     0.148 A 
ATOM     91  C   UNL     1      -2.790   9.442  -3.557  1.00  0.00     0.002 A 
ATOM     92  C   UNL     1      -4.151   7.437  -3.592  1.00  0.00     0.091 A 
ATOM     93  F   UNL     1      -6.005   7.268  -2.100  1.00  0.00    -0.205 F 
ATOM     94  C   UNL     1      -3.081   8.192  -4.097  1.00  0.00     0.022 A 
BRANCH  92  95
ATOM     95  S   UNL     1      -4.368   5.786  -4.265  1.00  0.00     0.127 S 
ATOM     96  O   UNL     1      -4.738   6.072  -5.649  1.00  0.00    -0.237 OA
ATOM     97  O   UNL     1      -3.032   5.215  -4.090  1.00  0.00    -0.237 OA
ATOM     98  O   UNL     1      -5.403   5.158  -3.456  1.00  0.00    -0.744 OA
ENDBRANCH  92  95
ENDBRANCH  64  88
BRANCH  76  99
ATOM     99  C   UNL     1      -8.862  14.738  -1.327  1.00  0.00     0.023 A 
ATOM    100  C   UNL     1      -9.786  14.419  -2.341  1.00  0.00     0.012 A 
ATOM    101  C   UNL     1      -8.444  16.075  -1.170  1.00  0.00     0.148 A 
ATOM    102  C   UNL     1     -10.268  15.406  -3.200  1.00  0.00     0.002 A 
ATOM    103  C   UNL     1      -8.966  17.063  -1.997  1.00  0.00     0.091 A 
ATOM    104  F   UNL     1      -7.556  16.358  -0.205  1.00  0.00    -0.205 F 
ATOM    105  C   UNL     1      -9.868  16.729  -3.020  1.00  0.00     0.022 A 
BRANCH 103 106
ATOM    106  S   UNL     1      -8.586  18.806  -1.787  1.00  0.00     0.127 S 
ATOM    107  O   UNL     1      -7.841  19.098  -3.011  1.00  0.00    -0.237 OA
ATOM    108  O   UNL     1      -9.918  19.407  -1.727  1.00  0.00    -0.237 OA
ATOM    109  O   UNL     1      -7.816  18.908  -0.555  1.00  0.00    -0.744 OA
ENDBRANCH 103 106
ENDBRANCH  76  99
ENDBRANCH  50  51
ENDBRANCH  43  45
ENDBRANCH  42  43
ENDBRANCH  41  42
ENDBRANCH  40  41
ENDBRANCH  39  40
ENDBRANCH  38  39
ENDBRANCH  37  38
ENDBRANCH  36  37
ENDBRANCH   1  36
TORSDOF 28
