REMARK SMILES Cn1c(=O)c(=O)n(C)c2cc(S(=O)(=O)N3CCC[C@H]3C(=O)OCCOCCOCCOCCOC(=O)c3ccc(-c4c5nc(c(-c6cccc(S(=O)(=O)[O-])c6F)c6ccc([nH]6)c(-c6cccc(S(=O)(=O)[O-])c6F)c6nc(c(-c7cccc(S(=O)(=O)[O-])c7F)c7ccc4[nH]7)C=C6)C=C5)cc3)ccc21
REMARK SMILES IDX 29 1 28 2 27 3 26 4 25 5 24 6 23 7 22 8 20 9 21 10 19 11
REMARK SMILES IDX 15 12 16 13 17 14 18 15 12 16 13 17 14 18 11 19 1 20 2 21
REMARK SMILES IDX 3 22 102 23 4 24 5 25 9 26 101 27 6 28 7 29 10 30 100 31
REMARK SMILES IDX 8 32 30 33 31 34 32 35 33 36 34 37 35 38 36 39 37 40 38 41
REMARK SMILES IDX 99 42 39 43 98 44 40 45 41 46 42 47 92 48 43 49 97 50 91 51
REMARK SMILES IDX 93 52 44 53 96 54 90 55 89 56 45 58 77 59 57 60 76 61 58 62
REMARK SMILES IDX 61 63 75 64 94 65 59 66 60 67 74 69 95 70 62 71 46 72 47 73
REMARK SMILES IDX 55 74 48 75 50 76 56 77 49 78 51 79 52 80 53 81 54 82 78 83
REMARK SMILES IDX 79 84 87 85 80 86 82 87 88 88 81 89 83 90 84 91 85 92 86 93
REMARK SMILES IDX 63 94 64 95 72 96 65 97 67 98 73 99 66 100 68 101 69 102
REMARK SMILES IDX 70 103 71 104
REMARK H PARENT 93 57 61 68
REMARK Flexibility Score: inf
ROOT
ATOM      1  C   UNL     1      -7.615   0.888  -2.779  1.00  0.00     0.188 C 
ENDROOT
BRANCH   1   2
ATOM      2  O   UNL     1      -6.336   1.091  -3.380  1.00  0.00    -0.377 OA
BRANCH   2   3
ATOM      3  C   UNL     1      -5.584   2.202  -2.947  1.00  0.00     0.188 C 
BRANCH   3   4
ATOM      4  C   UNL     1      -5.973   3.518  -3.646  1.00  0.00     0.188 C 
BRANCH   4   5
ATOM      5  O   UNL     1      -7.289   3.598  -4.149  1.00  0.00    -0.376 OA
BRANCH   5   6
ATOM      6  C   UNL     1      -7.666   3.088  -5.421  1.00  0.00     0.202 C 
BRANCH   6   7
ATOM      7  C   UNL     1      -6.844   2.144  -6.323  1.00  0.00     0.261 C 
BRANCH   7   8
ATOM      8  O   UNL     1      -5.535   1.820  -5.875  1.00  0.00    -0.462 OA
BRANCH   8   9
ATOM      9  C   UNL     1      -4.489   2.521  -6.381  1.00  0.00     0.324 C 
ATOM     10  O   UNL     1      -4.556   3.375  -7.255  1.00  0.00    -0.250 OA
BRANCH   9  11
ATOM     11  C   UNL     1      -3.257   2.225  -5.542  1.00  0.00     0.183 C 
ATOM     12  N   UNL     1      -2.135   1.690  -6.304  1.00  0.00    -0.184 NA
ATOM     13  C   UNL     1      -1.176   2.744  -6.609  1.00  0.00     0.103 C 
ATOM     14  C   UNL     1      -1.347   3.770  -5.500  1.00  0.00     0.019 C 
ATOM     15  C   UNL     1      -2.725   3.521  -4.904  1.00  0.00     0.034 C 
BRANCH  12  16
ATOM     16  S   UNL     1      -1.762   0.065  -6.218  1.00  0.00     0.243 S 
ATOM     17  O   UNL     1      -0.657  -0.185  -7.111  1.00  0.00    -0.207 OA
ATOM     18  O   UNL     1      -3.012  -0.662  -6.316  1.00  0.00    -0.207 OA
BRANCH  16  19
ATOM     19  C   UNL     1      -1.148  -0.268  -4.571  1.00  0.00     0.084 A 
ATOM     20  C   UNL     1       0.924  -0.201   0.181  1.00  0.00     0.154 C 
ATOM     21  N   UNL     1       0.570  -1.211  -0.801  1.00  0.00    -0.305 N 
ATOM     22  C   UNL     1       0.960  -2.512  -0.480  1.00  0.00     0.316 A 
ATOM     23  C   UNL     1      -0.041  -0.905  -2.047  1.00  0.00     0.068 A 
ATOM     24  O   UNL     1       1.560  -2.791   0.557  1.00  0.00    -0.263 OA
ATOM     25  C   UNL     1       0.643  -3.629  -1.477  1.00  0.00     0.316 A 
ATOM     26  C   UNL     1      -0.328  -1.931  -2.972  1.00  0.00     0.069 A 
ATOM     27  C   UNL     1      -0.351   0.415  -2.398  1.00  0.00     0.030 A 
ATOM     28  O   UNL     1       0.986  -4.774  -1.193  1.00  0.00    -0.263 OA
ATOM     29  N   UNL     1      -0.004  -3.281  -2.661  1.00  0.00    -0.305 N 
ATOM     30  C   UNL     1      -0.905  -1.599  -4.219  1.00  0.00     0.050 A 
ATOM     31  C   UNL     1      -0.884   0.729  -3.648  1.00  0.00     0.024 A 
ATOM     32  C   UNL     1      -0.320  -4.350  -3.598  1.00  0.00     0.154 C 
ENDBRANCH  16  19
ENDBRANCH  12  16
ENDBRANCH   9  11
ENDBRANCH   8   9
ENDBRANCH   7   8
ENDBRANCH   6   7
ENDBRANCH   5   6
ENDBRANCH   4   5
ENDBRANCH   3   4
ENDBRANCH   2   3
ENDBRANCH   1   2
BRANCH   1  33
ATOM     33  C   UNL     1      -8.350   2.026  -2.022  1.00  0.00     0.188 C 
BRANCH  33  34
ATOM     34  O   UNL     1      -7.507   2.920  -1.306  1.00  0.00    -0.376 OA
BRANCH  34  35
ATOM     35  C   UNL     1      -7.418   2.816   0.103  1.00  0.00     0.202 C 
BRANCH  35  36
ATOM     36  C   UNL     1      -6.803   1.536   0.686  1.00  0.00     0.261 C 
BRANCH  36  37
ATOM     37  O   UNL     1      -7.372   0.302   0.236  1.00  0.00    -0.460 OA
BRANCH  37  38
ATOM     38  C   UNL     1      -8.672   0.067   0.534  1.00  0.00     0.338 C 
ATOM     39  O   UNL     1      -9.416   0.788   1.170  1.00  0.00    -0.246 OA
BRANCH  38  40
ATOM     40  C   UNL     1      -9.072  -1.126  -0.246  1.00  0.00     0.060 A 
ATOM     41  C   UNL     1      -8.338  -2.309  -0.135  1.00  0.00     0.016 A 
ATOM     42  C   UNL     1     -10.135  -1.033  -1.155  1.00  0.00     0.016 A 
ATOM     43  C   UNL     1      -8.687  -3.410  -0.917  1.00  0.00     0.010 A 
ATOM     44  C   UNL     1     -10.474  -2.134  -1.947  1.00  0.00     0.010 A 
ATOM     45  C   UNL     1      -9.769  -3.338  -1.813  1.00  0.00    -0.014 A 
BRANCH  45  46
ATOM     46  C   UNL     1     -10.285  -4.584  -2.429  1.00  0.00     0.031 A 
ATOM     47  C   UNL     1     -10.056  -4.936  -3.866  1.00  0.00     0.074 A 
ATOM     48  C   UNL     1     -10.998  -5.409  -1.638  1.00  0.00     0.049 A 
ATOM     49  N   UNL     1     -10.377  -6.039  -4.492  1.00  0.00    -0.248 NA
ATOM     50  C   UNL     1      -9.392  -3.934  -4.712  1.00  0.00     0.031 C 
ATOM     51  C   UNL     1     -11.339  -5.135  -0.240  1.00  0.00     0.029 A 
ATOM     52  N   UNL     1     -11.560  -6.633  -1.887  1.00  0.00    -0.354 N 
ATOM     53  C   UNL     1      -9.956  -5.873  -5.804  1.00  0.00     0.074 A 
ATOM     54  C   UNL     1      -9.374  -4.548  -5.891  1.00  0.00     0.031 C 
ATOM     55  C   UNL     1     -12.037  -6.169   0.251  1.00  0.00     0.029 A 
ATOM     56  C   UNL     1     -12.208  -7.167  -0.800  1.00  0.00     0.049 A 
ATOM     57  H   UNL     1     -11.506  -7.085  -2.760  1.00  0.00     0.167 HD
ATOM     58  C   UNL     1     -10.027  -6.756  -6.830  1.00  0.00     0.034 A 
ATOM     59  C   UNL     1     -12.865  -8.333  -0.654  1.00  0.00     0.034 A 
ATOM     60  C   UNL     1     -10.604  -8.073  -6.733  1.00  0.00     0.049 A 
ATOM     61  C   UNL     1     -12.924  -9.295  -1.801  1.00  0.00     0.074 A 
ATOM     62  C   UNL     1     -10.665  -9.054  -7.709  1.00  0.00     0.029 A 
ATOM     63  N   UNL     1     -11.231  -8.590  -5.611  1.00  0.00    -0.354 N 
ATOM     64  N   UNL     1     -12.402  -9.174  -2.996  1.00  0.00    -0.248 NA
ATOM     65  C   UNL     1     -13.633 -10.562  -1.577  1.00  0.00     0.031 C 
ATOM     66  C   UNL     1     -11.348 -10.154  -7.184  1.00  0.00     0.029 A 
ATOM     67  C   UNL     1     -11.691  -9.870  -5.872  1.00  0.00     0.049 A 
ATOM     68  H   UNL     1     -11.335  -8.117  -4.753  1.00  0.00     0.167 HD
ATOM     69  C   UNL     1     -12.703 -10.354  -3.664  1.00  0.00     0.074 A 
ATOM     70  C   UNL     1     -13.442 -11.184  -2.734  1.00  0.00     0.031 C 
ATOM     71  C   UNL     1     -12.398 -10.706  -4.936  1.00  0.00     0.034 A 
BRANCH  58  72
ATOM     72  C   UNL     1      -9.411  -6.367  -8.147  1.00  0.00     0.023 A 
ATOM     73  C   UNL     1      -8.010  -6.420  -8.285  1.00  0.00     0.012 A 
ATOM     74  C   UNL     1     -10.209  -6.079  -9.271  1.00  0.00     0.148 A 
ATOM     75  C   UNL     1      -7.410  -6.181  -9.521  1.00  0.00     0.002 A 
ATOM     76  C   UNL     1      -9.605  -5.867 -10.506  1.00  0.00     0.091 A 
ATOM     77  F   UNL     1     -11.540  -6.033  -9.114  1.00  0.00    -0.205 F 
ATOM     78  C   UNL     1      -8.207  -5.916 -10.632  1.00  0.00     0.022 A 
BRANCH  76  79
ATOM     79  S   UNL     1     -10.540  -5.562 -12.010  1.00  0.00     0.127 S 
ATOM     80  O   UNL     1     -10.140  -4.192 -12.331  1.00  0.00    -0.237 OA
ATOM     81  O   UNL     1     -10.008  -6.580 -12.915  1.00  0.00    -0.237 OA
ATOM     82  O   UNL     1     -11.942  -5.729 -11.656  1.00  0.00    -0.744 OA
ENDBRANCH  76  79
ENDBRANCH  58  72
BRANCH  59  83
ATOM     83  C   UNL     1     -13.459  -8.654   0.669  1.00  0.00     0.023 A 
ATOM     84  C   UNL     1     -12.799  -9.557   1.522  1.00  0.00     0.012 A 
ATOM     85  C   UNL     1     -14.607  -7.978   1.125  1.00  0.00     0.148 A 
ATOM     86  C   UNL     1     -13.276  -9.784   2.813  1.00  0.00     0.002 A 
ATOM     87  C   UNL     1     -15.054  -8.180   2.423  1.00  0.00     0.091 A 
ATOM     88  F   UNL     1     -15.205  -7.116   0.291  1.00  0.00    -0.205 F 
ATOM     89  C   UNL     1     -14.395  -9.088   3.267  1.00  0.00     0.022 A 
BRANCH  87  90
ATOM     90  S   UNL     1     -16.424  -7.259   3.130  1.00  0.00     0.127 S 
ATOM     91  O   UNL     1     -17.369  -8.327   3.447  1.00  0.00    -0.237 OA
ATOM     92  O   UNL     1     -15.791  -6.631   4.290  1.00  0.00    -0.237 OA
ATOM     93  O   UNL     1     -16.857  -6.331   2.095  1.00  0.00    -0.744 OA
ENDBRANCH  87  90
ENDBRANCH  59  83
BRANCH  71  94
ATOM     94  C   UNL     1     -12.851 -12.054  -5.426  1.00  0.00     0.023 A 
ATOM     95  C   UNL     1     -14.195 -12.238  -5.803  1.00  0.00     0.012 A 
ATOM     96  C   UNL     1     -11.921 -13.092  -5.635  1.00  0.00     0.148 A 
ATOM     97  C   UNL     1     -14.609 -13.439  -6.379  1.00  0.00     0.002 A 
ATOM     98  C   UNL     1     -12.334 -14.273  -6.239  1.00  0.00     0.091 A 
ATOM     99  F   UNL     1     -10.649 -12.892  -5.261  1.00  0.00    -0.205 F 
ATOM    100  C   UNL     1     -13.678 -14.449  -6.609  1.00  0.00     0.022 A 
BRANCH  98 101
ATOM    101  S   UNL     1     -11.200 -15.609  -6.635  1.00  0.00     0.127 S 
ATOM    102  O   UNL     1     -11.704 -16.687  -5.784  1.00  0.00    -0.237 OA
ATOM    103  O   UNL     1     -11.438 -15.800  -8.066  1.00  0.00    -0.237 OA
ATOM    104  O   UNL     1      -9.869 -15.127  -6.295  1.00  0.00    -0.744 OA
ENDBRANCH  98 101
ENDBRANCH  71  94
ENDBRANCH  45  46
ENDBRANCH  38  40
ENDBRANCH  37  38
ENDBRANCH  36  37
ENDBRANCH  35  36
ENDBRANCH  34  35
ENDBRANCH  33  34
ENDBRANCH   1  33
TORSDOF 25
