REMARK SMILES COc1cccc([C@H]2CC(c3ccc(S(C)(=O)=O)cc3)=NN2c2ccc(C(=O)OCCOCCOCCOCCOC(=O)c3ccc(-c4c5nc(c(-c6cccc(S(=O)(=O)[O-])c6F)c6ccc([nH]6)c(-c6cccc(S(=O)(=O)[O-])c6F)c6nc(c(-c7cccc(S(=O)(=O)[O-])c7F)c7ccc4[nH]7)C=C6)C=C5)cc3)cc2)c1
REMARK SMILES IDX 35 1 34 2 33 3 32 4 31 5 30 6 29 7 27 8 28 9 26 10 23 11
REMARK SMILES IDX 24 12 108 13 25 14 107 15 22 16 8 17 9 18 10 19 21 20 7 21
REMARK SMILES IDX 3 22 4 23 109 24 5 25 6 26 2 27 1 28 11 29 12 30 20 31 13 32
REMARK SMILES IDX 19 33 14 34 15 35 16 36 17 37 18 38 36 39 37 40 38 41 39 42
REMARK SMILES IDX 40 43 41 44 42 45 43 46 44 47 45 48 106 49 46 50 105 51
REMARK SMILES IDX 47 52 48 53 49 54 99 55 50 56 104 57 98 58 100 59 51 60
REMARK SMILES IDX 103 61 97 62 96 63 52 65 84 66 64 67 83 68 65 69 68 70 82 71
REMARK SMILES IDX 101 72 66 73 67 74 81 76 102 77 69 78 53 79 54 80 62 81
REMARK SMILES IDX 55 82 57 83 63 84 56 85 58 86 59 87 60 88 61 89 85 90 86 91
REMARK SMILES IDX 94 92 87 93 89 94 95 95 88 96 90 97 91 98 92 99 93 100
REMARK SMILES IDX 70 101 71 102 79 103 72 104 74 105 80 106 73 107 75 108
REMARK SMILES IDX 76 109 77 110 78 111
REMARK H PARENT 100 64 68 75
REMARK Flexibility Score: inf
ROOT
ATOM      1  O   UNL     1       6.594  -8.120  -5.091  1.00  0.00    -0.377 OA
ENDROOT
BRANCH   1   2
ATOM      2  C   UNL     1       6.250  -7.646  -3.798  1.00  0.00     0.188 C 
BRANCH   2   3
ATOM      3  C   UNL     1       5.220  -8.414  -2.941  1.00  0.00     0.188 C 
BRANCH   3   4
ATOM      4  O   UNL     1       4.834  -9.669  -3.469  1.00  0.00    -0.376 OA
BRANCH   4   5
ATOM      5  C   UNL     1       3.550  -9.821  -4.041  1.00  0.00     0.202 C 
BRANCH   5   6
ATOM      6  C   UNL     1       3.118  -8.909  -5.199  1.00  0.00     0.261 C 
BRANCH   6   7
ATOM      7  O   UNL     1       3.467  -7.528  -5.080  1.00  0.00    -0.460 OA
BRANCH   7   8
ATOM      8  C   UNL     1       2.761  -6.789  -4.198  1.00  0.00     0.338 C 
ATOM      9  O   UNL     1       1.856  -7.176  -3.480  1.00  0.00    -0.246 OA
BRANCH   8  10
ATOM     10  C   UNL     1       3.416  -5.465  -4.088  1.00  0.00     0.060 A 
ATOM     11  C   UNL     1       4.592  -2.930  -3.803  1.00  0.00     0.060 A 
ATOM     12  C   UNL     1       4.260  -3.689  -2.674  1.00  0.00     0.029 A 
ATOM     13  C   UNL     1       4.419  -3.505  -5.072  1.00  0.00     0.029 A 
ATOM     14  C   UNL     1       3.642  -4.934  -2.812  1.00  0.00     0.018 A 
ATOM     15  C   UNL     1       3.852  -4.772  -5.220  1.00  0.00     0.018 A 
BRANCH  11  16
ATOM     16  N   UNL     1       4.951  -1.588  -3.682  1.00  0.00    -0.257 N 
ATOM     17  C   UNL     1       4.074  -0.540  -4.222  1.00  0.00     0.144 C 
ATOM     18  C   UNL     1       4.688   0.737  -3.646  1.00  0.00     0.091 C 
ATOM     19  C   UNL     1       5.734   0.145  -2.741  1.00  0.00     0.071 C 
ATOM     20  N   UNL     1       5.838  -1.148  -2.748  1.00  0.00    -0.176 NA
BRANCH  17  21
ATOM     21  C   UNL     1       2.613  -0.738  -3.822  1.00  0.00    -0.019 A 
ATOM     22  C   UNL     1       0.862  -0.962  -2.135  1.00  0.00     0.119 A 
ATOM     23  C   UNL     1      -0.058  -1.275  -3.135  1.00  0.00     0.046 A 
ATOM     24  C   UNL     1       2.195  -0.713  -2.476  1.00  0.00     0.052 A 
ATOM     25  C   UNL     1       0.338  -1.311  -4.470  1.00  0.00     0.004 A 
ATOM     26  C   UNL     1       1.664  -1.042  -4.812  1.00  0.00     0.006 A 
BRANCH  22  27
ATOM     27  O   UNL     1       0.372  -0.996  -0.858  1.00  0.00    -0.497 OA
ATOM     28  C   UNL     1       0.969  -0.074   0.045  1.00  0.00     0.278 C 
ENDBRANCH  22  27
ENDBRANCH  17  21
BRANCH  19  29
ATOM     29  C   UNL     1       6.611   1.022  -1.954  1.00  0.00    -0.002 A 
ATOM     30  C   UNL     1       7.994   0.943  -2.152  1.00  0.00     0.011 A 
ATOM     31  C   UNL     1       6.068   1.940  -1.053  1.00  0.00     0.011 A 
ATOM     32  C   UNL     1       8.844   1.802  -1.451  1.00  0.00     0.021 A 
ATOM     33  C   UNL     1       6.918   2.781  -0.331  1.00  0.00     0.021 A 
ATOM     34  C   UNL     1       8.301   2.707  -0.533  1.00  0.00     0.067 A 
BRANCH  34  35
ATOM     35  S   UNL     1       9.386   3.793   0.365  1.00  0.00     0.175 S 
ATOM     36  C   UNL     1      10.431   2.704   1.296  1.00  0.00     0.163 C 
ATOM     37  O   UNL     1      10.199   4.484  -0.616  1.00  0.00    -0.224 OA
ATOM     38  O   UNL     1       8.577   4.533   1.317  1.00  0.00    -0.224 OA
ENDBRANCH  34  35
ENDBRANCH  19  29
ENDBRANCH  11  16
ENDBRANCH   8  10
ENDBRANCH   7   8
ENDBRANCH   6   7
ENDBRANCH   5   6
ENDBRANCH   4   5
ENDBRANCH   3   4
ENDBRANCH   2   3
ENDBRANCH   1   2
BRANCH   1  39
ATOM     39  C   UNL     1       6.807  -9.508  -5.321  1.00  0.00     0.188 C 
BRANCH  39  40
ATOM     40  C   UNL     1       7.356 -10.429  -4.206  1.00  0.00     0.188 C 
BRANCH  40  41
ATOM     41  O   UNL     1       7.717  -9.761  -3.009  1.00  0.00    -0.376 OA
BRANCH  41  42
ATOM     42  C   UNL     1       9.097  -9.597  -2.739  1.00  0.00     0.202 C 
BRANCH  42  43
ATOM     43  C   UNL     1       9.927  -8.783  -3.741  1.00  0.00     0.261 C 
BRANCH  43  44
ATOM     44  O   UNL     1       9.844  -9.185  -5.115  1.00  0.00    -0.460 OA
BRANCH  44  45
ATOM     45  C   UNL     1      10.348 -10.398  -5.443  1.00  0.00     0.338 C 
ATOM     46  O   UNL     1      10.869 -11.200  -4.700  1.00  0.00    -0.246 OA
BRANCH  45  47
ATOM     47  C   UNL     1       9.974 -10.657  -6.852  1.00  0.00     0.060 A 
ATOM     48  C   UNL     1       9.147 -11.748  -7.151  1.00  0.00     0.016 A 
ATOM     49  C   UNL     1      10.421  -9.807  -7.866  1.00  0.00     0.016 A 
ATOM     50  C   UNL     1       8.788 -12.008  -8.475  1.00  0.00     0.010 A 
ATOM     51  C   UNL     1      10.079 -10.082  -9.192  1.00  0.00     0.010 A 
ATOM     52  C   UNL     1       9.289 -11.202  -9.505  1.00  0.00    -0.014 A 
BRANCH  52  53
ATOM     53  C   UNL     1       9.148 -11.632 -10.917  1.00  0.00     0.031 A 
ATOM     54  C   UNL     1      10.317 -12.315 -11.573  1.00  0.00     0.074 A 
ATOM     55  C   UNL     1       8.015 -11.416 -11.608  1.00  0.00     0.049 A 
ATOM     56  N   UNL     1      10.452 -12.730 -12.805  1.00  0.00    -0.248 NA
ATOM     57  C   UNL     1      11.496 -12.556 -10.723  1.00  0.00     0.031 C 
ATOM     58  C   UNL     1       6.811 -10.776 -11.082  1.00  0.00     0.029 A 
ATOM     59  N   UNL     1       7.707 -11.689 -12.919  1.00  0.00    -0.354 N 
ATOM     60  C   UNL     1      11.738 -13.250 -12.888  1.00  0.00     0.074 A 
ATOM     61  C   UNL     1      12.347 -13.090 -11.586  1.00  0.00     0.031 C 
ATOM     62  C   UNL     1       5.904 -10.676 -12.070  1.00  0.00     0.029 A 
ATOM     63  C   UNL     1       6.475 -11.216 -13.304  1.00  0.00     0.049 A 
ATOM     64  H   UNL     1       8.311 -12.177 -13.524  1.00  0.00     0.167 HD
ATOM     65  C   UNL     1      12.354 -13.819 -13.950  1.00  0.00     0.034 A 
ATOM     66  C   UNL     1       5.890 -11.195 -14.519  1.00  0.00     0.034 A 
ATOM     67  C   UNL     1      11.744 -13.984 -15.241  1.00  0.00     0.049 A 
ATOM     68  C   UNL     1       6.613 -11.802 -15.696  1.00  0.00     0.074 A 
ATOM     69  C   UNL     1      12.270 -14.590 -16.368  1.00  0.00     0.029 A 
ATOM     70  N   UNL     1      10.483 -13.524 -15.584  1.00  0.00    -0.354 N 
ATOM     71  N   UNL     1       7.784 -12.391 -15.735  1.00  0.00    -0.248 NA
ATOM     72  C   UNL     1       5.918 -11.770 -16.992  1.00  0.00     0.031 C 
ATOM     73  C   UNL     1      11.343 -14.457 -17.406  1.00  0.00     0.029 A 
ATOM     74  C   UNL     1      10.219 -13.815 -16.912  1.00  0.00     0.049 A 
ATOM     75  H   UNL     1       9.866 -13.060 -14.974  1.00  0.00     0.167 HD
ATOM     76  C   UNL     1       7.948 -12.833 -17.044  1.00  0.00     0.074 A 
ATOM     77  C   UNL     1       6.747 -12.460 -17.763  1.00  0.00     0.031 C 
ATOM     78  C   UNL     1       9.000 -13.482 -17.603  1.00  0.00     0.034 A 
BRANCH  65  79
ATOM     79  C   UNL     1      13.765 -14.310 -13.758  1.00  0.00     0.023 A 
ATOM     80  C   UNL     1      14.013 -15.450 -12.967  1.00  0.00     0.012 A 
ATOM     81  C   UNL     1      14.841 -13.668 -14.402  1.00  0.00     0.148 A 
ATOM     82  C   UNL     1      15.313 -15.923 -12.791  1.00  0.00     0.002 A 
ATOM     83  C   UNL     1      16.127 -14.174 -14.263  1.00  0.00     0.091 A 
ATOM     84  F   UNL     1      14.588 -12.572 -15.131  1.00  0.00    -0.205 F 
ATOM     85  C   UNL     1      16.367 -15.292 -13.447  1.00  0.00     0.022 A 
BRANCH  83  86
ATOM     86  S   UNL     1      17.539 -13.484 -15.131  1.00  0.00     0.127 S 
ATOM     87  O   UNL     1      18.311 -12.909 -14.030  1.00  0.00    -0.237 OA
ATOM     88  O   UNL     1      18.136 -14.674 -15.738  1.00  0.00    -0.237 OA
ATOM     89  O   UNL     1      16.998 -12.522 -16.081  1.00  0.00    -0.744 OA
ENDBRANCH  83  86
ENDBRANCH  65  79
BRANCH  66  90
ATOM     90  C   UNL     1       4.537 -10.592 -14.689  1.00  0.00     0.023 A 
ATOM     91  C   UNL     1       3.441 -11.415 -15.012  1.00  0.00     0.012 A 
ATOM     92  C   UNL     1       4.332  -9.207 -14.533  1.00  0.00     0.148 A 
ATOM     93  C   UNL     1       2.173 -10.866 -15.212  1.00  0.00     0.002 A 
ATOM     94  C   UNL     1       3.057  -8.674 -14.676  1.00  0.00     0.091 A 
ATOM     95  F   UNL     1       5.391  -8.438 -14.241  1.00  0.00    -0.205 F 
ATOM     96  C   UNL     1       1.979  -9.498 -15.035  1.00  0.00     0.022 A 
BRANCH  94  97
ATOM     97  S   UNL     1       2.688  -6.947 -14.348  1.00  0.00     0.127 S 
ATOM     98  O   UNL     1       2.334  -6.458 -15.678  1.00  0.00    -0.237 OA
ATOM     99  O   UNL     1       1.569  -7.053 -13.411  1.00  0.00    -0.237 OA
ATOM    100  O   UNL     1       3.902  -6.385 -13.773  1.00  0.00    -0.744 OA
ENDBRANCH  94  97
ENDBRANCH  66  90
BRANCH  78 101
ATOM    101  C   UNL     1       8.890 -13.885 -19.053  1.00  0.00     0.023 A 
ATOM    102  C   UNL     1       8.939 -12.909 -20.067  1.00  0.00     0.012 A 
ATOM    103  C   UNL     1       8.816 -15.247 -19.410  1.00  0.00     0.148 A 
ATOM    104  C   UNL     1       8.878 -13.278 -21.410  1.00  0.00     0.002 A 
ATOM    105  C   UNL     1       8.811 -15.611 -20.750  1.00  0.00     0.091 A 
ATOM    106  F   UNL     1       8.757 -16.162 -18.431  1.00  0.00    -0.205 F 
ATOM    107  C   UNL     1       8.827 -14.627 -21.752  1.00  0.00     0.022 A 
BRANCH 105 108
ATOM    108  S   UNL     1       8.848 -17.326 -21.286  1.00  0.00     0.127 S 
ATOM    109  O   UNL     1       7.509 -17.490 -21.850  1.00  0.00    -0.237 OA
ATOM    110  O   UNL     1       9.929 -17.318 -22.273  1.00  0.00    -0.237 OA
ATOM    111  O   UNL     1       9.122 -18.116 -20.093  1.00  0.00    -0.744 OA
ENDBRANCH 105 108
ENDBRANCH  78 101
ENDBRANCH  52  53
ENDBRANCH  45  47
ENDBRANCH  44  45
ENDBRANCH  43  44
ENDBRANCH  42  43
ENDBRANCH  41  42
ENDBRANCH  40  41
ENDBRANCH  39  40
ENDBRANCH   1  39
TORSDOF 28
