REMARK SMILES O=C(OCCOCCOCCOCCOC(=O)[C@@H](Cc1c[nH]c2ccccc12)Nc1ncnc2ccccc12)c1ccc(-c2c3nc(c(-c4cccc(S(=O)(=O)[O-])c4F)c4ccc([nH]4)c(-c4cccc(S(=O)(=O)[O-])c4F)c4nc(c(-c5cccc(S(=O)(=O)[O-])c5F)c5ccc2[nH]5)C=C4)C=C3)cc1
REMARK SMILES IDX 8 1 7 2 6 3 5 4 4 5 3 6 2 7 1 8 40 9 41 10 102 11 42 12
REMARK SMILES IDX 101 13 43 14 44 15 45 16 95 17 46 18 100 19 94 20 96 21
REMARK SMILES IDX 47 22 99 23 93 24 92 25 48 27 80 28 60 29 79 30 61 31 64 32
REMARK SMILES IDX 78 33 97 34 62 35 63 36 77 38 98 39 65 40 49 41 50 42 58 43
REMARK SMILES IDX 51 44 53 45 59 46 52 47 54 48 55 49 56 50 57 51 81 52 82 53
REMARK SMILES IDX 90 54 83 55 85 56 91 57 84 58 86 59 87 60 88 61 89 62 66 63
REMARK SMILES IDX 67 64 75 65 68 66 70 67 76 68 69 69 71 70 72 71 73 72 74 73
REMARK SMILES IDX 9 74 10 75 11 76 12 77 13 78 14 79 15 80 16 81 17 82 18 83
REMARK SMILES IDX 19 84 20 85 21 86 28 87 22 88 23 89 27 90 24 92 26 93 25 94
REMARK SMILES IDX 29 95 30 97 31 98 39 99 32 100 34 101 38 102 33 103 35 104
REMARK SMILES IDX 37 105 36 106
REMARK H PARENT 96 26 64 37 22 91 29 96
REMARK Flexibility Score: inf
ROOT
ATOM      1  C   UNL     1       2.376   2.442  -1.204  1.00  0.00     0.188 C 
ENDROOT
BRANCH   1   2
ATOM      2  C   UNL     1       2.652   0.962  -1.086  1.00  0.00     0.188 C 
BRANCH   2   3
ATOM      3  O   UNL     1       3.957   0.805  -0.569  1.00  0.00    -0.376 OA
BRANCH   3   4
ATOM      4  C   UNL     1       4.769  -0.247  -1.057  1.00  0.00     0.202 C 
BRANCH   4   5
ATOM      5  C   UNL     1       4.202  -1.654  -0.908  1.00  0.00     0.261 C 
BRANCH   5   6
ATOM      6  O   UNL     1       2.822  -1.749  -0.500  1.00  0.00    -0.460 OA
BRANCH   6   7
ATOM      7  C   UNL     1       2.230  -1.704   0.718  1.00  0.00     0.338 C 
ATOM      8  O   UNL     1       1.041  -2.013   0.792  1.00  0.00    -0.246 OA
BRANCH   7   9
ATOM      9  C   UNL     1       2.909  -1.264   1.971  1.00  0.00     0.060 A 
ATOM     10  C   UNL     1       3.990  -0.396   2.010  1.00  0.00     0.016 A 
ATOM     11  C   UNL     1       2.363  -1.658   3.201  1.00  0.00     0.016 A 
ATOM     12  C   UNL     1       4.589   0.013   3.175  1.00  0.00     0.010 A 
ATOM     13  C   UNL     1       2.937  -1.230   4.406  1.00  0.00     0.010 A 
ATOM     14  C   UNL     1       4.076  -0.419   4.380  1.00  0.00    -0.014 A 
BRANCH  14  15
ATOM     15  C   UNL     1       4.938  -0.172   5.536  1.00  0.00     0.031 A 
ATOM     16  C   UNL     1       5.751  -1.327   6.024  1.00  0.00     0.074 A 
ATOM     17  C   UNL     1       5.147   1.089   5.951  1.00  0.00     0.049 A 
ATOM     18  N   UNL     1       6.554  -1.395   7.043  1.00  0.00    -0.248 NA
ATOM     19  C   UNL     1       5.667  -2.573   5.235  1.00  0.00     0.031 C 
ATOM     20  C   UNL     1       4.544   2.288   5.356  1.00  0.00     0.029 A 
ATOM     21  N   UNL     1       5.944   1.577   6.946  1.00  0.00    -0.354 N 
ATOM     22  C   UNL     1       6.999  -2.709   7.072  1.00  0.00     0.074 A 
ATOM     23  C   UNL     1       6.420  -3.396   5.944  1.00  0.00     0.031 C 
ATOM     24  C   UNL     1       4.979   3.372   6.017  1.00  0.00     0.029 A 
ATOM     25  C   UNL     1       5.815   2.933   7.124  1.00  0.00     0.049 A 
ATOM     26  H   UNL     1       6.549   1.014   7.482  1.00  0.00     0.167 HD
ATOM     27  C   UNL     1       7.802  -3.283   7.991  1.00  0.00     0.034 A 
ATOM     28  C   UNL     1       6.274   3.707   8.124  1.00  0.00     0.034 A 
ATOM     29  C   UNL     1       8.352  -2.547   9.092  1.00  0.00     0.049 A 
ATOM     30  C   UNL     1       7.086   3.025   9.191  1.00  0.00     0.074 A 
ATOM     31  C   UNL     1       9.122  -3.004  10.140  1.00  0.00     0.029 A 
ATOM     32  N   UNL     1       8.166  -1.183   9.282  1.00  0.00    -0.354 N 
ATOM     33  N   UNL     1       7.469   1.770   9.257  1.00  0.00    -0.248 NA
ATOM     34  C   UNL     1       7.535   3.853  10.314  1.00  0.00     0.031 C 
ATOM     35  C   UNL     1       9.367  -1.920  10.989  1.00  0.00     0.029 A 
ATOM     36  C   UNL     1       8.794  -0.778  10.441  1.00  0.00     0.049 A 
ATOM     37  H   UNL     1       7.661  -0.592   8.678  1.00  0.00     0.167 HD
ATOM     38  C   UNL     1       8.228   1.660  10.412  1.00  0.00     0.074 A 
ATOM     39  C   UNL     1       8.266   2.986  11.003  1.00  0.00     0.031 C 
ATOM     40  C   UNL     1       8.829   0.571  10.951  1.00  0.00     0.034 A 
BRANCH  27  41
ATOM     41  C   UNL     1       8.018  -4.764   7.879  1.00  0.00     0.023 A 
ATOM     42  C   UNL     1       8.825  -5.302   6.856  1.00  0.00     0.012 A 
ATOM     43  C   UNL     1       7.362  -5.632   8.773  1.00  0.00     0.148 A 
ATOM     44  C   UNL     1       8.942  -6.684   6.702  1.00  0.00     0.002 A 
ATOM     45  C   UNL     1       7.521  -7.004   8.643  1.00  0.00     0.091 A 
ATOM     46  F   UNL     1       6.565  -5.099   9.710  1.00  0.00    -0.205 F 
ATOM     47  C   UNL     1       8.298  -7.534   7.600  1.00  0.00     0.022 A 
BRANCH  45  48
ATOM     48  S   UNL     1       6.782  -8.179   9.780  1.00  0.00     0.127 S 
ATOM     49  O   UNL     1       5.848  -8.888   8.910  1.00  0.00    -0.237 OA
ATOM     50  O   UNL     1       7.939  -8.959  10.206  1.00  0.00    -0.237 OA
ATOM     51  O   UNL     1       6.158  -7.381  10.836  1.00  0.00    -0.744 OA
ENDBRANCH  45  48
ENDBRANCH  27  41
BRANCH  28  52
ATOM     52  C   UNL     1       5.930   5.156   8.184  1.00  0.00     0.023 A 
ATOM     53  C   UNL     1       6.945   6.125   8.083  1.00  0.00     0.012 A 
ATOM     54  C   UNL     1       4.592   5.580   8.327  1.00  0.00     0.148 A 
ATOM     55  C   UNL     1       6.638   7.486   8.156  1.00  0.00     0.002 A 
ATOM     56  C   UNL     1       4.287   6.936   8.344  1.00  0.00     0.091 A 
ATOM     57  F   UNL     1       3.637   4.645   8.438  1.00  0.00    -0.205 F 
ATOM     58  C   UNL     1       5.311   7.892   8.277  1.00  0.00     0.022 A 
BRANCH  56  59
ATOM     59  S   UNL     1       2.599   7.550   8.382  1.00  0.00     0.127 S 
ATOM     60  O   UNL     1       2.522   8.134   9.714  1.00  0.00    -0.237 OA
ATOM     61  O   UNL     1       2.601   8.511   7.281  1.00  0.00    -0.237 OA
ATOM     62  O   UNL     1       1.750   6.381   8.154  1.00  0.00    -0.744 OA
ENDBRANCH  56  59
ENDBRANCH  28  52
BRANCH  40  63
ATOM     63  C   UNL     1       9.618   0.784  12.210  1.00  0.00     0.023 A 
ATOM     64  C   UNL     1       8.952   0.996  13.432  1.00  0.00     0.012 A 
ATOM     65  C   UNL     1      11.020   0.665  12.185  1.00  0.00     0.148 A 
ATOM     66  C   UNL     1       9.679   1.116  14.613  1.00  0.00     0.002 A 
ATOM     67  C   UNL     1      11.731   0.724  13.373  1.00  0.00     0.091 A 
ATOM     68  F   UNL     1      11.626   0.481  11.003  1.00  0.00    -0.205 F 
ATOM     69  C   UNL     1      11.064   0.964  14.586  1.00  0.00     0.022 A 
BRANCH  67  70
ATOM     70  S   UNL     1      13.497   0.417  13.444  1.00  0.00     0.127 S 
ATOM     71  O   UNL     1      14.020   1.752  13.722  1.00  0.00    -0.237 OA
ATOM     72  O   UNL     1      13.601  -0.526  14.557  1.00  0.00    -0.237 OA
ATOM     73  O   UNL     1      13.861  -0.139  12.146  1.00  0.00    -0.744 OA
ENDBRANCH  67  70
ENDBRANCH  40  63
ENDBRANCH  14  15
ENDBRANCH   7   9
ENDBRANCH   6   7
ENDBRANCH   5   6
ENDBRANCH   4   5
ENDBRANCH   3   4
ENDBRANCH   2   3
ENDBRANCH   1   2
BRANCH   1  74
ATOM     74  O   UNL     1       3.345   3.134  -1.979  1.00  0.00    -0.377 OA
BRANCH  74  75
ATOM     75  C   UNL     1       4.711   3.135  -1.588  1.00  0.00     0.188 C 
BRANCH  75  76
ATOM     76  C   UNL     1       5.143   3.816  -0.289  1.00  0.00     0.188 C 
BRANCH  76  77
ATOM     77  O   UNL     1       4.159   3.894   0.711  1.00  0.00    -0.376 OA
BRANCH  77  78
ATOM     78  C   UNL     1       3.286   5.021   0.741  1.00  0.00     0.202 C 
BRANCH  78  79
ATOM     79  C   UNL     1       3.209   6.091  -0.375  1.00  0.00     0.261 C 
BRANCH  79  80
ATOM     80  O   UNL     1       3.276   5.632  -1.744  1.00  0.00    -0.462 OA
BRANCH  80  81
ATOM     81  C   UNL     1       4.250   6.176  -2.520  1.00  0.00     0.329 C 
ATOM     82  O   UNL     1       5.019   7.043  -2.098  1.00  0.00    -0.250 OA
BRANCH  81  83
ATOM     83  C   UNL     1       4.458   5.557  -3.941  1.00  0.00     0.195 C 
BRANCH  83  84
ATOM     84  C   UNL     1       3.719   4.347  -4.550  1.00  0.00     0.074 C 
BRANCH  84  85
ATOM     85  C   UNL     1       2.238   4.201  -4.482  1.00  0.00    -0.020 A 
ATOM     86  C   UNL     1       1.594   2.977  -4.588  1.00  0.00     0.087 A 
ATOM     87  C   UNL     1       1.223   5.187  -4.314  1.00  0.00     0.003 A 
ATOM     88  N   UNL     1       0.256   3.176  -4.422  1.00  0.00    -0.361 N 
ATOM     89  C   UNL     1      -0.002   4.516  -4.273  1.00  0.00     0.046 A 
ATOM     90  C   UNL     1       1.218   6.588  -4.168  1.00  0.00     0.010 A 
ATOM     91  H   UNL     1      -0.425   2.465  -4.410  1.00  0.00     0.166 HD
ATOM     92  C   UNL     1      -1.222   5.175  -4.088  1.00  0.00     0.026 A 
ATOM     93  C   UNL     1       0.010   7.262  -3.981  1.00  0.00     0.001 A 
ATOM     94  C   UNL     1      -1.191   6.563  -3.944  1.00  0.00     0.002 A 
ENDBRANCH  84  85
ENDBRANCH  83  84
BRANCH  83  95
ATOM     95  N   UNL     1       4.528   6.606  -4.974  1.00  0.00    -0.356 N 
ATOM     96  H   UNL     1       3.718   6.849  -5.477  1.00  0.00     0.163 HD
BRANCH  95  97
ATOM     97  C   UNL     1       5.717   7.252  -5.242  1.00  0.00     0.137 A 
ATOM     98  N   UNL     1       5.659   8.578  -5.063  1.00  0.00    -0.219 NA
ATOM     99  C   UNL     1       6.845   6.612  -5.805  1.00  0.00     0.043 A 
ATOM    100  C   UNL     1       6.752   9.273  -5.375  1.00  0.00     0.224 A 
ATOM    101  C   UNL     1       7.904   7.468  -6.136  1.00  0.00     0.076 A 
ATOM    102  C   UNL     1       6.992   5.219  -6.070  1.00  0.00     0.014 A 
ATOM    103  N   UNL     1       7.871   8.786  -5.922  1.00  0.00    -0.236 NA
ATOM    104  C   UNL     1       9.043   6.931  -6.728  1.00  0.00     0.029 A 
ATOM    105  C   UNL     1       8.155   4.700  -6.636  1.00  0.00     0.001 A 
ATOM    106  C   UNL     1       9.180   5.564  -6.979  1.00  0.00     0.002 A 
ENDBRANCH  95  97
ENDBRANCH  83  95
ENDBRANCH  81  83
ENDBRANCH  80  81
ENDBRANCH  79  80
ENDBRANCH  78  79
ENDBRANCH  77  78
ENDBRANCH  76  77
ENDBRANCH  75  76
ENDBRANCH  74  75
ENDBRANCH   1  74
TORSDOF 27
