REMARK SMILES Cc1ccc(C(=O)N2C[C@@H](C(=O)OCCOCCOCCOCCOC(=O)c3ccc(-c4c5nc(c(-c6cccc(S(=O)(=O)[O-])c6F)c6ccc([nH]6)c(-c6cccc(S(=O)(=O)[O-])c6F)c6nc(c(-c7cccc(S(=O)(=O)[O-])c7F)c7ccc4[nH]7)C=C6)C=C5)cc3)C[C@H](C(=O)N3CCOCC3)C2)cc1F
REMARK SMILES IDX 20 1 19 2 18 3 17 4 16 5 15 6 14 7 13 8 11 9 12 10 10 11
REMARK SMILES IDX 8 12 9 13 101 14 92 15 91 16 6 17 7 18 5 19 1 20 2 21 3 22
REMARK SMILES IDX 103 23 4 24 102 25 104 26 93 27 94 28 95 29 96 30 100 31
REMARK SMILES IDX 97 32 99 33 98 34 21 35 22 36 23 37 24 38 25 39 26 40 27 41
REMARK SMILES IDX 28 42 29 43 90 44 30 45 89 46 31 47 32 48 33 49 83 50 34 51
REMARK SMILES IDX 88 52 82 53 84 54 35 55 87 56 81 57 80 58 36 60 68 61 48 62
REMARK SMILES IDX 67 63 49 64 52 65 66 66 85 67 50 68 51 69 65 71 86 72 53 73
REMARK SMILES IDX 37 74 38 75 46 76 39 77 41 78 47 79 40 80 42 81 43 82 44 83
REMARK SMILES IDX 45 84 69 85 70 86 78 87 71 88 73 89 79 90 72 91 74 92 75 93
REMARK SMILES IDX 76 94 77 95 54 96 55 97 63 98 56 99 58 100 64 101 57 102
REMARK SMILES IDX 59 103 60 104 61 105 62 106
REMARK H PARENT 84 59 52 70
REMARK Flexibility Score: inf
ROOT
ATOM      1  C   UNL     1     -10.902  -1.209   1.480  1.00  0.00     0.188 C 
ENDROOT
BRANCH   1   2
ATOM      2  O   UNL     1      -9.566  -1.523   1.132  1.00  0.00    -0.377 OA
BRANCH   2   3
ATOM      3  C   UNL     1      -9.235  -2.860   0.856  1.00  0.00     0.188 C 
BRANCH   3   4
ATOM      4  C   UNL     1      -9.073  -3.826   2.026  1.00  0.00     0.188 C 
BRANCH   4   5
ATOM      5  O   UNL     1      -9.614  -3.599   3.308  1.00  0.00    -0.376 OA
BRANCH   5   6
ATOM      6  C   UNL     1      -9.567  -2.385   4.028  1.00  0.00     0.202 C 
BRANCH   6   7
ATOM      7  C   UNL     1      -8.422  -1.350   4.034  1.00  0.00     0.261 C 
BRANCH   7   8
ATOM      8  O   UNL     1      -7.811  -0.970   2.793  1.00  0.00    -0.463 OA
BRANCH   8   9
ATOM      9  C   UNL     1      -6.765  -1.742   2.458  1.00  0.00     0.310 C 
ATOM     10  O   UNL     1      -6.328  -2.641   3.178  1.00  0.00    -0.252 OA
BRANCH   9  11
ATOM     11  C   UNL     1      -6.064  -1.418   1.162  1.00  0.00     0.119 C 
ATOM     12  N   UNL     1      -3.879  -0.716   0.459  1.00  0.00    -0.337 N 
ATOM     13  C   UNL     1      -4.859  -0.594   1.518  1.00  0.00     0.135 C 
ATOM     14  C   UNL     1      -4.288  -0.367  -0.908  1.00  0.00     0.133 C 
ATOM     15  C   UNL     1      -5.646  -0.979  -1.306  1.00  0.00     0.099 C 
ATOM     16  C   UNL     1      -6.665  -0.888  -0.145  1.00  0.00     0.032 C 
BRANCH  12  17
ATOM     17  C   UNL     1      -2.626  -1.171   0.811  1.00  0.00     0.254 C 
ATOM     18  O   UNL     1      -2.425  -2.024   1.670  1.00  0.00    -0.269 OA
BRANCH  17  19
ATOM     19  C   UNL     1      -1.474  -0.424   0.281  1.00  0.00     0.042 A 
ATOM     20  C   UNL     1       2.068   1.903  -0.242  1.00  0.00     0.047 C 
ATOM     21  C   UNL     1       0.813   1.095  -0.153  1.00  0.00    -0.015 A 
ATOM     22  C   UNL     1      -0.429   1.728  -0.064  1.00  0.00     0.007 A 
ATOM     23  C   UNL     1       0.882  -0.302  -0.073  1.00  0.00     0.126 A 
ATOM     24  C   UNL     1      -1.570   0.970   0.163  1.00  0.00     0.014 A 
ATOM     25  C   UNL     1      -0.250  -1.071   0.147  1.00  0.00     0.053 A 
ATOM     26  F   UNL     1       2.073  -0.913  -0.149  1.00  0.00    -0.207 F 
ENDBRANCH  17  19
ENDBRANCH  12  17
BRANCH  15  27
ATOM     27  C   UNL     1      -5.393  -2.289  -2.107  1.00  0.00     0.227 C 
ATOM     28  O   UNL     1      -5.304  -2.199  -3.339  1.00  0.00    -0.275 OA
ATOM     29  N   UNL     1      -4.944  -3.432  -1.482  1.00  0.00    -0.338 N 
ATOM     30  C   UNL     1      -5.705  -4.287  -0.570  1.00  0.00     0.148 C 
ATOM     31  C   UNL     1      -3.805  -4.155  -2.050  1.00  0.00     0.148 C 
ATOM     32  C   UNL     1      -4.782  -4.799   0.551  1.00  0.00     0.181 C 
ATOM     33  C   UNL     1      -2.916  -4.648  -0.903  1.00  0.00     0.181 C 
ATOM     34  O   UNL     1      -3.654  -5.501  -0.008  1.00  0.00    -0.378 OA
ENDBRANCH  15  27
ENDBRANCH   9  11
ENDBRANCH   8   9
ENDBRANCH   7   8
ENDBRANCH   6   7
ENDBRANCH   5   6
ENDBRANCH   4   5
ENDBRANCH   3   4
ENDBRANCH   2   3
ENDBRANCH   1   2
BRANCH   1  35
ATOM     35  C   UNL     1     -11.983  -2.308   1.487  1.00  0.00     0.188 C 
BRANCH  35  36
ATOM     36  O   UNL     1     -11.732  -3.396   0.612  1.00  0.00    -0.376 OA
BRANCH  36  37
ATOM     37  C   UNL     1     -12.332  -3.419  -0.680  1.00  0.00     0.202 C 
BRANCH  37  38
ATOM     38  C   UNL     1     -11.869  -2.414  -1.750  1.00  0.00     0.261 C 
BRANCH  38  39
ATOM     39  O   UNL     1     -11.686  -1.070  -1.315  1.00  0.00    -0.460 OA
BRANCH  39  40
ATOM     40  C   UNL     1     -12.793  -0.510  -0.808  1.00  0.00     0.338 C 
ATOM     41  O   UNL     1     -13.864  -1.059  -0.565  1.00  0.00    -0.246 OA
BRANCH  40  42
ATOM     42  C   UNL     1     -12.569   0.924  -0.520  1.00  0.00     0.060 A 
ATOM     43  C   UNL     1     -13.628   1.437   0.245  1.00  0.00     0.016 A 
ATOM     44  C   UNL     1     -12.088   1.564  -1.657  1.00  0.00     0.016 A 
ATOM     45  C   UNL     1     -14.571   2.155  -0.443  1.00  0.00     0.010 A 
ATOM     46  C   UNL     1     -13.025   2.262  -2.356  1.00  0.00     0.010 A 
ATOM     47  C   UNL     1     -14.287   2.438  -1.778  1.00  0.00    -0.014 A 
BRANCH  47  48
ATOM     48  C   UNL     1     -15.249   3.058  -2.636  1.00  0.00     0.031 A 
ATOM     49  C   UNL     1     -15.441   4.485  -2.353  1.00  0.00     0.074 A 
ATOM     50  C   UNL     1     -15.819   2.328  -3.617  1.00  0.00     0.049 A 
ATOM     51  N   UNL     1     -16.575   5.085  -2.315  1.00  0.00    -0.248 NA
ATOM     52  C   UNL     1     -14.332   5.330  -1.877  1.00  0.00     0.031 C 
ATOM     53  C   UNL     1     -16.564   2.842  -4.754  1.00  0.00     0.029 A 
ATOM     54  N   UNL     1     -15.930   0.942  -3.764  1.00  0.00    -0.354 N 
ATOM     55  C   UNL     1     -16.267   6.427  -2.297  1.00  0.00     0.074 A 
ATOM     56  C   UNL     1     -14.932   6.517  -1.762  1.00  0.00     0.031 C 
ATOM     57  C   UNL     1     -17.292   1.843  -5.282  1.00  0.00     0.029 A 
ATOM     58  C   UNL     1     -17.153   0.695  -4.402  1.00  0.00     0.049 A 
ATOM     59  H   UNL     1     -15.274   0.267  -3.475  1.00  0.00     0.167 HD
ATOM     60  C   UNL     1     -17.019   7.285  -3.040  1.00  0.00     0.034 A 
ATOM     61  C   UNL     1     -18.210   0.035  -3.838  1.00  0.00     0.034 A 
ATOM     62  C   UNL     1     -18.031   6.535  -3.771  1.00  0.00     0.049 A 
ATOM     63  C   UNL     1     -19.406   0.941  -3.677  1.00  0.00     0.074 A 
ATOM     64  C   UNL     1     -18.032   6.041  -5.065  1.00  0.00     0.029 A 
ATOM     65  N   UNL     1     -19.023   5.854  -3.085  1.00  0.00    -0.354 N 
ATOM     66  N   UNL     1     -19.301   2.233  -3.526  1.00  0.00    -0.248 NA
ATOM     67  C   UNL     1     -20.790   0.479  -3.679  1.00  0.00     0.031 C 
ATOM     68  C   UNL     1     -19.030   5.043  -5.151  1.00  0.00     0.029 A 
ATOM     69  C   UNL     1     -19.627   4.929  -3.909  1.00  0.00     0.049 A 
ATOM     70  H   UNL     1     -19.263   6.009  -2.142  1.00  0.00     0.167 HD
ATOM     71  C   UNL     1     -20.557   2.783  -3.496  1.00  0.00     0.074 A 
ATOM     72  C   UNL     1     -21.452   1.644  -3.579  1.00  0.00     0.031 C 
ATOM     73  C   UNL     1     -20.749   4.133  -3.436  1.00  0.00     0.034 A 
BRANCH  60  74
ATOM     74  C   UNL     1     -16.585   8.684  -3.410  1.00  0.00     0.023 A 
ATOM     75  C   UNL     1     -15.722   9.459  -2.605  1.00  0.00     0.012 A 
ATOM     76  C   UNL     1     -17.029   9.287  -4.606  1.00  0.00     0.148 A 
ATOM     77  C   UNL     1     -15.242  10.711  -3.015  1.00  0.00     0.002 A 
ATOM     78  C   UNL     1     -16.574  10.543  -4.999  1.00  0.00     0.091 A 
ATOM     79  F   UNL     1     -17.911   8.660  -5.395  1.00  0.00    -0.205 F 
ATOM     80  C   UNL     1     -15.664  11.254  -4.220  1.00  0.00     0.022 A 
BRANCH  78  81
ATOM     81  S   UNL     1     -17.194  11.236  -6.533  1.00  0.00     0.127 S 
ATOM     82  O   UNL     1     -16.673  10.314  -7.537  1.00  0.00    -0.237 OA
ATOM     83  O   UNL     1     -18.639  11.246  -6.331  1.00  0.00    -0.237 OA
ATOM     84  O   UNL     1     -16.585  12.568  -6.565  1.00  0.00    -0.744 OA
ENDBRANCH  78  81
ENDBRANCH  60  74
BRANCH  61  85
ATOM     85  C   UNL     1     -17.850  -1.038  -2.884  1.00  0.00     0.023 A 
ATOM     86  C   UNL     1     -17.687  -0.747  -1.520  1.00  0.00     0.012 A 
ATOM     87  C   UNL     1     -17.265  -2.198  -3.425  1.00  0.00     0.148 A 
ATOM     88  C   UNL     1     -16.860  -1.553  -0.737  1.00  0.00     0.002 A 
ATOM     89  C   UNL     1     -16.388  -2.951  -2.659  1.00  0.00     0.091 A 
ATOM     90  F   UNL     1     -17.472  -2.483  -4.720  1.00  0.00    -0.205 F 
ATOM     91  C   UNL     1     -16.196  -2.641  -1.311  1.00  0.00     0.022 A 
BRANCH  89  92
ATOM     92  S   UNL     1     -15.297  -4.103  -3.503  1.00  0.00     0.127 S 
ATOM     93  O   UNL     1     -16.214  -5.044  -4.134  1.00  0.00    -0.237 OA
ATOM     94  O   UNL     1     -14.541  -3.228  -4.396  1.00  0.00    -0.237 OA
ATOM     95  O   UNL     1     -14.490  -4.679  -2.428  1.00  0.00    -0.744 OA
ENDBRANCH  89  92
ENDBRANCH  61  85
BRANCH  73  96
ATOM     96  C   UNL     1     -22.027   4.861  -3.095  1.00  0.00     0.023 A 
ATOM     97  C   UNL     1     -22.079   6.268  -3.293  1.00  0.00     0.012 A 
ATOM     98  C   UNL     1     -23.155   4.278  -2.510  1.00  0.00     0.148 A 
ATOM     99  C   UNL     1     -23.177   7.046  -2.925  1.00  0.00     0.002 A 
ATOM    100  C   UNL     1     -24.302   5.033  -2.275  1.00  0.00     0.091 A 
ATOM    101  F   UNL     1     -23.132   3.003  -2.106  1.00  0.00    -0.205 F 
ATOM    102  C   UNL     1     -24.312   6.420  -2.443  1.00  0.00     0.022 A 
BRANCH 100 103
ATOM    103  S   UNL     1     -25.822   4.158  -1.910  1.00  0.00     0.127 S 
ATOM    104  O   UNL     1     -25.988   3.316  -3.093  1.00  0.00    -0.237 OA
ATOM    105  O   UNL     1     -25.525   3.467  -0.660  1.00  0.00    -0.237 OA
ATOM    106  O   UNL     1     -26.810   5.230  -1.789  1.00  0.00    -0.744 OA
ENDBRANCH 100 103
ENDBRANCH  73  96
ENDBRANCH  47  48
ENDBRANCH  40  42
ENDBRANCH  39  40
ENDBRANCH  38  39
ENDBRANCH  37  38
ENDBRANCH  36  37
ENDBRANCH  35  36
ENDBRANCH   1  35
TORSDOF 26
