REMARK SMILES CCOc1ccc(-c2nc(C(=O)OCCOCCOCCOCCOC(=O)c3ccc(-c4c5nc(c(-c6cccc(S(=O)(=O)[O-])c6F)c6ccc([nH]6)c(-c6cccc(S(=O)(=O)[O-])c6F)c6nc(c(-c7cccc(S(=O)(=O)[O-])c7F)c7ccc4[nH]7)C=C6)C=C5)cc3)cc(=O)[nH]2)cc1
REMARK SMILES IDX 19 1 18 2 17 3 16 4 15 5 14 6 13 7 11 8 12 9 10 10 8 11 9 12
REMARK SMILES IDX 94 13 92 14 91 16 93 17 7 18 4 19 5 20 96 21 6 22 95 23 3 24
REMARK SMILES IDX 2 25 1 26 20 27 21 28 22 29 23 30 24 31 25 32 26 33 27 34
REMARK SMILES IDX 28 35 29 36 90 37 30 38 89 39 31 40 32 41 33 42 83 43 34 44
REMARK SMILES IDX 88 45 82 46 84 47 35 48 87 49 81 50 80 51 36 53 68 54 48 55
REMARK SMILES IDX 67 56 49 57 52 58 66 59 85 60 50 61 51 62 65 64 86 65 53 66
REMARK SMILES IDX 37 67 38 68 46 69 39 70 41 71 47 72 40 73 42 74 43 75 44 76
REMARK SMILES IDX 45 77 69 78 70 79 78 80 71 81 73 82 79 83 72 84 74 85 75 86
REMARK SMILES IDX 76 87 77 88 54 89 55 90 63 91 56 92 58 93 64 94 57 95 59 96
REMARK SMILES IDX 60 97 61 98 62 99
REMARK H PARENT 94 15 84 52 52 63
REMARK Flexibility Score: inf
ROOT
ATOM      1  O   UNL     1      10.807   0.817  -2.750  1.00  0.00    -0.377 OA
ENDROOT
BRANCH   1   2
ATOM      2  C   UNL     1       9.405   0.614  -2.735  1.00  0.00     0.188 C 
BRANCH   2   3
ATOM      3  C   UNL     1       8.696   0.633  -4.103  1.00  0.00     0.188 C 
BRANCH   3   4
ATOM      4  O   UNL     1       9.573   0.415  -5.193  1.00  0.00    -0.376 OA
BRANCH   4   5
ATOM      5  C   UNL     1      10.031   1.508  -5.970  1.00  0.00     0.202 C 
BRANCH   5   6
ATOM      6  C   UNL     1      10.566   2.806  -5.338  1.00  0.00     0.261 C 
BRANCH   6   7
ATOM      7  O   UNL     1       9.967   3.219  -4.109  1.00  0.00    -0.459 OA
BRANCH   7   8
ATOM      8  C   UNL     1       8.783   3.875  -4.168  1.00  0.00     0.357 C 
ATOM      9  O   UNL     1       8.190   4.188  -5.189  1.00  0.00    -0.244 OA
BRANCH   8  10
ATOM     10  C   UNL     1       8.214   3.952  -2.775  1.00  0.00     0.156 A 
ATOM     11  C   UNL     1       6.447   3.558  -1.387  1.00  0.00     0.141 A 
ATOM     12  N   UNL     1       6.895   3.574  -2.599  1.00  0.00    -0.223 NA
ATOM     13  N   UNL     1       7.202   3.901  -0.300  1.00  0.00    -0.306 N 
ATOM     14  C   UNL     1       8.505   4.282  -0.413  1.00  0.00     0.251 A 
ATOM     15  H   UNL     1       6.790   3.871   0.594  1.00  0.00     0.171 HD
ATOM     16  C   UNL     1       9.043   4.296  -1.778  1.00  0.00     0.107 A 
ATOM     17  O   UNL     1       9.181   4.587   0.559  1.00  0.00    -0.269 OA
BRANCH  11  18
ATOM     18  C   UNL     1       5.062   3.156  -1.099  1.00  0.00     0.018 A 
ATOM     19  C   UNL     1       2.409   2.424  -0.711  1.00  0.00     0.119 A 
ATOM     20  C   UNL     1       2.793   3.756  -0.547  1.00  0.00     0.047 A 
ATOM     21  C   UNL     1       3.348   1.459  -1.078  1.00  0.00     0.047 A 
ATOM     22  C   UNL     1       4.127   4.126  -0.731  1.00  0.00     0.016 A 
ATOM     23  C   UNL     1       4.683   1.822  -1.270  1.00  0.00     0.016 A 
BRANCH  19  24
ATOM     24  O   UNL     1       1.073   2.135  -0.675  1.00  0.00    -0.494 OA
BRANCH  24  25
ATOM     25  C   UNL     1       0.678   1.346   0.451  1.00  0.00     0.226 C 
ATOM     26  C   UNL     1       0.682  -0.138   0.124  1.00  0.00     0.049 C 
ENDBRANCH  24  25
ENDBRANCH  19  24
ENDBRANCH  11  18
ENDBRANCH   8  10
ENDBRANCH   7   8
ENDBRANCH   6   7
ENDBRANCH   5   6
ENDBRANCH   4   5
ENDBRANCH   3   4
ENDBRANCH   2   3
ENDBRANCH   1   2
BRANCH   1  27
ATOM     27  C   UNL     1      11.660  -0.151  -3.362  1.00  0.00     0.188 C 
BRANCH  27  28
ATOM     28  C   UNL     1      11.137  -1.483  -3.957  1.00  0.00     0.188 C 
BRANCH  28  29
ATOM     29  O   UNL     1       9.885  -1.919  -3.450  1.00  0.00    -0.376 OA
BRANCH  29  30
ATOM     30  C   UNL     1       9.875  -3.015  -2.555  1.00  0.00     0.202 C 
BRANCH  30  31
ATOM     31  C   UNL     1      10.559  -2.803  -1.198  1.00  0.00     0.261 C 
BRANCH  31  32
ATOM     32  O   UNL     1      11.928  -2.378  -1.245  1.00  0.00    -0.460 OA
BRANCH  32  33
ATOM     33  C   UNL     1      12.825  -3.236  -1.774  1.00  0.00     0.338 C 
ATOM     34  O   UNL     1      12.601  -4.352  -2.219  1.00  0.00    -0.246 OA
BRANCH  33  35
ATOM     35  C   UNL     1      14.108  -2.518  -1.900  1.00  0.00     0.060 A 
ATOM     36  C   UNL     1      14.679  -2.350  -3.169  1.00  0.00     0.016 A 
ATOM     37  C   UNL     1      14.735  -1.996  -0.766  1.00  0.00     0.016 A 
ATOM     38  C   UNL     1      15.902  -1.691  -3.301  1.00  0.00     0.010 A 
ATOM     39  C   UNL     1      15.966  -1.351  -0.898  1.00  0.00     0.010 A 
ATOM     40  C   UNL     1      16.572  -1.228  -2.161  1.00  0.00    -0.014 A 
BRANCH  40  41
ATOM     41  C   UNL     1      17.986  -0.790  -2.258  1.00  0.00     0.031 A 
ATOM     42  C   UNL     1      19.062  -1.765  -1.863  1.00  0.00     0.074 A 
ATOM     43  C   UNL     1      18.311   0.445  -2.677  1.00  0.00     0.049 A 
ATOM     44  N   UNL     1      20.358  -1.601  -1.822  1.00  0.00    -0.248 NA
ATOM     45  C   UNL     1      18.611  -3.106  -1.454  1.00  0.00     0.031 C 
ATOM     46  C   UNL     1      17.364   1.473  -3.103  1.00  0.00     0.029 A 
ATOM     47  N   UNL     1      19.539   1.050  -2.789  1.00  0.00    -0.354 N 
ATOM     48  C   UNL     1      20.875  -2.802  -1.352  1.00  0.00     0.074 A 
ATOM     49  C   UNL     1      19.752  -3.680  -1.108  1.00  0.00     0.031 C 
ATOM     50  C   UNL     1      18.044   2.590  -3.413  1.00  0.00     0.029 A 
ATOM     51  C   UNL     1      19.470   2.367  -3.178  1.00  0.00     0.049 A 
ATOM     52  H   UNL     1      20.387   0.585  -2.608  1.00  0.00     0.167 HD
ATOM     53  C   UNL     1      22.169  -3.150  -1.153  1.00  0.00     0.034 A 
ATOM     54  C   UNL     1      20.446   3.288  -3.306  1.00  0.00     0.034 A 
ATOM     55  C   UNL     1      23.282  -2.276  -1.400  1.00  0.00     0.049 A 
ATOM     56  C   UNL     1      21.874   2.893  -3.025  1.00  0.00     0.074 A 
ATOM     57  C   UNL     1      24.633  -2.545  -1.270  1.00  0.00     0.029 A 
ATOM     58  N   UNL     1      23.175  -0.954  -1.805  1.00  0.00    -0.354 N 
ATOM     59  N   UNL     1      22.360   1.723  -2.687  1.00  0.00    -0.248 NA
ATOM     60  C   UNL     1      22.894   3.943  -3.171  1.00  0.00     0.031 C 
ATOM     61  C   UNL     1      25.340  -1.372  -1.554  1.00  0.00     0.029 A 
ATOM     62  C   UNL     1      24.433  -0.387  -1.910  1.00  0.00     0.049 A 
ATOM     63  H   UNL     1      22.328  -0.488  -1.992  1.00  0.00     0.167 HD
ATOM     64  C   UNL     1      23.741   1.883  -2.626  1.00  0.00     0.074 A 
ATOM     65  C   UNL     1      24.015   3.262  -2.975  1.00  0.00     0.031 C 
ATOM     66  C   UNL     1      24.696   0.975  -2.305  1.00  0.00     0.034 A 
BRANCH  53  67
ATOM     67  C   UNL     1      22.441  -4.542  -0.641  1.00  0.00     0.023 A 
ATOM     68  C   UNL     1      22.207  -5.657  -1.473  1.00  0.00     0.012 A 
ATOM     69  C   UNL     1      22.948  -4.744   0.657  1.00  0.00     0.148 A 
ATOM     70  C   UNL     1      22.428  -6.952  -1.004  1.00  0.00     0.002 A 
ATOM     71  C   UNL     1      23.214  -6.034   1.099  1.00  0.00     0.091 A 
ATOM     72  F   UNL     1      23.143  -3.675   1.442  1.00  0.00    -0.205 F 
ATOM     73  C   UNL     1      22.939  -7.139   0.277  1.00  0.00     0.022 A 
BRANCH  71  74
ATOM     74  S   UNL     1      23.950  -6.375   2.701  1.00  0.00     0.127 S 
ATOM     75  O   UNL     1      22.824  -6.968   3.422  1.00  0.00    -0.237 OA
ATOM     76  O   UNL     1      25.016  -7.316   2.356  1.00  0.00    -0.237 OA
ATOM     77  O   UNL     1      24.413  -5.093   3.212  1.00  0.00    -0.744 OA
ENDBRANCH  71  74
ENDBRANCH  53  67
BRANCH  54  78
ATOM     78  C   UNL     1      20.118   4.670  -3.760  1.00  0.00     0.023 A 
ATOM     79  C   UNL     1      20.564   5.106  -5.024  1.00  0.00     0.012 A 
ATOM     80  C   UNL     1      19.371   5.551  -2.955  1.00  0.00     0.148 A 
ATOM     81  C   UNL     1      20.300   6.404  -5.463  1.00  0.00     0.002 A 
ATOM     82  C   UNL     1      19.065   6.824  -3.422  1.00  0.00     0.091 A 
ATOM     83  F   UNL     1      18.968   5.122  -1.751  1.00  0.00    -0.205 F 
ATOM     84  C   UNL     1      19.544   7.259  -4.668  1.00  0.00     0.022 A 
BRANCH  82  85
ATOM     85  S   UNL     1      18.000   7.957  -2.522  1.00  0.00     0.127 S 
ATOM     86  O   UNL     1      18.924   9.043  -2.199  1.00  0.00    -0.237 OA
ATOM     87  O   UNL     1      16.993   8.284  -3.531  1.00  0.00    -0.237 OA
ATOM     88  O   UNL     1      17.494   7.204  -1.383  1.00  0.00    -0.744 OA
ENDBRANCH  82  85
ENDBRANCH  54  78
BRANCH  66  89
ATOM     89  C   UNL     1      26.137   1.416  -2.367  1.00  0.00     0.023 A 
ATOM     90  C   UNL     1      26.647   2.313  -1.407  1.00  0.00     0.012 A 
ATOM     91  C   UNL     1      27.006   0.880  -3.339  1.00  0.00     0.148 A 
ATOM     92  C   UNL     1      27.988   2.698  -1.437  1.00  0.00     0.002 A 
ATOM     93  C   UNL     1      28.352   1.224  -3.329  1.00  0.00     0.091 A 
ATOM     94  F   UNL     1      26.501   0.039  -4.253  1.00  0.00    -0.205 F 
ATOM     95  C   UNL     1      28.842   2.145  -2.389  1.00  0.00     0.022 A 
BRANCH  93  96
ATOM     96  S   UNL     1      29.547   0.486  -4.450  1.00  0.00     0.127 S 
ATOM     97  O   UNL     1      29.879   1.615  -5.317  1.00  0.00    -0.237 OA
ATOM     98  O   UNL     1      30.617   0.082  -3.538  1.00  0.00    -0.237 OA
ATOM     99  O   UNL     1      28.858  -0.619  -5.103  1.00  0.00    -0.744 OA
ENDBRANCH  93  96
ENDBRANCH  66  89
ENDBRANCH  40  41
ENDBRANCH  33  35
ENDBRANCH  32  33
ENDBRANCH  31  32
ENDBRANCH  30  31
ENDBRANCH  29  30
ENDBRANCH  28  29
ENDBRANCH  27  28
ENDBRANCH   1  27
TORSDOF 26
