REMARK SMILES C[C@@](NC(=O)c1cc(Br)c[nH]1)(C(=O)OCCOCCOCCOCCOC(=O)c1ccc(-c2c3nc(c(-c4cccc(S(=O)(=O)[O-])c4F)c4ccc([nH]4)c(-c4cccc(S(=O)(=O)[O-])c4F)c4nc(c(-c5cccc(S(=O)(=O)[O-])c5F)c5ccc2[nH]5)C=C4)C=C3)cc1)C(F)(F)F
REMARK SMILES IDX 21 1 20 2 19 3 18 4 17 5 16 6 15 7 14 8 12 9 13 10 2 11 1 12
REMARK SMILES IDX 3 13 4 14 5 16 6 17 7 18 11 19 8 20 10 21 9 23 92 24 93 25
REMARK SMILES IDX 94 26 95 27 22 28 23 29 24 30 25 31 26 32 27 33 28 34 29 35
REMARK SMILES IDX 30 36 91 37 31 38 90 39 32 40 33 41 34 42 84 43 35 44 89 45
REMARK SMILES IDX 83 46 85 47 36 48 88 49 82 50 81 51 37 53 69 54 49 55 68 56
REMARK SMILES IDX 50 57 53 58 67 59 86 60 51 61 52 62 66 64 87 65 54 66 38 67
REMARK SMILES IDX 39 68 47 69 40 70 42 71 48 72 41 73 43 74 44 75 45 76 46 77
REMARK SMILES IDX 70 78 71 79 79 80 72 81 74 82 80 83 73 84 75 85 76 86 77 87
REMARK SMILES IDX 78 88 55 89 56 90 64 91 57 92 59 93 65 94 58 95 60 96 61 97
REMARK SMILES IDX 62 98 63 99
REMARK H PARENT 3 15 11 22 85 52 53 63
REMARK Flexibility Score: inf
ROOT
ATOM      1  C   UNL     1      -3.021  -0.352  -2.229  1.00  0.00     0.188 C 
ENDROOT
BRANCH   1   2
ATOM      2  O   UNL     1      -1.852  -0.384  -1.413  1.00  0.00    -0.377 OA
BRANCH   2   3
ATOM      3  C   UNL     1      -1.422  -1.605  -0.843  1.00  0.00     0.188 C 
BRANCH   3   4
ATOM      4  C   UNL     1      -2.348  -2.228   0.214  1.00  0.00     0.188 C 
BRANCH   4   5
ATOM      5  O   UNL     1      -3.626  -1.618   0.318  1.00  0.00    -0.376 OA
BRANCH   5   6
ATOM      6  C   UNL     1      -3.798  -0.565   1.253  1.00  0.00     0.202 C 
BRANCH   6   7
ATOM      7  C   UNL     1      -2.996   0.720   1.042  1.00  0.00     0.261 C 
BRANCH   7   8
ATOM      8  O   UNL     1      -1.561   0.655   1.108  1.00  0.00    -0.461 OA
BRANCH   8   9
ATOM      9  C   UNL     1      -0.909  -0.033   2.072  1.00  0.00     0.341 C 
ATOM     10  O   UNL     1      -1.442  -0.754   2.907  1.00  0.00    -0.249 OA
BRANCH   9  11
ATOM     11  C   UNL     1       0.565   0.343   2.097  1.00  0.00     0.231 C 
ATOM     12  C   UNL     1       1.079   0.925   0.765  1.00  0.00     0.058 C 
BRANCH  11  13
ATOM     13  N   UNL     1       0.885   1.273   3.231  1.00  0.00    -0.328 N 
ATOM     14  C   UNL     1       0.195   2.349   3.732  1.00  0.00     0.268 C 
ATOM     15  H   UNL     1       1.733   1.079   3.692  1.00  0.00     0.165 HD
ATOM     16  O   UNL     1       0.867   3.300   4.120  1.00  0.00    -0.268 OA
BRANCH  14  17
ATOM     17  C   UNL     1      -1.237   2.280   3.920  1.00  0.00     0.105 A 
ATOM     18  C   UNL     1      -2.194   3.253   3.662  1.00  0.00     0.049 A 
ATOM     19  N   UNL     1      -1.907   1.237   4.536  1.00  0.00    -0.356 N 
ATOM     20  C   UNL     1      -3.449   2.727   4.033  1.00  0.00     0.036 A 
ATOM     21  C   UNL     1      -3.259   1.473   4.549  1.00  0.00     0.098 A 
ATOM     22  H   UNL     1      -1.474   0.438   4.913  1.00  0.00     0.166 HD
ATOM     23  Br  UNL     1      -5.092   3.579   3.748  1.00  0.00    -0.049 Br
ENDBRANCH  14  17
ENDBRANCH  11  13
BRANCH  11  24
ATOM     24  C   UNL     1       1.260  -1.020   2.309  1.00  0.00     0.422 C 
ATOM     25  F   UNL     1       0.910  -1.945   1.387  1.00  0.00    -0.168 F 
ATOM     26  F   UNL     1       2.610  -0.883   2.227  1.00  0.00    -0.168 F 
ATOM     27  F   UNL     1       1.012  -1.550   3.530  1.00  0.00    -0.168 F 
ENDBRANCH  11  24
ENDBRANCH   9  11
ENDBRANCH   8   9
ENDBRANCH   7   8
ENDBRANCH   6   7
ENDBRANCH   5   6
ENDBRANCH   4   5
ENDBRANCH   3   4
ENDBRANCH   2   3
ENDBRANCH   1   2
BRANCH   1  28
ATOM     28  C   UNL     1      -3.857  -1.618  -2.499  1.00  0.00     0.188 C 
BRANCH  28  29
ATOM     29  O   UNL     1      -3.107  -2.820  -2.525  1.00  0.00    -0.376 OA
BRANCH  29  30
ATOM     30  C   UNL     1      -2.679  -3.308  -3.784  1.00  0.00     0.202 C 
BRANCH  30  31
ATOM     31  C   UNL     1      -1.761  -2.414  -4.631  1.00  0.00     0.261 C 
BRANCH  31  32
ATOM     32  O   UNL     1      -2.251  -1.112  -4.997  1.00  0.00    -0.460 OA
BRANCH  32  33
ATOM     33  C   UNL     1      -3.443  -1.011  -5.636  1.00  0.00     0.338 C 
ATOM     34  O   UNL     1      -4.145  -1.919  -6.011  1.00  0.00    -0.246 OA
BRANCH  33  35
ATOM     35  C   UNL     1      -3.846   0.421  -5.591  1.00  0.00     0.060 A 
ATOM     36  C   UNL     1      -5.043   0.776  -4.949  1.00  0.00     0.016 A 
ATOM     37  C   UNL     1      -3.030   1.410  -6.143  1.00  0.00     0.016 A 
ATOM     38  C   UNL     1      -5.437   2.116  -4.884  1.00  0.00     0.010 A 
ATOM     39  C   UNL     1      -3.442   2.747  -6.104  1.00  0.00     0.010 A 
ATOM     40  C   UNL     1      -4.661   3.105  -5.501  1.00  0.00    -0.014 A 
BRANCH  40  41
ATOM     41  C   UNL     1      -5.208   4.473  -5.689  1.00  0.00     0.031 A 
ATOM     42  C   UNL     1      -5.839   4.811  -7.014  1.00  0.00     0.074 A 
ATOM     43  C   UNL     1      -5.136   5.406  -4.721  1.00  0.00     0.049 A 
ATOM     44  N   UNL     1      -6.310   5.952  -7.442  1.00  0.00    -0.248 NA
ATOM     45  C   UNL     1      -5.950   3.712  -7.988  1.00  0.00     0.031 C 
ATOM     46  C   UNL     1      -4.569   5.205  -3.389  1.00  0.00     0.029 A 
ATOM     47  N   UNL     1      -5.517   6.727  -4.729  1.00  0.00    -0.354 N 
ATOM     48  C   UNL     1      -6.739   5.720  -8.743  1.00  0.00     0.074 A 
ATOM     49  C   UNL     1      -6.476   4.329  -9.036  1.00  0.00     0.031 C 
ATOM     50  C   UNL     1      -4.600   6.372  -2.722  1.00  0.00     0.029 A 
ATOM     51  C   UNL     1      -5.158   7.410  -3.590  1.00  0.00     0.049 A 
ATOM     52  H   UNL     1      -6.000   7.145  -5.479  1.00  0.00     0.167 HD
ATOM     53  C   UNL     1      -7.306   6.585  -9.616  1.00  0.00     0.034 A 
ATOM     54  C   UNL     1      -5.234   8.725  -3.298  1.00  0.00     0.034 A 
ATOM     55  C   UNL     1      -7.583   7.965  -9.323  1.00  0.00     0.049 A 
ATOM     56  C   UNL     1      -5.831   9.675  -4.308  1.00  0.00     0.074 A 
ATOM     57  C   UNL     1      -8.205   8.904 -10.127  1.00  0.00     0.029 A 
ATOM     58  N   UNL     1      -7.238   8.610  -8.148  1.00  0.00    -0.354 N 
ATOM     59  N   UNL     1      -6.343   9.417  -5.487  1.00  0.00    -0.248 NA
ATOM     60  C   UNL     1      -5.885  11.098  -3.934  1.00  0.00     0.031 C 
ATOM     61  C   UNL     1      -8.197  10.129  -9.454  1.00  0.00     0.029 A 
ATOM     62  C   UNL     1      -7.611   9.941  -8.213  1.00  0.00     0.049 A 
ATOM     63  H   UNL     1      -6.793   8.185  -7.379  1.00  0.00     0.167 HD
ATOM     64  C   UNL     1      -6.809  10.633  -5.978  1.00  0.00     0.074 A 
ATOM     65  C   UNL     1      -6.544  11.625  -4.957  1.00  0.00     0.031 C 
ATOM     66  C   UNL     1      -7.390  10.910  -7.171  1.00  0.00     0.034 A 
BRANCH  53  67
ATOM     67  C   UNL     1      -7.675   6.070 -10.981  1.00  0.00     0.023 A 
ATOM     68  C   UNL     1      -8.790   5.223 -11.135  1.00  0.00     0.012 A 
ATOM     69  C   UNL     1      -6.966   6.498 -12.121  1.00  0.00     0.148 A 
ATOM     70  C   UNL     1      -9.183   4.793 -12.402  1.00  0.00     0.002 A 
ATOM     71  C   UNL     1      -7.391   6.103 -13.383  1.00  0.00     0.091 A 
ATOM     72  F   UNL     1      -5.896   7.286 -11.947  1.00  0.00    -0.205 F 
ATOM     73  C   UNL     1      -8.493   5.244 -13.525  1.00  0.00     0.022 A 
BRANCH  71  74
ATOM     74  S   UNL     1      -6.621   6.692 -14.894  1.00  0.00     0.127 S 
ATOM     75  O   UNL     1      -6.047   5.459 -15.432  1.00  0.00    -0.237 OA
ATOM     76  O   UNL     1      -7.769   7.207 -15.640  1.00  0.00    -0.237 OA
ATOM     77  O   UNL     1      -5.652   7.700 -14.489  1.00  0.00    -0.744 OA
ENDBRANCH  71  74
ENDBRANCH  53  67
BRANCH  54  78
ATOM     78  C   UNL     1      -4.721   9.242  -1.996  1.00  0.00     0.023 A 
ATOM     79  C   UNL     1      -5.615   9.800  -1.060  1.00  0.00     0.012 A 
ATOM     80  C   UNL     1      -3.345   9.214  -1.695  1.00  0.00     0.148 A 
ATOM     81  C   UNL     1      -5.144  10.357   0.130  1.00  0.00     0.002 A 
ATOM     82  C   UNL     1      -2.890   9.716  -0.481  1.00  0.00     0.091 A 
ATOM     83  F   UNL     1      -2.506   8.703  -2.606  1.00  0.00    -0.205 F 
ATOM     84  C   UNL     1      -3.784  10.307   0.424  1.00  0.00     0.022 A 
BRANCH  82  85
ATOM     85  S   UNL     1      -1.174   9.577   0.032  1.00  0.00     0.127 S 
ATOM     86  O   UNL     1      -0.723  10.963  -0.054  1.00  0.00    -0.237 OA
ATOM     87  O   UNL     1      -1.310   9.053   1.391  1.00  0.00    -0.237 OA
ATOM     88  O   UNL     1      -0.558   8.651  -0.909  1.00  0.00    -0.744 OA
ENDBRANCH  82  85
ENDBRANCH  54  78
BRANCH  66  89
ATOM     89  C   UNL     1      -7.823  12.330  -7.434  1.00  0.00     0.023 A 
ATOM     90  C   UNL     1      -6.858  13.333  -7.655  1.00  0.00     0.012 A 
ATOM     91  C   UNL     1      -9.191  12.655  -7.535  1.00  0.00     0.148 A 
ATOM     92  C   UNL     1      -7.247  14.643  -7.934  1.00  0.00     0.002 A 
ATOM     93  C   UNL     1      -9.571  13.951  -7.867  1.00  0.00     0.091 A 
ATOM     94  F   UNL     1     -10.096  11.691  -7.311  1.00  0.00    -0.205 F 
ATOM     95  C   UNL     1      -8.601  14.949  -8.051  1.00  0.00     0.022 A 
BRANCH  93  96
ATOM     96  S   UNL     1     -11.285  14.417  -8.136  1.00  0.00     0.127 S 
ATOM     97  O   UNL     1     -11.546  15.274  -6.981  1.00  0.00    -0.237 OA
ATOM     98  O   UNL     1     -11.215  15.123  -9.416  1.00  0.00    -0.237 OA
ATOM     99  O   UNL     1     -12.041  13.172  -8.171  1.00  0.00    -0.744 OA
ENDBRANCH  93  96
ENDBRANCH  66  89
ENDBRANCH  40  41
ENDBRANCH  33  35
ENDBRANCH  32  33
ENDBRANCH  31  32
ENDBRANCH  30  31
ENDBRANCH  29  30
ENDBRANCH  28  29
ENDBRANCH   1  28
TORSDOF 26
