REMARK SMILES CCn1c(-c2ccccc2)c(C(=O)OCCOCCOCCOCCOC(=O)c2ccc(-c3c4nc(c(-c5cccc(S(=O)(=O)[O-])c5F)c5ccc([nH]5)c(-c5cccc(S(=O)(=O)[O-])c5F)c5nc(c(-c6cccc(S(=O)(=O)[O-])c6F)c6ccc3[nH]6)C=C5)C=C4)cc2)c2ccc(N)cc21
REMARK SMILES IDX 21 1 20 2 19 3 18 4 17 5 16 6 15 7 14 8 12 9 13 10 11 11
REMARK SMILES IDX 3 12 4 13 98 14 92 15 97 16 93 17 95 18 94 19 2 20 1 21 5 22
REMARK SMILES IDX 6 23 10 24 7 25 9 26 8 27 96 28 22 31 23 32 24 33 25 34
REMARK SMILES IDX 26 35 27 36 28 37 29 38 30 39 91 40 31 41 90 42 32 43 33 44
REMARK SMILES IDX 34 45 84 46 35 47 89 48 83 49 85 50 36 51 88 52 82 53 81 54
REMARK SMILES IDX 37 56 69 57 49 58 68 59 50 60 53 61 67 62 86 63 51 64 52 65
REMARK SMILES IDX 66 67 87 68 54 69 38 70 39 71 47 72 40 73 42 74 48 75 41 76
REMARK SMILES IDX 43 77 44 78 45 79 46 80 70 81 71 82 79 83 72 84 74 85 80 86
REMARK SMILES IDX 73 87 75 88 76 89 77 90 78 91 55 92 56 93 64 94 57 95 59 96
REMARK SMILES IDX 65 97 58 98 60 99 61 100 62 101 63 102
REMARK H PARENT 96 29 96 30 85 55 53 66
REMARK Flexibility Score: inf
ROOT
ATOM      1  C   UNL     1       0.107  -0.862   8.540  1.00  0.00     0.188 C 
ENDROOT
BRANCH   1   2
ATOM      2  O   UNL     1       0.151  -0.565   7.154  1.00  0.00    -0.377 OA
BRANCH   2   3
ATOM      3  C   UNL     1       0.482  -1.612   6.268  1.00  0.00     0.188 C 
BRANCH   3   4
ATOM      4  C   UNL     1       1.633  -2.568   6.629  1.00  0.00     0.188 C 
BRANCH   4   5
ATOM      5  O   UNL     1       2.338  -2.231   7.818  1.00  0.00    -0.376 OA
BRANCH   5   6
ATOM      6  C   UNL     1       3.685  -1.817   7.644  1.00  0.00     0.202 C 
BRANCH   6   7
ATOM      7  C   UNL     1       3.847  -0.360   7.207  1.00  0.00     0.261 C 
BRANCH   7   8
ATOM      8  O   UNL     1       3.091   0.021   6.050  1.00  0.00    -0.460 OA
BRANCH   8   9
ATOM      9  C   UNL     1       3.440  -0.532   4.849  1.00  0.00     0.341 C 
ATOM     10  O   UNL     1       4.347  -1.307   4.686  1.00  0.00    -0.246 OA
BRANCH   9  11
ATOM     11  C   UNL     1       2.490  -0.129   3.803  1.00  0.00     0.093 A 
ATOM     12  N   UNL     1       1.101  -0.208   2.054  1.00  0.00    -0.340 N 
ATOM     13  C   UNL     1       1.927  -0.982   2.848  1.00  0.00     0.064 A 
ATOM     14  C   UNL     1       1.025   1.083   2.542  1.00  0.00     0.051 A 
ATOM     15  C   UNL     1       1.853   1.146   3.661  1.00  0.00     0.015 A 
ATOM     16  C   UNL     1       0.290   2.203   2.102  1.00  0.00     0.052 A 
ATOM     17  C   UNL     1       1.890   2.347   4.401  1.00  0.00     0.013 A 
ATOM     18  C   UNL     1       0.408   3.413   2.797  1.00  0.00     0.033 A 
ATOM     19  C   UNL     1       1.151   3.456   3.972  1.00  0.00     0.026 A 
BRANCH  12  20
ATOM     20  C   UNL     1       0.385  -0.673   0.874  1.00  0.00     0.119 C 
ATOM     21  C   UNL     1       1.023  -0.176  -0.412  1.00  0.00     0.027 C 
ENDBRANCH  12  20
BRANCH  13  22
ATOM     22  C   UNL     1       1.997  -2.447   2.773  1.00  0.00    -0.001 A 
ATOM     23  C   UNL     1       0.952  -3.222   3.306  1.00  0.00     0.010 A 
ATOM     24  C   UNL     1       3.118  -3.092   2.255  1.00  0.00     0.010 A 
ATOM     25  C   UNL     1       1.060  -4.611   3.387  1.00  0.00     0.001 A 
ATOM     26  C   UNL     1       3.211  -4.487   2.303  1.00  0.00     0.001 A 
ATOM     27  C   UNL     1       2.193  -5.244   2.886  1.00  0.00     0.000 A 
ENDBRANCH  13  22
BRANCH  18  28
ATOM     28  N   UNL     1      -0.330   4.523   2.397  1.00  0.00    -0.399 N 
ATOM     29  H   UNL     1      -0.245   5.373   2.887  1.00  0.00     0.156 HD
ATOM     30  H   UNL     1      -0.935   4.459   1.623  1.00  0.00     0.156 HD
ENDBRANCH  18  28
ENDBRANCH   9  11
ENDBRANCH   8   9
ENDBRANCH   7   8
ENDBRANCH   6   7
ENDBRANCH   5   6
ENDBRANCH   4   5
ENDBRANCH   3   4
ENDBRANCH   2   3
ENDBRANCH   1   2
BRANCH   1  31
ATOM     31  C   UNL     1      -0.380  -2.256   8.971  1.00  0.00     0.188 C 
BRANCH  31  32
ATOM     32  O   UNL     1      -1.335  -2.812   8.070  1.00  0.00    -0.376 OA
BRANCH  32  33
ATOM     33  C   UNL     1      -2.688  -2.790   8.508  1.00  0.00     0.202 C 
BRANCH  33  34
ATOM     34  C   UNL     1      -3.334  -1.401   8.611  1.00  0.00     0.261 C 
BRANCH  34  35
ATOM     35  O   UNL     1      -2.716  -0.540   9.580  1.00  0.00    -0.460 OA
BRANCH  35  36
ATOM     36  C   UNL     1      -2.887  -0.799  10.900  1.00  0.00     0.338 C 
ATOM     37  O   UNL     1      -3.729  -1.526  11.393  1.00  0.00    -0.246 OA
BRANCH  36  38
ATOM     38  C   UNL     1      -1.645  -0.312  11.564  1.00  0.00     0.060 A 
ATOM     39  C   UNL     1      -1.045   0.883  11.159  1.00  0.00     0.016 A 
ATOM     40  C   UNL     1      -0.931  -1.228  12.351  1.00  0.00     0.016 A 
ATOM     41  C   UNL     1       0.310   1.080  11.414  1.00  0.00     0.010 A 
ATOM     42  C   UNL     1       0.427  -1.019  12.615  1.00  0.00     0.010 A 
ATOM     43  C   UNL     1       1.066   0.113  12.107  1.00  0.00    -0.014 A 
BRANCH  43  44
ATOM     44  C   UNL     1       2.451   0.480  12.448  1.00  0.00     0.031 A 
ATOM     45  C   UNL     1       2.521   1.736  13.246  1.00  0.00     0.074 A 
ATOM     46  C   UNL     1       3.596  -0.222  12.303  1.00  0.00     0.049 A 
ATOM     47  N   UNL     1       3.074   2.863  12.935  1.00  0.00    -0.248 NA
ATOM     48  C   UNL     1       1.765   1.743  14.508  1.00  0.00     0.031 C 
ATOM     49  C   UNL     1       3.743  -1.628  11.929  1.00  0.00     0.029 A 
ATOM     50  N   UNL     1       4.885   0.161  12.599  1.00  0.00    -0.354 N 
ATOM     51  C   UNL     1       2.893   3.666  14.056  1.00  0.00     0.074 A 
ATOM     52  C   UNL     1       1.955   2.993  14.920  1.00  0.00     0.031 C 
ATOM     53  C   UNL     1       4.990  -2.041  12.260  1.00  0.00     0.029 A 
ATOM     54  C   UNL     1       5.769  -0.905  12.732  1.00  0.00     0.049 A 
ATOM     55  H   UNL     1       5.155   1.101  12.707  1.00  0.00     0.167 HD
ATOM     56  C   UNL     1       3.708   4.711  14.351  1.00  0.00     0.034 A 
ATOM     57  C   UNL     1       7.019  -0.867  13.257  1.00  0.00     0.034 A 
ATOM     58  C   UNL     1       4.592   5.082  13.291  1.00  0.00     0.049 A 
ATOM     59  C   UNL     1       7.537   0.522  13.188  1.00  0.00     0.074 A 
ATOM     60  C   UNL     1       4.585   5.895  12.182  1.00  0.00     0.029 A 
ATOM     61  N   UNL     1       5.711   4.305  13.223  1.00  0.00    -0.354 N 
ATOM     62  N   UNL     1       7.818   1.155  12.083  1.00  0.00    -0.248 NA
ATOM     63  C   UNL     1       7.639   1.316  14.411  1.00  0.00     0.031 C 
ATOM     64  C   UNL     1       5.702   5.502  11.383  1.00  0.00     0.029 A 
ATOM     65  C   UNL     1       6.349   4.449  12.021  1.00  0.00     0.049 A 
ATOM     66  H   UNL     1       6.021   3.716  13.948  1.00  0.00     0.167 HD
ATOM     67  C   UNL     1       7.761   2.489  12.433  1.00  0.00     0.074 A 
ATOM     68  C   UNL     1       7.833   2.525  13.884  1.00  0.00     0.031 C 
ATOM     69  C   UNL     1       7.268   3.424  11.576  1.00  0.00     0.034 A 
BRANCH  56  70
ATOM     70  C   UNL     1       4.003   5.116  15.767  1.00  0.00     0.023 A 
ATOM     71  C   UNL     1       4.421   6.433  16.028  1.00  0.00     0.012 A 
ATOM     72  C   UNL     1       4.110   4.174  16.816  1.00  0.00     0.148 A 
ATOM     73  C   UNL     1       4.885   6.803  17.295  1.00  0.00     0.002 A 
ATOM     74  C   UNL     1       4.482   4.566  18.093  1.00  0.00     0.091 A 
ATOM     75  F   UNL     1       3.967   2.868  16.545  1.00  0.00    -0.205 F 
ATOM     76  C   UNL     1       4.888   5.878  18.336  1.00  0.00     0.022 A 
BRANCH  74  77
ATOM     77  S   UNL     1       4.402   3.416  19.467  1.00  0.00     0.127 S 
ATOM     78  O   UNL     1       5.790   2.978  19.569  1.00  0.00    -0.237 OA
ATOM     79  O   UNL     1       3.940   4.275  20.558  1.00  0.00    -0.237 OA
ATOM     80  O   UNL     1       3.429   2.413  19.051  1.00  0.00    -0.744 OA
ENDBRANCH  74  77
ENDBRANCH  56  70
BRANCH  57  81
ATOM     81  C   UNL     1       7.809  -1.904  13.979  1.00  0.00     0.023 A 
ATOM     82  C   UNL     1       9.196  -1.698  14.162  1.00  0.00     0.012 A 
ATOM     83  C   UNL     1       7.193  -2.921  14.739  1.00  0.00     0.148 A 
ATOM     84  C   UNL     1       9.925  -2.419  15.114  1.00  0.00     0.002 A 
ATOM     85  C   UNL     1       7.930  -3.656  15.667  1.00  0.00     0.091 A 
ATOM     86  F   UNL     1       5.871  -3.107  14.633  1.00  0.00    -0.205 F 
ATOM     87  C   UNL     1       9.289  -3.393  15.875  1.00  0.00     0.022 A 
BRANCH  85  88
ATOM     88  S   UNL     1       7.162  -4.949  16.652  1.00  0.00     0.127 S 
ATOM     89  O   UNL     1       8.251  -5.915  16.812  1.00  0.00    -0.237 OA
ATOM     90  O   UNL     1       6.797  -4.233  17.870  1.00  0.00    -0.237 OA
ATOM     91  O   UNL     1       6.057  -5.438  15.835  1.00  0.00    -0.744 OA
ENDBRANCH  85  88
ENDBRANCH  57  81
BRANCH  69  92
ATOM     92  C   UNL     1       7.452   3.215  10.108  1.00  0.00     0.023 A 
ATOM     93  C   UNL     1       6.803   2.186   9.405  1.00  0.00     0.012 A 
ATOM     94  C   UNL     1       8.243   4.141   9.403  1.00  0.00     0.148 A 
ATOM     95  C   UNL     1       6.955   2.076   8.022  1.00  0.00     0.002 A 
ATOM     96  C   UNL     1       8.357   4.049   8.023  1.00  0.00     0.091 A 
ATOM     97  F   UNL     1       8.857   5.109  10.100  1.00  0.00    -0.205 F 
ATOM     98  C   UNL     1       7.719   3.012   7.329  1.00  0.00     0.022 A 
BRANCH  96  99
ATOM     99  S   UNL     1       9.252   5.264   7.053  1.00  0.00     0.127 S 
ATOM    100  O   UNL     1      10.365   4.476   6.526  1.00  0.00    -0.237 OA
ATOM    101  O   UNL     1       8.255   5.657   6.057  1.00  0.00    -0.237 OA
ATOM    102  O   UNL     1       9.627   6.325   7.979  1.00  0.00    -0.744 OA
ENDBRANCH  96  99
ENDBRANCH  69  92
ENDBRANCH  43  44
ENDBRANCH  36  38
ENDBRANCH  35  36
ENDBRANCH  34  35
ENDBRANCH  33  34
ENDBRANCH  32  33
ENDBRANCH  31  32
ENDBRANCH   1  31
TORSDOF 26
