REMARK SMILES O=C(N[C@@H](Cc1ccccc1)C(=O)N[C@@H](CS)C(=O)N[C@@H](CO)C(=O)OCCOCCOCCOCCOC(=O)c1ccc(-c2c3nc(c(-c4cccc(S(=O)(=O)[O-])c4F)c4ccc([nH]4)c(-c4cccc(S(=O)(=O)[O-])c4F)c4nc(c(-c5cccc(S(=O)(=O)[O-])c5F)c5ccc2[nH]5)C=C4)C=C3)cc1)c1ccc(F)cc1
REMARK SMILES IDX 30 1 29 2 28 3 27 4 26 5 24 6 25 7 21 8 20 9 18 10 19 11
REMARK SMILES IDX 15 13 14 14 12 15 13 16 4 18 3 19 1 20 2 21 104 23 105 24
REMARK SMILES IDX 110 25 106 26 109 27 107 28 108 29 5 30 6 31 7 32 11 33 8 34
REMARK SMILES IDX 10 35 9 36 16 37 17 38 22 40 23 41 31 43 32 44 33 45 34 46
REMARK SMILES IDX 35 47 36 48 37 49 38 50 39 51 40 52 41 53 42 54 103 55 43 56
REMARK SMILES IDX 102 57 44 58 45 59 46 60 96 61 47 62 101 63 95 64 97 65
REMARK SMILES IDX 48 66 100 67 94 68 93 69 49 71 81 72 61 73 80 74 62 75 65 76
REMARK SMILES IDX 79 77 98 78 63 79 64 80 78 82 99 83 66 84 50 85 51 86 59 87
REMARK SMILES IDX 52 88 54 89 60 90 53 91 55 92 56 93 57 94 58 95 82 96 83 97
REMARK SMILES IDX 91 98 84 99 86 100 92 101 85 102 87 103 88 104 89 105 90 106
REMARK SMILES IDX 67 107 68 108 76 109 69 110 71 111 77 112 70 113 72 114
REMARK SMILES IDX 73 115 74 116 75 117
REMARK H PARENT 20 12 14 17 3 22 17 39 23 42 97 70 65 81
REMARK Flexibility Score: inf
ROOT
ATOM      1  C   UNL     1       1.987   7.363  -3.577  1.00  0.00     0.188 C 
ENDROOT
BRANCH   1   2
ATOM      2  O   UNL     1       1.505   8.697  -3.679  1.00  0.00    -0.376 OA
BRANCH   2   3
ATOM      3  C   UNL     1       2.348   9.729  -4.177  1.00  0.00     0.202 C 
BRANCH   3   4
ATOM      4  C   UNL     1       3.804   9.879  -3.705  1.00  0.00     0.261 C 
BRANCH   4   5
ATOM      5  O   UNL     1       4.445   8.659  -3.313  1.00  0.00    -0.462 OA
BRANCH   5   6
ATOM      6  C   UNL     1       4.767   8.531  -1.999  1.00  0.00     0.331 C 
ATOM      7  O   UNL     1       4.614   9.395  -1.143  1.00  0.00    -0.250 OA
BRANCH   6   8
ATOM      8  C   UNL     1       5.392   7.161  -1.692  1.00  0.00     0.218 C 
BRANCH   8   9
ATOM      9  N   UNL     1       5.183   6.139  -2.728  1.00  0.00    -0.339 N 
ATOM     10  C   UNL     1       5.378   4.812  -2.502  1.00  0.00     0.244 C 
ATOM     11  O   UNL     1       6.485   4.346  -2.784  1.00  0.00    -0.273 OA
ATOM     12  H   UNL     1       4.891   6.427  -3.623  1.00  0.00     0.164 HD
BRANCH  10  13
ATOM     13  C   UNL     1       4.273   3.926  -1.852  1.00  0.00     0.181 C 
BRANCH  13  14
ATOM     14  N   UNL     1       4.842   3.314  -0.659  1.00  0.00    -0.342 N 
ATOM     15  C   UNL     1       5.248   2.026  -0.476  1.00  0.00     0.243 C 
ATOM     16  O   UNL     1       6.152   1.858   0.352  1.00  0.00    -0.273 OA
ATOM     17  H   UNL     1       4.948   3.909   0.117  1.00  0.00     0.164 HD
BRANCH  15  18
ATOM     18  C   UNL     1       4.592   0.796  -1.161  1.00  0.00     0.176 C 
BRANCH  18  19
ATOM     19  N   UNL     1       3.139   0.775  -0.948  1.00  0.00    -0.340 N 
ATOM     20  O   UNL     1       1.195   0.111  -0.004  1.00  0.00    -0.269 OA
ATOM     21  C   UNL     1       2.419   0.040  -0.032  1.00  0.00     0.251 C 
ATOM     22  H   UNL     1       2.612   1.363  -1.536  1.00  0.00     0.164 HD
BRANCH  21  23
ATOM     23  C   UNL     1       3.116  -0.920   0.859  1.00  0.00     0.040 A 
ATOM     24  C   UNL     1       4.152  -0.517   1.711  1.00  0.00     0.017 A 
ATOM     25  C   UNL     1       2.757  -2.271   0.779  1.00  0.00     0.017 A 
ATOM     26  C   UNL     1       4.910  -1.478   2.383  1.00  0.00     0.040 A 
ATOM     27  C   UNL     1       3.498  -3.226   1.478  1.00  0.00     0.040 A 
ATOM     28  C   UNL     1       4.584  -2.823   2.250  1.00  0.00     0.123 A 
ATOM     29  F   UNL     1       5.330  -3.747   2.870  1.00  0.00    -0.207 F 
ENDBRANCH  21  23
ENDBRANCH  18  19
BRANCH  18  30
ATOM     30  C   UNL     1       5.064   0.334  -2.553  1.00  0.00     0.070 C 
BRANCH  30  31
ATOM     31  C   UNL     1       4.591   1.065  -3.781  1.00  0.00    -0.045 A 
ATOM     32  C   UNL     1       5.453   1.965  -4.422  1.00  0.00     0.004 A 
ATOM     33  C   UNL     1       3.306   0.870  -4.306  1.00  0.00     0.004 A 
ATOM     34  C   UNL     1       5.012   2.727  -5.503  1.00  0.00     0.000 A 
ATOM     35  C   UNL     1       2.878   1.609  -5.412  1.00  0.00     0.000 A 
ATOM     36  C   UNL     1       3.724   2.552  -5.995  1.00  0.00     0.000 A 
ENDBRANCH  30  31
ENDBRANCH  18  30
ENDBRANCH  15  18
ENDBRANCH  13  14
BRANCH  13  37
ATOM     37  C   UNL     1       2.830   4.411  -1.714  1.00  0.00     0.101 C 
BRANCH  37  38
ATOM     38  S   UNL     1       2.406   5.490  -0.315  1.00  0.00    -0.177 SA
ATOM     39  H   UNL     1       2.562   4.805   0.850  1.00  0.00     0.102 HD
ENDBRANCH  37  38
ENDBRANCH  13  37
ENDBRANCH  10  13
ENDBRANCH   8   9
BRANCH   8  40
ATOM     40  C   UNL     1       6.894   7.383  -1.468  1.00  0.00     0.193 C 
BRANCH  40  41
ATOM     41  O   UNL     1       7.535   7.729  -2.694  1.00  0.00    -0.394 OA
ATOM     42  H   UNL     1       7.421   7.008  -3.333  1.00  0.00     0.210 HD
ENDBRANCH  40  41
ENDBRANCH   8  40
ENDBRANCH   6   8
ENDBRANCH   5   6
ENDBRANCH   4   5
ENDBRANCH   3   4
ENDBRANCH   2   3
ENDBRANCH   1   2
BRANCH   1  43
ATOM     43  C   UNL     1       2.761   6.701  -4.733  1.00  0.00     0.188 C 
BRANCH  43  44
ATOM     44  O   UNL     1       3.262   7.618  -5.679  1.00  0.00    -0.377 OA
BRANCH  44  45
ATOM     45  C   UNL     1       2.557   7.624  -6.915  1.00  0.00     0.188 C 
BRANCH  45  46
ATOM     46  C   UNL     1       1.012   7.686  -6.831  1.00  0.00     0.188 C 
BRANCH  46  47
ATOM     47  O   UNL     1       0.447   6.675  -6.013  1.00  0.00    -0.376 OA
BRANCH  47  48
ATOM     48  C   UNL     1      -0.050   5.461  -6.537  1.00  0.00     0.202 C 
BRANCH  48  49
ATOM     49  C   UNL     1       0.636   4.641  -7.645  1.00  0.00     0.261 C 
BRANCH  49  50
ATOM     50  O   UNL     1       1.583   5.299  -8.483  1.00  0.00    -0.460 OA
BRANCH  50  51
ATOM     51  C   UNL     1       1.081   5.969  -9.543  1.00  0.00     0.338 C 
ATOM     52  O   UNL     1      -0.102   6.078  -9.840  1.00  0.00    -0.246 OA
BRANCH  51  53
ATOM     53  C   UNL     1       2.173   6.740 -10.169  1.00  0.00     0.060 A 
ATOM     54  C   UNL     1       2.062   8.137 -10.217  1.00  0.00     0.016 A 
ATOM     55  C   UNL     1       3.294   6.100 -10.702  1.00  0.00     0.016 A 
ATOM     56  C   UNL     1       3.053   8.899 -10.831  1.00  0.00     0.010 A 
ATOM     57  C   UNL     1       4.270   6.862 -11.349  1.00  0.00     0.010 A 
ATOM     58  C   UNL     1       4.131   8.259 -11.450  1.00  0.00    -0.014 A 
BRANCH  58  59
ATOM     59  C   UNL     1       4.981   9.012 -12.401  1.00  0.00     0.031 A 
ATOM     60  C   UNL     1       4.663   8.895 -13.866  1.00  0.00     0.074 A 
ATOM     61  C   UNL     1       6.016   9.761 -11.983  1.00  0.00     0.049 A 
ATOM     62  N   UNL     1       5.322   9.352 -14.896  1.00  0.00    -0.248 NA
ATOM     63  C   UNL     1       3.437   8.154 -14.215  1.00  0.00     0.031 C 
ATOM     64  C   UNL     1       6.399   9.976 -10.590  1.00  0.00     0.029 A 
ATOM     65  N   UNL     1       6.959  10.450 -12.705  1.00  0.00    -0.354 N 
ATOM     66  C   UNL     1       4.620   8.916 -16.014  1.00  0.00     0.074 A 
ATOM     67  C   UNL     1       3.482   8.162 -15.538  1.00  0.00     0.031 C 
ATOM     68  C   UNL     1       7.529  10.705 -10.558  1.00  0.00     0.029 A 
ATOM     69  C   UNL     1       7.965  10.974 -11.928  1.00  0.00     0.049 A 
ATOM     70  H   UNL     1       6.919  10.559 -13.683  1.00  0.00     0.167 HD
ATOM     71  C   UNL     1       4.900   9.125 -17.320  1.00  0.00     0.034 A 
ATOM     72  C   UNL     1       9.126  11.560 -12.287  1.00  0.00     0.034 A 
ATOM     73  C   UNL     1       6.024   9.887 -17.786  1.00  0.00     0.049 A 
ATOM     74  C   UNL     1       9.434  11.746 -13.752  1.00  0.00     0.074 A 
ATOM     75  C   UNL     1       6.369  10.197 -19.089  1.00  0.00     0.029 A 
ATOM     76  N   UNL     1       6.995  10.442 -16.969  1.00  0.00    -0.354 N 
ATOM     77  N   UNL     1       8.714  11.415 -14.797  1.00  0.00    -0.248 NA
ATOM     78  C   UNL     1      10.703  12.411 -14.089  1.00  0.00     0.031 C 
ATOM     79  C   UNL     1       7.575  10.902 -19.062  1.00  0.00     0.029 A 
ATOM     80  C   UNL     1       7.951  11.078 -17.739  1.00  0.00     0.049 A 
ATOM     81  H   UNL     1       7.004  10.391 -15.986  1.00  0.00     0.167 HD
ATOM     82  C   UNL     1       9.418  11.872 -15.908  1.00  0.00     0.074 A 
ATOM     83  C   UNL     1      10.616  12.512 -15.408  1.00  0.00     0.031 C 
ATOM     84  C   UNL     1       9.105  11.766 -17.223  1.00  0.00     0.034 A 
BRANCH  71  85
ATOM     85  C   UNL     1       3.981   8.518 -18.344  1.00  0.00     0.023 A 
ATOM     86  C   UNL     1       2.691   9.050 -18.539  1.00  0.00     0.012 A 
ATOM     87  C   UNL     1       4.426   7.462 -19.163  1.00  0.00     0.148 A 
ATOM     88  C   UNL     1       1.848   8.523 -19.517  1.00  0.00     0.002 A 
ATOM     89  C   UNL     1       3.601   6.976 -20.167  1.00  0.00     0.091 A 
ATOM     90  F   UNL     1       5.648   6.956 -18.942  1.00  0.00    -0.205 F 
ATOM     91  C   UNL     1       2.308   7.497 -20.339  1.00  0.00     0.022 A 
BRANCH  89  92
ATOM     92  S   UNL     1       4.130   5.713 -21.329  1.00  0.00     0.127 S 
ATOM     93  O   UNL     1       3.257   4.596 -20.968  1.00  0.00    -0.237 OA
ATOM     94  O   UNL     1       3.824   6.336 -22.616  1.00  0.00    -0.237 OA
ATOM     95  O   UNL     1       5.548   5.498 -21.076  1.00  0.00    -0.744 OA
ENDBRANCH  89  92
ENDBRANCH  71  85
BRANCH  72  96
ATOM     96  C   UNL     1      10.095  12.010 -11.247  1.00  0.00     0.023 A 
ATOM     97  C   UNL     1      10.355  13.384 -11.080  1.00  0.00     0.012 A 
ATOM     98  C   UNL     1      10.773  11.079 -10.436  1.00  0.00     0.148 A 
ATOM     99  C   UNL     1      11.303  13.820 -10.154  1.00  0.00     0.002 A 
ATOM    100  C   UNL     1      11.672  11.524  -9.474  1.00  0.00     0.091 A 
ATOM    101  F   UNL     1      10.525   9.775 -10.621  1.00  0.00    -0.205 F 
ATOM    102  C   UNL     1      11.955  12.893  -9.345  1.00  0.00     0.022 A 
BRANCH 100 103
ATOM    103  S   UNL     1      12.465  10.411  -8.309  1.00  0.00     0.127 S 
ATOM    104  O   UNL     1      13.854  10.448  -8.758  1.00  0.00    -0.237 OA
ATOM    105  O   UNL     1      12.210  11.081  -7.034  1.00  0.00    -0.237 OA
ATOM    106  O   UNL     1      11.785   9.131  -8.463  1.00  0.00    -0.744 OA
ENDBRANCH 100 103
ENDBRANCH  72  96
BRANCH  84 107
ATOM    107  C   UNL     1      10.023  12.414 -18.226  1.00  0.00     0.023 A 
ATOM    108  C   UNL     1      11.283  11.851 -18.507  1.00  0.00     0.012 A 
ATOM    109  C   UNL     1       9.581  13.528 -18.969  1.00  0.00     0.148 A 
ATOM    110  C   UNL     1      12.100  12.403 -19.493  1.00  0.00     0.002 A 
ATOM    111  C   UNL     1      10.376  14.039 -19.986  1.00  0.00     0.091 A 
ATOM    112  F   UNL     1       8.384  14.056 -18.676  1.00  0.00    -0.205 F 
ATOM    113  C   UNL     1      11.642  13.486 -20.241  1.00  0.00     0.022 A 
BRANCH 111 114
ATOM    114  S   UNL     1       9.826  15.361 -21.070  1.00  0.00     0.127 S 
ATOM    115  O   UNL     1      10.720  16.453 -20.684  1.00  0.00    -0.237 OA
ATOM    116  O   UNL     1      10.085  14.800 -22.396  1.00  0.00    -0.237 OA
ATOM    117  O   UNL     1       8.418  15.576 -20.765  1.00  0.00    -0.744 OA
ENDBRANCH 111 114
ENDBRANCH  84 107
ENDBRANCH  58  59
ENDBRANCH  51  53
ENDBRANCH  50  51
ENDBRANCH  49  50
ENDBRANCH  48  49
ENDBRANCH  47  48
ENDBRANCH  46  47
ENDBRANCH  45  46
ENDBRANCH  44  45
ENDBRANCH  43  44
ENDBRANCH   1  43
TORSDOF 35
