REMARK SMILES CC(C)(C)c1ccc(C[N@@H+]2CCO[C@H](CC(=O)OCCOCCOCCOCCOC(=O)c3ccc(-c4c5nc(c(-c6cccc(S(=O)(=O)[O-])c6F)c6ccc([nH]6)c(-c6cccc(S(=O)(=O)[O-])c6F)c6nc(c(-c7cccc(S(=O)(=O)[O-])c7F)c7ccc4[nH]7)C=C6)C=C5)cc3)C2)cc1
REMARK SMILES IDX 23 1 22 2 21 3 20 4 19 5 18 6 16 7 17 8 15 9 14 10 10 11
REMARK SMILES IDX 11 12 96 13 12 15 13 16 9 17 8 18 5 19 6 20 98 21 7 22 97 23
REMARK SMILES IDX 2 24 1 25 3 26 4 27 24 28 25 29 26 30 27 31 28 32 29 33
REMARK SMILES IDX 30 34 31 35 32 36 33 37 34 38 95 39 35 40 94 41 36 42 37 43
REMARK SMILES IDX 38 44 88 45 39 46 93 47 87 48 89 49 40 50 92 51 86 52 85 53
REMARK SMILES IDX 41 55 73 56 53 57 72 58 54 59 57 60 71 61 90 62 55 63 56 64
REMARK SMILES IDX 70 66 91 67 58 68 42 69 43 70 51 71 44 72 46 73 52 74 45 75
REMARK SMILES IDX 47 76 48 77 49 78 50 79 74 80 75 81 83 82 76 83 78 84 84 85
REMARK SMILES IDX 77 86 79 87 80 88 81 89 82 90 59 91 60 92 68 93 61 94 63 95
REMARK SMILES IDX 69 96 62 97 64 98 65 99 66 100 67 101
REMARK H PARENT 10 14 89 54 57 65
REMARK Flexibility Score: inf
ROOT
ATOM      1  C   UNL     1       0.604  -1.116   3.682  1.00  0.00     0.188 C 
ENDROOT
BRANCH   1   2
ATOM      2  C   UNL     1       1.194  -1.440   2.309  1.00  0.00     0.188 C 
BRANCH   2   3
ATOM      3  O   UNL     1       2.609  -1.218   2.017  1.00  0.00    -0.376 OA
BRANCH   3   4
ATOM      4  C   UNL     1       3.558  -0.793   3.009  1.00  0.00     0.202 C 
BRANCH   4   5
ATOM      5  C   UNL     1       4.228   0.651   3.046  1.00  0.00     0.261 C 
BRANCH   5   6
ATOM      6  O   UNL     1       3.646   1.999   2.630  1.00  0.00    -0.463 OA
BRANCH   6   7
ATOM      7  C   UNL     1       2.659   3.093   2.903  1.00  0.00     0.308 C 
ATOM      8  O   UNL     1       3.351   4.110   2.615  1.00  0.00    -0.252 OA
BRANCH   7   9
ATOM      9  C   UNL     1       0.565   2.901   3.522  1.00  0.00     0.160 C 
BRANCH   9  10
ATOM     10  C   UNL     1      -0.366   2.812   5.016  1.00  0.00     0.184 C 
ATOM     11  N   UNL     1       1.007   3.201   7.063  1.00  0.00    -0.327 N 
ATOM     12  C   UNL     1       0.816   1.780   7.398  1.00  0.00     0.291 C 
ATOM     13  C   UNL     1      -0.137   3.668   6.283  1.00  0.00     0.295 C 
ATOM     14  H   UNL     1       1.077   3.690   7.955  1.00  0.00     0.348 HD
ATOM     15  C   UNL     1      -0.040   0.886   6.469  1.00  0.00     0.222 C 
ATOM     16  O   UNL     1      -0.756   1.473   5.379  1.00  0.00    -0.366 OA
BRANCH  11  17
ATOM     17  C   UNL     1       2.254   3.516   6.361  1.00  0.00     0.299 C 
BRANCH  17  18
ATOM     18  C   UNL     1       2.089   3.355   4.877  1.00  0.00     0.006 A 
ATOM     19  C   UNL     1       1.155   2.734   1.417  1.00  0.00    -0.043 A 
ATOM     20  C   UNL     1       1.570   1.415   2.512  1.00  0.00     0.005 A 
ATOM     21  C   UNL     1       1.161   4.389   2.053  1.00  0.00     0.005 A 
ATOM     22  C   UNL     1       2.030   1.682   4.260  1.00  0.00     0.010 A 
ATOM     23  C   UNL     1       1.584   4.707   3.794  1.00  0.00     0.010 A 
BRANCH  19  24
ATOM     24  C   UNL     1       0.666   2.257   0.028  1.00  0.00    -0.013 C 
ATOM     25  C   UNL     1       1.241   0.889  -0.462  1.00  0.00     0.016 C 
ATOM     26  C   UNL     1       1.015   3.244  -1.078  1.00  0.00     0.016 C 
ATOM     27  C   UNL     1      -0.859   2.050   0.145  1.00  0.00     0.016 C 
ENDBRANCH  19  24
ENDBRANCH  17  18
ENDBRANCH  11  17
ENDBRANCH   9  10
ENDBRANCH   7   9
ENDBRANCH   6   7
ENDBRANCH   5   6
ENDBRANCH   4   5
ENDBRANCH   3   4
ENDBRANCH   2   3
ENDBRANCH   1   2
BRANCH   1  28
ATOM     28  O   UNL     1       1.446  -1.534   4.705  1.00  0.00    -0.377 OA
BRANCH  28  29
ATOM     29  C   UNL     1       1.404  -2.912   4.954  1.00  0.00     0.188 C 
BRANCH  29  30
ATOM     30  C   UNL     1       0.973  -3.934   3.869  1.00  0.00     0.188 C 
BRANCH  30  31
ATOM     31  O   UNL     1      -0.208  -3.919   3.078  1.00  0.00    -0.376 OA
BRANCH  31  32
ATOM     32  C   UNL     1      -1.506  -3.440   3.356  1.00  0.00     0.202 C 
BRANCH  32  33
ATOM     33  C   UNL     1      -2.194  -3.539   4.719  1.00  0.00     0.261 C 
BRANCH  33  34
ATOM     34  O   UNL     1      -1.347  -3.623   5.856  1.00  0.00    -0.460 OA
BRANCH  34  35
ATOM     35  C   UNL     1      -0.920  -4.881   6.134  1.00  0.00     0.338 C 
ATOM     36  O   UNL     1      -1.149  -5.891   5.495  1.00  0.00    -0.246 OA
BRANCH  35  37
ATOM     37  C   UNL     1       0.046  -4.809   7.244  1.00  0.00     0.060 A 
ATOM     38  C   UNL     1       1.361  -5.246   7.019  1.00  0.00     0.016 A 
ATOM     39  C   UNL     1      -0.336  -4.282   8.477  1.00  0.00     0.016 A 
ATOM     40  C   UNL     1       2.297  -5.184   8.033  1.00  0.00     0.010 A 
ATOM     41  C   UNL     1       0.581  -4.301   9.523  1.00  0.00     0.010 A 
ATOM     42  C   UNL     1       1.876  -4.804   9.306  1.00  0.00    -0.014 A 
BRANCH  42  43
ATOM     43  C   UNL     1       2.694  -5.269  10.436  1.00  0.00     0.031 A 
ATOM     44  C   UNL     1       2.317  -6.582  11.060  1.00  0.00     0.074 A 
ATOM     45  C   UNL     1       3.783  -4.591  10.823  1.00  0.00     0.049 A 
ATOM     46  N   UNL     1       2.876  -7.214  12.054  1.00  0.00    -0.248 NA
ATOM     47  C   UNL     1       1.152  -7.279  10.482  1.00  0.00     0.031 C 
ATOM     48  C   UNL     1       4.257  -3.342  10.231  1.00  0.00     0.029 A 
ATOM     49  N   UNL     1       4.678  -4.863  11.819  1.00  0.00    -0.354 N 
ATOM     50  C   UNL     1       2.110  -8.357  12.245  1.00  0.00     0.074 A 
ATOM     51  C   UNL     1       1.042  -8.331  11.274  1.00  0.00     0.031 C 
ATOM     52  C   UNL     1       5.347  -2.934  10.903  1.00  0.00     0.029 A 
ATOM     53  C   UNL     1       5.618  -3.877  11.985  1.00  0.00     0.049 A 
ATOM     54  H   UNL     1       4.651  -5.683  12.363  1.00  0.00     0.167 HD
ATOM     55  C   UNL     1       2.288  -9.342  13.153  1.00  0.00     0.034 A 
ATOM     56  C   UNL     1       6.563  -3.746  12.934  1.00  0.00     0.034 A 
ATOM     57  C   UNL     1       3.352  -9.345  14.116  1.00  0.00     0.049 A 
ATOM     58  C   UNL     1       6.700  -4.827  13.971  1.00  0.00     0.074 A 
ATOM     59  C   UNL     1       3.643 -10.300  15.072  1.00  0.00     0.029 A 
ATOM     60  N   UNL     1       4.285  -8.329  14.264  1.00  0.00    -0.354 N 
ATOM     61  N   UNL     1       6.013  -5.935  14.110  1.00  0.00    -0.248 NA
ATOM     62  C   UNL     1       7.771  -4.656  14.961  1.00  0.00     0.031 C 
ATOM     63  C   UNL     1       4.712  -9.830  15.840  1.00  0.00     0.029 A 
ATOM     64  C   UNL     1       5.141  -8.623  15.309  1.00  0.00     0.049 A 
ATOM     65  H   UNL     1       4.330  -7.519  13.707  1.00  0.00     0.167 HD
ATOM     66  C   UNL     1       6.598  -6.618  15.170  1.00  0.00     0.074 A 
ATOM     67  C   UNL     1       7.707  -5.802  15.623  1.00  0.00     0.031 C 
ATOM     68  C   UNL     1       6.255  -7.809  15.721  1.00  0.00     0.034 A 
BRANCH  55  69
ATOM     69  C   UNL     1       1.290 -10.468  13.166  1.00  0.00     0.023 A 
ATOM     70  C   UNL     1       1.235 -11.389  12.100  1.00  0.00     0.012 A 
ATOM     71  C   UNL     1       0.421 -10.628  14.262  1.00  0.00     0.148 A 
ATOM     72  C   UNL     1       0.306 -12.430  12.109  1.00  0.00     0.002 A 
ATOM     73  C   UNL     1      -0.461 -11.698  14.291  1.00  0.00     0.091 A 
ATOM     74  F   UNL     1       0.469  -9.724  15.251  1.00  0.00    -0.205 F 
ATOM     75  C   UNL     1      -0.532 -12.592  13.210  1.00  0.00     0.022 A 
BRANCH  73  76
ATOM     76  S   UNL     1      -1.523 -12.037  15.698  1.00  0.00     0.127 S 
ATOM     77  O   UNL     1      -2.851 -11.828  15.122  1.00  0.00    -0.237 OA
ATOM     78  O   UNL     1      -1.198 -13.432  15.994  1.00  0.00    -0.237 OA
ATOM     79  O   UNL     1      -1.141 -11.086  16.733  1.00  0.00    -0.744 OA
ENDBRANCH  73  76
ENDBRANCH  55  69
BRANCH  56  80
ATOM     80  C   UNL     1       7.445  -2.549  12.947  1.00  0.00     0.023 A 
ATOM     81  C   UNL     1       8.824  -2.686  12.698  1.00  0.00     0.012 A 
ATOM     82  C   UNL     1       6.916  -1.271  13.212  1.00  0.00     0.148 A 
ATOM     83  C   UNL     1       9.668  -1.577  12.757  1.00  0.00     0.002 A 
ATOM     84  C   UNL     1       7.751  -0.163  13.210  1.00  0.00     0.091 A 
ATOM     85  F   UNL     1       5.601  -1.166  13.450  1.00  0.00    -0.205 F 
ATOM     86  C   UNL     1       9.131  -0.316  13.005  1.00  0.00     0.022 A 
BRANCH  84  87
ATOM     87  S   UNL     1       7.130   1.510  13.401  1.00  0.00     0.127 S 
ATOM     88  O   UNL     1       7.737   1.909  14.669  1.00  0.00    -0.237 OA
ATOM     89  O   UNL     1       7.682   2.167  12.217  1.00  0.00    -0.237 OA
ATOM     90  O   UNL     1       5.678   1.396  13.408  1.00  0.00    -0.744 OA
ENDBRANCH  84  87
ENDBRANCH  56  80
BRANCH  68  91
ATOM     91  C   UNL     1       7.137  -8.341  16.823  1.00  0.00     0.023 A 
ATOM     92  C   UNL     1       7.194  -7.698  18.075  1.00  0.00     0.012 A 
ATOM     93  C   UNL     1       7.893  -9.512  16.612  1.00  0.00     0.148 A 
ATOM     94  C   UNL     1       8.040  -8.174  19.076  1.00  0.00     0.002 A 
ATOM     95  C   UNL     1       8.681 -10.018  17.636  1.00  0.00     0.091 A 
ATOM     96  F   UNL     1       7.833 -10.105  15.411  1.00  0.00    -0.205 F 
ATOM     97  C   UNL     1       8.775  -9.338  18.860  1.00  0.00     0.022 A 
BRANCH  95  98
ATOM     98  S   UNL     1       9.578 -11.565  17.482  1.00  0.00     0.127 S 
ATOM     99  O   UNL     1      10.964 -11.101  17.436  1.00  0.00    -0.237 OA
ATOM    100  O   UNL     1       9.207 -12.259  18.715  1.00  0.00    -0.237 OA
ATOM    101  O   UNL     1       9.092 -12.195  16.262  1.00  0.00    -0.744 OA
ENDBRANCH  95  98
ENDBRANCH  68  91
ENDBRANCH  42  43
ENDBRANCH  35  37
ENDBRANCH  34  35
ENDBRANCH  33  34
ENDBRANCH  32  33
ENDBRANCH  31  32
ENDBRANCH  30  31
ENDBRANCH  29  30
ENDBRANCH  28  29
ENDBRANCH   1  28
TORSDOF 27
