REMARK SMILES O=C(CCCC[C@@H]1CCSS1)OCCOCCOCCOCCOC(=O)c1ccc(-c2c3nc(c(-c4cccc(S(=O)(=O)[O-])c4F)c4ccc([nH]4)c(-c4cccc(S(=O)(=O)[O-])c4F)c4nc(c(-c5cccc(S(=O)(=O)[O-])c5F)c5ccc2[nH]5)C=C4)C=C3)cc1
REMARK SMILES IDX 17 1 16 2 15 3 14 4 13 5 12 6 2 7 1 8 3 9 4 10 5 11 6 12
REMARK SMILES IDX 7 13 8 14 11 15 9 16 10 17 18 18 19 19 20 20 21 21 22 22
REMARK SMILES IDX 23 23 24 24 25 25 26 26 27 27 28 28 89 29 29 30 88 31 30 32
REMARK SMILES IDX 31 33 32 34 82 35 33 36 87 37 81 38 83 39 34 40 86 41 80 42
REMARK SMILES IDX 79 43 35 45 67 46 47 47 66 48 48 49 51 50 65 51 84 52 49 53
REMARK SMILES IDX 50 54 64 56 85 57 52 58 36 59 37 60 45 61 38 62 40 63 46 64
REMARK SMILES IDX 39 65 41 66 42 67 43 68 44 69 68 70 69 71 77 72 70 73 72 74
REMARK SMILES IDX 78 75 71 76 73 77 74 78 75 79 76 80 53 81 54 82 62 83 55 84
REMARK SMILES IDX 57 85 63 86 56 87 58 88 59 89 60 90 61 91
REMARK H PARENT 83 44 51 55
REMARK Flexibility Score: inf
ROOT
ATOM      1  C   UNL     1       2.151  -2.820  -0.677  1.00  0.00     0.188 C 
ENDROOT
BRANCH   1   2
ATOM      2  C   UNL     1       2.481  -1.353  -0.932  1.00  0.00     0.188 C 
BRANCH   2   3
ATOM      3  O   UNL     1       3.636  -0.851  -0.260  1.00  0.00    -0.376 OA
BRANCH   3   4
ATOM      4  C   UNL     1       3.754  -1.114   1.130  1.00  0.00     0.202 C 
BRANCH   4   5
ATOM      5  C   UNL     1       3.464   0.111   1.966  1.00  0.00     0.261 C 
BRANCH   5   6
ATOM      6  O   UNL     1       2.205   0.733   1.663  1.00  0.00    -0.463 OA
BRANCH   6   7
ATOM      7  C   UNL     1       1.897   1.617   0.696  1.00  0.00     0.305 C 
ATOM      8  O   UNL     1       0.742   2.049   0.656  1.00  0.00    -0.252 OA
BRANCH   7   9
ATOM      9  C   UNL     1       2.865   2.022  -0.402  1.00  0.00     0.123 C 
BRANCH   9  10
ATOM     10  C   UNL     1       3.906   3.102  -0.133  1.00  0.00     0.012 C 
BRANCH  10  11
ATOM     11  C   UNL     1       5.284   2.671   0.386  1.00  0.00     0.002 C 
BRANCH  11  12
ATOM     12  C   UNL     1       5.990   1.530  -0.366  1.00  0.00     0.015 C 
BRANCH  12  13
ATOM     13  C   UNL     1       6.911   1.851  -1.566  1.00  0.00     0.059 C 
ATOM     14  C   UNL     1       8.352   1.365  -1.286  1.00  0.00     0.027 C 
ATOM     15  S   UNL     1       6.982   3.594  -2.104  1.00  0.00    -0.091 SA
ATOM     16  C   UNL     1       9.384   2.091  -2.138  1.00  0.00     0.083 C 
ATOM     17  S   UNL     1       9.001   3.840  -1.940  1.00  0.00    -0.094 SA
ENDBRANCH  12  13
ENDBRANCH  11  12
ENDBRANCH  10  11
ENDBRANCH   9  10
ENDBRANCH   7   9
ENDBRANCH   6   7
ENDBRANCH   5   6
ENDBRANCH   4   5
ENDBRANCH   3   4
ENDBRANCH   2   3
ENDBRANCH   1   2
BRANCH   1  18
ATOM     18  O   UNL     1       3.110  -3.798  -1.053  1.00  0.00    -0.377 OA
BRANCH  18  19
ATOM     19  C   UNL     1       4.488  -3.483  -1.100  1.00  0.00     0.188 C 
BRANCH  19  20
ATOM     20  C   UNL     1       5.108  -3.502  -2.505  1.00  0.00     0.188 C 
BRANCH  20  21
ATOM     21  O   UNL     1       4.317  -3.068  -3.601  1.00  0.00    -0.376 OA
BRANCH  21  22
ATOM     22  C   UNL     1       3.089  -3.747  -3.859  1.00  0.00     0.202 C 
BRANCH  22  23
ATOM     23  C   UNL     1       3.010  -5.291  -3.825  1.00  0.00     0.261 C 
BRANCH  23  24
ATOM     24  O   UNL     1       3.339  -5.906  -2.562  1.00  0.00    -0.460 OA
BRANCH  24  25
ATOM     25  C   UNL     1       4.451  -6.682  -2.542  1.00  0.00     0.338 C 
ATOM     26  O   UNL     1       5.139  -6.980  -3.501  1.00  0.00    -0.246 OA
BRANCH  25  27
ATOM     27  C   UNL     1       4.885  -6.955  -1.149  1.00  0.00     0.060 A 
ATOM     28  C   UNL     1       6.190  -6.576  -0.796  1.00  0.00     0.016 A 
ATOM     29  C   UNL     1       4.086  -7.635  -0.230  1.00  0.00     0.016 A 
ATOM     30  C   UNL     1       6.712  -6.908   0.453  1.00  0.00     0.010 A 
ATOM     31  C   UNL     1       4.626  -8.002   1.015  1.00  0.00     0.010 A 
ATOM     32  C   UNL     1       5.956  -7.678   1.344  1.00  0.00    -0.014 A 
BRANCH  32  33
ATOM     33  C   UNL     1       6.659  -8.322   2.486  1.00  0.00     0.031 A 
ATOM     34  C   UNL     1       7.150  -9.738   2.317  1.00  0.00     0.074 A 
ATOM     35  C   UNL     1       6.935  -7.653   3.620  1.00  0.00     0.049 A 
ATOM     36  N   UNL     1       7.844 -10.482   3.140  1.00  0.00    -0.248 NA
ATOM     37  C   UNL     1       6.818 -10.401   1.044  1.00  0.00     0.031 C 
ATOM     38  C   UNL     1       6.532  -6.279   3.913  1.00  0.00     0.029 A 
ATOM     39  N   UNL     1       7.615  -8.051   4.747  1.00  0.00    -0.354 N 
ATOM     40  C   UNL     1       8.023 -11.699   2.491  1.00  0.00     0.074 A 
ATOM     41  C   UNL     1       7.342 -11.604   1.219  1.00  0.00     0.031 C 
ATOM     42  C   UNL     1       6.945  -5.959   5.152  1.00  0.00     0.029 A 
ATOM     43  C   UNL     1       7.631  -7.107   5.746  1.00  0.00     0.049 A 
ATOM     44  H   UNL     1       8.051  -8.930   4.830  1.00  0.00     0.167 HD
ATOM     45  C   UNL     1       8.709 -12.792   2.902  1.00  0.00     0.034 A 
ATOM     46  C   UNL     1       8.125  -7.168   7.000  1.00  0.00     0.034 A 
ATOM     47  C   UNL     1       9.386 -12.895   4.167  1.00  0.00     0.049 A 
ATOM     48  C   UNL     1       8.854  -8.411   7.450  1.00  0.00     0.074 A 
ATOM     49  C   UNL     1      10.121 -13.957   4.665  1.00  0.00     0.029 A 
ATOM     50  N   UNL     1       9.399 -11.910   5.141  1.00  0.00    -0.354 N 
ATOM     51  N   UNL     1       9.104  -9.512   6.784  1.00  0.00    -0.248 NA
ATOM     52  C   UNL     1       9.405  -8.400   8.814  1.00  0.00     0.031 C 
ATOM     53  C   UNL     1      10.552 -13.624   5.954  1.00  0.00     0.029 A 
ATOM     54  C   UNL     1      10.123 -12.339   6.240  1.00  0.00     0.049 A 
ATOM     55  H   UNL     1       8.959 -11.033   5.062  1.00  0.00     0.167 HD
ATOM     56  C   UNL     1       9.869 -10.308   7.632  1.00  0.00     0.074 A 
ATOM     57  C   UNL     1      10.067  -9.548   8.848  1.00  0.00     0.031 C 
ATOM     58  C   UNL     1      10.351 -11.560   7.431  1.00  0.00     0.034 A 
BRANCH  45  59
ATOM     59  C   UNL     1       8.782 -13.963   1.956  1.00  0.00     0.023 A 
ATOM     60  C   UNL     1       9.567 -13.869   0.788  1.00  0.00     0.012 A 
ATOM     61  C   UNL     1       8.117 -15.171   2.245  1.00  0.00     0.148 A 
ATOM     62  C   UNL     1       9.663 -14.945  -0.093  1.00  0.00     0.002 A 
ATOM     63  C   UNL     1       8.257 -16.255   1.387  1.00  0.00     0.091 A 
ATOM     64  F   UNL     1       7.360 -15.235   3.350  1.00  0.00    -0.205 F 
ATOM     65  C   UNL     1       9.017 -16.140   0.212  1.00  0.00     0.022 A 
BRANCH  63  66
ATOM     66  S   UNL     1       7.531 -17.863   1.727  1.00  0.00     0.127 S 
ATOM     67  O   UNL     1       6.535 -17.968   0.661  1.00  0.00    -0.237 OA
ATOM     68  O   UNL     1       8.681 -18.754   1.577  1.00  0.00    -0.237 OA
ATOM     69  O   UNL     1       6.991 -17.785   3.077  1.00  0.00    -0.744 OA
ENDBRANCH  63  66
ENDBRANCH  45  59
BRANCH  46  70
ATOM     70  C   UNL     1       7.955  -6.014   7.931  1.00  0.00     0.023 A 
ATOM     71  C   UNL     1       9.077  -5.282   8.366  1.00  0.00     0.012 A 
ATOM     72  C   UNL     1       6.678  -5.652   8.400  1.00  0.00     0.148 A 
ATOM     73  C   UNL     1       8.934  -4.238   9.282  1.00  0.00     0.002 A 
ATOM     74  C   UNL     1       6.535  -4.571   9.261  1.00  0.00     0.091 A 
ATOM     75  F   UNL     1       5.624  -6.373   7.992  1.00  0.00    -0.205 F 
ATOM     76  C   UNL     1       7.663  -3.876   9.721  1.00  0.00     0.022 A 
BRANCH  74  77
ATOM     77  S   UNL     1       4.927  -3.950   9.764  1.00  0.00     0.127 S 
ATOM     78  O   UNL     1       4.902  -4.298  11.182  1.00  0.00    -0.237 OA
ATOM     79  O   UNL     1       5.058  -2.521   9.479  1.00  0.00    -0.237 OA
ATOM     80  O   UNL     1       3.958  -4.642   8.925  1.00  0.00    -0.744 OA
ENDBRANCH  74  77
ENDBRANCH  46  70
BRANCH  58  81
ATOM     81  C   UNL     1      11.177 -12.177   8.533  1.00  0.00     0.023 A 
ATOM     82  C   UNL     1      10.570 -12.550   9.750  1.00  0.00     0.012 A 
ATOM     83  C   UNL     1      12.553 -12.422   8.348  1.00  0.00     0.148 A 
ATOM     84  C   UNL     1      11.328 -13.104  10.782  1.00  0.00     0.002 A 
ATOM     85  C   UNL     1      13.290 -13.026   9.360  1.00  0.00     0.091 A 
ATOM     86  F   UNL     1      13.120 -12.050   7.191  1.00  0.00    -0.205 F 
ATOM     87  C   UNL     1      12.684 -13.351  10.584  1.00  0.00     0.022 A 
BRANCH  85  88
ATOM     88  S   UNL     1      15.020 -13.469   9.158  1.00  0.00     0.127 S 
ATOM     89  O   UNL     1      15.683 -12.467   9.989  1.00  0.00    -0.237 OA
ATOM     90  O   UNL     1      15.056 -14.829   9.697  1.00  0.00    -0.237 OA
ATOM     91  O   UNL     1      15.292 -13.379   7.730  1.00  0.00    -0.744 OA
ENDBRANCH  85  88
ENDBRANCH  58  81
ENDBRANCH  32  33
ENDBRANCH  25  27
ENDBRANCH  24  25
ENDBRANCH  23  24
ENDBRANCH  22  23
ENDBRANCH  21  22
ENDBRANCH  20  21
ENDBRANCH  19  20
ENDBRANCH  18  19
ENDBRANCH   1  18
TORSDOF 27
