REMARK SMILES O=C(OCCOCCOCCOCCOC(=O)[C@@H](c1ccccc1)[C@H](C(=O)c1ccccc1)c1ccccc1)c1ccc(-c2c3nc(c(-c4cccc(S(=O)(=O)[O-])c4F)c4ccc([nH]4)c(-c4cccc(S(=O)(=O)[O-])c4F)c4nc(c(-c5cccc(S(=O)(=O)[O-])c5F)c5ccc2[nH]5)C=C4)C=C3)cc1
REMARK SMILES IDX 9 1 8 2 7 3 6 4 5 5 4 6 3 7 2 8 1 9 40 10 41 11 102 12 42 13
REMARK SMILES IDX 101 14 43 15 44 16 45 17 95 18 46 19 100 20 94 21 96 22
REMARK SMILES IDX 47 23 99 24 93 25 92 26 48 28 80 29 60 30 79 31 61 32 64 33
REMARK SMILES IDX 78 34 97 35 62 36 63 37 77 39 98 40 65 41 49 42 50 43 58 44
REMARK SMILES IDX 51 45 53 46 59 47 52 48 54 49 55 50 56 51 57 52 81 53 82 54
REMARK SMILES IDX 90 55 83 56 85 57 91 58 84 59 86 60 87 61 88 62 89 63 66 64
REMARK SMILES IDX 67 65 75 66 68 67 70 68 76 69 69 70 71 71 72 72 73 73 74 74
REMARK SMILES IDX 10 75 11 76 12 77 13 78 14 79 15 80 16 81 17 82 18 83 19 84
REMARK SMILES IDX 20 85 24 86 21 87 23 88 22 89 25 90 34 91 35 92 39 93 36 94
REMARK SMILES IDX 38 95 37 96 26 97 27 98 28 99 29 100 33 101 30 102 32 103
REMARK SMILES IDX 31 104
REMARK H PARENT 96 27 64 38
REMARK Flexibility Score: inf
ROOT
ATOM      1  O   UNL     1       7.012   2.721  -9.338  1.00  0.00    -0.377 OA
ENDROOT
BRANCH   1   2
ATOM      2  C   UNL     1       7.604   1.937 -10.370  1.00  0.00     0.188 C 
BRANCH   2   3
ATOM      3  C   UNL     1       8.364   2.684 -11.433  1.00  0.00     0.188 C 
BRANCH   3   4
ATOM      4  O   UNL     1       8.409   4.060 -11.134  1.00  0.00    -0.376 OA
BRANCH   4   5
ATOM      5  C   UNL     1       7.443   4.881 -11.754  1.00  0.00     0.202 C 
BRANCH   5   6
ATOM      6  C   UNL     1       8.137   5.682 -12.853  1.00  0.00     0.261 C 
BRANCH   6   7
ATOM      7  O   UNL     1       8.702   4.807 -13.851  1.00  0.00    -0.460 OA
BRANCH   7   8
ATOM      8  C   UNL     1       9.844   4.074 -13.823  1.00  0.00     0.338 C 
ATOM      9  O   UNL     1       9.969   3.197 -14.680  1.00  0.00    -0.246 OA
BRANCH   8  10
ATOM     10  C   UNL     1      10.978   4.247 -12.848  1.00  0.00     0.060 A 
ATOM     11  C   UNL     1      10.910   4.890 -11.609  1.00  0.00     0.016 A 
ATOM     12  C   UNL     1      12.203   3.638 -13.190  1.00  0.00     0.016 A 
ATOM     13  C   UNL     1      11.973   4.897 -10.722  1.00  0.00     0.010 A 
ATOM     14  C   UNL     1      13.315   3.713 -12.342  1.00  0.00     0.010 A 
ATOM     15  C   UNL     1      13.195   4.373 -11.117  1.00  0.00    -0.014 A 
BRANCH  15  16
ATOM     16  C   UNL     1      14.355   4.877 -10.368  1.00  0.00     0.031 A 
ATOM     17  C   UNL     1      14.961   6.155 -10.872  1.00  0.00     0.074 A 
ATOM     18  C   UNL     1      14.683   4.344  -9.181  1.00  0.00     0.049 A 
ATOM     19  N   UNL     1      15.922   6.875 -10.366  1.00  0.00    -0.248 NA
ATOM     20  C   UNL     1      14.371   6.723 -12.101  1.00  0.00     0.031 C 
ATOM     21  C   UNL     1      14.017   3.199  -8.555  1.00  0.00     0.029 A 
ATOM     22  N   UNL     1      15.638   4.716  -8.277  1.00  0.00    -0.354 N 
ATOM     23  C   UNL     1      16.082   7.945 -11.238  1.00  0.00     0.074 A 
ATOM     24  C   UNL     1      15.105   7.805 -12.288  1.00  0.00     0.031 C 
ATOM     25  C   UNL     1      14.601   2.953  -7.370  1.00  0.00     0.029 A 
ATOM     26  C   UNL     1      15.701   3.893  -7.179  1.00  0.00     0.049 A 
ATOM     27  H   UNL     1      16.225   5.497  -8.402  1.00  0.00     0.167 HD
ATOM     28  C   UNL     1      16.983   8.948 -11.170  1.00  0.00     0.034 A 
ATOM     29  C   UNL     1      16.579   3.899  -6.159  1.00  0.00     0.034 A 
ATOM     30  C   UNL     1      17.947   9.050 -10.114  1.00  0.00     0.049 A 
ATOM     31  C   UNL     1      17.631   4.979  -6.152  1.00  0.00     0.074 A 
ATOM     32  C   UNL     1      18.957   9.975  -9.951  1.00  0.00     0.029 A 
ATOM     33  N   UNL     1      18.022   8.169  -9.043  1.00  0.00    -0.354 N 
ATOM     34  N   UNL     1      17.789   5.983  -6.984  1.00  0.00    -0.248 NA
ATOM     35  C   UNL     1      18.610   4.945  -5.059  1.00  0.00     0.031 C 
ATOM     36  C   UNL     1      19.672   9.626  -8.800  1.00  0.00     0.029 A 
ATOM     37  C   UNL     1      19.071   8.519  -8.218  1.00  0.00     0.049 A 
ATOM     38  H   UNL     1      17.417   7.407  -8.895  1.00  0.00     0.167 HD
ATOM     39  C   UNL     1      18.857   6.724  -6.495  1.00  0.00     0.074 A 
ATOM     40  C   UNL     1      19.297   6.057  -5.284  1.00  0.00     0.031 C 
ATOM     41  C   UNL     1      19.432   7.846  -6.995  1.00  0.00     0.034 A 
BRANCH  28  42
ATOM     42  C   UNL     1      17.004   9.930 -12.309  1.00  0.00     0.023 A 
ATOM     43  C   UNL     1      15.968  10.872 -12.469  1.00  0.00     0.012 A 
ATOM     44  C   UNL     1      18.044   9.879 -13.257  1.00  0.00     0.148 A 
ATOM     45  C   UNL     1      15.945  11.719 -13.578  1.00  0.00     0.002 A 
ATOM     46  C   UNL     1      18.041  10.757 -14.332  1.00  0.00     0.091 A 
ATOM     47  F   UNL     1      18.999   8.950 -13.107  1.00  0.00    -0.205 F 
ATOM     48  C   UNL     1      16.984  11.666 -14.505  1.00  0.00     0.022 A 
BRANCH  46  49
ATOM     49  S   UNL     1      19.364  10.809 -15.544  1.00  0.00     0.127 S 
ATOM     50  O   UNL     1      18.682  10.347 -16.750  1.00  0.00    -0.237 OA
ATOM     51  O   UNL     1      19.719  12.227 -15.546  1.00  0.00    -0.237 OA
ATOM     52  O   UNL     1      20.407   9.920 -15.041  1.00  0.00    -0.744 OA
ENDBRANCH  46  49
ENDBRANCH  28  42
BRANCH  29  53
ATOM     53  C   UNL     1      16.510   2.865  -5.087  1.00  0.00     0.023 A 
ATOM     54  C   UNL     1      16.224   3.240  -3.760  1.00  0.00     0.012 A 
ATOM     55  C   UNL     1      16.732   1.503  -5.378  1.00  0.00     0.148 A 
ATOM     56  C   UNL     1      16.195   2.286  -2.740  1.00  0.00     0.002 A 
ATOM     57  C   UNL     1      16.648   0.551  -4.368  1.00  0.00     0.091 A 
ATOM     58  F   UNL     1      17.022   1.162  -6.642  1.00  0.00    -0.205 F 
ATOM     59  C   UNL     1      16.398   0.943  -3.044  1.00  0.00     0.022 A 
BRANCH  57  60
ATOM     60  S   UNL     1      16.787  -1.211  -4.688  1.00  0.00     0.127 S 
ATOM     61  O   UNL     1      18.061  -1.531  -4.049  1.00  0.00    -0.237 OA
ATOM     62  O   UNL     1      15.605  -1.735  -4.002  1.00  0.00    -0.237 OA
ATOM     63  O   UNL     1      16.753  -1.354  -6.137  1.00  0.00    -0.744 OA
ENDBRANCH  57  60
ENDBRANCH  29  53
BRANCH  41  64
ATOM     64  C   UNL     1      20.549   8.458  -6.198  1.00  0.00     0.023 A 
ATOM     65  C   UNL     1      21.812   7.838  -6.150  1.00  0.00     0.012 A 
ATOM     66  C   UNL     1      20.358   9.703  -5.568  1.00  0.00     0.148 A 
ATOM     67  C   UNL     1      22.861   8.433  -5.452  1.00  0.00     0.002 A 
ATOM     68  C   UNL     1      21.423  10.318  -4.928  1.00  0.00     0.091 A 
ATOM     69  F   UNL     1      19.140  10.264  -5.612  1.00  0.00    -0.205 F 
ATOM     70  C   UNL     1      22.671   9.678  -4.854  1.00  0.00     0.022 A 
BRANCH  68  71
ATOM     71  S   UNL     1      21.295  11.971  -4.240  1.00  0.00     0.127 S 
ATOM     72  O   UNL     1      21.257  11.694  -2.805  1.00  0.00    -0.237 OA
ATOM     73  O   UNL     1      22.531  12.598  -4.709  1.00  0.00    -0.237 OA
ATOM     74  O   UNL     1      20.079  12.545  -4.800  1.00  0.00    -0.744 OA
ENDBRANCH  68  71
ENDBRANCH  41  64
ENDBRANCH  15  16
ENDBRANCH   8  10
ENDBRANCH   7   8
ENDBRANCH   6   7
ENDBRANCH   5   6
ENDBRANCH   4   5
ENDBRANCH   3   4
ENDBRANCH   2   3
ENDBRANCH   1   2
BRANCH   1  75
ATOM     75  C   UNL     1       7.825   3.526  -8.474  1.00  0.00     0.188 C 
BRANCH  75  76
ATOM     76  C   UNL     1       8.946   2.862  -7.662  1.00  0.00     0.188 C 
BRANCH  76  77
ATOM     77  O   UNL     1       9.575   1.819  -8.375  1.00  0.00    -0.376 OA
BRANCH  77  78
ATOM     78  C   UNL     1       9.355   0.494  -7.894  1.00  0.00     0.202 C 
BRANCH  78  79
ATOM     79  C   UNL     1       8.013   0.102  -7.226  1.00  0.00     0.261 C 
BRANCH  79  80
ATOM     80  O   UNL     1       6.791   0.547  -7.864  1.00  0.00    -0.463 OA
BRANCH  80  81
ATOM     81  C   UNL     1       6.005   1.429  -7.183  1.00  0.00     0.314 C 
ATOM     82  O   UNL     1       6.389   2.046  -6.188  1.00  0.00    -0.252 OA
BRANCH  81  83
ATOM     83  C   UNL     1       4.518   1.461  -7.583  1.00  0.00     0.144 C 
BRANCH  83  84
ATOM     84  C   UNL     1       3.958   2.339  -8.732  1.00  0.00    -0.033 A 
ATOM     85  C   UNL     1       4.261   2.215 -10.092  1.00  0.00     0.004 A 
ATOM     86  C   UNL     1       3.051   3.377  -8.421  1.00  0.00     0.004 A 
ATOM     87  C   UNL     1       3.799   3.112 -11.070  1.00  0.00     0.000 A 
ATOM     88  C   UNL     1       2.550   4.260  -9.396  1.00  0.00     0.000 A 
ATOM     89  C   UNL     1       2.945   4.143 -10.721  1.00  0.00     0.000 A 
ENDBRANCH  83  84
BRANCH  83  90
ATOM     90  C   UNL     1       3.851   0.089  -7.250  1.00  0.00     0.110 C 
BRANCH  90  91
ATOM     91  C   UNL     1       4.200  -1.135  -8.122  1.00  0.00    -0.036 A 
ATOM     92  C   UNL     1       3.801  -2.419  -7.714  1.00  0.00     0.004 A 
ATOM     93  C   UNL     1       4.978  -1.070  -9.283  1.00  0.00     0.004 A 
ATOM     94  C   UNL     1       4.242  -3.566  -8.388  1.00  0.00     0.000 A 
ATOM     95  C   UNL     1       5.398  -2.204  -9.980  1.00  0.00     0.000 A 
ATOM     96  C   UNL     1       5.046  -3.458  -9.518  1.00  0.00     0.000 A 
ENDBRANCH  90  91
BRANCH  90  97
ATOM     97  C   UNL     1       4.216  -0.195  -5.755  1.00  0.00     0.171 C 
ATOM     98  O   UNL     1       5.043  -1.040  -5.410  1.00  0.00    -0.293 OA
BRANCH  97  99
ATOM     99  C   UNL     1       3.646   0.647  -4.665  1.00  0.00     0.018 A 
ATOM    100  C   UNL     1       4.530   1.137  -3.691  1.00  0.00     0.012 A 
ATOM    101  C   UNL     1       2.279   0.902  -4.553  1.00  0.00     0.012 A 
ATOM    102  C   UNL     1       4.052   1.865  -2.603  1.00  0.00     0.001 A 
ATOM    103  C   UNL     1       1.802   1.619  -3.449  1.00  0.00     0.001 A 
ATOM    104  C   UNL     1       2.685   2.095  -2.475  1.00  0.00     0.000 A 
ENDBRANCH  97  99
ENDBRANCH  90  97
ENDBRANCH  83  90
ENDBRANCH  81  83
ENDBRANCH  80  81
ENDBRANCH  79  80
ENDBRANCH  78  79
ENDBRANCH  77  78
ENDBRANCH  76  77
ENDBRANCH  75  76
ENDBRANCH   1  75
TORSDOF 28
