REMARK SMILES O=C(OCCOCCOCCOCCOC(=O)c1cccc(F)c1N1CCN2C(=O)NC[C@@H]2C1)c1ccc(-c2c3nc(c(-c4cccc(S(=O)(=O)[O-])c4F)c4ccc([nH]4)c(-c4cccc(S(=O)(=O)[O-])c4F)c4nc(c(-c5cccc(S(=O)(=O)[O-])c5F)c5ccc2[nH]5)C=C4)C=C3)cc1
REMARK SMILES IDX 8 1 7 2 6 3 5 4 4 5 3 6 2 7 1 8 35 9 36 10 97 11 37 12 96 13
REMARK SMILES IDX 38 14 39 15 40 16 90 17 41 18 95 19 89 20 91 21 42 22 94 23
REMARK SMILES IDX 88 24 87 25 43 27 75 28 55 29 74 30 56 31 59 32 73 33 92 34
REMARK SMILES IDX 57 35 58 36 72 38 93 39 60 40 44 41 45 42 53 43 46 44 48 45
REMARK SMILES IDX 54 46 47 47 49 48 50 49 51 50 52 51 76 52 77 53 85 54 78 55
REMARK SMILES IDX 80 56 86 57 79 58 81 59 82 60 83 61 84 62 61 63 62 64 70 65
REMARK SMILES IDX 63 66 65 67 71 68 64 69 66 70 67 71 68 72 69 73 9 74 10 75
REMARK SMILES IDX 11 76 12 77 13 78 14 79 15 80 16 81 17 82 18 83 19 84 24 85
REMARK SMILES IDX 20 86 22 87 21 88 23 89 25 90 26 91 34 92 27 93 33 94 28 95
REMARK SMILES IDX 32 96 29 97 31 98 30 99
REMARK H PARENT 91 26 59 37 31 100
REMARK Flexibility Score: inf
ROOT
ATOM      1  C   UNL     1       1.038   2.306   0.994  1.00  0.00     0.188 C 
ENDROOT
BRANCH   1   2
ATOM      2  C   UNL     1       1.583   0.997   0.422  1.00  0.00     0.188 C 
BRANCH   2   3
ATOM      3  O   UNL     1       2.985   0.960   0.122  1.00  0.00    -0.376 OA
BRANCH   3   4
ATOM      4  C   UNL     1       3.296   0.972  -1.271  1.00  0.00     0.202 C 
BRANCH   4   5
ATOM      5  C   UNL     1       3.355  -0.424  -1.904  1.00  0.00     0.261 C 
BRANCH   5   6
ATOM      6  O   UNL     1       2.171  -1.200  -1.651  1.00  0.00    -0.460 OA
BRANCH   6   7
ATOM      7  C   UNL     1       1.793  -1.885  -0.543  1.00  0.00     0.338 C 
ATOM      8  O   UNL     1       0.620  -2.254  -0.483  1.00  0.00    -0.246 OA
BRANCH   7   9
ATOM      9  C   UNL     1       2.691  -2.226   0.614  1.00  0.00     0.060 A 
ATOM     10  C   UNL     1       3.971  -1.720   0.833  1.00  0.00     0.016 A 
ATOM     11  C   UNL     1       2.174  -3.112   1.582  1.00  0.00     0.016 A 
ATOM     12  C   UNL     1       4.737  -2.126   1.917  1.00  0.00     0.010 A 
ATOM     13  C   UNL     1       2.930  -3.509   2.694  1.00  0.00     0.010 A 
ATOM     14  C   UNL     1       4.231  -3.030   2.843  1.00  0.00    -0.014 A 
BRANCH  14  15
ATOM     15  C   UNL     1       5.188  -3.565   3.825  1.00  0.00     0.031 A 
ATOM     16  C   UNL     1       5.910  -4.829   3.476  1.00  0.00     0.074 A 
ATOM     17  C   UNL     1       5.549  -2.833   4.893  1.00  0.00     0.049 A 
ATOM     18  N   UNL     1       6.867  -5.435   4.122  1.00  0.00    -0.248 NA
ATOM     19  C   UNL     1       5.537  -5.467   2.201  1.00  0.00     0.031 C 
ATOM     20  C   UNL     1       5.014  -1.513   5.228  1.00  0.00     0.029 A 
ATOM     21  N   UNL     1       6.471  -3.084   5.875  1.00  0.00    -0.354 N 
ATOM     22  C   UNL     1       7.191  -6.540   3.350  1.00  0.00     0.074 A 
ATOM     23  C   UNL     1       6.348  -6.512   2.176  1.00  0.00     0.031 C 
ATOM     24  C   UNL     1       5.609  -1.076   6.350  1.00  0.00     0.029 A 
ATOM     25  C   UNL     1       6.526  -2.105   6.837  1.00  0.00     0.049 A 
ATOM     26  H   UNL     1       7.038  -3.889   5.890  1.00  0.00     0.167 HD
ATOM     27  C   UNL     1       8.105  -7.501   3.606  1.00  0.00     0.034 A 
ATOM     28  C   UNL     1       7.213  -2.068   7.996  1.00  0.00     0.034 A 
ATOM     29  C   UNL     1       8.915  -7.529   4.789  1.00  0.00     0.049 A 
ATOM     30  C   UNL     1       8.129  -3.218   8.328  1.00  0.00     0.074 A 
ATOM     31  C   UNL     1       9.828  -8.489   5.178  1.00  0.00     0.029 A 
ATOM     32  N   UNL     1       8.887  -6.565   5.786  1.00  0.00    -0.354 N 
ATOM     33  N   UNL     1       8.433  -4.263   7.595  1.00  0.00    -0.248 NA
ATOM     34  C   UNL     1       8.804  -3.186   9.633  1.00  0.00     0.031 C 
ATOM     35  C   UNL     1      10.311  -8.134   6.440  1.00  0.00     0.029 A 
ATOM     36  C   UNL     1       9.744  -6.922   6.809  1.00  0.00     0.049 A 
ATOM     37  H   UNL     1       8.338  -5.748   5.768  1.00  0.00     0.167 HD
ATOM     38  C   UNL     1       9.358  -4.995   8.331  1.00  0.00     0.074 A 
ATOM     39  C   UNL     1       9.567  -4.271   9.569  1.00  0.00     0.031 C 
ATOM     40  C   UNL     1       9.971  -6.161   8.013  1.00  0.00     0.034 A 
BRANCH  27  41
ATOM     41  C   UNL     1       8.209  -8.629   2.622  1.00  0.00     0.023 A 
ATOM     42  C   UNL     1       8.817  -8.430   1.367  1.00  0.00     0.012 A 
ATOM     43  C   UNL     1       7.695  -9.897   2.954  1.00  0.00     0.148 A 
ATOM     44  C   UNL     1       8.880  -9.472   0.442  1.00  0.00     0.002 A 
ATOM     45  C   UNL     1       7.806 -10.942   2.047  1.00  0.00     0.091 A 
ATOM     46  F   UNL     1       7.089 -10.050   4.140  1.00  0.00    -0.205 F 
ATOM     47  C   UNL     1       8.385 -10.728   0.786  1.00  0.00     0.022 A 
BRANCH  45  48
ATOM     48  S   UNL     1       7.261 -12.608   2.429  1.00  0.00     0.127 S 
ATOM     49  O   UNL     1       6.117 -12.757   1.531  1.00  0.00    -0.237 OA
ATOM     50  O   UNL     1       8.433 -13.403   2.062  1.00  0.00    -0.237 OA
ATOM     51  O   UNL     1       6.942 -12.614   3.850  1.00  0.00    -0.744 OA
ENDBRANCH  45  48
ENDBRANCH  27  41
BRANCH  28  52
ATOM     52  C   UNL     1       7.043  -0.910   8.919  1.00  0.00     0.023 A 
ATOM     53  C   UNL     1       8.112  -0.024   9.146  1.00  0.00     0.012 A 
ATOM     54  C   UNL     1       5.799  -0.656   9.536  1.00  0.00     0.148 A 
ATOM     55  C   UNL     1       7.949   1.087   9.977  1.00  0.00     0.002 A 
ATOM     56  C   UNL     1       5.628   0.481  10.316  1.00  0.00     0.091 A 
ATOM     57  F   UNL     1       4.798  -1.520   9.319  1.00  0.00    -0.205 F 
ATOM     58  C   UNL     1       6.706   1.346  10.551  1.00  0.00     0.022 A 
BRANCH  56  59
ATOM     59  S   UNL     1       4.033   0.962  10.990  1.00  0.00     0.127 S 
ATOM     60  O   UNL     1       4.296   0.943  12.427  1.00  0.00    -0.237 OA
ATOM     61  O   UNL     1       3.857   2.295  10.413  1.00  0.00    -0.237 OA
ATOM     62  O   UNL     1       3.082  -0.034  10.517  1.00  0.00    -0.744 OA
ENDBRANCH  56  59
ENDBRANCH  28  52
BRANCH  40  63
ATOM     63  C   UNL     1      10.961  -6.744   8.987  1.00  0.00     0.023 A 
ATOM     64  C   UNL     1      10.502  -7.387  10.152  1.00  0.00     0.012 A 
ATOM     65  C   UNL     1      12.327  -6.817   8.643  1.00  0.00     0.148 A 
ATOM     66  C   UNL     1      11.389  -8.096  10.961  1.00  0.00     0.002 A 
ATOM     67  C   UNL     1      13.192  -7.573   9.422  1.00  0.00     0.091 A 
ATOM     68  F   UNL     1      12.739  -6.185   7.535  1.00  0.00    -0.205 F 
ATOM     69  C   UNL     1      12.727  -8.206  10.586  1.00  0.00     0.022 A 
BRANCH  67  70
ATOM     70  S   UNL     1      14.899  -7.879   8.950  1.00  0.00     0.127 S 
ATOM     71  O   UNL     1      15.629  -7.179  10.006  1.00  0.00    -0.237 OA
ATOM     72  O   UNL     1      14.979  -9.338   9.017  1.00  0.00    -0.237 OA
ATOM     73  O   UNL     1      15.057  -7.321   7.614  1.00  0.00    -0.744 OA
ENDBRANCH  67  70
ENDBRANCH  40  63
ENDBRANCH  14  15
ENDBRANCH   7   9
ENDBRANCH   6   7
ENDBRANCH   5   6
ENDBRANCH   4   5
ENDBRANCH   3   4
ENDBRANCH   2   3
ENDBRANCH   1   2
BRANCH   1  74
ATOM     74  O   UNL     1       1.628   3.498   0.516  1.00  0.00    -0.377 OA
BRANCH  74  75
ATOM     75  C   UNL     1       3.012   3.669   0.795  1.00  0.00     0.188 C 
BRANCH  75  76
ATOM     76  C   UNL     1       3.626   3.049   2.077  1.00  0.00     0.188 C 
BRANCH  76  77
ATOM     77  O   UNL     1       2.776   3.117   3.208  1.00  0.00    -0.376 OA
BRANCH  77  78
ATOM     78  C   UNL     1       3.206   4.024   4.216  1.00  0.00     0.202 C 
BRANCH  78  79
ATOM     79  C   UNL     1       3.001   5.482   3.808  1.00  0.00     0.261 C 
BRANCH  79  80
ATOM     80  O   UNL     1       3.712   5.920   2.624  1.00  0.00    -0.460 OA
BRANCH  80  81
ATOM     81  C   UNL     1       5.071   5.933   2.530  1.00  0.00     0.340 C 
ATOM     82  O   UNL     1       5.854   5.654   3.414  1.00  0.00    -0.246 OA
BRANCH  81  83
ATOM     83  C   UNL     1       5.387   6.313   1.107  1.00  0.00     0.086 A 
ATOM     84  C   UNL     1       4.624   7.397   0.602  1.00  0.00     0.018 A 
ATOM     85  C   UNL     1       6.313   5.636   0.263  1.00  0.00     0.088 A 
ATOM     86  C   UNL     1       4.730   7.810  -0.722  1.00  0.00     0.004 A 
ATOM     87  C   UNL     1       6.376   6.089  -1.077  1.00  0.00     0.147 A 
ATOM     88  C   UNL     1       5.609   7.149  -1.564  1.00  0.00     0.041 A 
ATOM     89  F   UNL     1       7.168   5.460  -1.960  1.00  0.00    -0.205 F 
BRANCH  85  90
ATOM     90  N   UNL     1       7.087   4.540   0.665  1.00  0.00    -0.365 N 
ATOM     91  C   UNL     1       8.564   4.576   0.438  1.00  0.00     0.138 C 
ATOM     92  C   UNL     1       6.550   3.191   0.394  1.00  0.00     0.143 C 
ATOM     93  C   UNL     1       9.329   3.387   1.108  1.00  0.00     0.143 C 
ATOM     94  C   UNL     1       7.102   2.300   1.496  1.00  0.00     0.125 C 
ATOM     95  N   UNL     1       8.533   2.190   1.325  1.00  0.00    -0.317 N 
ATOM     96  C   UNL     1       6.652   0.854   1.558  1.00  0.00     0.144 C 
ATOM     97  C   UNL     1       8.975   0.960   1.779  1.00  0.00     0.317 C 
ATOM     98  N   UNL     1       7.848   0.172   1.986  1.00  0.00    -0.336 N 
ATOM     99  O   UNL     1      10.129   0.618   1.969  1.00  0.00    -0.249 OA
ATOM    100  H   UNL     1       7.865  -0.732   2.375  1.00  0.00     0.165 HD
ENDBRANCH  85  90
ENDBRANCH  81  83
ENDBRANCH  80  81
ENDBRANCH  79  80
ENDBRANCH  78  79
ENDBRANCH  77  78
ENDBRANCH  76  77
ENDBRANCH  75  76
ENDBRANCH  74  75
ENDBRANCH   1  74
TORSDOF 24
