REMARK SMILES O=C(C[C@H]1S/C(=[NH+]/N=C/c2cccc(Cl)c2)NC1=O)OCCOCCOCCOCCOC(=O)c1ccc(-c2c3nc(c(-c4cccc(S(=O)(=O)[O-])c4F)c4ccc([nH]4)c(-c4cccc(S(=O)(=O)[O-])c4F)c4nc(c(-c5cccc(S(=O)(=O)[O-])c5F)c5ccc2[nH]5)C=C4)C=C3)cc1
REMARK SMILES IDX 26 1 25 2 24 3 23 4 22 5 21 6 20 7 2 8 1 9 3 10 4 11 5 12
REMARK SMILES IDX 18 13 6 14 17 15 19 16 7 17 8 20 9 21 10 22 11 23 16 24
REMARK SMILES IDX 12 25 14 26 13 27 15 28 27 29 28 30 29 31 30 32 31 33 32 34
REMARK SMILES IDX 33 35 34 36 35 37 36 38 97 39 37 40 96 41 38 42 39 43 40 44
REMARK SMILES IDX 90 45 41 46 95 47 89 48 91 49 42 50 94 51 88 52 87 53 43 55
REMARK SMILES IDX 75 56 55 57 74 58 56 59 59 60 73 61 92 62 57 63 58 64 72 66
REMARK SMILES IDX 93 67 60 68 44 69 45 70 53 71 46 72 48 73 54 74 47 75 49 76
REMARK SMILES IDX 50 77 51 78 52 79 76 80 77 81 85 82 78 83 80 84 86 85 79 86
REMARK SMILES IDX 81 87 82 88 83 89 84 90 61 91 62 92 70 93 63 94 65 95 71 96
REMARK SMILES IDX 64 97 66 98 67 99 68 100 69 101
REMARK H PARENT 17 18 7 19 91 54 59 65
REMARK Flexibility Score: inf
ROOT
ATOM      1  O   UNL     1       2.764   3.280   1.576  1.00  0.00    -0.377 OA
ENDROOT
BRANCH   1   2
ATOM      2  C   UNL     1       2.149   2.089   1.123  1.00  0.00     0.188 C 
BRANCH   2   3
ATOM      3  C   UNL     1       2.722   0.801   1.710  1.00  0.00     0.188 C 
BRANCH   3   4
ATOM      4  O   UNL     1       4.075   0.408   1.528  1.00  0.00    -0.376 OA
BRANCH   4   5
ATOM      5  C   UNL     1       4.816   0.388   0.326  1.00  0.00     0.202 C 
BRANCH   5   6
ATOM      6  C   UNL     1       4.175   0.248  -1.048  1.00  0.00     0.261 C 
BRANCH   6   7
ATOM      7  O   UNL     1       2.782  -0.061  -1.090  1.00  0.00    -0.463 OA
BRANCH   7   8
ATOM      8  C   UNL     1       2.191  -1.212  -0.740  1.00  0.00     0.307 C 
ATOM      9  O   UNL     1       1.018  -1.408  -1.054  1.00  0.00    -0.252 OA
BRANCH   8  10
ATOM     10  C   UNL     1       2.873  -2.173   0.202  1.00  0.00     0.150 C 
BRANCH  10  11
ATOM     11  C   UNL     1       4.157  -2.811  -0.265  1.00  0.00     0.184 C 
ATOM     12  S   UNL     1       4.502  -4.226   0.845  1.00  0.00    -0.020 SA
ATOM     13  C   UNL     1       3.955  -3.404  -1.628  1.00  0.00     0.322 C 
ATOM     14  C   UNL     1       3.844  -5.319  -0.317  1.00  0.00     0.337 C 
ATOM     15  N   UNL     1       3.668  -4.720  -1.521  1.00  0.00    -0.202 N 
ATOM     16  O   UNL     1       3.993  -2.775  -2.674  1.00  0.00    -0.246 OA
ATOM     17  N   UNL     1       3.564  -6.554  -0.089  1.00  0.00    -0.142 N 
ATOM     18  H   UNL     1       3.339  -5.230  -2.296  1.00  0.00     0.316 HD
ATOM     19  H   UNL     1       3.644  -7.012   0.779  1.00  0.00     0.343 HD
BRANCH  17  20
ATOM     20  N   UNL     1       3.131  -7.131  -1.271  1.00  0.00    -0.093 NA
ATOM     21  C   UNL     1       2.541  -8.262  -1.110  1.00  0.00     0.166 C 
BRANCH  21  22
ATOM     22  C   UNL     1       2.037  -8.948  -2.305  1.00  0.00    -0.002 A 
ATOM     23  C   UNL     1       2.442  -8.517  -3.578  1.00  0.00     0.010 A 
ATOM     24  C   UNL     1       1.143 -10.002  -2.156  1.00  0.00     0.030 A 
ATOM     25  C   UNL     1       1.952  -9.150  -4.713  1.00  0.00     0.002 A 
ATOM     26  C   UNL     1       0.654 -10.624  -3.300  1.00  0.00     0.041 A 
ATOM     27  C   UNL     1       1.055 -10.207  -4.573  1.00  0.00     0.020 A 
ATOM     28  Cl  UNL     1      -0.466 -11.920  -3.143  1.00  0.00    -0.084 Cl
ENDBRANCH  21  22
ENDBRANCH  17  20
ENDBRANCH  10  11
ENDBRANCH   8  10
ENDBRANCH   7   8
ENDBRANCH   6   7
ENDBRANCH   5   6
ENDBRANCH   4   5
ENDBRANCH   3   4
ENDBRANCH   2   3
ENDBRANCH   1   2
BRANCH   1  29
ATOM     29  C   UNL     1       4.109   3.408   1.168  1.00  0.00     0.188 C 
BRANCH  29  30
ATOM     30  C   UNL     1       5.139   3.152   2.290  1.00  0.00     0.188 C 
BRANCH  30  31
ATOM     31  O   UNL     1       4.747   2.628   3.548  1.00  0.00    -0.376 OA
BRANCH  31  32
ATOM     32  C   UNL     1       3.604   3.124   4.225  1.00  0.00     0.202 C 
BRANCH  32  33
ATOM     33  C   UNL     1       3.252   4.620   4.322  1.00  0.00     0.261 C 
BRANCH  33  34
ATOM     34  O   UNL     1       3.549   5.438   3.191  1.00  0.00    -0.460 OA
BRANCH  34  35
ATOM     35  C   UNL     1       4.718   6.116   3.233  1.00  0.00     0.338 C 
ATOM     36  O   UNL     1       5.540   6.116   4.137  1.00  0.00    -0.246 OA
BRANCH  35  37
ATOM     37  C   UNL     1       4.959   6.679   1.889  1.00  0.00     0.060 A 
ATOM     38  C   UNL     1       6.139   6.333   1.208  1.00  0.00     0.016 A 
ATOM     39  C   UNL     1       3.996   7.482   1.277  1.00  0.00     0.016 A 
ATOM     40  C   UNL     1       6.367   6.799  -0.084  1.00  0.00     0.010 A 
ATOM     41  C   UNL     1       4.246   7.989   0.004  1.00  0.00     0.010 A 
ATOM     42  C   UNL     1       5.446   7.676  -0.662  1.00  0.00    -0.014 A 
BRANCH  42  43
ATOM     43  C   UNL     1       5.843   8.502  -1.821  1.00  0.00     0.031 A 
ATOM     44  C   UNL     1       6.382   9.871  -1.527  1.00  0.00     0.074 A 
ATOM     45  C   UNL     1       5.658   8.089  -3.084  1.00  0.00     0.049 A 
ATOM     46  N   UNL     1       6.627  10.860  -2.342  1.00  0.00    -0.248 NA
ATOM     47  C   UNL     1       6.658  10.169  -0.111  1.00  0.00     0.031 C 
ATOM     48  C   UNL     1       5.158   6.776  -3.481  1.00  0.00     0.029 A 
ATOM     49  N   UNL     1       5.819   8.768  -4.266  1.00  0.00    -0.354 N 
ATOM     50  C   UNL     1       7.028  11.915  -1.533  1.00  0.00     0.074 A 
ATOM     51  C   UNL     1       7.000  11.444  -0.167  1.00  0.00     0.031 C 
ATOM     52  C   UNL     1       4.992   6.764  -4.816  1.00  0.00     0.029 A 
ATOM     53  C   UNL     1       5.334   8.082  -5.353  1.00  0.00     0.049 A 
ATOM     54  H   UNL     1       6.239   9.656  -4.328  1.00  0.00     0.167 HD
ATOM     55  C   UNL     1       7.380  13.169  -1.896  1.00  0.00     0.034 A 
ATOM     56  C   UNL     1       5.135   8.493  -6.621  1.00  0.00     0.034 A 
ATOM     57  C   UNL     1       7.397  13.626  -3.257  1.00  0.00     0.049 A 
ATOM     58  C   UNL     1       5.510   9.900  -7.008  1.00  0.00     0.074 A 
ATOM     59  C   UNL     1       7.794  14.855  -3.746  1.00  0.00     0.029 A 
ATOM     60  N   UNL     1       6.966  12.879  -4.343  1.00  0.00    -0.354 N 
ATOM     61  N   UNL     1       5.992  10.861  -6.257  1.00  0.00    -0.248 NA
ATOM     62  C   UNL     1       5.340  10.272  -8.420  1.00  0.00     0.031 C 
ATOM     63  C   UNL     1       7.556  14.870  -5.123  1.00  0.00     0.029 A 
ATOM     64  C   UNL     1       7.067  13.628  -5.501  1.00  0.00     0.049 A 
ATOM     65  H   UNL     1       6.638  11.952  -4.297  1.00  0.00     0.167 HD
ATOM     66  C   UNL     1       6.221  11.937  -7.109  1.00  0.00     0.074 A 
ATOM     67  C   UNL     1       5.826  11.507  -8.435  1.00  0.00     0.031 C 
ATOM     68  C   UNL     1       6.714  13.167  -6.821  1.00  0.00     0.034 A 
BRANCH  55  69
ATOM     69  C   UNL     1       7.742  14.130  -0.796  1.00  0.00     0.023 A 
ATOM     70  C   UNL     1       8.919  13.937  -0.042  1.00  0.00     0.012 A 
ATOM     71  C   UNL     1       6.908  15.225  -0.504  1.00  0.00     0.148 A 
ATOM     72  C   UNL     1       9.230  14.788   1.018  1.00  0.00     0.002 A 
ATOM     73  C   UNL     1       7.253  16.101   0.517  1.00  0.00     0.091 A 
ATOM     74  F   UNL     1       5.778  15.376  -1.210  1.00  0.00    -0.205 F 
ATOM     75  C   UNL     1       8.403  15.874   1.291  1.00  0.00     0.022 A 
BRANCH  73  76
ATOM     76  S   UNL     1       6.297  17.575   0.883  1.00  0.00     0.127 S 
ATOM     77  O   UNL     1       5.652  17.204   2.141  1.00  0.00    -0.237 OA
ATOM     78  O   UNL     1       7.341  18.593   1.012  1.00  0.00    -0.237 OA
ATOM     79  O   UNL     1       5.403  17.765  -0.250  1.00  0.00    -0.744 OA
ENDBRANCH  73  76
ENDBRANCH  55  69
BRANCH  56  80
ATOM     80  C   UNL     1       4.546   7.549  -7.610  1.00  0.00     0.023 A 
ATOM     81  C   UNL     1       5.352   7.012  -8.630  1.00  0.00     0.012 A 
ATOM     82  C   UNL     1       3.203   7.136  -7.502  1.00  0.00     0.148 A 
ATOM     83  C   UNL     1       4.828   6.089  -9.536  1.00  0.00     0.002 A 
ATOM     84  C   UNL     1       2.703   6.176  -8.373  1.00  0.00     0.091 A 
ATOM     85  F   UNL     1       2.453   7.669  -6.527  1.00  0.00    -0.205 F 
ATOM     86  C   UNL     1       3.509   5.662  -9.400  1.00  0.00     0.022 A 
BRANCH  84  87
ATOM     87  S   UNL     1       1.062   5.469  -8.196  1.00  0.00     0.127 S 
ATOM     88  O   UNL     1       0.424   5.876  -9.446  1.00  0.00    -0.237 OA
ATOM     89  O   UNL     1       1.366   4.042  -8.094  1.00  0.00    -0.237 OA
ATOM     90  O   UNL     1       0.503   6.059  -6.987  1.00  0.00    -0.744 OA
ENDBRANCH  84  87
ENDBRANCH  56  80
BRANCH  68  91
ATOM     91  C   UNL     1       6.928  14.133  -7.958  1.00  0.00     0.023 A 
ATOM     92  C   UNL     1       5.832  14.763  -8.576  1.00  0.00     0.012 A 
ATOM     93  C   UNL     1       8.239  14.500  -8.329  1.00  0.00     0.148 A 
ATOM     94  C   UNL     1       6.037  15.729  -9.561  1.00  0.00     0.002 A 
ATOM     95  C   UNL     1       8.435  15.501  -9.271  1.00  0.00     0.091 A 
ATOM     96  F   UNL     1       9.267  13.875  -7.737  1.00  0.00    -0.205 F 
ATOM     97  C   UNL     1       7.335  16.108  -9.897  1.00  0.00     0.022 A 
BRANCH  95  98
ATOM     98  S   UNL     1      10.066  16.127  -9.686  1.00  0.00     0.127 S 
ATOM     99  O   UNL     1      10.217  15.671 -11.067  1.00  0.00    -0.237 OA
ATOM    100  O   UNL     1       9.889  17.572  -9.536  1.00  0.00    -0.237 OA
ATOM    101  O   UNL     1      10.987  15.526  -8.731  1.00  0.00    -0.744 OA
ENDBRANCH  95  98
ENDBRANCH  68  91
ENDBRANCH  42  43
ENDBRANCH  35  37
ENDBRANCH  34  35
ENDBRANCH  33  34
ENDBRANCH  32  33
ENDBRANCH  31  32
ENDBRANCH  30  31
ENDBRANCH  29  30
ENDBRANCH   1  29
TORSDOF 26
