REMARK SMILES O=C(OCCOCCOCCOCCOC(=O)c1ccc(-c2c3nc(c(-c4cccc(S(=O)(=O)[O-])c4F)c4ccc([nH]4)c(-c4cccc(S(=O)(=O)[O-])c4F)c4nc(c(-c5cccc(S(=O)(=O)[O-])c5F)c5ccc2[nH]5)C=C4)C=C3)cc1)C1=Cc2c(ccc(Cl)c2-c2ccccc2)O[C@H]1C(F)(F)F
REMARK SMILES IDX 10 1 9 2 8 3 7 4 6 5 5 6 4 7 3 8 2 9 1 10 81 11 82 12 97 13
REMARK SMILES IDX 83 14 96 15 84 16 89 17 85 18 87 19 86 20 88 21 98 22 99 23
REMARK SMILES IDX 100 24 101 25 90 26 91 27 95 28 92 29 94 30 93 31 11 32
REMARK SMILES IDX 12 33 13 34 14 35 15 36 16 37 17 38 18 39 19 40 80 41 20 42
REMARK SMILES IDX 79 43 21 44 22 45 23 46 73 47 24 48 78 49 72 50 74 51 25 52
REMARK SMILES IDX 77 53 71 54 70 55 26 57 58 58 38 59 57 60 39 61 42 62 56 63
REMARK SMILES IDX 75 64 40 65 41 66 55 68 76 69 43 70 27 71 28 72 36 73 29 74
REMARK SMILES IDX 31 75 37 76 30 77 32 78 33 79 34 80 35 81 59 82 60 83 68 84
REMARK SMILES IDX 61 85 63 86 69 87 62 88 64 89 65 90 66 91 67 92 44 93 45 94
REMARK SMILES IDX 53 95 46 96 48 97 54 98 47 99 49 100 50 101 51 102 52 103
REMARK H PARENT 74 56 42 67
REMARK Flexibility Score: inf
ROOT
ATOM      1  C   UNL     1       4.166   3.380  -2.477  1.00  0.00     0.188 C 
ENDROOT
BRANCH   1   2
ATOM      2  O   UNL     1       3.023   2.453  -2.298  1.00  0.00    -0.377 OA
BRANCH   2   3
ATOM      3  C   UNL     1       1.614   1.427  -1.384  1.00  0.00     0.188 C 
BRANCH   3   4
ATOM      4  C   UNL     1       0.500   1.784  -0.204  1.00  0.00     0.188 C 
BRANCH   4   5
ATOM      5  O   UNL     1       0.724   1.533   1.179  1.00  0.00    -0.376 OA
BRANCH   5   6
ATOM      6  C   UNL     1       1.619   0.504   1.515  1.00  0.00     0.202 C 
BRANCH   6   7
ATOM      7  C   UNL     1       1.522  -0.863   0.805  1.00  0.00     0.261 C 
BRANCH   7   8
ATOM      8  O   UNL     1       1.729  -1.938   1.746  1.00  0.00    -0.460 OA
BRANCH   8   9
ATOM      9  C   UNL     1       2.858  -2.088   2.479  1.00  0.00     0.338 C 
ATOM     10  O   UNL     1       2.856  -2.782   3.490  1.00  0.00    -0.246 OA
BRANCH   9  11
ATOM     11  C   UNL     1       4.126  -1.475   2.031  1.00  0.00     0.087 C 
ATOM     12  C   UNL     1       4.225  -0.353   1.305  1.00  0.00     0.028 C 
ATOM     13  C   UNL     1       5.329  -1.713   2.893  1.00  0.00     0.316 C 
ATOM     14  C   UNL     1       5.280  -0.421   0.318  1.00  0.00     0.027 A 
ATOM     15  O   UNL     1       6.558  -1.582   2.085  1.00  0.00    -0.475 OA
ATOM     16  C   UNL     1       6.428  -1.116   0.782  1.00  0.00     0.128 A 
ATOM     17  C   UNL     1       5.100   0.114  -0.991  1.00  0.00     0.011 A 
ATOM     18  C   UNL     1       7.457  -1.354  -0.101  1.00  0.00     0.049 A 
ATOM     19  C   UNL     1       6.179  -0.173  -1.852  1.00  0.00     0.049 A 
ATOM     20  C   UNL     1       7.319  -0.902  -1.416  1.00  0.00     0.025 A 
ATOM     21  Cl  UNL     1       6.256   0.369  -3.492  1.00  0.00    -0.084 Cl
BRANCH  13  22
ATOM     22  C   UNL     1       5.266  -0.746   4.115  1.00  0.00     0.430 C 
ATOM     23  F   UNL     1       4.062  -0.112   4.212  1.00  0.00    -0.167 F 
ATOM     24  F   UNL     1       5.455  -1.384   5.291  1.00  0.00    -0.167 F 
ATOM     25  F   UNL     1       6.190   0.241   4.031  1.00  0.00    -0.167 F 
ENDBRANCH  13  22
BRANCH  17  26
ATOM     26  C   UNL     1       3.871   0.942  -1.404  1.00  0.00    -0.016 A 
ATOM     27  C   UNL     1       3.075   0.686  -3.023  1.00  0.00     0.009 A 
ATOM     28  C   UNL     1       3.298   2.353  -0.393  1.00  0.00     0.009 A 
ATOM     29  C   UNL     1       1.836   1.845  -3.667  1.00  0.00     0.001 A 
ATOM     30  C   UNL     1       2.056   3.534  -1.040  1.00  0.00     0.001 A 
ATOM     31  C   UNL     1       1.314   3.261  -2.669  1.00  0.00     0.000 A 
ENDBRANCH  17  26
ENDBRANCH   9  11
ENDBRANCH   8   9
ENDBRANCH   7   8
ENDBRANCH   6   7
ENDBRANCH   5   6
ENDBRANCH   4   5
ENDBRANCH   3   4
ENDBRANCH   2   3
ENDBRANCH   1   2
BRANCH   1  32
ATOM     32  C   UNL     1       5.242   3.897  -1.474  1.00  0.00     0.188 C 
BRANCH  32  33
ATOM     33  O   UNL     1       4.956   4.653  -0.312  1.00  0.00    -0.376 OA
BRANCH  33  34
ATOM     34  C   UNL     1       4.150   5.809  -0.231  1.00  0.00     0.202 C 
BRANCH  34  35
ATOM     35  C   UNL     1       3.702   6.739  -1.373  1.00  0.00     0.261 C 
BRANCH  35  36
ATOM     36  O   UNL     1       3.922   6.307  -2.706  1.00  0.00    -0.460 OA
BRANCH  36  37
ATOM     37  C   UNL     1       5.112   6.661  -3.255  1.00  0.00     0.338 C 
ATOM     38  O   UNL     1       5.949   7.383  -2.769  1.00  0.00    -0.246 OA
BRANCH  37  39
ATOM     39  C   UNL     1       5.324   5.793  -4.442  1.00  0.00     0.060 A 
ATOM     40  C   UNL     1       6.520   5.063  -4.489  1.00  0.00     0.016 A 
ATOM     41  C   UNL     1       4.343   5.608  -5.422  1.00  0.00     0.016 A 
ATOM     42  C   UNL     1       6.748   4.155  -5.519  1.00  0.00     0.010 A 
ATOM     43  C   UNL     1       4.594   4.735  -6.486  1.00  0.00     0.010 A 
ATOM     44  C   UNL     1       5.816   4.039  -6.556  1.00  0.00    -0.014 A 
BRANCH  44  45
ATOM     45  C   UNL     1       6.280   3.499  -7.855  1.00  0.00     0.031 A 
ATOM     46  C   UNL     1       6.878   4.492  -8.815  1.00  0.00     0.074 A 
ATOM     47  C   UNL     1       6.200   2.198  -8.179  1.00  0.00     0.049 A 
ATOM     48  N   UNL     1       7.312   4.315 -10.033  1.00  0.00    -0.248 NA
ATOM     49  C   UNL     1       6.995   5.881  -8.331  1.00  0.00     0.031 C 
ATOM     50  C   UNL     1       5.676   1.138  -7.323  1.00  0.00     0.029 A 
ATOM     51  N   UNL     1       6.545   1.555  -9.343  1.00  0.00    -0.354 N 
ATOM     52  C   UNL     1       7.711   5.571 -10.472  1.00  0.00     0.074 A 
ATOM     53  C   UNL     1       7.475   6.502  -9.394  1.00  0.00     0.031 C 
ATOM     54  C   UNL     1       5.703  -0.023  -8.004  1.00  0.00     0.029 A 
ATOM     55  C   UNL     1       6.209   0.221  -9.355  1.00  0.00     0.049 A 
ATOM     56  H   UNL     1       6.990   2.006 -10.097  1.00  0.00     0.167 HD
ATOM     57  C   UNL     1       8.227   5.924 -11.669  1.00  0.00     0.034 A 
ATOM     58  C   UNL     1       6.268  -0.680 -10.358  1.00  0.00     0.034 A 
ATOM     59  C   UNL     1       8.460   5.001 -12.741  1.00  0.00     0.049 A 
ATOM     60  C   UNL     1       6.803  -0.250 -11.705  1.00  0.00     0.074 A 
ATOM     61  C   UNL     1       9.012   5.251 -13.982  1.00  0.00     0.029 A 
ATOM     62  N   UNL     1       8.125   3.657 -12.709  1.00  0.00    -0.354 N 
ATOM     63  N   UNL     1       7.274   0.917 -12.076  1.00  0.00    -0.248 NA
ATOM     64  C   UNL     1       6.833  -1.268 -12.768  1.00  0.00     0.031 C 
ATOM     65  C   UNL     1       8.965   4.067 -14.722  1.00  0.00     0.029 A 
ATOM     66  C   UNL     1       8.436   3.067 -13.920  1.00  0.00     0.049 A 
ATOM     67  H   UNL     1       7.726   3.191 -11.939  1.00  0.00     0.167 HD
ATOM     68  C   UNL     1       7.685   0.764 -13.398  1.00  0.00     0.074 A 
ATOM     69  C   UNL     1       7.427  -0.614 -13.757  1.00  0.00     0.031 C 
ATOM     70  C   UNL     1       8.218   1.681 -14.243  1.00  0.00     0.034 A 
BRANCH  57  71
ATOM     71  C   UNL     1       8.547   7.377 -11.887  1.00  0.00     0.023 A 
ATOM     72  C   UNL     1       9.637   7.972 -11.220  1.00  0.00     0.012 A 
ATOM     73  C   UNL     1       7.778   8.145 -12.782  1.00  0.00     0.148 A 
ATOM     74  C   UNL     1       9.936   9.319 -11.416  1.00  0.00     0.002 A 
ATOM     75  C   UNL     1       8.115   9.471 -13.013  1.00  0.00     0.091 A 
ATOM     76  F   UNL     1       6.727   7.566 -13.380  1.00  0.00    -0.205 F 
ATOM     77  C   UNL     1       9.184  10.064 -12.321  1.00  0.00     0.022 A 
BRANCH  75  78
ATOM     78  S   UNL     1       7.260  10.489 -14.218  1.00  0.00     0.127 S 
ATOM     79  O   UNL     1       6.611  11.480 -13.360  1.00  0.00    -0.237 OA
ATOM     80  O   UNL     1       8.369  11.008 -15.019  1.00  0.00    -0.237 OA
ATOM     81  O   UNL     1       6.355   9.599 -14.932  1.00  0.00    -0.744 OA
ENDBRANCH  75  78
ENDBRANCH  57  71
BRANCH  58  82
ATOM     82  C   UNL     1       5.796  -2.080 -10.146  1.00  0.00     0.023 A 
ATOM     83  C   UNL     1       6.713  -3.148 -10.207  1.00  0.00     0.012 A 
ATOM     84  C   UNL     1       4.436  -2.360  -9.903  1.00  0.00     0.148 A 
ATOM     85  C   UNL     1       6.280  -4.468 -10.070  1.00  0.00     0.002 A 
ATOM     86  C   UNL     1       4.021  -3.671  -9.706  1.00  0.00     0.091 A 
ATOM     87  F   UNL     1       3.574  -1.335  -9.871  1.00  0.00    -0.205 F 
ATOM     88  C   UNL     1       4.937  -4.729  -9.810  1.00  0.00     0.022 A 
BRANCH  86  89
ATOM     89  S   UNL     1       2.337  -4.091  -9.243  1.00  0.00     0.127 S 
ATOM     90  O   UNL     1       1.871  -4.810 -10.425  1.00  0.00    -0.237 OA
ATOM     91  O   UNL     1       2.553  -4.924  -8.059  1.00  0.00    -0.237 OA
ATOM     92  O   UNL     1       1.673  -2.824  -8.973  1.00  0.00    -0.744 OA
ENDBRANCH  86  89
ENDBRANCH  58  82
BRANCH  70  93
ATOM     93  C   UNL     1       8.611   1.231 -15.627  1.00  0.00     0.023 A 
ATOM     94  C   UNL     1       7.621   0.941 -16.585  1.00  0.00     0.012 A 
ATOM     95  C   UNL     1       9.969   1.201 -16.003  1.00  0.00     0.148 A 
ATOM     96  C   UNL     1       7.978   0.599 -17.890  1.00  0.00     0.002 A 
ATOM     97  C   UNL     1      10.315   0.914 -17.317  1.00  0.00     0.091 A 
ATOM     98  F   UNL     1      10.896   1.472 -15.072  1.00  0.00    -0.205 F 
ATOM     99  C   UNL     1       9.322   0.599 -18.259  1.00  0.00     0.022 A 
BRANCH  97 100
ATOM    100  S   UNL     1      12.009   0.990 -17.910  1.00  0.00     0.127 S 
ATOM    101  O   UNL     1      12.283  -0.415 -18.208  1.00  0.00    -0.237 OA
ATOM    102  O   UNL     1      11.885   1.851 -19.086  1.00  0.00    -0.237 OA
ATOM    103  O   UNL     1      12.794   1.557 -16.822  1.00  0.00    -0.744 OA
ENDBRANCH  97 100
ENDBRANCH  70  93
ENDBRANCH  44  45
ENDBRANCH  37  39
ENDBRANCH  36  37
ENDBRANCH  35  36
ENDBRANCH  34  35
ENDBRANCH  33  34
ENDBRANCH  32  33
ENDBRANCH   1  32
TORSDOF 25
