REMARK SMILES Cc1ccc2ncc(/C=C/c3cc(C(=O)OCCOCCOCCOCCOC(=O)c4ccc(-c5c6nc(c(-c7cccc(S(=O)(=O)[O-])c7F)c7ccc([nH]7)c(-c7cccc(S(=O)(=O)[O-])c7F)c7nc(c(-c8cccc(S(=O)(=O)[O-])c8F)c8ccc5[nH]8)C=C7)C=C6)cc4)ncn3)n2c1
REMARK SMILES IDX 23 1 22 2 21 3 20 4 19 5 18 6 17 7 16 8 14 9 15 10 13 11
REMARK SMILES IDX 11 12 12 13 96 14 95 15 94 16 10 17 9 18 8 19 1 20 2 21 3 22
REMARK SMILES IDX 98 23 4 24 97 25 5 26 6 27 7 28 24 29 25 30 26 31 27 32
REMARK SMILES IDX 28 33 29 34 30 35 31 36 32 37 93 38 33 39 92 40 34 41 35 42
REMARK SMILES IDX 36 43 86 44 37 45 91 46 85 47 87 48 38 49 90 50 84 51 83 52
REMARK SMILES IDX 39 54 71 55 51 56 70 57 52 58 55 59 69 60 88 61 53 62 54 63
REMARK SMILES IDX 68 65 89 66 56 67 40 68 41 69 49 70 42 71 44 72 50 73 43 74
REMARK SMILES IDX 45 75 46 76 47 77 48 78 72 79 73 80 81 81 74 82 76 83 82 84
REMARK SMILES IDX 75 85 77 86 78 87 79 88 80 89 57 90 58 91 66 92 59 93 61 94
REMARK SMILES IDX 67 95 60 96 62 97 63 98 64 99 65 100
REMARK H PARENT 87 53 55 64
REMARK Flexibility Score: inf
ROOT
ATOM      1  C   UNL     1      -9.194  -1.014   3.839  1.00  0.00     0.188 C 
ENDROOT
BRANCH   1   2
ATOM      2  O   UNL     1      -8.493  -0.972   2.601  1.00  0.00    -0.377 OA
BRANCH   2   3
ATOM      3  C   UNL     1      -8.667   0.178   1.809  1.00  0.00     0.188 C 
BRANCH   3   4
ATOM      4  C   UNL     1      -9.921   0.131   0.923  1.00  0.00     0.188 C 
BRANCH   4   5
ATOM      5  O   UNL     1     -11.012  -0.658   1.342  1.00  0.00    -0.376 OA
BRANCH   5   6
ATOM      6  C   UNL     1     -11.072  -2.077   1.331  1.00  0.00     0.202 C 
BRANCH   6   7
ATOM      7  C   UNL     1      -9.975  -3.097   0.983  1.00  0.00     0.261 C 
BRANCH   7   8
ATOM      8  O   UNL     1      -8.740  -2.598   0.503  1.00  0.00    -0.459 OA
BRANCH   8   9
ATOM      9  C   UNL     1      -8.701  -2.207  -0.784  1.00  0.00     0.357 C 
ATOM     10  O   UNL     1      -9.591  -2.312  -1.617  1.00  0.00    -0.244 OA
BRANCH   9  11
ATOM     11  C   UNL     1      -7.440  -1.438  -0.936  1.00  0.00     0.152 A 
ATOM     12  C   UNL     1      -5.178  -1.118  -0.520  1.00  0.00     0.067 A 
ATOM     13  C   UNL     1      -6.295  -1.897  -0.333  1.00  0.00     0.064 A 
ATOM     14  N   UNL     1      -5.215   0.091  -1.115  1.00  0.00    -0.237 NA
ATOM     15  C   UNL     1      -6.401   0.462  -1.617  1.00  0.00     0.223 A 
ATOM     16  N   UNL     1      -7.524  -0.259  -1.594  1.00  0.00    -0.229 NA
BRANCH  12  17
ATOM     17  C   UNL     1      -3.844  -1.605  -0.151  1.00  0.00     0.030 C 
ATOM     18  C   UNL     1      -3.524  -2.890  -0.366  1.00  0.00     0.030 C 
BRANCH  18  19
ATOM     19  C   UNL     1      -2.290  -3.559  -0.177  1.00  0.00     0.065 A 
ATOM     20  C   UNL     1       1.317  -0.046   0.044  1.00  0.00     0.046 C 
ATOM     21  C   UNL     1       0.775  -1.440   0.015  1.00  0.00    -0.034 A 
ATOM     22  C   UNL     1       1.694  -2.565   0.114  1.00  0.00     0.009 A 
ATOM     23  C   UNL     1      -0.542  -1.696  -0.109  1.00  0.00     0.096 A 
ATOM     24  C   UNL     1       1.252  -3.834   0.097  1.00  0.00     0.048 A 
ATOM     25  N   UNL     1      -1.016  -3.013  -0.095  1.00  0.00    -0.300 N 
ATOM     26  C   UNL     1      -0.140  -4.102   0.001  1.00  0.00     0.137 A 
ATOM     27  N   UNL     1      -0.766  -5.254  -0.027  1.00  0.00    -0.236 NA
ATOM     28  C   UNL     1      -2.084  -4.931  -0.139  1.00  0.00     0.140 A 
ENDBRANCH  18  19
ENDBRANCH  12  17
ENDBRANCH   9  11
ENDBRANCH   8   9
ENDBRANCH   7   8
ENDBRANCH   6   7
ENDBRANCH   5   6
ENDBRANCH   4   5
ENDBRANCH   3   4
ENDBRANCH   2   3
ENDBRANCH   1   2
BRANCH   1  29
ATOM     29  C   UNL     1     -10.412  -0.102   4.119  1.00  0.00     0.188 C 
BRANCH  29  30
ATOM     30  O   UNL     1     -10.156   1.268   3.838  1.00  0.00    -0.376 OA
BRANCH  30  31
ATOM     31  C   UNL     1      -9.946   2.128   4.948  1.00  0.00     0.202 C 
BRANCH  31  32
ATOM     32  C   UNL     1      -8.746   1.820   5.863  1.00  0.00     0.261 C 
BRANCH  32  33
ATOM     33  O   UNL     1      -8.726   0.471   6.362  1.00  0.00    -0.460 OA
BRANCH  33  34
ATOM     34  C   UNL     1      -9.401   0.165   7.496  1.00  0.00     0.338 C 
ATOM     35  O   UNL     1      -9.795   0.948   8.339  1.00  0.00    -0.246 OA
BRANCH  34  36
ATOM     36  C   UNL     1      -9.879  -1.234   7.308  1.00  0.00     0.060 A 
ATOM     37  C   UNL     1      -9.038  -2.242   6.822  1.00  0.00     0.016 A 
ATOM     38  C   UNL     1     -11.270  -1.415   7.307  1.00  0.00     0.016 A 
ATOM     39  C   UNL     1      -9.606  -3.368   6.221  1.00  0.00     0.010 A 
ATOM     40  C   UNL     1     -11.831  -2.525   6.675  1.00  0.00     0.010 A 
ATOM     41  C   UNL     1     -11.005  -3.482   6.086  1.00  0.00    -0.014 A 
BRANCH  41  42
ATOM     42  C   UNL     1     -11.553  -4.741   5.551  1.00  0.00     0.031 A 
ATOM     43  C   UNL     1     -11.216  -5.896   6.430  1.00  0.00     0.074 A 
ATOM     44  C   UNL     1     -12.412  -4.910   4.519  1.00  0.00     0.049 A 
ATOM     45  N   UNL     1     -10.488  -6.930   6.161  1.00  0.00    -0.248 NA
ATOM     46  C   UNL     1     -11.622  -5.784   7.841  1.00  0.00     0.031 C 
ATOM     47  C   UNL     1     -13.114  -3.876   3.760  1.00  0.00     0.029 A 
ATOM     48  N   UNL     1     -12.935  -6.071   4.000  1.00  0.00    -0.354 N 
ATOM     49  C   UNL     1     -10.520  -7.702   7.320  1.00  0.00     0.074 A 
ATOM     50  C   UNL     1     -11.070  -6.875   8.363  1.00  0.00     0.031 C 
ATOM     51  C   UNL     1     -14.097  -4.442   3.023  1.00  0.00     0.029 A 
ATOM     52  C   UNL     1     -14.071  -5.881   3.205  1.00  0.00     0.049 A 
ATOM     53  H   UNL     1     -12.545  -6.958   4.172  1.00  0.00     0.167 HD
ATOM     54  C   UNL     1     -10.319  -9.045   7.315  1.00  0.00     0.034 A 
ATOM     55  C   UNL     1     -14.977  -6.821   2.817  1.00  0.00     0.034 A 
ATOM     56  C   UNL     1      -9.723  -9.516   6.102  1.00  0.00     0.049 A 
ATOM     57  C   UNL     1     -14.324  -8.141   2.955  1.00  0.00     0.074 A 
ATOM     58  C   UNL     1      -8.533  -9.291   5.442  1.00  0.00     0.029 A 
ATOM     59  N   UNL     1     -10.560 -10.105   5.189  1.00  0.00    -0.354 N 
ATOM     60  N   UNL     1     -13.328  -8.543   2.219  1.00  0.00    -0.248 NA
ATOM     61  C   UNL     1     -14.542  -8.880   4.186  1.00  0.00     0.031 C 
ATOM     62  C   UNL     1      -8.867  -9.325   4.058  1.00  0.00     0.029 A 
ATOM     63  C   UNL     1     -10.230  -9.608   3.957  1.00  0.00     0.049 A 
ATOM     64  H   UNL     1     -11.266 -10.763   5.383  1.00  0.00     0.167 HD
ATOM     65  C   UNL     1     -12.536  -9.274   3.091  1.00  0.00     0.074 A 
ATOM     66  C   UNL     1     -13.378  -9.528   4.256  1.00  0.00     0.031 C 
ATOM     67  C   UNL     1     -11.189  -9.358   2.906  1.00  0.00     0.034 A 
BRANCH  54  68
ATOM     68  C   UNL     1     -10.994  -9.969   8.288  1.00  0.00     0.023 A 
ATOM     69  C   UNL     1     -10.447 -11.248   8.495  1.00  0.00     0.012 A 
ATOM     70  C   UNL     1     -12.280  -9.711   8.820  1.00  0.00     0.148 A 
ATOM     71  C   UNL     1     -11.144 -12.224   9.215  1.00  0.00     0.002 A 
ATOM     72  C   UNL     1     -12.932 -10.654   9.600  1.00  0.00     0.091 A 
ATOM     73  F   UNL     1     -12.929  -8.595   8.465  1.00  0.00    -0.205 F 
ATOM     74  C   UNL     1     -12.378 -11.921   9.785  1.00  0.00     0.022 A 
BRANCH  72  75
ATOM     75  S   UNL     1     -14.505 -10.294  10.389  1.00  0.00     0.127 S 
ATOM     76  O   UNL     1     -15.427 -11.079   9.573  1.00  0.00    -0.237 OA
ATOM     77  O   UNL     1     -14.284 -10.803  11.742  1.00  0.00    -0.237 OA
ATOM     78  O   UNL     1     -14.652  -8.846  10.314  1.00  0.00    -0.744 OA
ENDBRANCH  72  75
ENDBRANCH  54  68
BRANCH  55  79
ATOM     79  C   UNL     1     -16.454  -6.727   2.607  1.00  0.00     0.023 A 
ATOM     80  C   UNL     1     -17.150  -7.821   2.040  1.00  0.00     0.012 A 
ATOM     81  C   UNL     1     -17.226  -5.720   3.226  1.00  0.00     0.148 A 
ATOM     82  C   UNL     1     -18.545  -7.935   2.142  1.00  0.00     0.002 A 
ATOM     83  C   UNL     1     -18.613  -5.830   3.312  1.00  0.00     0.091 A 
ATOM     84  F   UNL     1     -16.604  -4.699   3.825  1.00  0.00    -0.205 F 
ATOM     85  C   UNL     1     -19.276  -6.945   2.789  1.00  0.00     0.022 A 
BRANCH  83  86
ATOM     86  S   UNL     1     -19.605  -4.585   4.150  1.00  0.00     0.127 S 
ATOM     87  O   UNL     1     -20.753  -4.450   3.253  1.00  0.00    -0.237 OA
ATOM     88  O   UNL     1     -19.895  -5.236   5.424  1.00  0.00    -0.237 OA
ATOM     89  O   UNL     1     -18.763  -3.397   4.220  1.00  0.00    -0.744 OA
ENDBRANCH  83  86
ENDBRANCH  55  79
BRANCH  67  90
ATOM     90  C   UNL     1     -10.623  -8.905   1.588  1.00  0.00     0.023 A 
ATOM     91  C   UNL     1     -10.613  -7.551   1.194  1.00  0.00     0.012 A 
ATOM     92  C   UNL     1      -9.909  -9.847   0.830  1.00  0.00     0.148 A 
ATOM     93  C   UNL     1      -9.896  -7.147   0.064  1.00  0.00     0.002 A 
ATOM     94  C   UNL     1      -9.165  -9.434  -0.266  1.00  0.00     0.091 A 
ATOM     95  F   UNL     1      -9.933 -11.127   1.230  1.00  0.00    -0.205 F 
ATOM     96  C   UNL     1      -9.158  -8.085  -0.655  1.00  0.00     0.022 A 
BRANCH  94  97
ATOM     97  S   UNL     1      -8.105 -10.563  -1.170  1.00  0.00     0.127 S 
ATOM     98  O   UNL     1      -8.740 -10.591  -2.486  1.00  0.00    -0.237 OA
ATOM     99  O   UNL     1      -6.816  -9.871  -1.126  1.00  0.00    -0.237 OA
ATOM    100  O   UNL     1      -8.136 -11.824  -0.440  1.00  0.00    -0.744 OA
ENDBRANCH  94  97
ENDBRANCH  67  90
ENDBRANCH  41  42
ENDBRANCH  34  36
ENDBRANCH  33  34
ENDBRANCH  32  33
ENDBRANCH  31  32
ENDBRANCH  30  31
ENDBRANCH  29  30
ENDBRANCH   1  29
TORSDOF 25
