REMARK SMILES COC(=O)c1ccc(NC(=O)[C@@H]2CC=CC[C@@H]2C(=O)OCCOCCOCCOCCOC(=O)c2ccc(-c3c4nc(c(-c5cccc(S(=O)(=O)[O-])c5F)c5ccc([nH]5)c(-c5cccc(S(=O)(=O)[O-])c5F)c5nc(c(-c6cccc(S(=O)(=O)[O-])c6F)c6ccc3[nH]6)C=C5)C=C4)cc2)c(C)c1
REMARK SMILES IDX 25 1 24 2 23 3 22 4 21 5 20 6 18 7 19 8 17 9 12 10 13 11
REMARK SMILES IDX 14 12 16 13 15 14 10 15 9 16 11 18 8 19 5 20 6 21 100 22
REMARK SMILES IDX 7 23 98 24 99 25 3 26 4 27 2 28 1 29 26 30 27 31 28 32 29 33
REMARK SMILES IDX 30 34 31 35 32 36 33 37 34 38 35 39 36 40 97 41 37 42 96 43
REMARK SMILES IDX 38 44 39 45 40 46 90 47 41 48 95 49 89 50 91 51 42 52 94 53
REMARK SMILES IDX 88 54 87 55 43 57 75 58 55 59 74 60 56 61 59 62 73 63 92 64
REMARK SMILES IDX 57 65 58 66 72 68 93 69 60 70 44 71 45 72 53 73 46 74 48 75
REMARK SMILES IDX 54 76 47 77 49 78 50 79 51 80 52 81 76 82 77 83 85 84 78 85
REMARK SMILES IDX 80 86 86 87 79 88 81 89 82 90 83 91 84 92 61 93 62 94 70 95
REMARK SMILES IDX 63 96 65 97 71 98 64 99 66 100 67 101 68 102 69 103
REMARK H PARENT 9 17 91 56 59 67
REMARK Flexibility Score: inf
ROOT
ATOM      1  C   UNL     1       3.946   1.454   6.951  1.00  0.00     0.188 C 
ENDROOT
BRANCH   1   2
ATOM      2  C   UNL     1       4.600   2.471   7.889  1.00  0.00     0.188 C 
BRANCH   2   3
ATOM      3  O   UNL     1       3.960   3.664   8.316  1.00  0.00    -0.376 OA
BRANCH   3   4
ATOM      4  C   UNL     1       2.889   4.198   7.573  1.00  0.00     0.202 C 
BRANCH   4   5
ATOM      5  C   UNL     1       3.177   5.181   6.444  1.00  0.00     0.261 C 
BRANCH   5   6
ATOM      6  O   UNL     1       3.810   4.617   5.310  1.00  0.00    -0.463 OA
BRANCH   6   7
ATOM      7  C   UNL     1       5.097   4.566   5.530  1.00  0.00     0.310 C 
ATOM      8  O   UNL     1       5.635   5.102   6.488  1.00  0.00    -0.252 OA
BRANCH   7   9
ATOM      9  C   UNL     1       5.782   3.615   4.597  1.00  0.00     0.116 C 
ATOM     10  C   UNL     1       7.080   4.337   4.250  1.00  0.00     0.097 C 
ATOM     11  C   UNL     1       6.677   5.555   3.366  1.00  0.00     0.041 C 
ATOM     12  C   UNL     1       5.736   5.172   2.237  1.00  0.00    -0.030 C 
ATOM     13  C   UNL     1       5.107   3.056   3.343  1.00  0.00     0.043 C 
ATOM     14  C   UNL     1       5.039   4.026   2.215  1.00  0.00    -0.030 C 
BRANCH  10  15
ATOM     15  C   UNL     1       7.845   4.689   5.547  1.00  0.00     0.228 C 
ATOM     16  N   UNL     1       7.979   3.764   6.575  1.00  0.00    -0.326 N 
ATOM     17  H   UNL     1       8.131   4.181   7.454  1.00  0.00     0.169 HD
ATOM     18  O   UNL     1       8.280   5.831   5.725  1.00  0.00    -0.274 OA
BRANCH  16  19
ATOM     19  C   UNL     1       7.943   2.349   6.628  1.00  0.00     0.044 A 
ATOM     20  C   UNL     1       7.976  -0.480   6.664  1.00  0.00     0.060 A 
ATOM     21  C   UNL     1       7.801   0.195   5.471  1.00  0.00     0.018 A 
ATOM     22  C   UNL     1       8.054   0.252   7.857  1.00  0.00     0.021 A 
ATOM     23  C   UNL     1       7.875   1.579   5.460  1.00  0.00     0.027 A 
ATOM     24  C   UNL     1       7.989   1.665   7.865  1.00  0.00    -0.027 A 
ATOM     25  C   UNL     1       7.900   2.338   9.216  1.00  0.00     0.046 C 
BRANCH  20  26
ATOM     26  C   UNL     1       8.126  -1.953   6.573  1.00  0.00     0.337 C 
ATOM     27  O   UNL     1       7.986  -2.595   5.544  1.00  0.00    -0.246 OA
BRANCH  26  28
ATOM     28  O   UNL     1       8.575  -2.471   7.737  1.00  0.00    -0.465 OA
ATOM     29  C   UNL     1       7.521  -3.008   8.529  1.00  0.00     0.282 C 
ENDBRANCH  26  28
ENDBRANCH  20  26
ENDBRANCH  16  19
ENDBRANCH  10  15
ENDBRANCH   7   9
ENDBRANCH   6   7
ENDBRANCH   5   6
ENDBRANCH   4   5
ENDBRANCH   3   4
ENDBRANCH   2   3
ENDBRANCH   1   2
BRANCH   1  30
ATOM     30  O   UNL     1       3.047   0.556   7.571  1.00  0.00    -0.377 OA
BRANCH  30  31
ATOM     31  C   UNL     1       2.224   1.100   8.574  1.00  0.00     0.188 C 
BRANCH  31  32
ATOM     32  C   UNL     1       2.471   0.662  10.041  1.00  0.00     0.188 C 
BRANCH  32  33
ATOM     33  O   UNL     1       3.516  -0.241  10.271  1.00  0.00    -0.376 OA
BRANCH  33  34
ATOM     34  C   UNL     1       3.436  -1.317   9.368  1.00  0.00     0.202 C 
BRANCH  34  35
ATOM     35  C   UNL     1       2.038  -1.850   8.879  1.00  0.00     0.261 C 
BRANCH  35  36
ATOM     36  O   UNL     1       0.604  -1.279   9.143  1.00  0.00    -0.460 OA
BRANCH  36  37
ATOM     37  C   UNL     1      -0.609  -0.719   9.380  1.00  0.00     0.338 C 
ATOM     38  O   UNL     1      -1.569  -1.490   9.435  1.00  0.00    -0.246 OA
BRANCH  37  39
ATOM     39  C   UNL     1      -0.954   0.778   9.399  1.00  0.00     0.060 A 
ATOM     40  C   UNL     1      -2.092   1.258   8.766  1.00  0.00     0.016 A 
ATOM     41  C   UNL     1      -0.217   1.802   9.941  1.00  0.00     0.016 A 
ATOM     42  C   UNL     1      -2.075   2.513   8.115  1.00  0.00     0.010 A 
ATOM     43  C   UNL     1      -0.083   2.971   9.181  1.00  0.00     0.010 A 
ATOM     44  C   UNL     1      -0.904   3.227   8.081  1.00  0.00    -0.014 A 
BRANCH  44  45
ATOM     45  C   UNL     1      -0.420   4.132   6.979  1.00  0.00     0.031 A 
ATOM     46  C   UNL     1       0.061   5.550   7.448  1.00  0.00     0.074 A 
ATOM     47  C   UNL     1      -0.032   3.478   5.816  1.00  0.00     0.049 A 
ATOM     48  N   UNL     1       0.587   6.506   6.742  1.00  0.00    -0.248 NA
ATOM     49  C   UNL     1      -0.005   5.982   8.859  1.00  0.00     0.031 C 
ATOM     50  C   UNL     1       1.232   3.542   5.095  1.00  0.00     0.029 A 
ATOM     51  N   UNL     1      -0.623   2.469   5.039  1.00  0.00    -0.354 N 
ATOM     52  C   UNL     1       1.297   7.392   7.602  1.00  0.00     0.074 A 
ATOM     53  C   UNL     1       0.803   7.052   8.909  1.00  0.00     0.031 C 
ATOM     54  C   UNL     1       1.287   2.909   3.933  1.00  0.00     0.029 A 
ATOM     55  C   UNL     1      -0.005   2.408   3.752  1.00  0.00     0.049 A 
ATOM     56  H   UNL     1      -1.358   1.887   5.338  1.00  0.00     0.167 HD
ATOM     57  C   UNL     1       2.350   8.174   7.146  1.00  0.00     0.034 A 
ATOM     58  C   UNL     1      -0.583   2.671   2.558  1.00  0.00     0.034 A 
ATOM     59  C   UNL     1       2.550   7.992   5.664  1.00  0.00     0.049 A 
ATOM     60  C   UNL     1      -0.393   4.140   2.113  1.00  0.00     0.074 A 
ATOM     61  C   UNL     1       3.648   7.800   4.828  1.00  0.00     0.029 A 
ATOM     62  N   UNL     1       1.447   7.790   4.835  1.00  0.00    -0.354 N 
ATOM     63  N   UNL     1       0.425   5.038   2.643  1.00  0.00    -0.248 NA
ATOM     64  C   UNL     1      -1.115   4.694   0.980  1.00  0.00     0.031 C 
ATOM     65  C   UNL     1       3.183   7.441   3.528  1.00  0.00     0.029 A 
ATOM     66  C   UNL     1       1.801   7.431   3.549  1.00  0.00     0.049 A 
ATOM     67  H   UNL     1       0.514   7.892   5.135  1.00  0.00     0.167 HD
ATOM     68  C   UNL     1       0.222   6.290   2.070  1.00  0.00     0.074 A 
ATOM     69  C   UNL     1      -0.724   5.980   1.002  1.00  0.00     0.031 C 
ATOM     70  C   UNL     1       0.787   7.482   2.505  1.00  0.00     0.034 A 
BRANCH  57  71
ATOM     71  C   UNL     1       3.449   8.985   7.983  1.00  0.00     0.023 A 
ATOM     72  C   UNL     1       4.437   9.681   7.226  1.00  0.00     0.012 A 
ATOM     73  C   UNL     1       3.642   9.105   9.393  1.00  0.00     0.148 A 
ATOM     74  C   UNL     1       5.558  10.338   7.768  1.00  0.00     0.002 A 
ATOM     75  C   UNL     1       4.730   9.842   9.948  1.00  0.00     0.091 A 
ATOM     76  F   UNL     1       2.794   8.509  10.234  1.00  0.00    -0.205 F 
ATOM     77  C   UNL     1       5.704  10.426   9.134  1.00  0.00     0.022 A 
BRANCH  75  78
ATOM     78  S   UNL     1       4.968  10.164  11.720  1.00  0.00     0.127 S 
ATOM     79  O   UNL     1       6.327   9.669  11.958  1.00  0.00    -0.237 OA
ATOM     80  O   UNL     1       4.845  11.621  11.794  1.00  0.00    -0.237 OA
ATOM     81  O   UNL     1       3.923   9.422  12.413  1.00  0.00    -0.744 OA
ENDBRANCH  75  78
ENDBRANCH  57  71
BRANCH  58  82
ATOM     82  C   UNL     1      -1.594   1.585   2.333  1.00  0.00     0.023 A 
ATOM     83  C   UNL     1      -0.995   0.279   2.277  1.00  0.00     0.012 A 
ATOM     84  C   UNL     1      -2.767   1.738   3.075  1.00  0.00     0.148 A 
ATOM     85  C   UNL     1      -1.327  -0.699   3.227  1.00  0.00     0.002 A 
ATOM     86  C   UNL     1      -3.065   0.780   4.042  1.00  0.00     0.091 A 
ATOM     87  F   UNL     1      -3.389   2.923   3.025  1.00  0.00    -0.205 F 
ATOM     88  C   UNL     1      -2.318  -0.413   4.156  1.00  0.00     0.022 A 
BRANCH  86  89
ATOM     89  S   UNL     1      -4.102   1.252   5.422  1.00  0.00     0.127 S 
ATOM     90  O   UNL     1      -5.432   0.851   4.988  1.00  0.00    -0.237 OA
ATOM     91  O   UNL     1      -3.546   0.430   6.492  1.00  0.00    -0.237 OA
ATOM     92  O   UNL     1      -3.885   2.684   5.573  1.00  0.00    -0.744 OA
ENDBRANCH  86  89
ENDBRANCH  58  82
BRANCH  70  93
ATOM     93  C   UNL     1       0.445   8.935   2.057  1.00  0.00     0.023 A 
ATOM     94  C   UNL     1      -0.325   9.223   0.927  1.00  0.00     0.012 A 
ATOM     95  C   UNL     1       0.889  10.094   2.791  1.00  0.00     0.148 A 
ATOM     96  C   UNL     1      -0.742  10.525   0.611  1.00  0.00     0.002 A 
ATOM     97  C   UNL     1       0.456  11.383   2.495  1.00  0.00     0.091 A 
ATOM     98  F   UNL     1       1.802   9.989   3.757  1.00  0.00    -0.205 F 
ATOM     99  C   UNL     1      -0.383  11.599   1.411  1.00  0.00     0.022 A 
BRANCH  97 100
ATOM    100  S   UNL     1       0.937  12.825   3.467  1.00  0.00     0.127 S 
ATOM    101  O   UNL     1       1.741  13.573   2.500  1.00  0.00    -0.237 OA
ATOM    102  O   UNL     1      -0.363  13.425   3.771  1.00  0.00    -0.237 OA
ATOM    103  O   UNL     1       1.663  12.328   4.626  1.00  0.00    -0.744 OA
ENDBRANCH  97 100
ENDBRANCH  70  93
ENDBRANCH  44  45
ENDBRANCH  37  39
ENDBRANCH  36  37
ENDBRANCH  35  36
ENDBRANCH  34  35
ENDBRANCH  33  34
ENDBRANCH  32  33
ENDBRANCH  31  32
ENDBRANCH  30  31
ENDBRANCH   1  30
TORSDOF 27
