REMARK SMILES O=C(OCCOCCOCCOCCOC(=O)[C@@H]1[C@H](C(=O)Nc2ccccc2OC(F)F)[C@@H]2C=C[C@H]1C2)c1ccc(-c2c3nc(c(-c4cccc(S(=O)(=O)[O-])c4F)c4ccc([nH]4)c(-c4cccc(S(=O)(=O)[O-])c4F)c4nc(c(-c5cccc(S(=O)(=O)[O-])c5F)c5ccc2[nH]5)C=C4)C=C3)cc1
REMARK SMILES IDX 10 1 9 2 8 3 7 4 6 5 5 6 4 7 3 8 2 9 1 10 38 11 39 12 100 13
REMARK SMILES IDX 40 14 99 15 41 16 42 17 43 18 93 19 44 20 98 21 92 22 94 23
REMARK SMILES IDX 45 24 97 25 91 26 90 27 46 29 78 30 58 31 77 32 59 33 62 34
REMARK SMILES IDX 76 35 95 36 60 37 61 38 75 40 96 41 63 42 47 43 48 44 56 45
REMARK SMILES IDX 49 46 51 47 57 48 50 49 52 50 53 51 54 52 55 53 79 54 80 55
REMARK SMILES IDX 88 56 81 57 83 58 89 59 82 60 84 61 85 62 86 63 87 64 64 65
REMARK SMILES IDX 65 66 73 67 66 68 68 69 74 70 67 71 69 72 70 73 71 74 72 75
REMARK SMILES IDX 11 76 12 77 13 78 14 79 15 80 16 81 17 82 18 83 19 84 36 85
REMARK SMILES IDX 33 86 35 87 37 88 34 89 20 90 21 91 22 92 23 94 24 95 28 96
REMARK SMILES IDX 25 97 27 98 26 99 29 100 30 101 31 102 32 103
REMARK H PARENT 94 28 62 39 22 93
REMARK Flexibility Score: inf
ROOT
ATOM      1  C   UNL     1       5.516   1.566   2.310  1.00  0.00     0.188 C 
ENDROOT
BRANCH   1   2
ATOM      2  O   UNL     1       4.194   2.110   2.293  1.00  0.00    -0.377 OA
BRANCH   2   3
ATOM      3  C   UNL     1       3.163   1.125   2.147  1.00  0.00     0.188 C 
BRANCH   3   4
ATOM      4  C   UNL     1       2.861   0.934   0.666  1.00  0.00     0.188 C 
BRANCH   4   5
ATOM      5  O   UNL     1       4.119   0.803   0.023  1.00  0.00    -0.376 OA
BRANCH   5   6
ATOM      6  C   UNL     1       4.208   1.150  -1.339  1.00  0.00     0.202 C 
BRANCH   6   7
ATOM      7  C   UNL     1       4.109  -0.094  -2.213  1.00  0.00     0.261 C 
BRANCH   7   8
ATOM      8  O   UNL     1       2.810  -0.700  -2.080  1.00  0.00    -0.460 OA
BRANCH   8   9
ATOM      9  C   UNL     1       2.377  -1.663  -1.231  1.00  0.00     0.338 C 
ATOM     10  O   UNL     1       1.177  -1.941  -1.264  1.00  0.00    -0.246 OA
BRANCH   9  11
ATOM     11  C   UNL     1       3.223  -2.389  -0.220  1.00  0.00     0.060 A 
ATOM     12  C   UNL     1       4.466  -1.976   0.264  1.00  0.00     0.016 A 
ATOM     13  C   UNL     1       2.662  -3.545   0.356  1.00  0.00     0.016 A 
ATOM     14  C   UNL     1       5.119  -2.647   1.286  1.00  0.00     0.010 A 
ATOM     15  C   UNL     1       3.333  -4.262   1.356  1.00  0.00     0.010 A 
ATOM     16  C   UNL     1       4.576  -3.814   1.808  1.00  0.00    -0.014 A 
BRANCH  16  17
ATOM     17  C   UNL     1       5.482  -4.639   2.622  1.00  0.00     0.031 A 
ATOM     18  C   UNL     1       6.235  -5.725   1.912  1.00  0.00     0.074 A 
ATOM     19  C   UNL     1       5.774  -4.279   3.884  1.00  0.00     0.049 A 
ATOM     20  N   UNL     1       7.131  -6.550   2.375  1.00  0.00    -0.248 NA
ATOM     21  C   UNL     1       5.965  -5.878   0.469  1.00  0.00     0.031 C 
ATOM     22  C   UNL     1       5.190  -3.137   4.592  1.00  0.00     0.029 A 
ATOM     23  N   UNL     1       6.653  -4.818   4.783  1.00  0.00    -0.354 N 
ATOM     24  C   UNL     1       7.506  -7.337   1.293  1.00  0.00     0.074 A 
ATOM     25  C   UNL     1       6.753  -6.890   0.147  1.00  0.00     0.031 C 
ATOM     26  C   UNL     1       5.718  -3.072   5.826  1.00  0.00     0.029 A 
ATOM     27  C   UNL     1       6.634  -4.193   6.008  1.00  0.00     0.049 A 
ATOM     28  H   UNL     1       7.243  -5.578   4.573  1.00  0.00     0.167 HD
ATOM     29  C   UNL     1       8.405  -8.345   1.266  1.00  0.00     0.034 A 
ATOM     30  C   UNL     1       7.261  -4.529   7.151  1.00  0.00     0.034 A 
ATOM     31  C   UNL     1       9.134  -8.771   2.426  1.00  0.00     0.049 A 
ATOM     32  C   UNL     1       8.182  -5.722   7.117  1.00  0.00     0.074 A 
ATOM     33  C   UNL     1      10.011  -9.829   2.556  1.00  0.00     0.029 A 
ATOM     34  N   UNL     1       9.056  -8.152   3.666  1.00  0.00    -0.354 N 
ATOM     35  N   UNL     1       8.522  -6.474   6.095  1.00  0.00    -0.248 NA
ATOM     36  C   UNL     1       8.823  -6.103   8.381  1.00  0.00     0.031 C 
ATOM     37  C   UNL     1      10.440  -9.868   3.887  1.00  0.00     0.029 A 
ATOM     38  C   UNL     1       9.865  -8.807   4.573  1.00  0.00     0.049 A 
ATOM     39  H   UNL     1       8.505  -7.361   3.869  1.00  0.00     0.167 HD
ATOM     40  C   UNL     1       9.432  -7.401   6.586  1.00  0.00     0.074 A 
ATOM     41  C   UNL     1       9.618  -7.089   7.991  1.00  0.00     0.031 C 
ATOM     42  C   UNL     1      10.046  -8.431   5.952  1.00  0.00     0.034 A 
BRANCH  29  43
ATOM     43  C   UNL     1       8.594  -9.065  -0.040  1.00  0.00     0.023 A 
ATOM     44  C   UNL     1       9.286  -8.445  -1.100  1.00  0.00     0.012 A 
ATOM     45  C   UNL     1       8.065 -10.357  -0.221  1.00  0.00     0.148 A 
ATOM     46  C   UNL     1       9.419  -9.088  -2.331  1.00  0.00     0.002 A 
ATOM     47  C   UNL     1       8.239 -11.008  -1.434  1.00  0.00     0.091 A 
ATOM     48  F   UNL     1       7.384 -10.914   0.791  1.00  0.00    -0.205 F 
ATOM     49  C   UNL     1       8.903 -10.371  -2.495  1.00  0.00     0.022 A 
BRANCH  47  50
ATOM     50  S   UNL     1       7.662 -12.682  -1.734  1.00  0.00     0.127 S 
ATOM     51  O   UNL     1       6.692 -12.475  -2.805  1.00  0.00    -0.237 OA
ATOM     52  O   UNL     1       8.889 -13.359  -2.137  1.00  0.00    -0.237 OA
ATOM     53  O   UNL     1       7.091 -13.144  -0.469  1.00  0.00    -0.744 OA
ENDBRANCH  47  50
ENDBRANCH  29  43
BRANCH  30  54
ATOM     54  C   UNL     1       7.011  -3.774   8.415  1.00  0.00     0.023 A 
ATOM     55  C   UNL     1       8.062  -3.099   9.064  1.00  0.00     0.012 A 
ATOM     56  C   UNL     1       5.726  -3.750   8.997  1.00  0.00     0.148 A 
ATOM     57  C   UNL     1       7.851  -2.459  10.288  1.00  0.00     0.002 A 
ATOM     58  C   UNL     1       5.508  -3.058  10.182  1.00  0.00     0.091 A 
ATOM     59  F   UNL     1       4.737  -4.418   8.385  1.00  0.00    -0.205 F 
ATOM     60  C   UNL     1       6.573  -2.431  10.843  1.00  0.00     0.022 A 
BRANCH  58  61
ATOM     61  S   UNL     1       3.869  -2.869  10.894  1.00  0.00     0.127 S 
ATOM     62  O   UNL     1       3.939  -3.760  12.048  1.00  0.00    -0.237 OA
ATOM     63  O   UNL     1       3.840  -1.442  11.216  1.00  0.00    -0.237 OA
ATOM     64  O   UNL     1       2.938  -3.261   9.843  1.00  0.00    -0.744 OA
ENDBRANCH  58  61
ENDBRANCH  30  54
BRANCH  42  65
ATOM     65  C   UNL     1      10.997  -9.264   6.767  1.00  0.00     0.023 A 
ATOM     66  C   UNL     1      10.500 -10.136   7.754  1.00  0.00     0.012 A 
ATOM     67  C   UNL     1      12.379  -9.224   6.503  1.00  0.00     0.148 A 
ATOM     68  C   UNL     1      11.372 -10.927   8.499  1.00  0.00     0.002 A 
ATOM     69  C   UNL     1      13.235 -10.059   7.206  1.00  0.00     0.091 A 
ATOM     70  F   UNL     1      12.829  -8.372   5.569  1.00  0.00    -0.205 F 
ATOM     71  C   UNL     1      12.736 -10.898   8.216  1.00  0.00     0.022 A 
BRANCH  69  72
ATOM     72  S   UNL     1      14.986 -10.168   6.830  1.00  0.00     0.127 S 
ATOM     73  O   UNL     1      15.580  -9.477   7.973  1.00  0.00    -0.237 OA
ATOM     74  O   UNL     1      15.207 -11.615   6.808  1.00  0.00    -0.237 OA
ATOM     75  O   UNL     1      15.161  -9.512   5.541  1.00  0.00    -0.744 OA
ENDBRANCH  69  72
ENDBRANCH  42  65
ENDBRANCH  16  17
ENDBRANCH   9  11
ENDBRANCH   8   9
ENDBRANCH   7   8
ENDBRANCH   6   7
ENDBRANCH   5   6
ENDBRANCH   4   5
ENDBRANCH   3   4
ENDBRANCH   2   3
ENDBRANCH   1   2
BRANCH   1  76
ATOM     76  C   UNL     1       6.092   1.395   3.712  1.00  0.00     0.188 C 
BRANCH  76  77
ATOM     77  O   UNL     1       5.210   0.785   4.638  1.00  0.00    -0.376 OA
BRANCH  77  78
ATOM     78  C   UNL     1       4.176   1.603   5.188  1.00  0.00     0.202 C 
BRANCH  78  79
ATOM     79  C   UNL     1       4.400   3.128   5.304  1.00  0.00     0.261 C 
BRANCH  79  80
ATOM     80  O   UNL     1       4.290   3.889   4.056  1.00  0.00    -0.463 OA
BRANCH  80  81
ATOM     81  C   UNL     1       5.110   4.950   3.862  1.00  0.00     0.310 C 
ATOM     82  O   UNL     1       6.071   5.143   4.612  1.00  0.00    -0.252 OA
BRANCH  81  83
ATOM     83  C   UNL     1       4.860   5.919   2.650  1.00  0.00     0.119 C 
ATOM     84  C   UNL     1       3.983   7.238   2.427  1.00  0.00     0.100 C 
ATOM     85  C   UNL     1       5.351   5.570   1.202  1.00  0.00     0.027 C 
ATOM     86  C   UNL     1       4.254   7.527   0.905  1.00  0.00     0.025 C 
ATOM     87  C   UNL     1       4.223   5.334   0.227  1.00  0.00    -0.027 C 
ATOM     88  C   UNL     1       5.688   7.003   0.703  1.00  0.00     0.017 C 
ATOM     89  C   UNL     1       3.573   6.495   0.049  1.00  0.00    -0.027 C 
BRANCH  84  90
ATOM     90  C   UNL     1       2.594   7.855   2.821  1.00  0.00     0.229 C 
ATOM     91  O   UNL     1       2.614   8.999   3.317  1.00  0.00    -0.274 OA
ATOM     92  N   UNL     1       1.331   7.436   2.505  1.00  0.00    -0.323 N 
ATOM     93  H   UNL     1       0.631   8.117   2.636  1.00  0.00     0.170 HD
BRANCH  92  94
ATOM     94  C   UNL     1       0.866   6.215   2.031  1.00  0.00     0.084 A 
ATOM     95  C   UNL     1      -0.243   6.130   1.186  1.00  0.00     0.030 A 
ATOM     96  C   UNL     1       1.531   5.069   2.344  1.00  0.00     0.149 A 
ATOM     97  C   UNL     1      -0.407   4.996   0.382  1.00  0.00     0.002 A 
ATOM     98  C   UNL     1       1.516   4.051   1.416  1.00  0.00     0.049 A 
ATOM     99  C   UNL     1       0.563   4.007   0.408  1.00  0.00     0.004 A 
BRANCH  96 100
ATOM    100  O   UNL     1       2.241   4.883   3.470  1.00  0.00    -0.433 OA
BRANCH 100 101
ATOM    101  C   UNL     1       1.785   5.423   4.711  1.00  0.00     0.542 C 
ATOM    102  F   UNL     1       2.582   6.473   5.030  1.00  0.00    -0.167 F 
ATOM    103  F   UNL     1       0.506   5.857   4.662  1.00  0.00    -0.167 F 
ENDBRANCH 100 101
ENDBRANCH  96 100
ENDBRANCH  92  94
ENDBRANCH  84  90
ENDBRANCH  81  83
ENDBRANCH  80  81
ENDBRANCH  79  80
ENDBRANCH  78  79
ENDBRANCH  77  78
ENDBRANCH  76  77
ENDBRANCH   1  76
TORSDOF 27
