REMARK SMILES Cc1cccc(C)c1Nc1ccccc1CC(=O)OCCOCCOCCOCCOC(=O)c1ccc(-c2c3nc(c(-c4cccc(S(=O)(=O)[O-])c4F)c4ccc([nH]4)c(-c4cccc(S(=O)(=O)[O-])c4F)c4nc(c(-c5cccc(S(=O)(=O)[O-])c5F)c5ccc2[nH]5)C=C4)C=C3)cc1
REMARK SMILES IDX 25 1 24 2 23 3 22 4 21 5 20 6 19 7 17 8 18 9 16 10 15 11
REMARK SMILES IDX 10 12 11 13 12 14 14 15 13 16 9 17 8 19 1 20 2 21 3 22 4 23
REMARK SMILES IDX 6 24 5 25 7 26 26 27 27 28 28 29 29 30 30 31 31 32 32 33
REMARK SMILES IDX 33 34 34 35 35 36 96 37 36 38 95 39 37 40 38 41 39 42 89 43
REMARK SMILES IDX 40 44 94 45 88 46 90 47 41 48 93 49 87 50 86 51 42 53 74 54
REMARK SMILES IDX 54 55 73 56 55 57 58 58 72 59 91 60 56 61 57 62 71 64 92 65
REMARK SMILES IDX 59 66 43 67 44 68 52 69 45 70 47 71 53 72 46 73 48 74 49 75
REMARK SMILES IDX 50 76 51 77 75 78 76 79 84 80 77 81 79 82 85 83 78 84 80 85
REMARK SMILES IDX 81 86 82 87 83 88 60 89 61 90 69 91 62 92 64 93 70 94 63 95
REMARK SMILES IDX 65 96 66 97 67 98 68 99
REMARK H PARENT 9 18 90 52 58 63
REMARK Flexibility Score: inf
ROOT
ATOM      1  O   UNL     1      -1.833   5.623   4.270  1.00  0.00    -0.377 OA
ENDROOT
BRANCH   1   2
ATOM      2  C   UNL     1      -2.682   4.680   3.654  1.00  0.00     0.188 C 
BRANCH   2   3
ATOM      3  C   UNL     1      -3.200   3.583   4.607  1.00  0.00     0.188 C 
BRANCH   3   4
ATOM      4  O   UNL     1      -2.467   3.192   5.770  1.00  0.00    -0.376 OA
BRANCH   4   5
ATOM      5  C   UNL     1      -1.158   3.703   5.969  1.00  0.00     0.202 C 
BRANCH   5   6
ATOM      6  C   UNL     1      -0.067   3.219   4.989  1.00  0.00     0.261 C 
BRANCH   6   7
ATOM      7  O   UNL     1      -0.500   3.009   3.623  1.00  0.00    -0.463 OA
BRANCH   7   8
ATOM      8  C   UNL     1      -0.851   1.749   3.285  1.00  0.00     0.310 C 
ATOM      9  O   UNL     1      -0.648   0.779   4.018  1.00  0.00    -0.252 OA
BRANCH   8  10
ATOM     10  C   UNL     1      -1.663   1.572   2.012  1.00  0.00     0.160 C 
BRANCH  10  11
ATOM     11  C   UNL     1      -1.887   2.644   0.941  1.00  0.00    -0.013 A 
ATOM     12  C   UNL     1      -0.964   2.946  -0.078  1.00  0.00     0.042 A 
ATOM     13  C   UNL     1      -1.212   4.029  -0.953  1.00  0.00     0.026 A 
ATOM     14  C   UNL     1      -2.421   4.716  -0.933  1.00  0.00     0.002 A 
ATOM     15  C   UNL     1      -3.145   3.290   0.871  1.00  0.00     0.006 A 
ATOM     16  C   UNL     1      -3.409   4.311  -0.050  1.00  0.00     0.000 A 
BRANCH  12  17
ATOM     17  N   UNL     1       0.088   2.088  -0.444  1.00  0.00    -0.355 N 
ATOM     18  H   UNL     1       0.925   2.547  -0.683  1.00  0.00     0.167 HD
BRANCH  17  19
ATOM     19  C   UNL     1       0.147   0.677  -0.528  1.00  0.00     0.044 A 
ATOM     20  C   UNL     1       2.643   0.889  -0.049  1.00  0.00     0.046 C 
ATOM     21  C   UNL     1       1.392   0.067  -0.236  1.00  0.00    -0.027 A 
ATOM     22  C   UNL     1       1.464  -1.320  -0.043  1.00  0.00     0.005 A 
ATOM     23  C   UNL     1       0.326  -2.111  -0.142  1.00  0.00     0.001 A 
ATOM     24  C   UNL     1      -0.991  -0.153  -0.732  1.00  0.00    -0.027 A 
ATOM     25  C   UNL     1      -0.887  -1.535  -0.494  1.00  0.00     0.005 A 
ATOM     26  C   UNL     1      -2.362   0.345  -1.121  1.00  0.00     0.046 C 
ENDBRANCH  17  19
ENDBRANCH  12  17
ENDBRANCH  10  11
ENDBRANCH   8  10
ENDBRANCH   7   8
ENDBRANCH   6   7
ENDBRANCH   5   6
ENDBRANCH   4   5
ENDBRANCH   3   4
ENDBRANCH   2   3
ENDBRANCH   1   2
BRANCH   1  27
ATOM     27  C   UNL     1      -2.377   6.912   4.426  1.00  0.00     0.188 C 
BRANCH  27  28
ATOM     28  C   UNL     1      -3.695   6.940   5.211  1.00  0.00     0.188 C 
BRANCH  28  29
ATOM     29  O   UNL     1      -4.703   6.116   4.632  1.00  0.00    -0.376 OA
BRANCH  29  30
ATOM     30  C   UNL     1      -5.720   6.712   3.847  1.00  0.00     0.202 C 
BRANCH  30  31
ATOM     31  C   UNL     1      -5.360   7.324   2.481  1.00  0.00     0.261 C 
BRANCH  31  32
ATOM     32  O   UNL     1      -4.228   8.198   2.422  1.00  0.00    -0.460 OA
BRANCH  32  33
ATOM     33  C   UNL     1      -4.296   9.367   3.103  1.00  0.00     0.338 C 
ATOM     34  O   UNL     1      -5.231   9.772   3.752  1.00  0.00    -0.246 OA
BRANCH  33  35
ATOM     35  C   UNL     1      -2.934   9.961   3.095  1.00  0.00     0.060 A 
ATOM     36  C   UNL     1      -2.290  10.172   4.322  1.00  0.00     0.016 A 
ATOM     37  C   UNL     1      -2.279  10.256   1.897  1.00  0.00     0.016 A 
ATOM     38  C   UNL     1      -0.997  10.693   4.356  1.00  0.00     0.010 A 
ATOM     39  C   UNL     1      -0.998  10.818   1.933  1.00  0.00     0.010 A 
ATOM     40  C   UNL     1      -0.365  11.067   3.164  1.00  0.00    -0.014 A 
BRANCH  40  41
ATOM     41  C   UNL     1       0.842  11.925   3.225  1.00  0.00     0.031 A 
ATOM     42  C   UNL     1       0.647  13.414   3.128  1.00  0.00     0.074 A 
ATOM     43  C   UNL     1       2.074  11.410   3.376  1.00  0.00     0.049 A 
ATOM     44  N   UNL     1       1.537  14.370   3.135  1.00  0.00    -0.248 NA
ATOM     45  C   UNL     1      -0.744  13.886   3.009  1.00  0.00     0.031 C 
ATOM     46  C   UNL     1       2.389   9.988   3.501  1.00  0.00     0.029 A 
ATOM     47  N   UNL     1       3.297  12.033   3.425  1.00  0.00    -0.354 N 
ATOM     48  C   UNL     1       0.820  15.552   2.990  1.00  0.00     0.074 A 
ATOM     49  C   UNL     1      -0.577  15.194   2.890  1.00  0.00     0.031 C 
ATOM     50  C   UNL     1       3.724   9.844   3.579  1.00  0.00     0.029 A 
ATOM     51  C   UNL     1       4.357  11.159   3.483  1.00  0.00     0.049 A 
ATOM     52  H   UNL     1       3.404  13.011   3.419  1.00  0.00     0.167 HD
ATOM     53  C   UNL     1       1.280  16.823   2.952  1.00  0.00     0.034 A 
ATOM     54  C   UNL     1       5.684  11.396   3.434  1.00  0.00     0.034 A 
ATOM     55  C   UNL     1       2.669  17.177   3.054  1.00  0.00     0.049 A 
ATOM     56  C   UNL     1       6.175  12.821   3.349  1.00  0.00     0.074 A 
ATOM     57  C   UNL     1       3.235  18.439   3.066  1.00  0.00     0.029 A 
ATOM     58  N   UNL     1       3.712  16.268   3.137  1.00  0.00    -0.354 N 
ATOM     59  N   UNL     1       5.483  13.935   3.325  1.00  0.00    -0.248 NA
ATOM     60  C   UNL     1       7.632  13.023   3.317  1.00  0.00     0.031 C 
ATOM     61  C   UNL     1       4.625  18.291   3.112  1.00  0.00     0.029 A 
ATOM     62  C   UNL     1       4.921  16.938   3.181  1.00  0.00     0.049 A 
ATOM     63  H   UNL     1       3.607  15.289   3.162  1.00  0.00     0.167 HD
ATOM     64  C   UNL     1       6.417  14.967   3.315  1.00  0.00     0.074 A 
ATOM     65  C   UNL     1       7.724  14.345   3.354  1.00  0.00     0.031 C 
ATOM     66  C   UNL     1       6.213  16.307   3.269  1.00  0.00     0.034 A 
BRANCH  53  67
ATOM     67  C   UNL     1       0.269  17.926   2.792  1.00  0.00     0.023 A 
ATOM     68  C   UNL     1      -0.600  18.247   3.855  1.00  0.00     0.012 A 
ATOM     69  C   UNL     1       0.207  18.673   1.599  1.00  0.00     0.148 A 
ATOM     70  C   UNL     1      -1.537  19.271   3.721  1.00  0.00     0.002 A 
ATOM     71  C   UNL     1      -0.694  19.724   1.491  1.00  0.00     0.091 A 
ATOM     72  F   UNL     1       1.024  18.334   0.591  1.00  0.00    -0.205 F 
ATOM     73  C   UNL     1      -1.576  20.016   2.545  1.00  0.00     0.022 A 
BRANCH  71  74
ATOM     74  S   UNL     1      -0.768  20.791   0.049  1.00  0.00     0.127 S 
ATOM     75  O   UNL     1      -2.068  20.433  -0.517  1.00  0.00    -0.237 OA
ATOM     76  O   UNL     1      -0.712  22.123   0.653  1.00  0.00    -0.237 OA
ATOM     77  O   UNL     1       0.385  20.445  -0.769  1.00  0.00    -0.744 OA
ENDBRANCH  71  74
ENDBRANCH  53  67
BRANCH  54  78
ATOM     78  C   UNL     1       6.651  10.262   3.478  1.00  0.00     0.023 A 
ATOM     79  C   UNL     1       7.492  10.101   4.596  1.00  0.00     0.012 A 
ATOM     80  C   UNL     1       6.743   9.344   2.413  1.00  0.00     0.148 A 
ATOM     81  C   UNL     1       8.430   9.068   4.639  1.00  0.00     0.002 A 
ATOM     82  C   UNL     1       7.639   8.284   2.486  1.00  0.00     0.091 A 
ATOM     83  F   UNL     1       5.947   9.524   1.350  1.00  0.00    -0.205 F 
ATOM     84  C   UNL     1       8.497   8.155   3.590  1.00  0.00     0.022 A 
BRANCH  82  85
ATOM     85  S   UNL     1       7.713   6.994   1.239  1.00  0.00     0.127 S 
ATOM     86  O   UNL     1       9.030   7.221   0.650  1.00  0.00    -0.237 OA
ATOM     87  O   UNL     1       7.603   5.783   2.054  1.00  0.00    -0.237 OA
ATOM     88  O   UNL     1       6.579   7.230   0.356  1.00  0.00    -0.744 OA
ENDBRANCH  82  85
ENDBRANCH  54  78
BRANCH  66  89
ATOM     89  C   UNL     1       7.423  17.206   3.309  1.00  0.00     0.023 A 
ATOM     90  C   UNL     1       8.282  17.289   2.196  1.00  0.00     0.012 A 
ATOM     91  C   UNL     1       7.660  18.032   4.427  1.00  0.00     0.148 A 
ATOM     92  C   UNL     1       9.379  18.151   2.210  1.00  0.00     0.002 A 
ATOM     93  C   UNL     1       8.721  18.928   4.411  1.00  0.00     0.091 A 
ATOM     94  F   UNL     1       6.838  17.930   5.482  1.00  0.00    -0.205 F 
ATOM     95  C   UNL     1       9.591  18.979   3.310  1.00  0.00     0.022 A 
BRANCH  93  96
ATOM     96  S   UNL     1       9.011  20.103   5.739  1.00  0.00     0.127 S 
ATOM     97  O   UNL     1      10.235  19.576   6.341  1.00  0.00    -0.237 OA
ATOM     98  O   UNL     1       9.183  21.359   5.007  1.00  0.00    -0.237 OA
ATOM     99  O   UNL     1       7.829  20.054   6.588  1.00  0.00    -0.744 OA
ENDBRANCH  93  96
ENDBRANCH  66  89
ENDBRANCH  40  41
ENDBRANCH  33  35
ENDBRANCH  32  33
ENDBRANCH  31  32
ENDBRANCH  30  31
ENDBRANCH  29  30
ENDBRANCH  28  29
ENDBRANCH  27  28
ENDBRANCH   1  27
TORSDOF 26
