REMARK SMILES COc1ccc(C(=O)c2ccccc2)cc1[C@@H](C)C(=O)OCCOCCOCCOCCOC(=O)c1ccc(-c2c3nc(c(-c4cccc(S(=O)(=O)[O-])c4F)c4ccc([nH]4)c(-c4cccc(S(=O)(=O)[O-])c4F)c4nc(c(-c5cccc(S(=O)(=O)[O-])c5F)c5ccc2[nH]5)C=C4)C=C3)cc1
REMARK SMILES IDX 27 1 26 2 25 3 24 4 23 5 22 6 21 7 19 8 20 9 17 10 18 11
REMARK SMILES IDX 16 12 3 13 4 14 5 15 15 16 6 17 2 18 1 19 7 20 8 21 9 22
REMARK SMILES IDX 10 23 14 24 11 25 13 26 12 27 28 28 29 29 30 30 31 31 32 32
REMARK SMILES IDX 33 33 34 34 35 35 36 36 37 37 98 38 38 39 97 40 39 41 40 42
REMARK SMILES IDX 41 43 91 44 42 45 96 46 90 47 92 48 43 49 95 50 89 51 88 52
REMARK SMILES IDX 44 54 76 55 56 56 75 57 57 58 60 59 74 60 93 61 58 62 59 63
REMARK SMILES IDX 73 65 94 66 61 67 45 68 46 69 54 70 47 71 49 72 55 73 48 74
REMARK SMILES IDX 50 75 51 76 52 77 53 78 77 79 78 80 86 81 79 82 81 83 87 84
REMARK SMILES IDX 80 85 82 86 83 87 84 88 85 89 62 90 63 91 71 92 64 93 66 94
REMARK SMILES IDX 72 95 65 96 67 97 68 98 69 99 70 100
REMARK H PARENT 92 53 60 64
REMARK Flexibility Score: inf
ROOT
ATOM      1  O   UNL     1       3.067   4.168  -0.200  1.00  0.00    -0.377 OA
ENDROOT
BRANCH   1   2
ATOM      2  C   UNL     1       2.230   3.113   0.222  1.00  0.00     0.188 C 
BRANCH   2   3
ATOM      3  C   UNL     1       2.669   2.405   1.513  1.00  0.00     0.188 C 
BRANCH   3   4
ATOM      4  O   UNL     1       3.774   2.877   2.271  1.00  0.00    -0.376 OA
BRANCH   4   5
ATOM      5  C   UNL     1       4.908   3.416   1.607  1.00  0.00     0.202 C 
BRANCH   5   6
ATOM      6  C   UNL     1       5.614   2.639   0.477  1.00  0.00     0.261 C 
BRANCH   6   7
ATOM      7  O   UNL     1       4.788   2.038  -0.541  1.00  0.00    -0.463 OA
BRANCH   7   8
ATOM      8  C   UNL     1       4.627   0.692  -0.486  1.00  0.00     0.313 C 
ATOM      9  O   UNL     1       5.098  -0.012   0.405  1.00  0.00    -0.252 OA
BRANCH   8  10
ATOM     10  C   UNL     1       3.865   0.078  -1.663  1.00  0.00     0.130 C 
ATOM     11  C   UNL     1       4.879  -0.421  -2.688  1.00  0.00     0.025 C 
BRANCH  10  12
ATOM     12  C   UNL     1       2.753   0.882  -2.334  1.00  0.00     0.009 A 
ATOM     13  C   UNL     1       1.399   0.503  -2.254  1.00  0.00     0.122 A 
ATOM     14  C   UNL     1       0.394   1.225  -2.911  1.00  0.00     0.047 A 
ATOM     15  C   UNL     1       0.716   2.373  -3.632  1.00  0.00     0.016 A 
ATOM     16  C   UNL     1       3.048   2.052  -3.060  1.00  0.00     0.020 A 
ATOM     17  C   UNL     1       2.044   2.798  -3.708  1.00  0.00     0.023 A 
BRANCH  13  18
ATOM     18  O   UNL     1       1.012  -0.613  -1.557  1.00  0.00    -0.496 OA
ATOM     19  C   UNL     1       0.674  -0.271  -0.211  1.00  0.00     0.278 C 
ENDBRANCH  13  18
BRANCH  17  20
ATOM     20  C   UNL     1       2.336   4.074  -4.426  1.00  0.00     0.193 C 
ATOM     21  O   UNL     1       1.420   4.798  -4.803  1.00  0.00    -0.289 OA
BRANCH  20  22
ATOM     22  C   UNL     1       3.734   4.516  -4.590  1.00  0.00     0.022 A 
ATOM     23  C   UNL     1       4.124   5.686  -3.946  1.00  0.00     0.012 A 
ATOM     24  C   UNL     1       4.670   3.722  -5.264  1.00  0.00     0.012 A 
ATOM     25  C   UNL     1       5.474   6.016  -3.921  1.00  0.00     0.001 A 
ATOM     26  C   UNL     1       6.016   4.084  -5.255  1.00  0.00     0.001 A 
ATOM     27  C   UNL     1       6.419   5.228  -4.575  1.00  0.00     0.000 A 
ENDBRANCH  20  22
ENDBRANCH  17  20
ENDBRANCH  10  12
ENDBRANCH   8  10
ENDBRANCH   7   8
ENDBRANCH   6   7
ENDBRANCH   5   6
ENDBRANCH   4   5
ENDBRANCH   3   4
ENDBRANCH   2   3
ENDBRANCH   1   2
BRANCH   1  28
ATOM     28  C   UNL     1       2.590   5.478   0.061  1.00  0.00     0.188 C 
BRANCH  28  29
ATOM     29  C   UNL     1       1.962   5.716   1.448  1.00  0.00     0.188 C 
BRANCH  29  30
ATOM     30  O   UNL     1       0.908   4.812   1.766  1.00  0.00    -0.376 OA
BRANCH  30  31
ATOM     31  C   UNL     1      -0.434   5.213   1.534  1.00  0.00     0.202 C 
BRANCH  31  32
ATOM     32  C   UNL     1      -0.901   5.449   0.086  1.00  0.00     0.261 C 
BRANCH  32  33
ATOM     33  O   UNL     1      -0.161   6.396  -0.697  1.00  0.00    -0.460 OA
BRANCH  33  34
ATOM     34  C   UNL     1      -0.029   7.655  -0.235  1.00  0.00     0.338 C 
ATOM     35  O   UNL     1      -0.524   8.114   0.783  1.00  0.00    -0.246 OA
BRANCH  34  36
ATOM     36  C   UNL     1       0.997   8.338  -1.056  1.00  0.00     0.060 A 
ATOM     37  C   UNL     1       2.123   8.890  -0.424  1.00  0.00     0.016 A 
ATOM     38  C   UNL     1       0.853   8.431  -2.440  1.00  0.00     0.016 A 
ATOM     39  C   UNL     1       3.078   9.592  -1.166  1.00  0.00     0.010 A 
ATOM     40  C   UNL     1       1.797   9.152  -3.176  1.00  0.00     0.010 A 
ATOM     41  C   UNL     1       2.887   9.778  -2.538  1.00  0.00    -0.014 A 
BRANCH  41  42
ATOM     42  C   UNL     1       3.643  10.812  -3.292  1.00  0.00     0.031 A 
ATOM     43  C   UNL     1       2.949  12.111  -3.569  1.00  0.00     0.074 A 
ATOM     44  C   UNL     1       4.878  10.605  -3.780  1.00  0.00     0.049 A 
ATOM     45  N   UNL     1       3.312  13.088  -4.353  1.00  0.00    -0.248 NA
ATOM     46  C   UNL     1       1.692  12.351  -2.839  1.00  0.00     0.031 C 
ATOM     47  C   UNL     1       5.725   9.470  -3.457  1.00  0.00     0.029 A 
ATOM     48  N   UNL     1       5.606  11.307  -4.710  1.00  0.00    -0.354 N 
ATOM     49  C   UNL     1       2.331  14.058  -4.215  1.00  0.00     0.074 A 
ATOM     50  C   UNL     1       1.337  13.539  -3.302  1.00  0.00     0.031 C 
ATOM     51  C   UNL     1       6.777   9.451  -4.294  1.00  0.00     0.029 A 
ATOM     52  C   UNL     1       6.685  10.597  -5.191  1.00  0.00     0.049 A 
ATOM     53  H   UNL     1       5.380  12.220  -5.002  1.00  0.00     0.167 HD
ATOM     54  C   UNL     1       2.282  15.285  -4.779  1.00  0.00     0.034 A 
ATOM     55  C   UNL     1       7.484  10.832  -6.250  1.00  0.00     0.034 A 
ATOM     56  C   UNL     1       3.270  15.781  -5.694  1.00  0.00     0.049 A 
ATOM     57  C   UNL     1       7.324  12.133  -6.992  1.00  0.00     0.074 A 
ATOM     58  C   UNL     1       3.333  17.021  -6.300  1.00  0.00     0.029 A 
ATOM     59  N   UNL     1       4.353  15.050  -6.157  1.00  0.00    -0.354 N 
ATOM     60  N   UNL     1       6.450  13.089  -6.788  1.00  0.00    -0.248 NA
ATOM     61  C   UNL     1       8.300  12.431  -8.050  1.00  0.00     0.031 C 
ATOM     62  C   UNL     1       4.428  17.023  -7.168  1.00  0.00     0.029 A 
ATOM     63  C   UNL     1       5.079  15.804  -7.059  1.00  0.00     0.049 A 
ATOM     64  H   UNL     1       4.572  14.130  -5.884  1.00  0.00     0.167 HD
ATOM     65  C   UNL     1       6.827  14.135  -7.621  1.00  0.00     0.074 A 
ATOM     66  C   UNL     1       7.988  13.684  -8.358  1.00  0.00     0.031 C 
ATOM     67  C   UNL     1       6.272  15.366  -7.739  1.00  0.00     0.034 A 
BRANCH  54  68
ATOM     68  C   UNL     1       1.122  16.165  -4.412  1.00  0.00     0.023 A 
ATOM     69  C   UNL     1       1.036  16.708  -3.113  1.00  0.00     0.012 A 
ATOM     70  C   UNL     1       0.131  16.473  -5.361  1.00  0.00     0.148 A 
ATOM     71  C   UNL     1      -0.043  17.514  -2.754  1.00  0.00     0.002 A 
ATOM     72  C   UNL     1      -0.914  17.316  -5.010  1.00  0.00     0.091 A 
ATOM     73  F   UNL     1       0.220  15.923  -6.580  1.00  0.00    -0.205 F 
ATOM     74  C   UNL     1      -1.011  17.826  -3.704  1.00  0.00     0.022 A 
BRANCH  72  75
ATOM     75  S   UNL     1      -2.168  17.838  -6.183  1.00  0.00     0.127 S 
ATOM     76  O   UNL     1      -3.357  17.167  -5.662  1.00  0.00    -0.237 OA
ATOM     77  O   UNL     1      -2.162  19.291  -6.009  1.00  0.00    -0.237 OA
ATOM     78  O   UNL     1      -1.716  17.379  -7.489  1.00  0.00    -0.744 OA
ENDBRANCH  72  75
ENDBRANCH  54  68
BRANCH  55  79
ATOM     79  C   UNL     1       8.544   9.856  -6.634  1.00  0.00     0.023 A 
ATOM     80  C   UNL     1       9.896  10.176  -6.405  1.00  0.00     0.012 A 
ATOM     81  C   UNL     1       8.223   8.619  -7.232  1.00  0.00     0.148 A 
ATOM     82  C   UNL     1      10.912   9.305  -6.803  1.00  0.00     0.002 A 
ATOM     83  C   UNL     1       9.239   7.738  -7.591  1.00  0.00     0.091 A 
ATOM     84  F   UNL     1       6.931   8.329  -7.436  1.00  0.00    -0.205 F 
ATOM     85  C   UNL     1      10.584   8.088  -7.394  1.00  0.00     0.022 A 
BRANCH  83  86
ATOM     86  S   UNL     1       8.929   6.107  -8.282  1.00  0.00     0.127 S 
ATOM     87  O   UNL     1       9.613   6.191  -9.571  1.00  0.00    -0.237 OA
ATOM     88  O   UNL     1       9.577   5.241  -7.296  1.00  0.00    -0.237 OA
ATOM     89  O   UNL     1       7.482   5.969  -8.354  1.00  0.00    -0.744 OA
ENDBRANCH  83  86
ENDBRANCH  55  79
BRANCH  67  90
ATOM     90  C   UNL     1       6.953  16.371  -8.627  1.00  0.00     0.023 A 
ATOM     91  C   UNL     1       6.870  16.262 -10.027  1.00  0.00     0.012 A 
ATOM     92  C   UNL     1       7.565  17.505  -8.052  1.00  0.00     0.148 A 
ATOM     93  C   UNL     1       7.397  17.262 -10.844  1.00  0.00     0.002 A 
ATOM     94  C   UNL     1       8.036  18.522  -8.870  1.00  0.00     0.091 A 
ATOM     95  F   UNL     1       7.647  17.576  -6.715  1.00  0.00    -0.205 F 
ATOM     96  C   UNL     1       7.963  18.398 -10.266  1.00  0.00     0.022 A 
BRANCH  94  97
ATOM     97  S   UNL     1       8.677  20.067  -8.215  1.00  0.00     0.127 S 
ATOM     98  O   UNL     1      10.078  20.007  -8.629  1.00  0.00    -0.237 OA
ATOM     99  O   UNL     1       7.871  21.058  -8.928  1.00  0.00    -0.237 OA
ATOM    100  O   UNL     1       8.455  20.023  -6.776  1.00  0.00    -0.744 OA
ENDBRANCH  94  97
ENDBRANCH  67  90
ENDBRANCH  41  42
ENDBRANCH  34  36
ENDBRANCH  33  34
ENDBRANCH  32  33
ENDBRANCH  31  32
ENDBRANCH  30  31
ENDBRANCH  29  30
ENDBRANCH  28  29
ENDBRANCH   1  28
TORSDOF 27
