REMARK SMILES O=C(OCCOCCOCCOCCOC(=O)[C@@H]1CSCN1C(=O)c1cccc(Cl)c1)c1ccc(-c2c3nc(c(-c4cccc(S(=O)(=O)[O-])c4F)c4ccc([nH]4)c(-c4cccc(S(=O)(=O)[O-])c4F)c4nc(c(-c5cccc(S(=O)(=O)[O-])c5F)c5ccc2[nH]5)C=C4)C=C3)cc1
REMARK SMILES IDX 8 1 7 2 6 3 5 4 4 5 3 6 2 7 1 8 32 9 33 10 94 11 34 12 93 13
REMARK SMILES IDX 35 14 36 15 37 16 87 17 38 18 92 19 86 20 88 21 39 22 91 23
REMARK SMILES IDX 85 24 84 25 40 27 72 28 52 29 71 30 53 31 56 32 70 33 89 34
REMARK SMILES IDX 54 35 55 36 69 38 90 39 57 40 41 41 42 42 50 43 43 44 45 45
REMARK SMILES IDX 51 46 44 47 46 48 47 49 48 50 49 51 73 52 74 53 82 54 75 55
REMARK SMILES IDX 77 56 83 57 76 58 78 59 79 60 80 61 81 62 58 63 59 64 67 65
REMARK SMILES IDX 60 66 62 67 68 68 61 69 63 70 64 71 65 72 66 73 9 74 10 75
REMARK SMILES IDX 11 76 12 77 13 78 14 79 15 80 16 81 17 82 18 83 19 84 22 85
REMARK SMILES IDX 20 86 21 87 23 88 24 89 25 90 26 91 31 92 27 93 29 94 28 95
REMARK SMILES IDX 30 96
REMARK H PARENT 88 26 56 37
REMARK Flexibility Score: inf
ROOT
ATOM      1  C   UNL     1       6.197  -1.837   1.019  1.00  0.00     0.188 C 
ENDROOT
BRANCH   1   2
ATOM      2  C   UNL     1       5.454  -2.386   2.236  1.00  0.00     0.188 C 
BRANCH   2   3
ATOM      3  O   UNL     1       5.717  -3.780   2.419  1.00  0.00    -0.376 OA
BRANCH   3   4
ATOM      4  C   UNL     1       4.615  -4.611   2.788  1.00  0.00     0.202 C 
BRANCH   4   5
ATOM      5  C   UNL     1       4.197  -4.549   4.254  1.00  0.00     0.261 C 
BRANCH   5   6
ATOM      6  O   UNL     1       4.315  -3.240   4.812  1.00  0.00    -0.460 OA
BRANCH   6   7
ATOM      7  C   UNL     1       5.423  -2.654   5.332  1.00  0.00     0.338 C 
ATOM      8  O   UNL     1       5.294  -1.510   5.771  1.00  0.00    -0.246 OA
BRANCH   7   9
ATOM      9  C   UNL     1       6.802  -3.260   5.341  1.00  0.00     0.060 A 
ATOM     10  C   UNL     1       7.203  -4.437   4.696  1.00  0.00     0.016 A 
ATOM     11  C   UNL     1       7.791  -2.534   6.029  1.00  0.00     0.016 A 
ATOM     12  C   UNL     1       8.511  -4.891   4.725  1.00  0.00     0.010 A 
ATOM     13  C   UNL     1       9.101  -3.007   6.118  1.00  0.00     0.010 A 
ATOM     14  C   UNL     1       9.441  -4.210   5.493  1.00  0.00    -0.014 A 
BRANCH  14  15
ATOM     15  C   UNL     1      10.627  -4.967   5.902  1.00  0.00     0.031 A 
ATOM     16  C   UNL     1      10.532  -5.686   7.211  1.00  0.00     0.074 A 
ATOM     17  C   UNL     1      11.676  -5.093   5.079  1.00  0.00     0.049 A 
ATOM     18  N   UNL     1      11.452  -6.314   7.882  1.00  0.00    -0.248 NA
ATOM     19  C   UNL     1       9.200  -5.707   7.849  1.00  0.00     0.031 C 
ATOM     20  C   UNL     1      11.755  -4.553   3.721  1.00  0.00     0.029 A 
ATOM     21  N   UNL     1      12.881  -5.707   5.274  1.00  0.00    -0.354 N 
ATOM     22  C   UNL     1      10.832  -6.732   9.053  1.00  0.00     0.074 A 
ATOM     23  C   UNL     1       9.450  -6.329   8.987  1.00  0.00     0.031 C 
ATOM     24  C   UNL     1      12.973  -4.818   3.221  1.00  0.00     0.029 A 
ATOM     25  C   UNL     1      13.768  -5.480   4.250  1.00  0.00     0.049 A 
ATOM     26  H   UNL     1      13.092  -6.253   6.066  1.00  0.00     0.167 HD
ATOM     27  C   UNL     1      11.392  -7.372  10.101  1.00  0.00     0.034 A 
ATOM     28  C   UNL     1      15.090  -5.723   4.203  1.00  0.00     0.034 A 
ATOM     29  C   UNL     1      12.778  -7.736  10.119  1.00  0.00     0.049 A 
ATOM     30  C   UNL     1      15.719  -6.370   5.408  1.00  0.00     0.074 A 
ATOM     31  C   UNL     1      13.504  -8.343  11.121  1.00  0.00     0.029 A 
ATOM     32  N   UNL     1      13.653  -7.498   9.065  1.00  0.00    -0.354 N 
ATOM     33  N   UNL     1      15.148  -6.747   6.530  1.00  0.00    -0.248 NA
ATOM     34  C   UNL     1      17.159  -6.641   5.346  1.00  0.00     0.031 C 
ATOM     35  C   UNL     1      14.831  -8.435  10.687  1.00  0.00     0.029 A 
ATOM     36  C   UNL     1      14.918  -7.936   9.392  1.00  0.00     0.049 A 
ATOM     37  H   UNL     1      13.406  -7.078   8.209  1.00  0.00     0.167 HD
ATOM     38  C   UNL     1      16.146  -7.334   7.294  1.00  0.00     0.074 A 
ATOM     39  C   UNL     1      17.361  -7.262   6.502  1.00  0.00     0.031 C 
ATOM     40  C   UNL     1      16.077  -7.882   8.533  1.00  0.00     0.034 A 
BRANCH  27  41
ATOM     41  C   UNL     1      10.519  -7.608  11.304  1.00  0.00     0.023 A 
ATOM     42  C   UNL     1       9.456  -8.533  11.251  1.00  0.00     0.012 A 
ATOM     43  C   UNL     1      10.711  -6.846  12.473  1.00  0.00     0.148 A 
ATOM     44  C   UNL     1       8.565  -8.653  12.319  1.00  0.00     0.002 A 
ATOM     45  C   UNL     1       9.851  -7.008  13.551  1.00  0.00     0.091 A 
ATOM     46  F   UNL     1      11.703  -5.944  12.492  1.00  0.00    -0.205 F 
ATOM     47  C   UNL     1       8.766  -7.896  13.470  1.00  0.00     0.022 A 
BRANCH  45  48
ATOM     48  S   UNL     1      10.068  -6.125  15.099  1.00  0.00     0.127 S 
ATOM     49  O   UNL     1       8.932  -5.203  15.075  1.00  0.00    -0.237 OA
ATOM     50  O   UNL     1       9.958  -7.202  16.083  1.00  0.00    -0.237 OA
ATOM     51  O   UNL     1      11.381  -5.500  15.026  1.00  0.00    -0.744 OA
ENDBRANCH  45  48
ENDBRANCH  27  41
BRANCH  28  52
ATOM     52  C   UNL     1      15.876  -5.321   3.003  1.00  0.00     0.023 A 
ATOM     53  C   UNL     1      16.418  -6.305   2.155  1.00  0.00     0.012 A 
ATOM     54  C   UNL     1      16.028  -3.961   2.659  1.00  0.00     0.148 A 
ATOM     55  C   UNL     1      17.109  -5.942   0.997  1.00  0.00     0.002 A 
ATOM     56  C   UNL     1      16.669  -3.608   1.478  1.00  0.00     0.091 A 
ATOM     57  F   UNL     1      15.514  -3.038   3.485  1.00  0.00    -0.205 F 
ATOM     58  C   UNL     1      17.224  -4.597   0.652  1.00  0.00     0.022 A 
BRANCH  56  59
ATOM     59  S   UNL     1      16.754  -1.912   0.890  1.00  0.00     0.127 S 
ATOM     60  O   UNL     1      18.189  -1.645   0.956  1.00  0.00    -0.237 OA
ATOM     61  O   UNL     1      16.212  -2.037  -0.464  1.00  0.00    -0.237 OA
ATOM     62  O   UNL     1      15.928  -1.133   1.801  1.00  0.00    -0.744 OA
ENDBRANCH  56  59
ENDBRANCH  28  52
BRANCH  40  63
ATOM     63  C   UNL     1      17.324  -8.514   9.080  1.00  0.00     0.023 A 
ATOM     64  C   UNL     1      18.364  -7.712   9.582  1.00  0.00     0.012 A 
ATOM     65  C   UNL     1      17.382  -9.914   9.223  1.00  0.00     0.148 A 
ATOM     66  C   UNL     1      19.458  -8.300  10.212  1.00  0.00     0.002 A 
ATOM     67  C   UNL     1      18.445 -10.487   9.903  1.00  0.00     0.091 A 
ATOM     68  F   UNL     1      16.381 -10.650   8.718  1.00  0.00    -0.205 F 
ATOM     69  C   UNL     1      19.490  -9.684  10.389  1.00  0.00     0.022 A 
BRANCH  67  70
ATOM     70  S   UNL     1      18.502 -12.240  10.285  1.00  0.00     0.127 S 
ATOM     71  O   UNL     1      19.599 -12.693   9.433  1.00  0.00    -0.237 OA
ATOM     72  O   UNL     1      18.800 -12.233  11.717  1.00  0.00    -0.237 OA
ATOM     73  O   UNL     1      17.189 -12.772   9.943  1.00  0.00    -0.744 OA
ENDBRANCH  67  70
ENDBRANCH  40  63
ENDBRANCH  14  15
ENDBRANCH   7   9
ENDBRANCH   6   7
ENDBRANCH   5   6
ENDBRANCH   4   5
ENDBRANCH   3   4
ENDBRANCH   2   3
ENDBRANCH   1   2
BRANCH   1  74
ATOM     74  O   UNL     1       5.696  -2.248  -0.244  1.00  0.00    -0.377 OA
BRANCH  74  75
ATOM     75  C   UNL     1       5.280  -3.595  -0.336  1.00  0.00     0.188 C 
BRANCH  75  76
ATOM     76  C   UNL     1       6.327  -4.726  -0.167  1.00  0.00     0.188 C 
BRANCH  76  77
ATOM     77  O   UNL     1       7.683  -4.389  -0.072  1.00  0.00    -0.376 OA
BRANCH  77  78
ATOM     78  C   UNL     1       8.334  -3.671  -1.099  1.00  0.00     0.202 C 
BRANCH  78  79
ATOM     79  C   UNL     1       7.755  -3.385  -2.503  1.00  0.00     0.261 C 
BRANCH  79  80
ATOM     80  O   UNL     1       6.425  -3.812  -2.835  1.00  0.00    -0.462 OA
BRANCH  80  81
ATOM     81  C   UNL     1       6.261  -5.112  -3.194  1.00  0.00     0.329 C 
ATOM     82  O   UNL     1       7.174  -5.930  -3.219  1.00  0.00    -0.250 OA
BRANCH  81  83
ATOM     83  C   UNL     1       4.767  -5.436  -3.499  1.00  0.00     0.206 C 
ATOM     84  C   UNL     1       3.813  -5.723  -2.324  1.00  0.00     0.108 C 
ATOM     85  N   UNL     1       4.812  -6.656  -4.294  1.00  0.00    -0.315 N 
ATOM     86  S   UNL     1       3.313  -7.466  -2.412  1.00  0.00    -0.138 SA
ATOM     87  C   UNL     1       4.695  -7.856  -3.489  1.00  0.00     0.191 C 
BRANCH  85  88
ATOM     88  C   UNL     1       5.155  -6.546  -5.625  1.00  0.00     0.255 C 
ATOM     89  O   UNL     1       5.344  -5.494  -6.198  1.00  0.00    -0.269 OA
BRANCH  88  90
ATOM     90  C   UNL     1       5.332  -7.803  -6.352  1.00  0.00     0.041 A 
ATOM     91  C   UNL     1       4.237  -8.649  -6.542  1.00  0.00     0.014 A 
ATOM     92  C   UNL     1       6.617  -8.147  -6.764  1.00  0.00     0.034 A 
ATOM     93  C   UNL     1       4.442  -9.897  -7.114  1.00  0.00     0.002 A 
ATOM     94  C   UNL     1       6.804  -9.386  -7.356  1.00  0.00     0.041 A 
ATOM     95  C   UNL     1       5.727 -10.265  -7.521  1.00  0.00     0.020 A 
ATOM     96  Cl  UNL     1       8.375  -9.856  -7.871  1.00  0.00    -0.084 Cl
ENDBRANCH  88  90
ENDBRANCH  85  88
ENDBRANCH  81  83
ENDBRANCH  80  81
ENDBRANCH  79  80
ENDBRANCH  78  79
ENDBRANCH  77  78
ENDBRANCH  76  77
ENDBRANCH  75  76
ENDBRANCH  74  75
ENDBRANCH   1  74
TORSDOF 25
