REMARK SMILES CC(C)(C)OC(=O)N1C[C@@H](Oc2cccnc2)C[C@H]1C(=O)OCCOCCOCCOCCOC(=O)c1ccc(-c2c3nc(c(-c4cccc(S(=O)(=O)[O-])c4F)c4ccc([nH]4)c(-c4cccc(S(=O)(=O)[O-])c4F)c4nc(c(-c5cccc(S(=O)(=O)[O-])c5F)c5ccc2[nH]5)C=C4)C=C3)cc1
REMARK SMILES IDX 28 1 27 2 26 3 25 4 24 5 23 6 22 7 20 8 21 9 19 10 8 11 9 12
REMARK SMILES IDX 10 13 18 14 6 15 7 16 5 17 2 18 1 19 3 20 4 21 11 22 12 23
REMARK SMILES IDX 13 24 17 25 14 26 16 27 15 28 29 29 30 30 31 31 32 32 33 33
REMARK SMILES IDX 34 34 35 35 36 36 37 37 38 38 99 39 39 40 98 41 40 42 41 43
REMARK SMILES IDX 42 44 92 45 43 46 97 47 91 48 93 49 44 50 96 51 90 52 89 53
REMARK SMILES IDX 45 55 77 56 57 57 76 58 58 59 61 60 75 61 94 62 59 63 60 64
REMARK SMILES IDX 74 66 95 67 62 68 46 69 47 70 55 71 48 72 50 73 56 74 49 75
REMARK SMILES IDX 51 76 52 77 53 78 54 79 78 80 79 81 87 82 80 83 82 84 88 85
REMARK SMILES IDX 81 86 83 87 84 88 85 89 86 90 63 91 64 92 72 93 65 94 67 95
REMARK SMILES IDX 73 96 66 97 68 98 69 99 70 100 71 101
REMARK H PARENT 93 54 61 65
REMARK Flexibility Score: inf
ROOT
ATOM      1  O   UNL     1      -1.112  -8.613   5.422  1.00  0.00    -0.377 OA
ENDROOT
BRANCH   1   2
ATOM      2  C   UNL     1      -0.024  -7.890   4.865  1.00  0.00     0.188 C 
BRANCH   2   3
ATOM      3  C   UNL     1       0.891  -6.977   5.725  1.00  0.00     0.188 C 
BRANCH   3   4
ATOM      4  O   UNL     1       0.305  -6.480   6.911  1.00  0.00    -0.376 OA
BRANCH   4   5
ATOM      5  C   UNL     1      -0.202  -5.158   6.906  1.00  0.00     0.202 C 
BRANCH   5   6
ATOM      6  C   UNL     1      -1.254  -4.793   5.852  1.00  0.00     0.261 C 
BRANCH   6   7
ATOM      7  O   UNL     1      -0.950  -5.111   4.484  1.00  0.00    -0.462 OA
BRANCH   7   8
ATOM      8  C   UNL     1       0.176  -4.600   3.926  1.00  0.00     0.329 C 
ATOM      9  O   UNL     1       1.017  -3.933   4.521  1.00  0.00    -0.250 OA
BRANCH   8  10
ATOM     10  C   UNL     1       0.286  -5.046   2.449  1.00  0.00     0.202 C 
ATOM     11  N   UNL     1       0.978  -3.967   1.775  1.00  0.00    -0.291 N 
ATOM     12  C   UNL     1       2.345  -4.318   1.436  1.00  0.00     0.169 C 
ATOM     13  C   UNL     1       2.270  -5.832   1.254  1.00  0.00     0.195 C 
ATOM     14  C   UNL     1       1.133  -6.294   2.176  1.00  0.00     0.084 C 
BRANCH  11  15
ATOM     15  C   UNL     1       0.339  -2.763   1.712  1.00  0.00     0.411 C 
ATOM     16  O   UNL     1      -0.758  -2.598   2.238  1.00  0.00    -0.224 OA
BRANCH  15  17
ATOM     17  O   UNL     1       1.037  -1.817   1.057  1.00  0.00    -0.444 OA
BRANCH  17  18
ATOM     18  C   UNL     1       0.542  -0.454   1.087  1.00  0.00     0.106 C 
ATOM     19  C   UNL     1       1.235   0.225  -0.097  1.00  0.00     0.056 C 
ATOM     20  C   UNL     1       0.993   0.186   2.404  1.00  0.00     0.056 C 
ATOM     21  C   UNL     1      -0.979  -0.307   0.892  1.00  0.00     0.056 C 
ENDBRANCH  17  18
ENDBRANCH  15  17
ENDBRANCH  11  15
BRANCH  13  22
ATOM     22  O   UNL     1       3.510  -6.539   1.290  1.00  0.00    -0.487 OA
BRANCH  22  23
ATOM     23  C   UNL     1       4.048  -7.056   2.427  1.00  0.00     0.138 A 
ATOM     24  C   UNL     1       3.960  -6.520   3.705  1.00  0.00     0.050 A 
ATOM     25  C   UNL     1       4.814  -8.211   2.282  1.00  0.00     0.157 A 
ATOM     26  C   UNL     1       4.579  -7.175   4.774  1.00  0.00     0.024 A 
ATOM     27  N   UNL     1       5.439  -8.865   3.294  1.00  0.00    -0.261 NA
ATOM     28  C   UNL     1       5.299  -8.332   4.524  1.00  0.00     0.111 A 
ENDBRANCH  22  23
ENDBRANCH  13  22
ENDBRANCH   8  10
ENDBRANCH   7   8
ENDBRANCH   6   7
ENDBRANCH   5   6
ENDBRANCH   4   5
ENDBRANCH   3   4
ENDBRANCH   2   3
ENDBRANCH   1   2
BRANCH   1  29
ATOM     29  C   UNL     1      -1.219  -8.700   6.829  1.00  0.00     0.188 C 
BRANCH  29  30
ATOM     30  C   UNL     1      -0.021  -9.326   7.572  1.00  0.00     0.188 C 
BRANCH  30  31
ATOM     31  O   UNL     1       1.166  -9.404   6.798  1.00  0.00    -0.376 OA
BRANCH  31  32
ATOM     32  C   UNL     1       1.620 -10.647   6.303  1.00  0.00     0.202 C 
BRANCH  32  33
ATOM     33  C   UNL     1       0.736 -11.460   5.347  1.00  0.00     0.261 C 
BRANCH  33  34
ATOM     34  O   UNL     1      -0.651 -11.547   5.673  1.00  0.00    -0.460 OA
BRANCH  34  35
ATOM     35  C   UNL     1      -0.980 -12.263   6.774  1.00  0.00     0.338 C 
ATOM     36  O   UNL     1      -0.230 -12.840   7.524  1.00  0.00    -0.246 OA
BRANCH  35  37
ATOM     37  C   UNL     1      -2.421 -12.021   7.010  1.00  0.00     0.060 A 
ATOM     38  C   UNL     1      -2.818 -11.443   8.224  1.00  0.00     0.016 A 
ATOM     39  C   UNL     1      -3.356 -12.302   6.011  1.00  0.00     0.016 A 
ATOM     40  C   UNL     1      -4.159 -11.133   8.438  1.00  0.00     0.010 A 
ATOM     41  C   UNL     1      -4.704 -12.040   6.247  1.00  0.00     0.010 A 
ATOM     42  C   UNL     1      -5.109 -11.478   7.470  1.00  0.00    -0.014 A 
BRANCH  42  43
ATOM     43  C   UNL     1      -6.538 -11.495   7.843  1.00  0.00     0.031 A 
ATOM     44  C   UNL     1      -7.093 -12.784   8.377  1.00  0.00     0.074 A 
ATOM     45  C   UNL     1      -7.315 -10.406   7.716  1.00  0.00     0.049 A 
ATOM     46  N   UNL     1      -8.312 -13.074   8.741  1.00  0.00    -0.248 NA
ATOM     47  C   UNL     1      -6.138 -13.899   8.518  1.00  0.00     0.031 C 
ATOM     48  C   UNL     1      -6.875  -9.101   7.230  1.00  0.00     0.029 A 
ATOM     49  N   UNL     1      -8.653 -10.242   7.969  1.00  0.00    -0.354 N 
ATOM     50  C   UNL     1      -8.278 -14.407   9.129  1.00  0.00     0.074 A 
ATOM     51  C   UNL     1      -6.923 -14.874   8.947  1.00  0.00     0.031 C 
ATOM     52  C   UNL     1      -7.936  -8.274   7.189  1.00  0.00     0.029 A 
ATOM     53  C   UNL     1      -9.129  -9.001   7.619  1.00  0.00     0.049 A 
ATOM     54  H   UNL     1      -9.218 -10.946   8.362  1.00  0.00     0.167 HD
ATOM     55  C   UNL     1      -9.285 -15.173   9.605  1.00  0.00     0.034 A 
ATOM     56  C   UNL     1     -10.390  -8.526   7.624  1.00  0.00     0.034 A 
ATOM     57  C   UNL     1     -10.630 -14.704   9.778  1.00  0.00     0.049 A 
ATOM     58  C   UNL     1     -11.506  -9.417   8.111  1.00  0.00     0.074 A 
ATOM     59  C   UNL     1     -11.722 -15.389  10.277  1.00  0.00     0.029 A 
ATOM     60  N   UNL     1     -11.072 -13.435   9.436  1.00  0.00    -0.354 N 
ATOM     61  N   UNL     1     -11.445 -10.643   8.573  1.00  0.00    -0.248 NA
ATOM     62  C   UNL     1     -12.862  -8.848   8.104  1.00  0.00     0.031 C 
ATOM     63  C   UNL     1     -12.834 -14.545  10.203  1.00  0.00     0.029 A 
ATOM     64  C   UNL     1     -12.425 -13.319   9.700  1.00  0.00     0.049 A 
ATOM     65  H   UNL     1     -10.507 -12.722   9.061  1.00  0.00     0.167 HD
ATOM     66  C   UNL     1     -12.742 -10.976   8.951  1.00  0.00     0.074 A 
ATOM     67  C   UNL     1     -13.565  -9.815   8.678  1.00  0.00     0.031 C 
ATOM     68  C   UNL     1     -13.215 -12.137   9.470  1.00  0.00     0.034 A 
BRANCH  55  69
ATOM     69  C   UNL     1      -8.961 -16.596   9.972  1.00  0.00     0.023 A 
ATOM     70  C   UNL     1      -8.177 -16.865  11.112  1.00  0.00     0.012 A 
ATOM     71  C   UNL     1      -9.461 -17.666   9.206  1.00  0.00     0.148 A 
ATOM     72  C   UNL     1      -7.868 -18.178  11.466  1.00  0.00     0.002 A 
ATOM     73  C   UNL     1      -9.191 -18.972   9.593  1.00  0.00     0.091 A 
ATOM     74  F   UNL     1     -10.179 -17.386   8.109  1.00  0.00    -0.205 F 
ATOM     75  C   UNL     1      -8.384 -19.230  10.714  1.00  0.00     0.022 A 
BRANCH  73  76
ATOM     76  S   UNL     1      -9.873 -20.395   8.738  1.00  0.00     0.127 S 
ATOM     77  O   UNL     1      -8.675 -20.983   8.141  1.00  0.00    -0.237 OA
ATOM     78  O   UNL     1     -10.447 -21.167   9.841  1.00  0.00    -0.237 OA
ATOM     79  O   UNL     1     -10.846 -19.869   7.791  1.00  0.00    -0.744 OA
ENDBRANCH  73  76
ENDBRANCH  55  69
BRANCH  56  80
ATOM     80  C   UNL     1     -10.669  -7.132   7.176  1.00  0.00     0.023 A 
ATOM     81  C   UNL     1     -11.109  -6.175   8.112  1.00  0.00     0.012 A 
ATOM     82  C   UNL     1     -10.506  -6.750   5.830  1.00  0.00     0.148 A 
ATOM     83  C   UNL     1     -11.414  -4.874   7.710  1.00  0.00     0.002 A 
ATOM     84  C   UNL     1     -10.759  -5.439   5.447  1.00  0.00     0.091 A 
ATOM     85  F   UNL     1     -10.102  -7.679   4.952  1.00  0.00    -0.205 F 
ATOM     86  C   UNL     1     -11.231  -4.504   6.380  1.00  0.00     0.022 A 
BRANCH  84  87
ATOM     87  S   UNL     1     -10.441  -4.840   3.783  1.00  0.00     0.127 S 
ATOM     88  O   UNL     1     -11.792  -4.556   3.304  1.00  0.00    -0.237 OA
ATOM     89  O   UNL     1      -9.619  -3.658   4.044  1.00  0.00    -0.237 OA
ATOM     90  O   UNL     1      -9.745  -5.920   3.100  1.00  0.00    -0.744 OA
ENDBRANCH  84  87
ENDBRANCH  56  80
BRANCH  68  91
ATOM     91  C   UNL     1     -14.677 -12.204   9.831  1.00  0.00     0.023 A 
ATOM     92  C   UNL     1     -15.654 -12.255   8.818  1.00  0.00     0.012 A 
ATOM     93  C   UNL     1     -15.073 -12.301  11.180  1.00  0.00     0.148 A 
ATOM     94  C   UNL     1     -17.006 -12.367   9.144  1.00  0.00     0.002 A 
ATOM     95  C   UNL     1     -16.416 -12.468  11.495  1.00  0.00     0.091 A 
ATOM     96  F   UNL     1     -14.128 -12.237  12.130  1.00  0.00    -0.205 F 
ATOM     97  C   UNL     1     -17.385 -12.486  10.479  1.00  0.00     0.022 A 
BRANCH  95  98
ATOM     98  S   UNL     1     -16.986 -12.732  13.177  1.00  0.00     0.127 S 
ATOM     99  O   UNL     1     -17.685 -11.478  13.454  1.00  0.00    -0.237 OA
ATOM    100  O   UNL     1     -17.859 -13.897  13.028  1.00  0.00    -0.237 OA
ATOM    101  O   UNL     1     -15.792 -12.969  13.977  1.00  0.00    -0.744 OA
ENDBRANCH  95  98
ENDBRANCH  68  91
ENDBRANCH  42  43
ENDBRANCH  35  37
ENDBRANCH  34  35
ENDBRANCH  33  34
ENDBRANCH  32  33
ENDBRANCH  31  32
ENDBRANCH  30  31
ENDBRANCH  29  30
ENDBRANCH   1  29
TORSDOF 28
