REMARK SMILES Cc1oc2c(c1C(=O)OCCOCCOCCOCCOC(=O)c1ccc(-c3c4nc(c(-c5cccc(S(=O)(=O)[O-])c5F)c5ccc([nH]5)c(-c5cccc(S(=O)(=O)[O-])c5F)c5nc(c(-c6cccc(S(=O)(=O)[O-])c6F)c6ccc3[nH]6)C=C5)C=C4)cc1)C(=O)C[C@H](c1ccco1)C2
REMARK SMILES IDX 16 1 15 2 14 3 13 4 12 5 11 6 10 7 9 8 7 9 8 10 6 11 1 12
REMARK SMILES IDX 2 13 3 14 4 15 5 16 96 17 87 18 90 19 88 20 89 21 91 22
REMARK SMILES IDX 92 23 95 24 93 25 94 26 17 27 18 28 19 29 20 30 21 31 22 32
REMARK SMILES IDX 23 33 24 34 25 35 86 36 26 37 85 38 27 39 28 40 29 41 79 42
REMARK SMILES IDX 30 43 84 44 78 45 80 46 31 47 83 48 77 49 76 50 32 52 64 53
REMARK SMILES IDX 44 54 63 55 45 56 48 57 62 58 81 59 46 60 47 61 61 63 82 64
REMARK SMILES IDX 49 65 33 66 34 67 42 68 35 69 37 70 43 71 36 72 38 73 39 74
REMARK SMILES IDX 40 75 41 76 65 77 66 78 74 79 67 80 69 81 75 82 68 83 70 84
REMARK SMILES IDX 71 85 72 86 73 87 50 88 51 89 59 90 52 91 54 92 60 93 53 94
REMARK SMILES IDX 55 95 56 96 57 97 58 98
REMARK H PARENT 80 51 48 62
REMARK Flexibility Score: inf
ROOT
ATOM      1  C   UNL     1      -3.976   2.205   2.002  1.00  0.00     0.188 C 
ENDROOT
BRANCH   1   2
ATOM      2  O   UNL     1      -2.681   1.632   2.170  1.00  0.00    -0.377 OA
BRANCH   2   3
ATOM      3  C   UNL     1      -2.685   0.266   2.553  1.00  0.00     0.188 C 
BRANCH   3   4
ATOM      4  C   UNL     1      -2.468   0.028   4.067  1.00  0.00     0.188 C 
BRANCH   4   5
ATOM      5  O   UNL     1      -2.342   1.105   4.992  1.00  0.00    -0.376 OA
BRANCH   5   6
ATOM      6  C   UNL     1      -1.702   2.316   4.630  1.00  0.00     0.202 C 
BRANCH   6   7
ATOM      7  C   UNL     1      -0.293   2.312   4.018  1.00  0.00     0.261 C 
BRANCH   7   8
ATOM      8  O   UNL     1       0.005   1.220   3.146  1.00  0.00    -0.460 OA
BRANCH   8   9
ATOM      9  C   UNL     1       0.677   0.176   3.700  1.00  0.00     0.342 C 
ATOM     10  O   UNL     1       1.156   0.173   4.829  1.00  0.00    -0.246 OA
BRANCH   9  11
ATOM     11  C   UNL     1       0.716  -0.982   2.826  1.00  0.00     0.112 A 
ATOM     12  C   UNL     1       1.120   0.049   0.420  1.00  0.00     0.088 C 
ATOM     13  C   UNL     1       0.929  -0.995   1.451  1.00  0.00     0.116 A 
ATOM     14  O   UNL     1       1.000  -2.283   0.993  1.00  0.00    -0.465 OA
ATOM     15  C   UNL     1       0.758  -3.080   2.055  1.00  0.00     0.116 A 
ATOM     16  C   UNL     1       0.504  -2.346   3.184  1.00  0.00     0.074 A 
ATOM     17  C   UNL     1       0.808  -4.549   1.907  1.00  0.00     0.088 C 
ATOM     18  C   UNL     1       0.085  -3.011   4.399  1.00  0.00     0.168 C 
ATOM     19  C   UNL     1       0.006  -5.210   3.058  1.00  0.00     0.071 C 
ATOM     20  O   UNL     1      -0.358  -2.408   5.372  1.00  0.00    -0.294 OA
ATOM     21  C   UNL     1       0.235  -4.525   4.427  1.00  0.00     0.093 C 
BRANCH  19  22
ATOM     22  C   UNL     1       0.311  -6.674   3.191  1.00  0.00     0.107 A 
ATOM     23  C   UNL     1      -0.270  -7.694   3.920  1.00  0.00     0.046 A 
ATOM     24  O   UNL     1       1.401  -7.152   2.525  1.00  0.00    -0.469 OA
ATOM     25  C   UNL     1       0.514  -8.851   3.686  1.00  0.00     0.042 A 
ATOM     26  C   UNL     1       1.511  -8.469   2.822  1.00  0.00     0.195 A 
ENDBRANCH  19  22
ENDBRANCH   9  11
ENDBRANCH   8   9
ENDBRANCH   7   8
ENDBRANCH   6   7
ENDBRANCH   5   6
ENDBRANCH   4   5
ENDBRANCH   3   4
ENDBRANCH   2   3
ENDBRANCH   1   2
BRANCH   1  27
ATOM     27  C   UNL     1      -4.973   2.040   3.176  1.00  0.00     0.188 C 
BRANCH  27  28
ATOM     28  O   UNL     1      -5.075   0.708   3.676  1.00  0.00    -0.376 OA
BRANCH  28  29
ATOM     29  C   UNL     1      -6.244  -0.062   3.446  1.00  0.00     0.202 C 
BRANCH  29  30
ATOM     30  C   UNL     1      -6.369  -0.653   2.048  1.00  0.00     0.261 C 
BRANCH  30  31
ATOM     31  O   UNL     1      -6.142   0.295   1.025  1.00  0.00    -0.460 OA
BRANCH  31  32
ATOM     32  C   UNL     1      -7.021   1.312   0.964  1.00  0.00     0.338 C 
ATOM     33  O   UNL     1      -7.896   1.588   1.764  1.00  0.00    -0.246 OA
BRANCH  32  34
ATOM     34  C   UNL     1      -6.818   1.993  -0.315  1.00  0.00     0.060 A 
ATOM     35  C   UNL     1      -7.649   3.085  -0.558  1.00  0.00     0.016 A 
ATOM     36  C   UNL     1      -6.135   1.307  -1.333  1.00  0.00     0.016 A 
ATOM     37  C   UNL     1      -8.046   3.293  -1.853  1.00  0.00     0.010 A 
ATOM     38  C   UNL     1      -6.559   1.491  -2.617  1.00  0.00     0.010 A 
ATOM     39  C   UNL     1      -7.584   2.406  -2.828  1.00  0.00    -0.014 A 
BRANCH  39  40
ATOM     40  C   UNL     1      -8.235   2.433  -4.108  1.00  0.00     0.031 A 
ATOM     41  C   UNL     1      -7.712   3.475  -5.000  1.00  0.00     0.074 A 
ATOM     42  C   UNL     1      -9.149   1.506  -4.443  1.00  0.00     0.049 A 
ATOM     43  N   UNL     1      -8.314   4.549  -5.383  1.00  0.00    -0.248 NA
ATOM     44  C   UNL     1      -6.286   3.411  -5.353  1.00  0.00     0.031 C 
ATOM     45  C   UNL     1      -9.468   0.258  -3.742  1.00  0.00     0.029 A 
ATOM     46  N   UNL     1      -9.863   1.414  -5.591  1.00  0.00    -0.354 N 
ATOM     47  C   UNL     1      -7.412   5.170  -6.236  1.00  0.00     0.074 A 
ATOM     48  C   UNL     1      -6.128   4.571  -5.987  1.00  0.00     0.031 C 
ATOM     49  C   UNL     1     -10.088  -0.575  -4.608  1.00  0.00     0.029 A 
ATOM     50  C   UNL     1     -10.298   0.126  -5.864  1.00  0.00     0.049 A 
ATOM     51  H   UNL     1     -10.054   2.185  -6.173  1.00  0.00     0.167 HD
ATOM     52  C   UNL     1      -7.840   5.911  -7.289  1.00  0.00     0.034 A 
ATOM     53  C   UNL     1     -10.667  -0.338  -7.083  1.00  0.00     0.034 A 
ATOM     54  C   UNL     1      -9.229   6.272  -7.164  1.00  0.00     0.049 A 
ATOM     55  C   UNL     1     -10.967   0.844  -7.935  1.00  0.00     0.074 A 
ATOM     56  C   UNL     1      -9.981   6.916  -6.200  1.00  0.00     0.029 A 
ATOM     57  N   UNL     1     -10.129   5.611  -7.966  1.00  0.00    -0.354 N 
ATOM     58  N   UNL     1     -11.976   1.648  -7.734  1.00  0.00    -0.248 NA
ATOM     59  C   UNL     1      -9.891   1.390  -8.751  1.00  0.00     0.031 C 
ATOM     60  C   UNL     1     -11.229   6.229  -6.188  1.00  0.00     0.029 A 
ATOM     61  C   UNL     1     -11.184   5.241  -7.174  1.00  0.00     0.049 A 
ATOM     62  H   UNL     1     -10.033   5.435  -8.931  1.00  0.00     0.167 HD
ATOM     63  C   UNL     1     -11.474   2.917  -8.007  1.00  0.00     0.074 A 
ATOM     64  C   UNL     1     -10.229   2.683  -8.734  1.00  0.00     0.031 C 
ATOM     65  C   UNL     1     -11.947   4.025  -7.360  1.00  0.00     0.034 A 
BRANCH  52  66
ATOM     66  C   UNL     1      -7.111   5.987  -8.604  1.00  0.00     0.023 A 
ATOM     67  C   UNL     1      -7.545   6.962  -9.525  1.00  0.00     0.012 A 
ATOM     68  C   UNL     1      -6.213   5.004  -9.081  1.00  0.00     0.148 A 
ATOM     69  C   UNL     1      -7.138   6.934 -10.861  1.00  0.00     0.002 A 
ATOM     70  C   UNL     1      -5.734   5.040 -10.383  1.00  0.00     0.091 A 
ATOM     71  F   UNL     1      -5.921   3.933  -8.336  1.00  0.00    -0.205 F 
ATOM     72  C   UNL     1      -6.219   5.982 -11.289  1.00  0.00     0.022 A 
BRANCH  70  73
ATOM     73  S   UNL     1      -4.491   3.869 -10.940  1.00  0.00     0.127 S 
ATOM     74  O   UNL     1      -5.306   2.892 -11.654  1.00  0.00    -0.237 OA
ATOM     75  O   UNL     1      -3.642   4.709 -11.786  1.00  0.00    -0.237 OA
ATOM     76  O   UNL     1      -3.836   3.402  -9.724  1.00  0.00    -0.744 OA
ENDBRANCH  70  73
ENDBRANCH  52  66
BRANCH  53  77
ATOM     77  C   UNL     1     -10.501  -1.702  -7.638  1.00  0.00     0.023 A 
ATOM     78  C   UNL     1     -11.252  -2.085  -8.766  1.00  0.00     0.012 A 
ATOM     79  C   UNL     1      -9.449  -2.551  -7.224  1.00  0.00     0.148 A 
ATOM     80  C   UNL     1     -10.955  -3.261  -9.465  1.00  0.00     0.002 A 
ATOM     81  C   UNL     1      -9.175  -3.733  -7.905  1.00  0.00     0.091 A 
ATOM     82  F   UNL     1      -8.649  -2.160  -6.223  1.00  0.00    -0.205 F 
ATOM     83  C   UNL     1      -9.918  -4.086  -9.036  1.00  0.00     0.022 A 
BRANCH  81  84
ATOM     84  S   UNL     1      -7.856  -4.840  -7.385  1.00  0.00     0.127 S 
ATOM     85  O   UNL     1      -8.480  -6.156  -7.538  1.00  0.00    -0.237 OA
ATOM     86  O   UNL     1      -6.808  -4.543  -8.357  1.00  0.00    -0.237 OA
ATOM     87  O   UNL     1      -7.564  -4.480  -6.003  1.00  0.00    -0.744 OA
ENDBRANCH  81  84
ENDBRANCH  53  77
BRANCH  65  88
ATOM     88  C   UNL     1     -13.197   3.900  -6.521  1.00  0.00     0.023 A 
ATOM     89  C   UNL     1     -13.264   3.030  -5.412  1.00  0.00     0.012 A 
ATOM     90  C   UNL     1     -14.240   4.822  -6.721  1.00  0.00     0.148 A 
ATOM     91  C   UNL     1     -14.354   3.063  -4.538  1.00  0.00     0.002 A 
ATOM     92  C   UNL     1     -15.298   4.886  -5.821  1.00  0.00     0.091 A 
ATOM     93  F   UNL     1     -14.163   5.650  -7.774  1.00  0.00    -0.205 F 
ATOM     94  C   UNL     1     -15.363   4.002  -4.733  1.00  0.00     0.022 A 
BRANCH  92  95
ATOM     95  S   UNL     1     -16.552   6.166  -5.937  1.00  0.00     0.127 S 
ATOM     96  O   UNL     1     -17.674   5.442  -6.529  1.00  0.00    -0.237 OA
ATOM     97  O   UNL     1     -16.742   6.553  -4.538  1.00  0.00    -0.237 OA
ATOM     98  O   UNL     1     -15.971   7.216  -6.766  1.00  0.00    -0.744 OA
ENDBRANCH  92  95
ENDBRANCH  65  88
ENDBRANCH  39  40
ENDBRANCH  32  34
ENDBRANCH  31  32
ENDBRANCH  30  31
ENDBRANCH  29  30
ENDBRANCH  28  29
ENDBRANCH  27  28
ENDBRANCH   1  27
TORSDOF 24
