REMARK SMILES O=C(OCCOCCOCCOCCOC(=O)[C@@]1([C@@H]2CCC[C@@H]2O)CCCc2ccccc21)c1ccc(-c2c3nc(c(-c4cccc(S(=O)(=O)[O-])c4F)c4ccc([nH]4)c(-c4cccc(S(=O)(=O)[O-])c4F)c4nc(c(-c5cccc(S(=O)(=O)[O-])c5F)c5ccc2[nH]5)C=C4)C=C3)cc1
REMARK SMILES IDX 8 1 7 2 6 3 5 4 4 5 3 6 2 7 1 8 34 9 35 10 96 11 36 12 95 13
REMARK SMILES IDX 37 14 38 15 39 16 89 17 40 18 94 19 88 20 90 21 41 22 93 23
REMARK SMILES IDX 87 24 86 25 42 27 74 28 54 29 73 30 55 31 58 32 72 33 91 34
REMARK SMILES IDX 56 35 57 36 71 38 92 39 59 40 43 41 44 42 52 43 45 44 47 45
REMARK SMILES IDX 53 46 46 47 48 48 49 49 50 50 51 51 75 52 76 53 84 54 77 55
REMARK SMILES IDX 79 56 85 57 78 58 80 59 81 60 82 61 83 62 60 63 61 64 69 65
REMARK SMILES IDX 62 66 64 67 70 68 63 69 65 70 66 71 67 72 68 73 9 74 10 75
REMARK SMILES IDX 11 76 12 77 13 78 14 79 15 80 16 81 17 82 18 83 25 84 33 85
REMARK SMILES IDX 26 86 28 87 32 88 27 89 29 90 31 91 30 92 19 93 20 94 23 95
REMARK SMILES IDX 21 96 22 97 24 98
REMARK H PARENT 90 26 58 37 24 99
REMARK Flexibility Score: inf
ROOT
ATOM      1  C   UNL     1       5.408  -7.513   4.593  1.00  0.00     0.188 C 
ENDROOT
BRANCH   1   2
ATOM      2  C   UNL     1       6.608  -8.460   4.533  1.00  0.00     0.188 C 
BRANCH   2   3
ATOM      3  O   UNL     1       7.622  -8.043   5.444  1.00  0.00    -0.376 OA
BRANCH   3   4
ATOM      4  C   UNL     1       8.978  -8.172   5.021  1.00  0.00     0.202 C 
BRANCH   4   5
ATOM      5  C   UNL     1       9.567  -9.543   5.331  1.00  0.00     0.261 C 
BRANCH   5   6
ATOM      6  O   UNL     1       8.583 -10.577   5.232  1.00  0.00    -0.460 OA
BRANCH   6   7
ATOM      7  C   UNL     1       7.713 -10.956   6.205  1.00  0.00     0.338 C 
ATOM      8  O   UNL     1       6.868 -11.804   5.922  1.00  0.00    -0.246 OA
BRANCH   7   9
ATOM      9  C   UNL     1       7.739 -10.434   7.609  1.00  0.00     0.060 A 
ATOM     10  C   UNL     1       8.083  -9.136   8.006  1.00  0.00     0.016 A 
ATOM     11  C   UNL     1       7.285 -11.317   8.598  1.00  0.00     0.016 A 
ATOM     12  C   UNL     1       7.997  -8.717   9.320  1.00  0.00     0.010 A 
ATOM     13  C   UNL     1       7.196 -10.910   9.929  1.00  0.00     0.010 A 
ATOM     14  C   UNL     1       7.564  -9.608  10.285  1.00  0.00    -0.014 A 
BRANCH  14  15
ATOM     15  C   UNL     1       7.682  -9.200  11.687  1.00  0.00     0.031 A 
ATOM     16  C   UNL     1       8.809  -9.786  12.468  1.00  0.00     0.074 A 
ATOM     17  C   UNL     1       6.844  -8.280  12.192  1.00  0.00     0.049 A 
ATOM     18  N   UNL     1       9.027  -9.754  13.748  1.00  0.00    -0.248 NA
ATOM     19  C   UNL     1       9.836 -10.513  11.695  1.00  0.00     0.031 C 
ATOM     20  C   UNL     1       5.817  -7.560  11.432  1.00  0.00     0.029 A 
ATOM     21  N   UNL     1       6.710  -7.808  13.468  1.00  0.00    -0.354 N 
ATOM     22  C   UNL     1      10.154 -10.538  13.948  1.00  0.00     0.074 A 
ATOM     23  C   UNL     1      10.614 -10.986  12.656  1.00  0.00     0.031 C 
ATOM     24  C   UNL     1       5.128  -6.769  12.270  1.00  0.00     0.029 A 
ATOM     25  C   UNL     1       5.609  -6.998  13.626  1.00  0.00     0.049 A 
ATOM     26  H   UNL     1       7.335  -8.026  14.197  1.00  0.00     0.167 HD
ATOM     27  C   UNL     1      10.717 -10.874  15.127  1.00  0.00     0.034 A 
ATOM     28  C   UNL     1       5.020  -6.572  14.758  1.00  0.00     0.034 A 
ATOM     29  C   UNL     1      10.225 -10.385  16.381  1.00  0.00     0.049 A 
ATOM     30  C   UNL     1       5.639  -7.007  16.060  1.00  0.00     0.074 A 
ATOM     31  C   UNL     1      10.697 -10.638  17.652  1.00  0.00     0.029 A 
ATOM     32  N   UNL     1       9.121  -9.551  16.511  1.00  0.00    -0.354 N 
ATOM     33  N   UNL     1       6.720  -7.726  16.259  1.00  0.00    -0.248 NA
ATOM     34  C   UNL     1       4.967  -6.578  17.292  1.00  0.00     0.031 C 
ATOM     35  C   UNL     1       9.848  -9.991  18.555  1.00  0.00     0.029 A 
ATOM     36  C   UNL     1       8.877  -9.298  17.844  1.00  0.00     0.049 A 
ATOM     37  H   UNL     1       8.593  -9.193  15.762  1.00  0.00     0.167 HD
ATOM     38  C   UNL     1       6.871  -7.821  17.635  1.00  0.00     0.074 A 
ATOM     39  C   UNL     1       5.783  -7.058  18.220  1.00  0.00     0.031 C 
ATOM     40  C   UNL     1       7.803  -8.487  18.360  1.00  0.00     0.034 A 
BRANCH  27  41
ATOM     41  C   UNL     1      11.847 -11.862  15.103  1.00  0.00     0.023 A 
ATOM     42  C   UNL     1      13.122 -11.492  14.634  1.00  0.00     0.012 A 
ATOM     43  C   UNL     1      11.629 -13.179  15.554  1.00  0.00     0.148 A 
ATOM     44  C   UNL     1      14.157 -12.426  14.590  1.00  0.00     0.002 A 
ATOM     45  C   UNL     1      12.676 -14.090  15.552  1.00  0.00     0.091 A 
ATOM     46  F   UNL     1      10.397 -13.517  15.959  1.00  0.00    -0.205 F 
ATOM     47  C   UNL     1      13.937 -13.720  15.058  1.00  0.00     0.022 A 
BRANCH  45  48
ATOM     48  S   UNL     1      12.505 -15.758  16.194  1.00  0.00     0.127 S 
ATOM     49  O   UNL     1      12.751 -16.561  14.993  1.00  0.00    -0.237 OA
ATOM     50  O   UNL     1      13.581 -15.807  17.187  1.00  0.00    -0.237 OA
ATOM     51  O   UNL     1      11.163 -15.852  16.736  1.00  0.00    -0.744 OA
ENDBRANCH  45  48
ENDBRANCH  27  41
BRANCH  28  52
ATOM     52  C   UNL     1       3.766  -5.765  14.711  1.00  0.00     0.023 A 
ATOM     53  C   UNL     1       3.763  -4.447  15.206  1.00  0.00     0.012 A 
ATOM     54  C   UNL     1       2.572  -6.296  14.179  1.00  0.00     0.148 A 
ATOM     55  C   UNL     1       2.590  -3.689  15.208  1.00  0.00     0.002 A 
ATOM     56  C   UNL     1       1.422  -5.516  14.130  1.00  0.00     0.091 A 
ATOM     57  F   UNL     1       2.581  -7.559  13.729  1.00  0.00    -0.205 F 
ATOM     58  C   UNL     1       1.423  -4.219  14.663  1.00  0.00     0.022 A 
BRANCH  56  59
ATOM     59  S   UNL     1      -0.088  -6.077  13.334  1.00  0.00     0.127 S 
ATOM     60  O   UNL     1      -0.957  -6.325  14.484  1.00  0.00    -0.237 OA
ATOM     61  O   UNL     1      -0.457  -4.912  12.527  1.00  0.00    -0.237 OA
ATOM     62  O   UNL     1       0.287  -7.248  12.559  1.00  0.00    -0.744 OA
ENDBRANCH  56  59
ENDBRANCH  28  52
BRANCH  40  63
ATOM     63  C   UNL     1       7.706  -8.389  19.855  1.00  0.00     0.023 A 
ATOM     64  C   UNL     1       6.712  -9.110  20.541  1.00  0.00     0.012 A 
ATOM     65  C   UNL     1       8.683  -7.678  20.576  1.00  0.00     0.148 A 
ATOM     66  C   UNL     1       6.680  -9.108  21.933  1.00  0.00     0.002 A 
ATOM     67  C   UNL     1       8.680  -7.729  21.961  1.00  0.00     0.091 A 
ATOM     68  F   UNL     1       9.609  -6.990  19.891  1.00  0.00    -0.205 F 
ATOM     69  C   UNL     1       7.673  -8.433  22.642  1.00  0.00     0.022 A 
BRANCH  67  70
ATOM     70  S   UNL     1       9.984  -6.993  22.950  1.00  0.00     0.127 S 
ATOM     71  O   UNL     1       9.268  -5.915  23.631  1.00  0.00    -0.237 OA
ATOM     72  O   UNL     1      10.379  -8.106  23.814  1.00  0.00    -0.237 OA
ATOM     73  O   UNL     1      11.010  -6.559  22.012  1.00  0.00    -0.744 OA
ENDBRANCH  67  70
ENDBRANCH  40  63
ENDBRANCH  14  15
ENDBRANCH   7   9
ENDBRANCH   6   7
ENDBRANCH   5   6
ENDBRANCH   4   5
ENDBRANCH   3   4
ENDBRANCH   2   3
ENDBRANCH   1   2
BRANCH   1  74
ATOM     74  O   UNL     1       5.718  -6.178   4.215  1.00  0.00    -0.377 OA
BRANCH  74  75
ATOM     75  C   UNL     1       6.757  -5.591   4.984  1.00  0.00     0.188 C 
BRANCH  75  76
ATOM     76  C   UNL     1       6.594  -5.456   6.510  1.00  0.00     0.188 C 
BRANCH  76  77
ATOM     77  O   UNL     1       5.271  -5.703   6.944  1.00  0.00    -0.376 OA
BRANCH  77  78
ATOM     78  C   UNL     1       4.497  -4.530   7.145  1.00  0.00     0.202 C 
BRANCH  78  79
ATOM     79  C   UNL     1       4.132  -3.726   5.886  1.00  0.00     0.261 C 
BRANCH  79  80
ATOM     80  O   UNL     1       5.176  -3.295   4.970  1.00  0.00    -0.463 OA
BRANCH  80  81
ATOM     81  C   UNL     1       6.243  -2.527   5.342  1.00  0.00     0.317 C 
ATOM     82  O   UNL     1       6.394  -2.149   6.497  1.00  0.00    -0.251 OA
BRANCH  81  83
ATOM     83  C   UNL     1       7.209  -2.140   4.074  1.00  0.00     0.098 C 
ATOM     84  C   UNL     1       6.608  -2.774   2.763  1.00  0.00     0.024 C 
ATOM     85  C   UNL     1       7.101  -0.584   4.002  1.00  0.00    -0.027 A 
ATOM     86  C   UNL     1       6.803  -2.019   1.456  1.00  0.00     0.006 C 
ATOM     87  C   UNL     1       6.723   0.111   2.845  1.00  0.00    -0.044 A 
ATOM     88  C   UNL     1       7.426   0.167   5.159  1.00  0.00     0.005 A 
ATOM     89  C   UNL     1       6.355  -0.573   1.558  1.00  0.00     0.036 C 
ATOM     90  C   UNL     1       6.628   1.514   2.896  1.00  0.00     0.004 A 
ATOM     91  C   UNL     1       7.323   1.549   5.198  1.00  0.00     0.000 A 
ATOM     92  C   UNL     1       6.916   2.225   4.062  1.00  0.00     0.000 A 
BRANCH  83  93
ATOM     93  C   UNL     1       8.810  -2.391   4.264  1.00  0.00     0.040 C 
ATOM     94  C   UNL     1       9.665  -2.070   3.006  1.00  0.00     0.008 C 
ATOM     95  C   UNL     1       9.540  -3.699   4.629  1.00  0.00     0.119 C 
ATOM     96  C   UNL     1       9.973  -3.412   2.311  1.00  0.00     0.003 C 
ATOM     97  C   UNL     1       9.666  -4.492   3.340  1.00  0.00     0.032 C 
BRANCH  95  98
ATOM     98  O   UNL     1       9.063  -4.405   5.731  1.00  0.00    -0.393 OA
ATOM     99  H   UNL     1       8.160  -4.712   5.552  1.00  0.00     0.210 HD
ENDBRANCH  95  98
ENDBRANCH  83  93
ENDBRANCH  81  83
ENDBRANCH  80  81
ENDBRANCH  79  80
ENDBRANCH  78  79
ENDBRANCH  77  78
ENDBRANCH  76  77
ENDBRANCH  75  76
ENDBRANCH  74  75
ENDBRANCH   1  74
TORSDOF 25
