REMARK SMILES COc1ccc(-c2[nH]nc3nc(-c4ccc(C(F)(F)F)cc4)cc(C(=O)OCCOCCOCCOCCOC(=O)c4ccc(-c5c6nc(c(-c7cccc(S(=O)(=O)[O-])c7F)c7ccc([nH]7)c(-c7cccc(S(=O)(=O)[O-])c7F)c7nc(c(-c8cccc(S(=O)(=O)[O-])c8F)c8ccc5[nH]8)C=C7)C=C6)cc4)c23)cc1
REMARK SMILES IDX 34 1 33 2 32 3 31 4 30 5 29 6 28 7 27 8 25 9 26 10 24 11
REMARK SMILES IDX 7 12 8 13 105 14 9 15 10 17 11 18 23 19 12 20 6 21 3 22 4 23
REMARK SMILES IDX 107 24 5 25 106 26 2 27 1 28 13 29 14 30 22 31 15 32 21 33
REMARK SMILES IDX 16 34 17 35 18 36 19 37 20 38 35 39 36 40 37 41 38 42 39 43
REMARK SMILES IDX 40 44 41 45 42 46 43 47 104 48 44 49 103 50 45 51 46 52
REMARK SMILES IDX 47 53 97 54 48 55 102 56 96 57 98 58 49 59 101 60 95 61
REMARK SMILES IDX 94 62 50 64 82 65 62 66 81 67 63 68 66 69 80 70 99 71 64 72
REMARK SMILES IDX 65 73 79 75 100 76 67 77 51 78 52 79 60 80 53 81 55 82 61 83
REMARK SMILES IDX 54 84 56 85 57 86 58 87 59 88 83 89 84 90 92 91 85 92 87 93
REMARK SMILES IDX 93 94 86 95 88 96 89 97 90 98 91 99 68 100 69 101 77 102
REMARK SMILES IDX 70 103 72 104 78 105 71 106 73 107 74 108 75 109 76 110
REMARK H PARENT 8 16 98 63 66 74
REMARK Flexibility Score: inf
ROOT
ATOM      1  C   UNL     1       7.233   3.722  -1.357  1.00  0.00     0.188 C 
ENDROOT
BRANCH   1   2
ATOM      2  O   UNL     1       7.412   4.553  -0.212  1.00  0.00    -0.377 OA
BRANCH   2   3
ATOM      3  C   UNL     1       6.242   4.857   0.539  1.00  0.00     0.188 C 
BRANCH   3   4
ATOM      4  C   UNL     1       5.015   5.227  -0.281  1.00  0.00     0.188 C 
BRANCH   4   5
ATOM      5  O   UNL     1       4.608   4.290  -1.259  1.00  0.00    -0.376 OA
BRANCH   5   6
ATOM      6  C   UNL     1       3.735   4.678  -2.307  1.00  0.00     0.202 C 
BRANCH   6   7
ATOM      7  C   UNL     1       3.733   6.140  -2.783  1.00  0.00     0.261 C 
BRANCH   7   8
ATOM      8  O   UNL     1       3.663   7.138  -1.744  1.00  0.00    -0.460 OA
BRANCH   8   9
ATOM      9  C   UNL     1       2.663   7.066  -0.840  1.00  0.00     0.339 C 
ATOM     10  O   UNL     1       1.576   6.540  -1.041  1.00  0.00    -0.246 OA
BRANCH   9  11
ATOM     11  C   UNL     1       3.146   7.641   0.439  1.00  0.00     0.075 A 
ATOM     12  C   UNL     1       1.941   6.246   2.186  1.00  0.00     0.075 A 
ATOM     13  N   UNL     1       1.825   6.463   3.542  1.00  0.00    -0.275 N 
ATOM     14  C   UNL     1       2.710   7.311   1.733  1.00  0.00     0.061 A 
ATOM     15  N   UNL     1       2.589   7.450   4.022  1.00  0.00    -0.154 NA
ATOM     16  H   UNL     1       1.225   5.931   4.114  1.00  0.00     0.190 HD
ATOM     17  C   UNL     1       3.197   7.929   2.938  1.00  0.00     0.182 A 
ATOM     18  N   UNL     1       4.183   8.855   2.944  1.00  0.00    -0.226 NA
ATOM     19  C   UNL     1       4.216   8.569   0.499  1.00  0.00     0.045 A 
ATOM     20  C   UNL     1       4.697   9.130   1.715  1.00  0.00     0.074 A 
BRANCH  12  21
ATOM     21  C   UNL     1       1.478   4.980   1.625  1.00  0.00     0.001 A 
ATOM     22  C   UNL     1       0.671   2.495   0.556  1.00  0.00     0.118 A 
ATOM     23  C   UNL     1      -0.116   3.639   0.394  1.00  0.00     0.047 A 
ATOM     24  C   UNL     1       1.848   2.587   1.294  1.00  0.00     0.047 A 
ATOM     25  C   UNL     1       0.276   4.871   0.933  1.00  0.00     0.014 A 
ATOM     26  C   UNL     1       2.244   3.820   1.829  1.00  0.00     0.014 A 
BRANCH  22  27
ATOM     27  O   UNL     1       0.189   1.371  -0.055  1.00  0.00    -0.497 OA
ATOM     28  C   UNL     1       0.988   0.195   0.030  1.00  0.00     0.278 C 
ENDBRANCH  22  27
ENDBRANCH  12  21
BRANCH  20  29
ATOM     29  C   UNL     1       5.803  10.125   1.723  1.00  0.00     0.000 A 
ATOM     30  C   UNL     1       6.760  10.164   2.756  1.00  0.00     0.011 A 
ATOM     31  C   UNL     1       5.907  11.105   0.721  1.00  0.00     0.011 A 
ATOM     32  C   UNL     1       7.758  11.152   2.797  1.00  0.00     0.014 A 
ATOM     33  C   UNL     1       6.897  12.094   0.759  1.00  0.00     0.014 A 
ATOM     34  C   UNL     1       7.827  12.138   1.805  1.00  0.00     0.056 A 
BRANCH  34  35
ATOM     35  C   UNL     1       8.858  13.241   1.877  1.00  0.00     0.416 C 
ATOM     36  F   UNL     1       8.722  14.006   2.998  1.00  0.00    -0.166 F 
ATOM     37  F   UNL     1      10.136  12.781   1.885  1.00  0.00    -0.166 F 
ATOM     38  F   UNL     1       8.781  14.116   0.832  1.00  0.00    -0.166 F 
ENDBRANCH  34  35
ENDBRANCH  20  29
ENDBRANCH   9  11
ENDBRANCH   8   9
ENDBRANCH   7   8
ENDBRANCH   6   7
ENDBRANCH   5   6
ENDBRANCH   4   5
ENDBRANCH   3   4
ENDBRANCH   2   3
ENDBRANCH   1   2
BRANCH   1  39
ATOM     39  C   UNL     1       6.588   2.319  -1.168  1.00  0.00     0.188 C 
BRANCH  39  40
ATOM     40  O   UNL     1       5.626   2.213  -0.125  1.00  0.00    -0.376 OA
BRANCH  40  41
ATOM     41  C   UNL     1       5.887   1.563   1.110  1.00  0.00     0.202 C 
BRANCH  41  42
ATOM     42  C   UNL     1       7.129   1.845   1.958  1.00  0.00     0.261 C 
BRANCH  42  43
ATOM     43  O   UNL     1       8.212   2.391   1.251  1.00  0.00    -0.460 OA
BRANCH  43  44
ATOM     44  C   UNL     1       8.908   1.501   0.528  1.00  0.00     0.338 C 
ATOM     45  O   UNL     1       8.624   0.331   0.330  1.00  0.00    -0.246 OA
BRANCH  44  46
ATOM     46  C   UNL     1      10.138   2.153   0.083  1.00  0.00     0.060 A 
ATOM     47  C   UNL     1      10.947   1.388  -0.754  1.00  0.00     0.016 A 
ATOM     48  C   UNL     1      10.621   3.226   0.846  1.00  0.00     0.016 A 
ATOM     49  C   UNL     1      12.298   1.478  -0.561  1.00  0.00     0.010 A 
ATOM     50  C   UNL     1      11.967   3.289   1.064  1.00  0.00     0.010 A 
ATOM     51  C   UNL     1      12.767   2.340   0.436  1.00  0.00    -0.014 A 
BRANCH  51  52
ATOM     52  C   UNL     1      14.181   2.342   0.711  1.00  0.00     0.031 A 
ATOM     53  C   UNL     1      14.889   3.072  -0.354  1.00  0.00     0.074 A 
ATOM     54  C   UNL     1      14.692   1.805   1.834  1.00  0.00     0.049 A 
ATOM     55  N   UNL     1      15.522   2.555  -1.355  1.00  0.00    -0.248 NA
ATOM     56  C   UNL     1      14.604   4.509  -0.505  1.00  0.00     0.031 C 
ATOM     57  C   UNL     1      13.953   1.325   3.010  1.00  0.00     0.029 A 
ATOM     58  N   UNL     1      15.989   1.695   2.224  1.00  0.00    -0.354 N 
ATOM     59  C   UNL     1      15.999   3.658  -2.054  1.00  0.00     0.074 A 
ATOM     60  C   UNL     1      15.145   4.753  -1.700  1.00  0.00     0.031 C 
ATOM     61  C   UNL     1      14.804   1.228   4.058  1.00  0.00     0.029 A 
ATOM     62  C   UNL     1      16.153   1.503   3.594  1.00  0.00     0.049 A 
ATOM     63  H   UNL     1      16.745   1.747   1.596  1.00  0.00     0.167 HD
ATOM     64  C   UNL     1      17.293   3.669  -2.475  1.00  0.00     0.034 A 
ATOM     65  C   UNL     1      17.310   1.636   4.288  1.00  0.00     0.034 A 
ATOM     66  C   UNL     1      17.842   2.335  -2.428  1.00  0.00     0.049 A 
ATOM     67  C   UNL     1      18.418   1.537   3.314  1.00  0.00     0.074 A 
ATOM     68  C   UNL     1      17.662   1.152  -3.108  1.00  0.00     0.029 A 
ATOM     69  N   UNL     1      18.433   2.039  -1.225  1.00  0.00    -0.354 N 
ATOM     70  N   UNL     1      18.707   0.436   2.679  1.00  0.00    -0.248 NA
ATOM     71  C   UNL     1      18.979   2.756   2.743  1.00  0.00     0.031 C 
ATOM     72  C   UNL     1      18.019   0.117  -2.195  1.00  0.00     0.029 A 
ATOM     73  C   UNL     1      18.461   0.693  -1.004  1.00  0.00     0.049 A 
ATOM     74  H   UNL     1      18.789   2.711  -0.601  1.00  0.00     0.167 HD
ATOM     75  C   UNL     1      19.055   0.871   1.412  1.00  0.00     0.074 A 
ATOM     76  C   UNL     1      19.392   2.280   1.565  1.00  0.00     0.031 C 
ATOM     77  C   UNL     1      18.705   0.144   0.313  1.00  0.00     0.034 A 
BRANCH  64  78
ATOM     78  C   UNL     1      18.222   4.870  -2.390  1.00  0.00     0.023 A 
ATOM     79  C   UNL     1      19.527   4.687  -2.901  1.00  0.00     0.012 A 
ATOM     80  C   UNL     1      18.014   6.024  -1.596  1.00  0.00     0.148 A 
ATOM     81  C   UNL     1      20.572   5.563  -2.588  1.00  0.00     0.002 A 
ATOM     82  C   UNL     1      19.038   6.927  -1.340  1.00  0.00     0.091 A 
ATOM     83  F   UNL     1      16.858   6.217  -0.963  1.00  0.00    -0.205 F 
ATOM     84  C   UNL     1      20.328   6.685  -1.808  1.00  0.00     0.022 A 
BRANCH  82  85
ATOM     85  S   UNL     1      18.767   8.405  -0.349  1.00  0.00     0.127 S 
ATOM     86  O   UNL     1      19.554   8.105   0.843  1.00  0.00    -0.237 OA
ATOM     87  O   UNL     1      19.320   9.444  -1.216  1.00  0.00    -0.237 OA
ATOM     88  O   UNL     1      17.325   8.496  -0.150  1.00  0.00    -0.744 OA
ENDBRANCH  82  85
ENDBRANCH  64  78
BRANCH  65  89
ATOM     89  C   UNL     1      17.561   2.046   5.689  1.00  0.00     0.023 A 
ATOM     90  C   UNL     1      18.767   1.679   6.320  1.00  0.00     0.012 A 
ATOM     91  C   UNL     1      16.766   3.041   6.297  1.00  0.00     0.148 A 
ATOM     92  C   UNL     1      19.188   2.309   7.497  1.00  0.00     0.002 A 
ATOM     93  C   UNL     1      17.189   3.667   7.467  1.00  0.00     0.091 A 
ATOM     94  F   UNL     1      15.643   3.430   5.678  1.00  0.00    -0.205 F 
ATOM     95  C   UNL     1      18.407   3.312   8.063  1.00  0.00     0.022 A 
BRANCH  93  96
ATOM     96  S   UNL     1      16.262   5.001   8.238  1.00  0.00     0.127 S 
ATOM     97  O   UNL     1      16.092   4.496   9.601  1.00  0.00    -0.237 OA
ATOM     98  O   UNL     1      17.188   6.124   8.113  1.00  0.00    -0.237 OA
ATOM     99  O   UNL     1      15.025   5.120   7.479  1.00  0.00    -0.744 OA
ENDBRANCH  93  96
ENDBRANCH  65  89
BRANCH  77 100
ATOM    100  C   UNL     1      18.417  -1.313   0.511  1.00  0.00     0.023 A 
ATOM    101  C   UNL     1      17.283  -1.799   1.191  1.00  0.00     0.012 A 
ATOM    102  C   UNL     1      19.276  -2.218  -0.130  1.00  0.00     0.148 A 
ATOM    103  C   UNL     1      17.023  -3.172   1.235  1.00  0.00     0.002 A 
ATOM    104  C   UNL     1      18.987  -3.572  -0.129  1.00  0.00     0.091 A 
ATOM    105  F   UNL     1      20.356  -1.726  -0.757  1.00  0.00    -0.205 F 
ATOM    106  C   UNL     1      17.866  -4.057   0.561  1.00  0.00     0.022 A 
BRANCH 104 107
ATOM    107  S   UNL     1      19.966  -4.726  -1.089  1.00  0.00     0.127 S 
ATOM    108  O   UNL     1      20.737  -5.407  -0.052  1.00  0.00    -0.237 OA
ATOM    109  O   UNL     1      18.940  -5.547  -1.732  1.00  0.00    -0.237 OA
ATOM    110  O   UNL     1      20.744  -3.915  -2.018  1.00  0.00    -0.744 OA
ENDBRANCH 104 107
ENDBRANCH  77 100
ENDBRANCH  51  52
ENDBRANCH  44  46
ENDBRANCH  43  44
ENDBRANCH  42  43
ENDBRANCH  41  42
ENDBRANCH  40  41
ENDBRANCH  39  40
ENDBRANCH   1  39
TORSDOF 27
