REMARK SMILES CC1=C(C)C[C@@H](C(=O)OCCOCCOCCOCCOC(=O)c2ccc(-c3c4nc(c(-c5cccc(S(=O)(=O)[O-])c5F)c5ccc([nH]5)c(-c5cccc(S(=O)(=O)[O-])c5F)c5nc(c(-c6cccc(S(=O)(=O)[O-])c6F)c6ccc3[nH]6)C=C5)C=C4)cc2)[C@H](C(=O)NCC(=O)c2ccccc2)C1
REMARK SMILES IDX 14 1 13 2 12 3 11 4 10 5 9 6 7 7 8 8 6 9 1 10 2 11 3 12
REMARK SMILES IDX 100 13 4 14 5 15 87 16 88 17 89 18 90 19 91 21 92 22 93 23
REMARK SMILES IDX 94 24 95 25 99 26 96 27 98 28 97 29 15 30 16 31 17 32 18 33
REMARK SMILES IDX 19 34 20 35 21 36 22 37 23 38 24 39 25 40 86 41 26 42 85 43
REMARK SMILES IDX 27 44 28 45 29 46 79 47 30 48 84 49 78 50 80 51 31 52 83 53
REMARK SMILES IDX 77 54 76 55 32 57 64 58 44 59 63 60 45 61 48 62 62 63 81 64
REMARK SMILES IDX 46 65 47 66 61 68 82 69 49 70 33 71 34 72 42 73 35 74 37 75
REMARK SMILES IDX 43 76 36 77 38 78 39 79 40 80 41 81 65 82 66 83 74 84 67 85
REMARK SMILES IDX 69 86 75 87 68 88 70 89 71 90 72 91 73 92 50 93 51 94 59 95
REMARK SMILES IDX 52 96 54 97 60 98 53 99 55 100 56 101 57 102 58 103
REMARK H PARENT 90 20 80 56 48 67
REMARK Flexibility Score: inf
ROOT
ATOM      1  C   UNL     1      -2.677   1.098  -5.266  1.00  0.00     0.188 C 
ENDROOT
BRANCH   1   2
ATOM      2  C   UNL     1      -3.269   0.050  -6.212  1.00  0.00     0.188 C 
BRANCH   2   3
ATOM      3  O   UNL     1      -4.470  -0.646  -5.914  1.00  0.00    -0.376 OA
BRANCH   3   4
ATOM      4  C   UNL     1      -4.835  -0.994  -4.585  1.00  0.00     0.202 C 
BRANCH   4   5
ATOM      5  C   UNL     1      -3.903  -1.808  -3.668  1.00  0.00     0.261 C 
BRANCH   5   6
ATOM      6  O   UNL     1      -2.622  -1.234  -3.341  1.00  0.00    -0.463 OA
BRANCH   6   7
ATOM      7  C   UNL     1      -1.576  -1.715  -4.044  1.00  0.00     0.310 C 
ATOM      8  O   UNL     1      -1.680  -2.557  -4.934  1.00  0.00    -0.252 OA
BRANCH   7   9
ATOM      9  C   UNL     1      -0.202  -1.223  -3.601  1.00  0.00     0.116 C 
ATOM     10  C   UNL     1       1.099  -0.254   0.570  1.00  0.00     0.039 C 
ATOM     11  C   UNL     1       0.737  -0.655  -0.839  1.00  0.00    -0.074 C 
ATOM     12  C   UNL     1       0.718  -1.927  -1.280  1.00  0.00    -0.073 C 
ATOM     13  C   UNL     1       0.403   0.518  -1.713  1.00  0.00     0.045 C 
ATOM     14  C   UNL     1       1.076  -3.127  -0.444  1.00  0.00     0.039 C 
ATOM     15  C   UNL     1       0.370  -2.305  -2.691  1.00  0.00     0.046 C 
ATOM     16  C   UNL     1      -0.010   0.233  -3.156  1.00  0.00     0.097 C 
BRANCH  16  17
ATOM     17  C   UNL     1       0.899   1.016  -4.119  1.00  0.00     0.224 C 
ATOM     18  O   UNL     1       0.459   1.970  -4.770  1.00  0.00    -0.275 OA
ATOM     19  N   UNL     1       2.210   0.730  -4.323  1.00  0.00    -0.348 N 
ATOM     20  H   UNL     1       2.650   1.338  -4.960  1.00  0.00     0.163 HD
BRANCH  19  21
ATOM     21  C   UNL     1       3.094  -0.291  -3.794  1.00  0.00     0.197 C 
BRANCH  21  22
ATOM     22  C   UNL     1       3.474  -1.496  -4.671  1.00  0.00     0.181 C 
ATOM     23  O   UNL     1       4.444  -2.198  -4.372  1.00  0.00    -0.292 OA
BRANCH  22  24
ATOM     24  C   UNL     1       2.588  -1.983  -5.764  1.00  0.00     0.019 A 
ATOM     25  C   UNL     1       2.339  -3.364  -5.817  1.00  0.00     0.012 A 
ATOM     26  C   UNL     1       1.969  -1.139  -6.690  1.00  0.00     0.012 A 
ATOM     27  C   UNL     1       1.429  -3.883  -6.739  1.00  0.00     0.001 A 
ATOM     28  C   UNL     1       1.049  -1.662  -7.605  1.00  0.00     0.001 A 
ATOM     29  C   UNL     1       0.773  -3.029  -7.621  1.00  0.00     0.000 A 
ENDBRANCH  22  24
ENDBRANCH  21  22
ENDBRANCH  19  21
ENDBRANCH  16  17
ENDBRANCH   7   9
ENDBRANCH   6   7
ENDBRANCH   5   6
ENDBRANCH   4   5
ENDBRANCH   3   4
ENDBRANCH   2   3
ENDBRANCH   1   2
BRANCH   1  30
ATOM     30  O   UNL     1      -3.298   1.189  -4.002  1.00  0.00    -0.377 OA
BRANCH  30  31
ATOM     31  C   UNL     1      -4.248   2.224  -3.791  1.00  0.00     0.188 C 
BRANCH  31  32
ATOM     32  C   UNL     1      -5.072   2.679  -5.004  1.00  0.00     0.188 C 
BRANCH  32  33
ATOM     33  O   UNL     1      -4.270   3.146  -6.080  1.00  0.00    -0.376 OA
BRANCH  33  34
ATOM     34  C   UNL     1      -3.917   4.522  -6.136  1.00  0.00     0.202 C 
BRANCH  34  35
ATOM     35  C   UNL     1      -3.175   5.176  -4.956  1.00  0.00     0.261 C 
BRANCH  35  36
ATOM     36  O   UNL     1      -3.815   5.175  -3.669  1.00  0.00    -0.460 OA
BRANCH  36  37
ATOM     37  C   UNL     1      -5.091   5.601  -3.560  1.00  0.00     0.338 C 
ATOM     38  O   UNL     1      -5.783   6.077  -4.435  1.00  0.00    -0.246 OA
BRANCH  37  39
ATOM     39  C   UNL     1      -5.577   5.195  -2.221  1.00  0.00     0.060 A 
ATOM     40  C   UNL     1      -6.709   4.375  -2.128  1.00  0.00     0.016 A 
ATOM     41  C   UNL     1      -4.926   5.633  -1.065  1.00  0.00     0.016 A 
ATOM     42  C   UNL     1      -7.226   4.036  -0.877  1.00  0.00     0.010 A 
ATOM     43  C   UNL     1      -5.455   5.308   0.187  1.00  0.00     0.010 A 
ATOM     44  C   UNL     1      -6.633   4.545   0.285  1.00  0.00    -0.014 A 
BRANCH  44  45
ATOM     45  C   UNL     1      -7.352   4.462   1.579  1.00  0.00     0.031 A 
ATOM     46  C   UNL     1      -8.114   5.674   2.048  1.00  0.00     0.074 A 
ATOM     47  C   UNL     1      -7.332   3.343   2.325  1.00  0.00     0.049 A 
ATOM     48  N   UNL     1      -8.768   5.864   3.163  1.00  0.00    -0.248 NA
ATOM     49  C   UNL     1      -8.135   6.829   1.134  1.00  0.00     0.031 C 
ATOM     50  C   UNL     1      -6.646   2.103   1.971  1.00  0.00     0.029 A 
ATOM     51  N   UNL     1      -7.886   3.085   3.554  1.00  0.00    -0.354 N 
ATOM     52  C   UNL     1      -9.251   7.166   3.100  1.00  0.00     0.074 A 
ATOM     53  C   UNL     1      -8.803   7.725   1.844  1.00  0.00     0.031 C 
ATOM     54  C   UNL     1      -6.793   1.222   2.977  1.00  0.00     0.029 A 
ATOM     55  C   UNL     1      -7.557   1.847   4.055  1.00  0.00     0.049 A 
ATOM     56  H   UNL     1      -8.464   3.724   4.030  1.00  0.00     0.167 HD
ATOM     57  C   UNL     1     -10.011   7.834   3.999  1.00  0.00     0.034 A 
ATOM     58  C   UNL     1      -7.818   1.298   5.259  1.00  0.00     0.034 A 
ATOM     59  C   UNL     1     -10.461   7.272   5.243  1.00  0.00     0.049 A 
ATOM     60  C   UNL     1      -8.629   2.079   6.263  1.00  0.00     0.074 A 
ATOM     61  C   UNL     1     -11.264   7.853   6.209  1.00  0.00     0.029 A 
ATOM     62  N   UNL     1     -10.135   6.005   5.702  1.00  0.00    -0.354 N 
ATOM     63  N   UNL     1      -9.164   3.271   6.149  1.00  0.00    -0.248 NA
ATOM     64  C   UNL     1      -8.898   1.425   7.553  1.00  0.00     0.031 C 
ATOM     65  C   UNL     1     -11.391   6.950   7.269  1.00  0.00     0.029 A 
ATOM     66  C   UNL     1     -10.707   5.790   6.943  1.00  0.00     0.049 A 
ATOM     67  H   UNL     1      -9.578   5.355   5.216  1.00  0.00     0.167 HD
ATOM     68  C   UNL     1      -9.868   3.490   7.329  1.00  0.00     0.074 A 
ATOM     69  C   UNL     1      -9.704   2.301   8.138  1.00  0.00     0.031 C 
ATOM     70  C   UNL     1     -10.578   4.580   7.714  1.00  0.00     0.034 A 
BRANCH  57  71
ATOM     71  C   UNL     1     -10.411   9.248   3.664  1.00  0.00     0.023 A 
ATOM     72  C   UNL     1     -11.353   9.488   2.643  1.00  0.00     0.012 A 
ATOM     73  C   UNL     1      -9.889  10.335   4.392  1.00  0.00     0.148 A 
ATOM     74  C   UNL     1     -11.741  10.789   2.326  1.00  0.00     0.002 A 
ATOM     75  C   UNL     1     -10.318  11.625   4.104  1.00  0.00     0.091 A 
ATOM     76  F   UNL     1      -8.979  10.089   5.344  1.00  0.00    -0.205 F 
ATOM     77  C   UNL     1     -11.233  11.855   3.063  1.00  0.00     0.022 A 
BRANCH  75  78
ATOM     78  S   UNL     1      -9.784  13.057   5.046  1.00  0.00     0.127 S 
ATOM     79  O   UNL     1      -8.972  13.772   4.062  1.00  0.00    -0.237 OA
ATOM     80  O   UNL     1     -11.057  13.702   5.369  1.00  0.00    -0.237 OA
ATOM     81  O   UNL     1      -9.056  12.537   6.194  1.00  0.00    -0.744 OA
ENDBRANCH  75  78
ENDBRANCH  57  71
BRANCH  58  82
ATOM     82  C   UNL     1      -7.325  -0.072   5.582  1.00  0.00     0.023 A 
ATOM     83  C   UNL     1      -8.248  -1.122   5.754  1.00  0.00     0.012 A 
ATOM     84  C   UNL     1      -5.949  -0.337   5.727  1.00  0.00     0.148 A 
ATOM     85  C   UNL     1      -7.813  -2.402   6.100  1.00  0.00     0.002 A 
ATOM     86  C   UNL     1      -5.519  -1.627   6.014  1.00  0.00     0.091 A 
ATOM     87  F   UNL     1      -5.088   0.678   5.575  1.00  0.00    -0.205 F 
ATOM     88  C   UNL     1      -6.449  -2.657   6.221  1.00  0.00     0.022 A 
BRANCH  86  89
ATOM     89  S   UNL     1      -3.780  -2.075   6.068  1.00  0.00     0.127 S 
ATOM     90  O   UNL     1      -3.591  -2.371   7.486  1.00  0.00    -0.237 OA
ATOM     91  O   UNL     1      -3.743  -3.240   5.184  1.00  0.00    -0.237 OA
ATOM     92  O   UNL     1      -3.057  -0.914   5.565  1.00  0.00    -0.744 OA
ENDBRANCH  86  89
ENDBRANCH  58  82
BRANCH  70  93
ATOM     93  C   UNL     1     -11.284   4.525   9.045  1.00  0.00     0.023 A 
ATOM     94  C   UNL     1     -10.544   4.572  10.243  1.00  0.00     0.012 A 
ATOM     95  C   UNL     1     -12.693   4.503   9.104  1.00  0.00     0.148 A 
ATOM     96  C   UNL     1     -11.193   4.559  11.478  1.00  0.00     0.002 A 
ATOM     97  C   UNL     1     -13.333   4.546  10.336  1.00  0.00     0.091 A 
ATOM     98  F   UNL     1     -13.379   4.444   7.953  1.00  0.00    -0.205 F 
ATOM     99  C   UNL     1     -12.586   4.559  11.524  1.00  0.00     0.022 A 
BRANCH  97 100
ATOM    100  S   UNL     1     -15.120   4.651  10.491  1.00  0.00     0.127 S 
ATOM    101  O   UNL     1     -15.449   3.332  11.030  1.00  0.00    -0.237 OA
ATOM    102  O   UNL     1     -15.283   5.755  11.437  1.00  0.00    -0.237 OA
ATOM    103  O   UNL     1     -15.627   4.920   9.152  1.00  0.00    -0.744 OA
ENDBRANCH  97 100
ENDBRANCH  70  93
ENDBRANCH  44  45
ENDBRANCH  37  39
ENDBRANCH  36  37
ENDBRANCH  35  36
ENDBRANCH  34  35
ENDBRANCH  33  34
ENDBRANCH  32  33
ENDBRANCH  31  32
ENDBRANCH  30  31
ENDBRANCH   1  30
TORSDOF 27
