REMARK SMILES CC(C)[C@H](C(=O)OCCOCCOCCOCCOC(=O)c1ccc(-c2c3nc(c(-c4cccc(S(=O)(=O)[O-])c4F)c4ccc([nH]4)c(-c4cccc(S(=O)(=O)[O-])c4F)c4nc(c(-c5cccc(S(=O)(=O)[O-])c5F)c5ccc2[nH]5)C=C4)C=C3)cc1)N1C(=O)/C(=C/c2ccccc2Cl)SC1=S
REMARK SMILES IDX 14 1 13 2 12 3 11 4 10 5 9 6 8 7 7 8 5 9 6 10 4 11 2 12 1 13
REMARK SMILES IDX 3 14 85 15 86 16 98 17 87 18 88 19 97 20 99 21 89 22 90 23
REMARK SMILES IDX 91 24 95 25 92 26 94 27 96 28 93 29 15 30 16 31 17 32 18 33
REMARK SMILES IDX 19 34 20 35 21 36 22 37 23 38 84 39 24 40 83 41 25 42 26 43
REMARK SMILES IDX 27 44 77 45 28 46 82 47 76 48 78 49 29 50 81 51 75 52 74 53
REMARK SMILES IDX 30 55 62 56 42 57 61 58 43 59 46 60 60 61 79 62 44 63 45 64
REMARK SMILES IDX 59 66 80 67 47 68 31 69 32 70 40 71 33 72 35 73 41 74 34 75
REMARK SMILES IDX 36 76 37 77 38 78 39 79 63 80 64 81 72 82 65 83 67 84 73 85
REMARK SMILES IDX 66 86 68 87 69 88 70 89 71 90 48 91 49 92 57 93 50 94 52 95
REMARK SMILES IDX 58 96 51 97 53 98 54 99 55 100 56 101
REMARK H PARENT 78 54 46 65
REMARK Flexibility Score: inf
ROOT
ATOM      1  C   UNL     1       2.598  -2.742  -0.026  1.00  0.00     0.188 C 
ENDROOT
BRANCH   1   2
ATOM      2  O   UNL     1       1.728  -1.633  -0.221  1.00  0.00    -0.377 OA
BRANCH   2   3
ATOM      3  C   UNL     1       0.842  -1.742  -1.320  1.00  0.00     0.188 C 
BRANCH   3   4
ATOM      4  C   UNL     1       1.360  -1.006  -2.568  1.00  0.00     0.188 C 
BRANCH   4   5
ATOM      5  O   UNL     1       2.720  -0.613  -2.629  1.00  0.00    -0.376 OA
BRANCH   5   6
ATOM      6  C   UNL     1       3.353   0.226  -1.673  1.00  0.00     0.202 C 
BRANCH   6   7
ATOM      7  C   UNL     1       2.663   1.062  -0.579  1.00  0.00     0.261 C 
BRANCH   7   8
ATOM      8  O   UNL     1       1.242   1.076  -0.555  1.00  0.00    -0.462 OA
BRANCH   8   9
ATOM      9  C   UNL     1       0.621   1.861  -1.468  1.00  0.00     0.329 C 
ATOM     10  O   UNL     1       1.202   2.553  -2.289  1.00  0.00    -0.250 OA
BRANCH   9  11
ATOM     11  C   UNL     1      -0.900   1.604  -1.394  1.00  0.00     0.204 C 
BRANCH  11  12
ATOM     12  C   UNL     1      -1.680   2.001  -0.107  1.00  0.00     0.017 C 
ATOM     13  C   UNL     1      -0.786   2.473   1.044  1.00  0.00     0.010 C 
ATOM     14  C   UNL     1      -2.848   2.962  -0.289  1.00  0.00     0.010 C 
ENDBRANCH  11  12
BRANCH  11  15
ATOM     15  N   UNL     1      -1.535   1.799  -2.718  1.00  0.00    -0.278 N 
ATOM     16  C   UNL     1      -1.929   0.670  -3.435  1.00  0.00     0.267 C 
ATOM     17  C   UNL     1      -1.668   3.009  -3.377  1.00  0.00     0.149 C 
ATOM     18  O   UNL     1      -1.897  -0.493  -3.053  1.00  0.00    -0.268 OA
ATOM     19  C   UNL     1      -2.381   1.048  -4.796  1.00  0.00     0.081 C 
ATOM     20  S   UNL     1      -2.476   2.757  -4.919  1.00  0.00    -0.054 SA
ATOM     21  S   UNL     1      -1.192   4.546  -2.935  1.00  0.00    -0.052 S 
ATOM     22  C   UNL     1      -2.597   0.155  -5.774  1.00  0.00     0.031 C 
BRANCH  22  23
ATOM     23  C   UNL     1      -2.919   0.561  -7.151  1.00  0.00    -0.006 A 
ATOM     24  C   UNL     1      -4.257   0.515  -7.565  1.00  0.00     0.010 A 
ATOM     25  C   UNL     1      -1.955   1.107  -8.019  1.00  0.00     0.048 A 
ATOM     26  C   UNL     1      -4.633   1.054  -8.798  1.00  0.00     0.001 A 
ATOM     27  C   UNL     1      -2.338   1.658  -9.243  1.00  0.00     0.021 A 
ATOM     28  Cl  UNL     1      -0.272   1.141  -7.612  1.00  0.00    -0.084 Cl
ATOM     29  C   UNL     1      -3.678   1.642  -9.626  1.00  0.00     0.002 A 
ENDBRANCH  22  23
ENDBRANCH  11  15
ENDBRANCH   9  11
ENDBRANCH   8   9
ENDBRANCH   7   8
ENDBRANCH   6   7
ENDBRANCH   5   6
ENDBRANCH   4   5
ENDBRANCH   3   4
ENDBRANCH   2   3
ENDBRANCH   1   2
BRANCH   1  30
ATOM     30  C   UNL     1       3.315  -3.320  -1.266  1.00  0.00     0.188 C 
BRANCH  30  31
ATOM     31  O   UNL     1       2.441  -3.635  -2.346  1.00  0.00    -0.376 OA
BRANCH  31  32
ATOM     32  C   UNL     1       2.131  -4.997  -2.590  1.00  0.00     0.202 C 
BRANCH  32  33
ATOM     33  C   UNL     1       1.196  -5.668  -1.573  1.00  0.00     0.261 C 
BRANCH  33  34
ATOM     34  O   UNL     1       1.653  -5.661  -0.214  1.00  0.00    -0.460 OA
BRANCH  34  35
ATOM     35  C   UNL     1       2.822  -6.291   0.041  1.00  0.00     0.338 C 
ATOM     36  O   UNL     1       3.499  -6.920  -0.747  1.00  0.00    -0.246 OA
BRANCH  35  37
ATOM     37  C   UNL     1       3.254  -5.908   1.402  1.00  0.00     0.060 A 
ATOM     38  C   UNL     1       4.514  -5.317   1.561  1.00  0.00     0.016 A 
ATOM     39  C   UNL     1       2.430  -6.134   2.507  1.00  0.00     0.016 A 
ATOM     40  C   UNL     1       4.976  -4.998   2.836  1.00  0.00     0.010 A 
ATOM     41  C   UNL     1       2.904  -5.834   3.786  1.00  0.00     0.010 A 
ATOM     42  C   UNL     1       4.197  -5.309   3.957  1.00  0.00    -0.014 A 
BRANCH  42  43
ATOM     43  C   UNL     1       4.826  -5.292   5.298  1.00  0.00     0.031 A 
ATOM     44  C   UNL     1       5.330  -6.594   5.862  1.00  0.00     0.074 A 
ATOM     45  C   UNL     1       4.977  -4.149   5.989  1.00  0.00     0.049 A 
ATOM     46  N   UNL     1       5.917  -6.831   7.004  1.00  0.00    -0.248 NA
ATOM     47  C   UNL     1       5.144  -7.790   5.021  1.00  0.00     0.031 C 
ATOM     48  C   UNL     1       4.543  -2.827   5.543  1.00  0.00     0.029 A 
ATOM     49  N   UNL     1       5.525  -3.926   7.227  1.00  0.00    -0.354 N 
ATOM     50  C   UNL     1       6.146  -8.202   7.033  1.00  0.00     0.074 A 
ATOM     51  C   UNL     1       5.621  -8.747   5.801  1.00  0.00     0.031 C 
ATOM     52  C   UNL     1       4.819  -1.931   6.508  1.00  0.00     0.029 A 
ATOM     53  C   UNL     1       5.427  -2.620   7.645  1.00  0.00     0.049 A 
ATOM     54  H   UNL     1       5.948  -4.634   7.765  1.00  0.00     0.167 HD
ATOM     55  C   UNL     1       6.753  -8.940   7.991  1.00  0.00     0.034 A 
ATOM     56  C   UNL     1       5.770  -2.055   8.820  1.00  0.00     0.034 A 
ATOM     57  C   UNL     1       7.284  -8.395   9.210  1.00  0.00     0.049 A 
ATOM     58  C   UNL     1       6.415  -2.905   9.885  1.00  0.00     0.074 A 
ATOM     59  C   UNL     1       7.953  -9.053  10.227  1.00  0.00     0.029 A 
ATOM     60  N   UNL     1       7.191  -7.064   9.587  1.00  0.00    -0.354 N 
ATOM     61  N   UNL     1       6.726  -4.179   9.853  1.00  0.00    -0.248 NA
ATOM     62  C   UNL     1       6.789  -2.231  11.137  1.00  0.00     0.031 C 
ATOM     63  C   UNL     1       8.230  -8.126  11.236  1.00  0.00     0.029 A 
ATOM     64  C   UNL     1       7.776  -6.882  10.828  1.00  0.00     0.049 A 
ATOM     65  H   UNL     1       6.771  -6.354   9.051  1.00  0.00     0.167 HD
ATOM     66  C   UNL     1       7.367  -4.448  11.058  1.00  0.00     0.074 A 
ATOM     67  C   UNL     1       7.417  -3.199  11.790  1.00  0.00     0.031 C 
ATOM     68  C   UNL     1       7.861  -5.623  11.523  1.00  0.00     0.034 A 
BRANCH  55  69
ATOM     69  C   UNL     1       6.882 -10.422   7.753  1.00  0.00     0.023 A 
ATOM     70  C   UNL     1       7.780 -10.902   6.778  1.00  0.00     0.012 A 
ATOM     71  C   UNL     1       6.144 -11.340   8.525  1.00  0.00     0.148 A 
ATOM     72  C   UNL     1       7.917 -12.272   6.553  1.00  0.00     0.002 A 
ATOM     73  C   UNL     1       6.322 -12.704   8.329  1.00  0.00     0.091 A 
ATOM     74  F   UNL     1       5.277 -10.863   9.429  1.00  0.00    -0.205 F 
ATOM     75  C   UNL     1       7.198 -13.171   7.335  1.00  0.00     0.022 A 
BRANCH  73  76
ATOM     76  S   UNL     1       5.503 -13.942   9.338  1.00  0.00     0.127 S 
ATOM     77  O   UNL     1       4.578 -14.541   8.376  1.00  0.00    -0.237 OA
ATOM     78  O   UNL     1       6.618 -14.804   9.729  1.00  0.00    -0.237 OA
ATOM     79  O   UNL     1       4.878 -13.219  10.436  1.00  0.00    -0.744 OA
ENDBRANCH  73  76
ENDBRANCH  55  69
BRANCH  56  80
ATOM     80  C   UNL     1       5.534  -0.601   9.047  1.00  0.00     0.023 A 
ATOM     81  C   UNL     1       6.630   0.276   9.167  1.00  0.00     0.012 A 
ATOM     82  C   UNL     1       4.227  -0.083   9.143  1.00  0.00     0.148 A 
ATOM     83  C   UNL     1       6.430   1.635   9.414  1.00  0.00     0.002 A 
ATOM     84  C   UNL     1       4.034   1.280   9.332  1.00  0.00     0.091 A 
ATOM     85  F   UNL     1       3.198  -0.936   9.043  1.00  0.00    -0.205 F 
ATOM     86  C   UNL     1       5.133   2.138   9.487  1.00  0.00     0.022 A 
BRANCH  84  87
ATOM     87  S   UNL     1       2.405   2.034   9.313  1.00  0.00     0.127 S 
ATOM     88  O   UNL     1       2.259   2.468  10.700  1.00  0.00    -0.237 OA
ATOM     89  O   UNL     1       2.587   3.116   8.344  1.00  0.00    -0.237 OA
ATOM     90  O   UNL     1       1.489   0.988   8.880  1.00  0.00    -0.744 OA
ENDBRANCH  84  87
ENDBRANCH  56  80
BRANCH  68  91
ATOM     91  C   UNL     1       8.546  -5.613  12.867  1.00  0.00     0.023 A 
ATOM     92  C   UNL     1       7.793  -5.438  14.045  1.00  0.00     0.012 A 
ATOM     93  C   UNL     1       9.934  -5.844  12.963  1.00  0.00     0.148 A 
ATOM     94  C   UNL     1       8.416  -5.449  15.293  1.00  0.00     0.002 A 
ATOM     95  C   UNL     1      10.538  -5.909  14.212  1.00  0.00     0.091 A 
ATOM     96  F   UNL     1      10.637  -5.994  11.831  1.00  0.00    -0.205 F 
ATOM     97  C   UNL     1       9.784  -5.696  15.377  1.00  0.00     0.022 A 
BRANCH  95  98
ATOM     98  S   UNL     1      12.274  -6.322  14.422  1.00  0.00     0.127 S 
ATOM     99  O   UNL     1      12.839  -5.035  14.825  1.00  0.00    -0.237 OA
ATOM    100  O   UNL     1      12.227  -7.327  15.484  1.00  0.00    -0.237 OA
ATOM    101  O   UNL     1      12.726  -6.826  13.132  1.00  0.00    -0.744 OA
ENDBRANCH  95  98
ENDBRANCH  68  91
ENDBRANCH  42  43
ENDBRANCH  35  37
ENDBRANCH  34  35
ENDBRANCH  33  34
ENDBRANCH  32  33
ENDBRANCH  31  32
ENDBRANCH  30  31
ENDBRANCH   1  30
TORSDOF 26
