REMARK SMILES Cc1cc(F)ccc1-n1ccc(C)c(C(=O)OCCOCCOCCOCCOC(=O)c2ccc(-c3c4nc(c(-c5cccc(S(=O)(=O)[O-])c5F)c5ccc([nH]5)c(-c5cccc(S(=O)(=O)[O-])c5F)c5nc(c(-c6cccc(S(=O)(=O)[O-])c6F)c6ccc3[nH]6)C=C5)C=C4)cc2)c1=O
REMARK SMILES IDX 24 1 23 2 22 3 21 4 20 5 19 6 18 7 17 8 15 9 16 10 14 11
REMARK SMILES IDX 9 12 10 13 95 14 11 15 96 16 12 17 13 18 8 19 1 20 2 21 3 22
REMARK SMILES IDX 4 23 7 24 5 25 6 26 25 27 26 28 27 29 28 30 29 31 30 32
REMARK SMILES IDX 31 33 32 34 33 35 94 36 34 37 93 38 35 39 36 40 37 41 87 42
REMARK SMILES IDX 38 43 92 44 86 45 88 46 39 47 91 48 85 49 84 50 40 52 72 53
REMARK SMILES IDX 52 54 71 55 53 56 56 57 70 58 89 59 54 60 55 61 69 63 90 64
REMARK SMILES IDX 57 65 41 66 42 67 50 68 43 69 45 70 51 71 44 72 46 73 47 74
REMARK SMILES IDX 48 75 49 76 73 77 74 78 82 79 75 80 77 81 83 82 76 83 78 84
REMARK SMILES IDX 79 85 80 86 81 87 58 88 59 89 67 90 60 91 62 92 68 93 61 94
REMARK SMILES IDX 63 95 64 96 65 97 66 98
REMARK H PARENT 88 51 56 62
REMARK Flexibility Score: inf
ROOT
ATOM      1  C   UNL     1       4.952  -4.145   5.046  1.00  0.00     0.188 C 
ENDROOT
BRANCH   1   2
ATOM      2  O   UNL     1       4.331  -4.016   3.779  1.00  0.00    -0.377 OA
BRANCH   2   3
ATOM      3  C   UNL     1       5.120  -4.109   2.603  1.00  0.00     0.188 C 
BRANCH   3   4
ATOM      4  C   UNL     1       6.658  -3.950   2.614  1.00  0.00     0.188 C 
BRANCH   4   5
ATOM      5  O   UNL     1       7.217  -3.358   3.778  1.00  0.00    -0.376 OA
BRANCH   5   6
ATOM      6  C   UNL     1       7.831  -2.086   3.619  1.00  0.00     0.202 C 
BRANCH   6   7
ATOM      7  C   UNL     1       6.831  -0.937   3.510  1.00  0.00     0.261 C 
BRANCH   7   8
ATOM      8  O   UNL     1       5.886  -1.140   2.454  1.00  0.00    -0.459 OA
BRANCH   8   9
ATOM      9  C   UNL     1       6.275  -0.888   1.185  1.00  0.00     0.344 C 
ATOM     10  O   UNL     1       7.379  -0.506   0.829  1.00  0.00    -0.246 OA
BRANCH   9  11
ATOM     11  C   UNL     1       5.186  -1.330   0.279  1.00  0.00     0.128 A 
ATOM     12  N   UNL     1       2.780  -1.301  -0.314  1.00  0.00    -0.283 N 
ATOM     13  C   UNL     1       3.052  -2.269  -1.269  1.00  0.00     0.095 A 
ATOM     14  C   UNL     1       3.791  -0.842   0.554  1.00  0.00     0.270 A 
ATOM     15  C   UNL     1       4.289  -2.730  -1.477  1.00  0.00     0.023 A 
ATOM     16  O   UNL     1       3.598  -0.080   1.500  1.00  0.00    -0.268 OA
ATOM     17  C   UNL     1       5.409  -2.237  -0.698  1.00  0.00    -0.029 A 
ATOM     18  C   UNL     1       6.726  -2.873  -1.055  1.00  0.00     0.045 C 
BRANCH  12  19
ATOM     19  C   UNL     1       1.450  -0.769  -0.181  1.00  0.00     0.052 A 
ATOM     20  C   UNL     1       2.253   1.685  -0.241  1.00  0.00     0.047 C 
ATOM     21  C   UNL     1       1.192   0.621  -0.130  1.00  0.00    -0.024 A 
ATOM     22  C   UNL     1      -0.136   1.066   0.008  1.00  0.00     0.044 A 
ATOM     23  C   UNL     1      -1.186   0.158   0.044  1.00  0.00     0.123 A 
ATOM     24  C   UNL     1       0.362  -1.667  -0.153  1.00  0.00     0.030 A 
ATOM     25  F   UNL     1      -2.444   0.608   0.142  1.00  0.00    -0.207 F 
ATOM     26  C   UNL     1      -0.951  -1.204  -0.039  1.00  0.00     0.041 A 
ENDBRANCH  12  19
ENDBRANCH   9  11
ENDBRANCH   8   9
ENDBRANCH   7   8
ENDBRANCH   6   7
ENDBRANCH   5   6
ENDBRANCH   4   5
ENDBRANCH   3   4
ENDBRANCH   2   3
ENDBRANCH   1   2
BRANCH   1  27
ATOM     27  C   UNL     1       5.819  -5.396   5.278  1.00  0.00     0.188 C 
BRANCH  27  28
ATOM     28  O   UNL     1       5.855  -6.287   4.164  1.00  0.00    -0.376 OA
BRANCH  28  29
ATOM     29  C   UNL     1       5.111  -7.490   4.307  1.00  0.00     0.202 C 
BRANCH  29  30
ATOM     30  C   UNL     1       3.587  -7.325   4.256  1.00  0.00     0.261 C 
BRANCH  30  31
ATOM     31  O   UNL     1       3.016  -6.519   5.296  1.00  0.00    -0.460 OA
BRANCH  31  32
ATOM     32  C   UNL     1       3.217  -6.902   6.577  1.00  0.00     0.338 C 
ATOM     33  O   UNL     1       3.795  -7.903   6.962  1.00  0.00    -0.246 OA
BRANCH  32  34
ATOM     34  C   UNL     1       2.790  -5.778   7.438  1.00  0.00     0.060 A 
ATOM     35  C   UNL     1       1.545  -5.176   7.241  1.00  0.00     0.016 A 
ATOM     36  C   UNL     1       3.669  -5.290   8.415  1.00  0.00     0.016 A 
ATOM     37  C   UNL     1       1.161  -4.110   8.053  1.00  0.00     0.010 A 
ATOM     38  C   UNL     1       3.287  -4.215   9.222  1.00  0.00     0.010 A 
ATOM     39  C   UNL     1       2.015  -3.644   9.068  1.00  0.00    -0.014 A 
BRANCH  39  40
ATOM     40  C   UNL     1       1.460  -2.759  10.119  1.00  0.00     0.031 A 
ATOM     41  C   UNL     1       1.691  -1.282  10.150  1.00  0.00     0.074 A 
ATOM     42  C   UNL     1       0.707  -3.349  11.067  1.00  0.00     0.049 A 
ATOM     43  N   UNL     1       1.128  -0.391  10.925  1.00  0.00    -0.248 NA
ATOM     44  C   UNL     1       2.678  -0.730   9.212  1.00  0.00     0.031 C 
ATOM     45  C   UNL     1       0.476  -4.793  11.167  1.00  0.00     0.029 A 
ATOM     46  N   UNL     1      -0.009  -2.823  12.109  1.00  0.00    -0.354 N 
ATOM     47  C   UNL     1       1.680   0.831  10.567  1.00  0.00     0.074 A 
ATOM     48  C   UNL     1       2.649   0.562   9.524  1.00  0.00     0.031 C 
ATOM     49  C   UNL     1      -0.356  -5.034  12.189  1.00  0.00     0.029 A 
ATOM     50  C   UNL     1      -0.713  -3.766  12.817  1.00  0.00     0.049 A 
ATOM     51  H   UNL     1      -0.018  -1.863  12.329  1.00  0.00     0.167 HD
ATOM     52  C   UNL     1       1.378   2.061  11.049  1.00  0.00     0.034 A 
ATOM     53  C   UNL     1      -1.580  -3.631  13.838  1.00  0.00     0.034 A 
ATOM     54  C   UNL     1       0.403   2.312  12.080  1.00  0.00     0.049 A 
ATOM     55  C   UNL     1      -1.922  -2.258  14.330  1.00  0.00     0.074 A 
ATOM     56  C   UNL     1      -0.009   3.530  12.591  1.00  0.00     0.029 A 
ATOM     57  N   UNL     1      -0.307   1.334  12.759  1.00  0.00    -0.354 N 
ATOM     58  N   UNL     1      -1.495  -1.101  13.886  1.00  0.00    -0.248 NA
ATOM     59  C   UNL     1      -2.884  -2.163  15.436  1.00  0.00     0.031 C 
ATOM     60  C   UNL     1      -0.963   3.289  13.585  1.00  0.00     0.029 A 
ATOM     61  C   UNL     1      -1.152   1.920  13.685  1.00  0.00     0.049 A 
ATOM     62  H   UNL     1      -0.223   0.365  12.605  1.00  0.00     0.167 HD
ATOM     63  C   UNL     1      -2.150  -0.139  14.642  1.00  0.00     0.074 A 
ATOM     64  C   UNL     1      -3.010  -0.847  15.568  1.00  0.00     0.031 C 
ATOM     65  C   UNL     1      -2.036   1.209  14.574  1.00  0.00     0.034 A 
BRANCH  52  66
ATOM     66  C   UNL     1       2.038   3.255  10.414  1.00  0.00     0.023 A 
ATOM     67  C   UNL     1       1.558   3.707   9.168  1.00  0.00     0.012 A 
ATOM     68  C   UNL     1       3.023   4.002  11.089  1.00  0.00     0.148 A 
ATOM     69  C   UNL     1       2.054   4.877   8.597  1.00  0.00     0.002 A 
ATOM     70  C   UNL     1       3.495   5.183  10.525  1.00  0.00     0.091 A 
ATOM     71  F   UNL     1       3.468   3.552  12.271  1.00  0.00    -0.205 F 
ATOM     72  C   UNL     1       3.014   5.620   9.280  1.00  0.00     0.022 A 
BRANCH  70  73
ATOM     73  S   UNL     1       4.692   6.246  11.344  1.00  0.00     0.127 S 
ATOM     74  O   UNL     1       5.860   6.096  10.476  1.00  0.00    -0.237 OA
ATOM     75  O   UNL     1       4.043   7.555  11.271  1.00  0.00    -0.237 OA
ATOM     76  O   UNL     1       4.848   5.716  12.691  1.00  0.00    -0.744 OA
ENDBRANCH  70  73
ENDBRANCH  52  66
BRANCH  53  77
ATOM     77  C   UNL     1      -2.264  -4.845  14.352  1.00  0.00     0.023 A 
ATOM     78  C   UNL     1      -3.581  -5.112  13.933  1.00  0.00     0.012 A 
ATOM     79  C   UNL     1      -1.576  -5.794  15.131  1.00  0.00     0.148 A 
ATOM     80  C   UNL     1      -4.205  -6.309  14.283  1.00  0.00     0.002 A 
ATOM     81  C   UNL     1      -2.190  -7.000  15.445  1.00  0.00     0.091 A 
ATOM     82  F   UNL     1      -0.319  -5.516  15.502  1.00  0.00    -0.205 F 
ATOM     83  C   UNL     1      -3.507  -7.256  15.028  1.00  0.00     0.022 A 
BRANCH  81  84
ATOM     84  S   UNL     1      -1.339  -8.328  16.304  1.00  0.00     0.127 S 
ATOM     85  O   UNL     1      -2.145  -8.464  17.516  1.00  0.00    -0.237 OA
ATOM     86  O   UNL     1      -1.470  -9.430  15.351  1.00  0.00    -0.237 OA
ATOM     87  O   UNL     1       0.024  -7.861  16.511  1.00  0.00    -0.744 OA
ENDBRANCH  81  84
ENDBRANCH  53  77
BRANCH  65  88
ATOM     88  C   UNL     1      -2.855   2.038  15.523  1.00  0.00     0.023 A 
ATOM     89  C   UNL     1      -2.402   2.218  16.844  1.00  0.00     0.012 A 
ATOM     90  C   UNL     1      -3.976   2.757  15.065  1.00  0.00     0.148 A 
ATOM     91  C   UNL     1      -3.054   3.107  17.697  1.00  0.00     0.002 A 
ATOM     92  C   UNL     1      -4.601   3.665  15.911  1.00  0.00     0.091 A 
ATOM     93  F   UNL     1      -4.386   2.562  13.803  1.00  0.00    -0.205 F 
ATOM     94  C   UNL     1      -4.143   3.839  17.228  1.00  0.00     0.022 A 
BRANCH  92  95
ATOM     95  S   UNL     1      -5.965   4.709  15.383  1.00  0.00     0.127 S 
ATOM     96  O   UNL     1      -7.033   4.284  16.288  1.00  0.00    -0.237 OA
ATOM     97  O   UNL     1      -5.442   6.050  15.642  1.00  0.00    -0.237 OA
ATOM     98  O   UNL     1      -6.193   4.399  13.978  1.00  0.00    -0.744 OA
ENDBRANCH  92  95
ENDBRANCH  65  88
ENDBRANCH  39  40
ENDBRANCH  32  34
ENDBRANCH  31  32
ENDBRANCH  30  31
ENDBRANCH  29  30
ENDBRANCH  28  29
ENDBRANCH  27  28
ENDBRANCH   1  27
TORSDOF 24
