REMARK SMILES COc1nc(Cl)nc(N(CC(=O)OCCOCCOCCOCCOC(=O)c2ccc(-c3c4nc(c(-c5cccc(S(=O)(=O)[O-])c5F)c5ccc([nH]5)c(-c5cccc(S(=O)(=O)[O-])c5F)c5nc(c(-c6cccc(S(=O)(=O)[O-])c6F)c6ccc3[nH]6)C=C5)C=C4)cc2)C(C)(C)C)n1
REMARK SMILES IDX 19 1 18 2 17 3 16 4 15 5 14 6 13 7 11 8 12 9 10 10 9 11 8 12
REMARK SMILES IDX 3 13 4 14 95 15 5 16 6 17 7 18 2 19 1 20 91 21 92 22 93 23
REMARK SMILES IDX 94 24 20 25 21 26 22 27 23 28 24 29 25 30 26 31 27 32 28 33
REMARK SMILES IDX 29 34 90 35 30 36 89 37 31 38 32 39 33 40 83 41 34 42 88 43
REMARK SMILES IDX 82 44 84 45 35 46 87 47 81 48 80 49 36 51 68 52 48 53 67 54
REMARK SMILES IDX 49 55 52 56 66 57 85 58 50 59 51 60 65 62 86 63 53 64 37 65
REMARK SMILES IDX 38 66 46 67 39 68 41 69 47 70 40 71 42 72 43 73 44 74 45 75
REMARK SMILES IDX 69 76 70 77 78 78 71 79 73 80 79 81 72 82 74 83 75 84 76 85
REMARK SMILES IDX 77 86 54 87 55 88 63 89 56 90 58 91 64 92 57 93 59 94 60 95
REMARK SMILES IDX 61 96 62 97
REMARK H PARENT 84 50 52 61
REMARK Flexibility Score: inf
ROOT
ATOM      1  O   UNL     1      -1.784   7.285  -4.278  1.00  0.00    -0.377 OA
ENDROOT
BRANCH   1   2
ATOM      2  C   UNL     1      -2.155   7.342  -2.918  1.00  0.00     0.188 C 
BRANCH   2   3
ATOM      3  C   UNL     1      -2.330   8.778  -2.402  1.00  0.00     0.188 C 
BRANCH   3   4
ATOM      4  O   UNL     1      -1.595   9.847  -2.989  1.00  0.00    -0.376 OA
BRANCH   4   5
ATOM      5  C   UNL     1      -0.421   9.543  -3.727  1.00  0.00     0.202 C 
BRANCH   5   6
ATOM      6  C   UNL     1       0.769   8.901  -2.977  1.00  0.00     0.261 C 
BRANCH   6   7
ATOM      7  O   UNL     1       0.494   7.782  -2.091  1.00  0.00    -0.462 OA
BRANCH   7   8
ATOM      8  C   UNL     1       0.514   8.024  -0.756  1.00  0.00     0.325 C 
ATOM      9  O   UNL     1       0.778   9.134  -0.288  1.00  0.00    -0.250 OA
BRANCH   8  10
ATOM     10  C   UNL     1       0.115   6.877   0.201  1.00  0.00     0.242 C 
BRANCH  10  11
ATOM     11  N   UNL     1      -0.321   5.546  -0.305  1.00  0.00    -0.325 N 
BRANCH  11  12
ATOM     12  C   UNL     1       0.704   4.601  -0.466  1.00  0.00     0.233 A 
ATOM     13  C   UNL     1       1.308   2.417  -0.670  1.00  0.00     0.322 A 
ATOM     14  N   UNL     1       2.565   2.623  -0.346  1.00  0.00    -0.164 NA
ATOM     15  N   UNL     1       0.369   3.349  -0.758  1.00  0.00    -0.158 NA
ATOM     16  C   UNL     1       2.816   3.913  -0.191  1.00  0.00     0.230 A 
ATOM     17  Cl  UNL     1       4.414   4.304   0.281  1.00  0.00    -0.041 Cl
ATOM     18  N   UNL     1       1.957   4.933  -0.201  1.00  0.00    -0.182 NA
BRANCH  13  19
ATOM     19  O   UNL     1       0.865   1.137  -0.920  1.00  0.00    -0.467 OA
ATOM     20  C   UNL     1       1.347   0.212   0.046  1.00  0.00     0.282 C 
ENDBRANCH  13  19
ENDBRANCH  11  12
BRANCH  11  21
ATOM     21  C   UNL     1      -1.727   5.022  -0.152  1.00  0.00     0.035 C 
ATOM     22  C   UNL     1      -2.183   4.310  -1.454  1.00  0.00     0.034 C 
ATOM     23  C   UNL     1      -1.870   4.032   1.033  1.00  0.00     0.034 C 
ATOM     24  C   UNL     1      -2.748   6.135   0.186  1.00  0.00     0.034 C 
ENDBRANCH  11  21
ENDBRANCH  10  11
ENDBRANCH   8  10
ENDBRANCH   7   8
ENDBRANCH   6   7
ENDBRANCH   5   6
ENDBRANCH   4   5
ENDBRANCH   3   4
ENDBRANCH   2   3
ENDBRANCH   1   2
BRANCH   1  25
ATOM     25  C   UNL     1      -2.709   6.659  -5.138  1.00  0.00     0.188 C 
BRANCH  25  26
ATOM     26  C   UNL     1      -4.084   7.343  -5.155  1.00  0.00     0.188 C 
BRANCH  26  27
ATOM     27  O   UNL     1      -4.676   7.378  -3.865  1.00  0.00    -0.376 OA
BRANCH  27  28
ATOM     28  C   UNL     1      -5.663   6.439  -3.488  1.00  0.00     0.202 C 
BRANCH  28  29
ATOM     29  C   UNL     1      -5.512   4.915  -3.664  1.00  0.00     0.261 C 
BRANCH  29  30
ATOM     30  O   UNL     1      -4.596   4.434  -4.646  1.00  0.00    -0.460 OA
BRANCH  30  31
ATOM     31  C   UNL     1      -5.061   4.304  -5.908  1.00  0.00     0.338 C 
ATOM     32  O   UNL     1      -6.183   4.586  -6.300  1.00  0.00    -0.246 OA
BRANCH  31  33
ATOM     33  C   UNL     1      -3.924   3.966  -6.790  1.00  0.00     0.060 A 
ATOM     34  C   UNL     1      -3.553   4.893  -7.773  1.00  0.00     0.016 A 
ATOM     35  C   UNL     1      -3.211   2.774  -6.640  1.00  0.00     0.016 A 
ATOM     36  C   UNL     1      -2.470   4.633  -8.611  1.00  0.00     0.010 A 
ATOM     37  C   UNL     1      -2.152   2.494  -7.512  1.00  0.00     0.010 A 
ATOM     38  C   UNL     1      -1.792   3.413  -8.514  1.00  0.00    -0.014 A 
BRANCH  38  39
ATOM     39  C   UNL     1      -0.844   3.025  -9.584  1.00  0.00     0.031 A 
ATOM     40  C   UNL     1      -1.369   2.207 -10.732  1.00  0.00     0.074 A 
ATOM     41  C   UNL     1       0.450   3.390  -9.546  1.00  0.00     0.049 A 
ATOM     42  N   UNL     1      -0.731   1.714 -11.759  1.00  0.00    -0.248 NA
ATOM     43  C   UNL     1      -2.811   1.907 -10.717  1.00  0.00     0.031 C 
ATOM     44  C   UNL     1       1.069   4.200  -8.500  1.00  0.00     0.029 A 
ATOM     45  N   UNL     1       1.482   3.095 -10.402  1.00  0.00    -0.354 N 
ATOM     46  C   UNL     1      -1.682   1.020 -12.495  1.00  0.00     0.074 A 
ATOM     47  C   UNL     1      -2.943   1.156 -11.800  1.00  0.00     0.031 C 
ATOM     48  C   UNL     1       2.387   4.302  -8.753  1.00  0.00     0.029 A 
ATOM     49  C   UNL     1       2.705   3.542  -9.960  1.00  0.00     0.049 A 
ATOM     50  H   UNL     1       1.358   2.611 -11.251  1.00  0.00     0.167 HD
ATOM     51  C   UNL     1      -1.521   0.333 -13.650  1.00  0.00     0.034 A 
ATOM     52  C   UNL     1       3.941   3.327 -10.456  1.00  0.00     0.034 A 
ATOM     53  C   UNL     1      -0.269   0.202 -14.340  1.00  0.00     0.049 A 
ATOM     54  C   UNL     1       4.099   2.516 -11.719  1.00  0.00     0.074 A 
ATOM     55  C   UNL     1      -0.014  -0.433 -15.542  1.00  0.00     0.029 A 
ATOM     56  N   UNL     1       0.943   0.691 -13.879  1.00  0.00    -0.354 N 
ATOM     57  N   UNL     1       3.175   1.970 -12.472  1.00  0.00    -0.248 NA
ATOM     58  C   UNL     1       5.469   2.314 -12.215  1.00  0.00     0.031 C 
ATOM     59  C   UNL     1       1.361  -0.366 -15.787  1.00  0.00     0.029 A 
ATOM     60  C   UNL     1       1.955   0.350 -14.759  1.00  0.00     0.049 A 
ATOM     61  H   UNL     1       1.066   1.205 -13.049  1.00  0.00     0.167 HD
ATOM     62  C   UNL     1       3.847   1.391 -13.544  1.00  0.00     0.074 A 
ATOM     63  C   UNL     1       5.254   1.671 -13.355  1.00  0.00     0.031 C 
ATOM     64  C   UNL     1       3.346   0.679 -14.585  1.00  0.00     0.034 A 
BRANCH  51  65
ATOM     65  C   UNL     1      -2.733  -0.335 -14.241  1.00  0.00     0.023 A 
ATOM     66  C   UNL     1      -3.738   0.442 -14.851  1.00  0.00     0.012 A 
ATOM     67  C   UNL     1      -2.844  -1.739 -14.244  1.00  0.00     0.148 A 
ATOM     68  C   UNL     1      -4.849  -0.167 -15.432  1.00  0.00     0.002 A 
ATOM     69  C   UNL     1      -3.930  -2.341 -14.865  1.00  0.00     0.091 A 
ATOM     70  F   UNL     1      -1.889  -2.456 -13.636  1.00  0.00    -0.205 F 
ATOM     71  C   UNL     1      -4.939  -1.557 -15.449  1.00  0.00     0.022 A 
BRANCH  69  72
ATOM     72  S   UNL     1      -4.099  -4.123 -15.009  1.00  0.00     0.127 S 
ATOM     73  O   UNL     1      -5.250  -4.381 -14.145  1.00  0.00    -0.237 OA
ATOM     74  O   UNL     1      -4.360  -4.290 -16.439  1.00  0.00    -0.237 OA
ATOM     75  O   UNL     1      -2.838  -4.686 -14.550  1.00  0.00    -0.744 OA
ENDBRANCH  69  72
ENDBRANCH  51  65
BRANCH  52  76
ATOM     76  C   UNL     1       5.136   3.883  -9.758  1.00  0.00     0.023 A 
ATOM     77  C   UNL     1       5.903   4.890 -10.376  1.00  0.00     0.012 A 
ATOM     78  C   UNL     1       5.522   3.408  -8.489  1.00  0.00     0.148 A 
ATOM     79  C   UNL     1       7.051   5.390  -9.758  1.00  0.00     0.002 A 
ATOM     80  C   UNL     1       6.633   3.950  -7.855  1.00  0.00     0.091 A 
ATOM     81  F   UNL     1       4.792   2.434  -7.928  1.00  0.00    -0.205 F 
ATOM     82  C   UNL     1       7.410   4.927  -8.495  1.00  0.00     0.022 A 
BRANCH  80  83
ATOM     83  S   UNL     1       7.101   3.501  -6.180  1.00  0.00     0.127 S 
ATOM     84  O   UNL     1       8.351   2.777  -6.403  1.00  0.00    -0.237 OA
ATOM     85  O   UNL     1       7.253   4.812  -5.550  1.00  0.00    -0.237 OA
ATOM     86  O   UNL     1       5.996   2.707  -5.661  1.00  0.00    -0.744 OA
ENDBRANCH  80  83
ENDBRANCH  52  76
BRANCH  64  87
ATOM     87  C   UNL     1       4.311   0.180 -15.630  1.00  0.00     0.023 A 
ATOM     88  C   UNL     1       5.186  -0.883 -15.331  1.00  0.00     0.012 A 
ATOM     89  C   UNL     1       4.283   0.705 -16.939  1.00  0.00     0.148 A 
ATOM     90  C   UNL     1       6.038  -1.396 -16.309  1.00  0.00     0.002 A 
ATOM     91  C   UNL     1       5.096   0.154 -17.921  1.00  0.00     0.091 A 
ATOM     92  F   UNL     1       3.452   1.724 -17.200  1.00  0.00    -0.205 F 
ATOM     93  C   UNL     1       5.984  -0.887 -17.605  1.00  0.00     0.022 A 
BRANCH  91  94
ATOM     94  S   UNL     1       5.025   0.673 -19.639  1.00  0.00     0.127 S 
ATOM     95  O   UNL     1       6.322   1.328 -19.807  1.00  0.00    -0.237 OA
ATOM     96  O   UNL     1       4.890  -0.603 -20.342  1.00  0.00    -0.237 OA
ATOM     97  O   UNL     1       3.868   1.552 -19.749  1.00  0.00    -0.744 OA
ENDBRANCH  91  94
ENDBRANCH  64  87
ENDBRANCH  38  39
ENDBRANCH  31  33
ENDBRANCH  30  31
ENDBRANCH  29  30
ENDBRANCH  28  29
ENDBRANCH  27  28
ENDBRANCH  26  27
ENDBRANCH  25  26
ENDBRANCH   1  25
TORSDOF 27
