REMARK SMILES O=C(N[C@H]1C=C[C@@H](C(=O)OCCOCCOCCOCCOC(=O)c2ccc(-c3c4nc(c(-c5cccc(S(=O)(=O)[O-])c5F)c5ccc([nH]5)c(-c5cccc(S(=O)(=O)[O-])c5F)c5nc(c(-c6cccc(S(=O)(=O)[O-])c6F)c6ccc3[nH]6)C=C5)C=C4)cc2)C1)c1ccc(Br)cc1
REMARK SMILES IDX 17 1 16 2 15 3 14 4 13 5 12 6 11 7 10 8 8 9 9 10 7 11 4 12
REMARK SMILES IDX 5 13 88 14 6 15 3 16 1 17 2 18 89 20 90 21 95 22 91 23 94 24
REMARK SMILES IDX 92 25 93 26 18 27 19 28 20 29 21 30 22 31 23 32 24 33 25 34
REMARK SMILES IDX 26 35 87 36 27 37 86 38 28 39 29 40 30 41 80 42 31 43 85 44
REMARK SMILES IDX 79 45 81 46 32 47 84 48 78 49 77 50 33 52 65 53 45 54 64 55
REMARK SMILES IDX 46 56 49 57 63 58 82 59 47 60 48 61 62 63 83 64 50 65 34 66
REMARK SMILES IDX 35 67 43 68 36 69 38 70 44 71 37 72 39 73 40 74 41 75 42 76
REMARK SMILES IDX 66 77 67 78 75 79 68 80 70 81 76 82 69 83 71 84 72 85 73 86
REMARK SMILES IDX 74 87 51 88 52 89 60 90 53 91 55 92 61 93 54 94 56 95 57 96
REMARK SMILES IDX 58 97 59 98
REMARK H PARENT 3 19 81 51 49 62
REMARK Flexibility Score: inf
ROOT
ATOM      1  C   UNL     1       3.896  -3.255   4.976  1.00  0.00     0.188 C 
ENDROOT
BRANCH   1   2
ATOM      2  O   UNL     1       4.581  -2.139   4.420  1.00  0.00    -0.377 OA
BRANCH   2   3
ATOM      3  C   UNL     1       5.733  -2.412   3.655  1.00  0.00     0.188 C 
BRANCH   3   4
ATOM      4  C   UNL     1       7.062  -2.143   4.374  1.00  0.00     0.188 C 
BRANCH   4   5
ATOM      5  O   UNL     1       7.130  -2.110   5.792  1.00  0.00    -0.376 OA
BRANCH   5   6
ATOM      6  C   UNL     1       6.188  -1.352   6.543  1.00  0.00     0.202 C 
BRANCH   6   7
ATOM      7  C   UNL     1       5.793   0.083   6.150  1.00  0.00     0.261 C 
BRANCH   7   8
ATOM      8  O   UNL     1       5.610   0.322   4.745  1.00  0.00    -0.463 OA
BRANCH   8   9
ATOM      9  C   UNL     1       6.460   1.194   4.156  1.00  0.00     0.312 C 
ATOM     10  O   UNL     1       7.368   1.778   4.741  1.00  0.00    -0.252 OA
BRANCH   9  11
ATOM     11  C   UNL     1       6.232   1.370   2.653  1.00  0.00     0.124 C 
ATOM     12  C   UNL     1       4.538   1.324   0.861  1.00  0.00     0.106 C 
ATOM     13  C   UNL     1       4.771   2.704   1.380  1.00  0.00    -0.006 C 
ATOM     14  C   UNL     1       5.227   0.472   1.927  1.00  0.00     0.048 C 
ATOM     15  C   UNL     1       5.701   2.734   2.344  1.00  0.00    -0.014 C 
BRANCH  12  16
ATOM     16  N   UNL     1       3.121   1.056   0.771  1.00  0.00    -0.346 N 
ATOM     17  O   UNL     1       1.222   0.178  -0.089  1.00  0.00    -0.269 OA
ATOM     18  C   UNL     1       2.448   0.191  -0.057  1.00  0.00     0.251 C 
ATOM     19  H   UNL     1       2.556   1.567   1.395  1.00  0.00     0.164 HD
BRANCH  18  20
ATOM     20  C   UNL     1       3.180  -0.715  -0.969  1.00  0.00     0.039 A 
ATOM     21  C   UNL     1       4.080  -1.670  -0.487  1.00  0.00     0.015 A 
ATOM     22  C   UNL     1       2.874  -0.671  -2.334  1.00  0.00     0.015 A 
ATOM     23  C   UNL     1       4.742  -2.518  -1.380  1.00  0.00     0.016 A 
ATOM     24  C   UNL     1       3.522  -1.529  -3.226  1.00  0.00     0.016 A 
ATOM     25  C   UNL     1       4.467  -2.436  -2.746  1.00  0.00     0.018 A 
ATOM     26  Br  UNL     1       5.370  -3.576  -3.954  1.00  0.00    -0.051 Br
ENDBRANCH  18  20
ENDBRANCH  12  16
ENDBRANCH   9  11
ENDBRANCH   8   9
ENDBRANCH   7   8
ENDBRANCH   6   7
ENDBRANCH   5   6
ENDBRANCH   4   5
ENDBRANCH   3   4
ENDBRANCH   2   3
ENDBRANCH   1   2
BRANCH   1  27
ATOM     27  C   UNL     1       4.735  -4.463   5.447  1.00  0.00     0.188 C 
BRANCH  27  28
ATOM     28  O   UNL     1       5.675  -4.943   4.492  1.00  0.00    -0.376 OA
BRANCH  28  29
ATOM     29  C   UNL     1       5.298  -6.021   3.646  1.00  0.00     0.202 C 
BRANCH  29  30
ATOM     30  C   UNL     1       4.145  -5.800   2.650  1.00  0.00     0.261 C 
BRANCH  30  31
ATOM     31  O   UNL     1       2.870  -5.450   3.208  1.00  0.00    -0.460 OA
BRANCH  31  32
ATOM     32  C   UNL     1       2.326  -6.284   4.117  1.00  0.00     0.338 C 
ATOM     33  O   UNL     1       2.771  -7.363   4.476  1.00  0.00    -0.246 OA
BRANCH  32  34
ATOM     34  C   UNL     1       1.206  -5.578   4.774  1.00  0.00     0.060 A 
ATOM     35  C   UNL     1       1.251  -5.392   6.162  1.00  0.00     0.016 A 
ATOM     36  C   UNL     1       0.122  -5.104   4.032  1.00  0.00     0.016 A 
ATOM     37  C   UNL     1       0.188  -4.772   6.820  1.00  0.00     0.010 A 
ATOM     38  C   UNL     1      -0.953  -4.504   4.696  1.00  0.00     0.010 A 
ATOM     39  C   UNL     1      -0.942  -4.373   6.097  1.00  0.00    -0.014 A 
BRANCH  39  40
ATOM     40  C   UNL     1      -2.183  -4.010   6.823  1.00  0.00     0.031 A 
ATOM     41  C   UNL     1      -3.260  -5.053   6.962  1.00  0.00     0.074 A 
ATOM     42  C   UNL     1      -2.354  -2.787   7.357  1.00  0.00     0.049 A 
ATOM     43  N   UNL     1      -4.438  -4.960   7.520  1.00  0.00    -0.248 NA
ATOM     44  C   UNL     1      -2.967  -6.379   6.392  1.00  0.00     0.031 C 
ATOM     45  C   UNL     1      -1.383  -1.697   7.304  1.00  0.00     0.029 A 
ATOM     46  N   UNL     1      -3.426  -2.253   8.030  1.00  0.00    -0.354 N 
ATOM     47  C   UNL     1      -5.041  -6.199   7.337  1.00  0.00     0.074 A 
ATOM     48  C   UNL     1      -4.102  -7.025   6.611  1.00  0.00     0.031 C 
ATOM     49  C   UNL     1      -1.917  -0.610   7.888  1.00  0.00     0.029 A 
ATOM     50  C   UNL     1      -3.276  -0.919   8.330  1.00  0.00     0.049 A 
ATOM     51  H   UNL     1      -4.225  -2.774   8.273  1.00  0.00     0.167 HD
ATOM     52  C   UNL     1      -6.263  -6.617   7.743  1.00  0.00     0.034 A 
ATOM     53  C   UNL     1      -4.149  -0.044   8.869  1.00  0.00     0.034 A 
ATOM     54  C   UNL     1      -7.191  -5.798   8.474  1.00  0.00     0.049 A 
ATOM     55  C   UNL     1      -5.518  -0.524   9.282  1.00  0.00     0.074 A 
ATOM     56  C   UNL     1      -8.433  -6.146   8.974  1.00  0.00     0.029 A 
ATOM     57  N   UNL     1      -6.992  -4.463   8.789  1.00  0.00    -0.354 N 
ATOM     58  N   UNL     1      -6.030  -1.729   9.207  1.00  0.00    -0.248 NA
ATOM     59  C   UNL     1      -6.418   0.470   9.884  1.00  0.00     0.031 C 
ATOM     60  C   UNL     1      -9.004  -5.008   9.552  1.00  0.00     0.029 A 
ATOM     61  C   UNL     1      -8.096  -3.966   9.459  1.00  0.00     0.049 A 
ATOM     62  H   UNL     1      -6.184  -3.945   8.569  1.00  0.00     0.167 HD
ATOM     63  C   UNL     1      -7.292  -1.646   9.788  1.00  0.00     0.074 A 
ATOM     64  C   UNL     1      -7.459  -0.277  10.227  1.00  0.00     0.031 C 
ATOM     65  C   UNL     1      -8.232  -2.613   9.936  1.00  0.00     0.034 A 
BRANCH  52  66
ATOM     66  C   UNL     1      -6.669  -8.027   7.405  1.00  0.00     0.023 A 
ATOM     67  C   UNL     1      -6.056  -9.114   8.060  1.00  0.00     0.012 A 
ATOM     68  C   UNL     1      -7.699  -8.271   6.476  1.00  0.00     0.148 A 
ATOM     69  C   UNL     1      -6.438 -10.424   7.770  1.00  0.00     0.002 A 
ATOM     70  C   UNL     1      -8.108  -9.576   6.229  1.00  0.00     0.091 A 
ATOM     71  F   UNL     1      -8.253  -7.225   5.847  1.00  0.00    -0.205 F 
ATOM     72  C   UNL     1      -7.470 -10.653   6.864  1.00  0.00     0.022 A 
BRANCH  70  73
ATOM     73  S   UNL     1      -9.482  -9.971   5.143  1.00  0.00     0.127 S 
ATOM     74  O   UNL     1      -8.799 -10.633   4.032  1.00  0.00    -0.237 OA
ATOM     75  O   UNL     1     -10.287 -10.860   5.980  1.00  0.00    -0.237 OA
ATOM     76  O   UNL     1     -10.117  -8.702   4.816  1.00  0.00    -0.744 OA
ENDBRANCH  70  73
ENDBRANCH  52  66
BRANCH  53  77
ATOM     77  C   UNL     1      -3.756   1.382   9.064  1.00  0.00     0.023 A 
ATOM     78  C   UNL     1      -3.611   1.896  10.367  1.00  0.00     0.012 A 
ATOM     79  C   UNL     1      -3.531   2.231   7.963  1.00  0.00     0.148 A 
ATOM     80  C   UNL     1      -3.286   3.238  10.570  1.00  0.00     0.002 A 
ATOM     81  C   UNL     1      -3.151   3.550   8.171  1.00  0.00     0.091 A 
ATOM     82  F   UNL     1      -3.691   1.727   6.731  1.00  0.00    -0.205 F 
ATOM     83  C   UNL     1      -3.047   4.062   9.474  1.00  0.00     0.022 A 
BRANCH  81  84
ATOM     84  S   UNL     1      -2.701   4.651   6.825  1.00  0.00     0.127 S 
ATOM     85  O   UNL     1      -3.781   5.634   6.869  1.00  0.00    -0.237 OA
ATOM     86  O   UNL     1      -1.398   5.147   7.268  1.00  0.00    -0.237 OA
ATOM     87  O   UNL     1      -2.655   3.817   5.632  1.00  0.00    -0.744 OA
ENDBRANCH  81  84
ENDBRANCH  53  77
BRANCH  65  88
ATOM     88  C   UNL     1      -9.510  -2.251  10.650  1.00  0.00     0.023 A 
ATOM     89  C   UNL     1     -10.454  -1.407  10.033  1.00  0.00     0.012 A 
ATOM     90  C   UNL     1      -9.806  -2.812  11.909  1.00  0.00     0.148 A 
ATOM     91  C   UNL     1     -11.654  -1.096  10.674  1.00  0.00     0.002 A 
ATOM     92  C   UNL     1     -11.026  -2.543  12.517  1.00  0.00     0.091 A 
ATOM     93  F   UNL     1      -8.890  -3.603  12.488  1.00  0.00    -0.205 F 
ATOM     94  C   UNL     1     -11.945  -1.673  11.908  1.00  0.00     0.022 A 
BRANCH  92  95
ATOM     95  S   UNL     1     -11.530  -3.319  14.057  1.00  0.00     0.127 S 
ATOM     96  O   UNL     1     -11.487  -2.191  14.986  1.00  0.00    -0.237 OA
ATOM     97  O   UNL     1     -12.876  -3.795  13.737  1.00  0.00    -0.237 OA
ATOM     98  O   UNL     1     -10.559  -4.374  14.313  1.00  0.00    -0.744 OA
ENDBRANCH  92  95
ENDBRANCH  65  88
ENDBRANCH  39  40
ENDBRANCH  32  34
ENDBRANCH  31  32
ENDBRANCH  30  31
ENDBRANCH  29  30
ENDBRANCH  28  29
ENDBRANCH  27  28
ENDBRANCH   1  27
TORSDOF 25
