REMARK SMILES CC(C)NC(=O)c1cccc(NC(=O)[C@@H]2[C@H](C(=O)OCCOCCOCCOCCOC(=O)c3ccc(-c4c5nc(c(-c6cccc(S(=O)(=O)[O-])c6F)c6ccc([nH]6)c(-c6cccc(S(=O)(=O)[O-])c6F)c6nc(c(-c7cccc(S(=O)(=O)[O-])c7F)c7ccc4[nH]7)C=C6)C=C5)cc3)C2(C)C)c1
REMARK SMILES IDX 24 1 23 2 22 3 21 4 20 5 19 6 17 7 18 8 16 9 15 10 97 11
REMARK SMILES IDX 98 12 99 13 13 14 12 15 14 17 11 18 7 19 8 20 100 21 9 22
REMARK SMILES IDX 10 23 5 24 4 25 6 27 2 28 1 29 3 30 25 31 26 32 27 33 28 34
REMARK SMILES IDX 29 35 30 36 31 37 32 38 33 39 34 40 35 41 96 42 36 43 95 44
REMARK SMILES IDX 37 45 38 46 39 47 89 48 40 49 94 50 88 51 90 52 41 53 93 54
REMARK SMILES IDX 87 55 86 56 42 58 74 59 54 60 73 61 55 62 58 63 72 64 91 65
REMARK SMILES IDX 56 66 57 67 71 69 92 70 59 71 43 72 44 73 52 74 45 75 47 76
REMARK SMILES IDX 53 77 46 78 48 79 49 80 50 81 51 82 75 83 76 84 84 85 77 86
REMARK SMILES IDX 79 87 85 88 78 89 80 90 81 91 82 92 83 93 60 94 61 95 69 96
REMARK SMILES IDX 62 97 64 98 70 99 63 100 65 101 66 102 67 103 68 104
REMARK H PARENT 12 16 4 26 90 57 58 68
REMARK Flexibility Score: inf
ROOT
ATOM      1  C   UNL     1       3.503   2.607  11.583  1.00  0.00     0.188 C 
ENDROOT
BRANCH   1   2
ATOM      2  C   UNL     1       2.530   1.538  12.119  1.00  0.00     0.188 C 
BRANCH   2   3
ATOM      3  O   UNL     1       3.186   0.382  12.634  1.00  0.00    -0.376 OA
BRANCH   3   4
ATOM      4  C   UNL     1       3.020  -0.847  11.934  1.00  0.00     0.202 C 
BRANCH   4   5
ATOM      5  C   UNL     1       3.781  -0.980  10.605  1.00  0.00     0.261 C 
BRANCH   5   6
ATOM      6  O   UNL     1       3.370  -0.053   9.594  1.00  0.00    -0.463 OA
BRANCH   6   7
ATOM      7  C   UNL     1       2.070  -0.053   9.227  1.00  0.00     0.310 C 
ATOM      8  O   UNL     1       1.226  -0.898   9.518  1.00  0.00    -0.252 OA
BRANCH   7   9
ATOM      9  C   UNL     1       1.740   1.293   8.744  1.00  0.00     0.118 C 
ATOM     10  C   UNL     1       1.878   1.687   7.316  1.00  0.00     0.100 C 
ATOM     11  C   UNL     1       0.526   1.803   8.025  1.00  0.00    -0.009 C 
ATOM     12  C   UNL     1       0.070   3.206   8.355  1.00  0.00     0.013 C 
ATOM     13  C   UNL     1      -0.609   0.841   7.805  1.00  0.00     0.013 C 
BRANCH  10  14
ATOM     14  C   UNL     1       2.115   0.757   6.199  1.00  0.00     0.228 C 
ATOM     15  N   UNL     1       2.723   1.240   5.067  1.00  0.00    -0.326 N 
ATOM     16  H   UNL     1       3.020   0.539   4.443  1.00  0.00     0.169 HD
ATOM     17  O   UNL     1       1.833  -0.433   6.290  1.00  0.00    -0.274 OA
BRANCH  15  18
ATOM     18  C   UNL     1       3.003   2.552   4.632  1.00  0.00     0.041 A 
ATOM     19  C   UNL     1       4.127   3.929   2.988  1.00  0.00     0.041 A 
ATOM     20  C   UNL     1       3.631   5.090   3.580  1.00  0.00     0.014 A 
ATOM     21  C   UNL     1       3.888   2.676   3.562  1.00  0.00     0.040 A 
ATOM     22  C   UNL     1       2.771   4.981   4.663  1.00  0.00     0.003 A 
ATOM     23  C   UNL     1       2.411   3.716   5.139  1.00  0.00     0.026 A 
BRANCH  19  24
ATOM     24  C   UNL     1       4.828   4.055   1.695  1.00  0.00     0.251 C 
ATOM     25  N   UNL     1       4.435   3.271   0.635  1.00  0.00    -0.350 N 
ATOM     26  H   UNL     1       5.002   3.342  -0.166  1.00  0.00     0.164 HD
ATOM     27  O   UNL     1       5.692   4.913   1.546  1.00  0.00    -0.269 OA
BRANCH  25  28
ATOM     28  C   UNL     1       3.305   2.349   0.514  1.00  0.00     0.076 C 
ATOM     29  C   UNL     1       2.335   2.832  -0.558  1.00  0.00     0.030 C 
ATOM     30  C   UNL     1       3.814   0.943   0.218  1.00  0.00     0.030 C 
ENDBRANCH  25  28
ENDBRANCH  19  24
ENDBRANCH  15  18
ENDBRANCH  10  14
ENDBRANCH   7   9
ENDBRANCH   6   7
ENDBRANCH   5   6
ENDBRANCH   4   5
ENDBRANCH   3   4
ENDBRANCH   2   3
ENDBRANCH   1   2
BRANCH   1  31
ATOM     31  O   UNL     1       4.806   2.123  11.340  1.00  0.00    -0.377 OA
BRANCH  31  32
ATOM     32  C   UNL     1       5.643   1.871  12.469  1.00  0.00     0.188 C 
BRANCH  32  33
ATOM     33  C   UNL     1       5.124   1.972  13.928  1.00  0.00     0.188 C 
BRANCH  33  34
ATOM     34  O   UNL     1       4.133   2.966  14.168  1.00  0.00    -0.376 OA
BRANCH  34  35
ATOM     35  C   UNL     1       4.543   4.154  14.829  1.00  0.00     0.202 C 
BRANCH  35  36
ATOM     36  C   UNL     1       5.428   5.093  14.000  1.00  0.00     0.261 C 
BRANCH  36  37
ATOM     37  O   UNL     1       6.697   4.549  13.609  1.00  0.00    -0.460 OA
BRANCH  37  38
ATOM     38  C   UNL     1       7.528   4.133  14.590  1.00  0.00     0.338 C 
ATOM     39  O   UNL     1       7.356   4.227  15.792  1.00  0.00    -0.246 OA
BRANCH  38  40
ATOM     40  C   UNL     1       8.596   3.342  13.949  1.00  0.00     0.060 A 
ATOM     41  C   UNL     1       8.769   2.002  14.324  1.00  0.00     0.016 A 
ATOM     42  C   UNL     1       9.389   3.912  12.952  1.00  0.00     0.016 A 
ATOM     43  C   UNL     1       9.757   1.232  13.711  1.00  0.00     0.010 A 
ATOM     44  C   UNL     1      10.394   3.148  12.360  1.00  0.00     0.010 A 
ATOM     45  C   UNL     1      10.600   1.816  12.757  1.00  0.00    -0.014 A 
BRANCH  45  46
ATOM     46  C   UNL     1      11.826   1.111  12.321  1.00  0.00     0.031 A 
ATOM     47  C   UNL     1      13.109   1.420  13.040  1.00  0.00     0.074 A 
ATOM     48  C   UNL     1      11.810   0.247  11.292  1.00  0.00     0.049 A 
ATOM     49  N   UNL     1      14.317   0.984  12.804  1.00  0.00    -0.248 NA
ATOM     50  C   UNL     1      13.012   2.352  14.177  1.00  0.00     0.031 C 
ATOM     51  C   UNL     1      10.627  -0.138  10.527  1.00  0.00     0.029 A 
ATOM     52  N   UNL     1      12.839  -0.440  10.697  1.00  0.00    -0.354 N 
ATOM     53  C   UNL     1      15.129   1.606  13.744  1.00  0.00     0.074 A 
ATOM     54  C   UNL     1      14.279   2.458  14.546  1.00  0.00     0.031 C 
ATOM     55  C   UNL     1      11.002  -0.973   9.540  1.00  0.00     0.029 A 
ATOM     56  C   UNL     1      12.452  -1.156   9.590  1.00  0.00     0.049 A 
ATOM     57  H   UNL     1      13.765  -0.421  11.032  1.00  0.00     0.167 HD
ATOM     58  C   UNL     1      16.462   1.470  13.934  1.00  0.00     0.034 A 
ATOM     59  C   UNL     1      13.192  -1.855   8.706  1.00  0.00     0.034 A 
ATOM     60  C   UNL     1      17.305   0.624  13.136  1.00  0.00     0.049 A 
ATOM     61  C   UNL     1      14.685  -1.945   8.902  1.00  0.00     0.074 A 
ATOM     62  C   UNL     1      18.659   0.382  13.273  1.00  0.00     0.029 A 
ATOM     63  N   UNL     1      16.878  -0.102  12.034  1.00  0.00    -0.354 N 
ATOM     64  N   UNL     1      15.425  -1.456   9.869  1.00  0.00    -0.248 NA
ATOM     65  C   UNL     1      15.444  -2.704   7.896  1.00  0.00     0.031 C 
ATOM     66  C   UNL     1      19.058  -0.465  12.233  1.00  0.00     0.029 A 
ATOM     67  C   UNL     1      17.945  -0.775  11.467  1.00  0.00     0.049 A 
ATOM     68  H   UNL     1      15.950  -0.135  11.704  1.00  0.00     0.167 HD
ATOM     69  C   UNL     1      16.727  -1.871   9.605  1.00  0.00     0.074 A 
ATOM     70  C   UNL     1      16.671  -2.671   8.399  1.00  0.00     0.031 C 
ATOM     71  C   UNL     1      17.868  -1.603  10.289  1.00  0.00     0.034 A 
BRANCH  58  72
ATOM     72  C   UNL     1      17.079   2.251  15.063  1.00  0.00     0.023 A 
ATOM     73  C   UNL     1      16.823   1.870  16.396  1.00  0.00     0.012 A 
ATOM     74  C   UNL     1      17.922   3.348  14.807  1.00  0.00     0.148 A 
ATOM     75  C   UNL     1      17.364   2.593  17.458  1.00  0.00     0.002 A 
ATOM     76  C   UNL     1      18.494   4.037  15.870  1.00  0.00     0.091 A 
ATOM     77  F   UNL     1      18.130   3.713  13.534  1.00  0.00    -0.205 F 
ATOM     78  C   UNL     1      18.206   3.670  17.195  1.00  0.00     0.022 A 
BRANCH  76  79
ATOM     79  S   UNL     1      19.649   5.392  15.631  1.00  0.00     0.127 S 
ATOM     80  O   UNL     1      18.829   6.546  15.998  1.00  0.00    -0.237 OA
ATOM     81  O   UNL     1      20.707   5.067  16.588  1.00  0.00    -0.237 OA
ATOM     82  O   UNL     1      20.055   5.329  14.235  1.00  0.00    -0.744 OA
ENDBRANCH  76  79
ENDBRANCH  58  72
BRANCH  59  83
ATOM     83  C   UNL     1      12.530  -2.556   7.569  1.00  0.00     0.023 A 
ATOM     84  C   UNL     1      12.495  -3.964   7.552  1.00  0.00     0.012 A 
ATOM     85  C   UNL     1      11.922  -1.842   6.517  1.00  0.00     0.148 A 
ATOM     86  C   UNL     1      11.890  -4.649   6.498  1.00  0.00     0.002 A 
ATOM     87  C   UNL     1      11.274  -2.530   5.497  1.00  0.00     0.091 A 
ATOM     88  F   UNL     1      11.981  -0.503   6.543  1.00  0.00    -0.205 F 
ATOM     89  C   UNL     1      11.271  -3.933   5.477  1.00  0.00     0.022 A 
BRANCH  87  90
ATOM     90  S   UNL     1      10.351  -1.697   4.200  1.00  0.00     0.127 S 
ATOM     91  O   UNL     1      11.140  -2.022   3.014  1.00  0.00    -0.237 OA
ATOM     92  O   UNL     1       9.052  -2.366   4.277  1.00  0.00    -0.237 OA
ATOM     93  O   UNL     1      10.326  -0.289   4.572  1.00  0.00    -0.744 OA
ENDBRANCH  87  90
ENDBRANCH  59  83
BRANCH  71  94
ATOM     94  C   UNL     1      19.155  -2.191   9.768  1.00  0.00     0.023 A 
ATOM     95  C   UNL     1      19.739  -1.666   8.598  1.00  0.00     0.012 A 
ATOM     96  C   UNL     1      19.829  -3.203  10.481  1.00  0.00     0.148 A 
ATOM     97  C   UNL     1      20.957  -2.158   8.130  1.00  0.00     0.002 A 
ATOM     98  C   UNL     1      21.066  -3.654  10.036  1.00  0.00     0.091 A 
ATOM     99  F   UNL     1      19.251  -3.700  11.585  1.00  0.00    -0.205 F 
ATOM    100  C   UNL     1      21.626  -3.142   8.854  1.00  0.00     0.022 A 
BRANCH  98 101
ATOM    101  S   UNL     1      22.046  -4.849  10.953  1.00  0.00     0.127 S 
ATOM    102  O   UNL     1      21.953  -6.031  10.098  1.00  0.00    -0.237 OA
ATOM    103  O   UNL     1      23.365  -4.215  10.976  1.00  0.00    -0.237 OA
ATOM    104  O   UNL     1      21.412  -4.972  12.259  1.00  0.00    -0.744 OA
ENDBRANCH  98 101
ENDBRANCH  71  94
ENDBRANCH  45  46
ENDBRANCH  38  40
ENDBRANCH  37  38
ENDBRANCH  36  37
ENDBRANCH  35  36
ENDBRANCH  34  35
ENDBRANCH  33  34
ENDBRANCH  32  33
ENDBRANCH  31  32
ENDBRANCH   1  31
TORSDOF 27
