REMARK SMILES O=C(OCCOCCOCCOCCOC(=O)c1nn(Cc2ccc(F)cc2)c2c1CN(C(=O)[C@H]1CC1(F)F)CC2)c1ccc(-c2c3nc(c(-c4cccc(S(=O)(=O)[O-])c4F)c4ccc([nH]4)c(-c4cccc(S(=O)(=O)[O-])c4F)c4nc(c(-c5cccc(S(=O)(=O)[O-])c5F)c5ccc2[nH]5)C=C4)C=C3)cc1
REMARK SMILES IDX 8 1 7 2 6 3 5 4 4 5 3 6 2 7 1 8 42 9 43 10 104 11 44 12
REMARK SMILES IDX 103 13 45 14 46 15 47 16 97 17 48 18 102 19 96 20 98 21
REMARK SMILES IDX 49 22 101 23 95 24 94 25 50 27 82 28 62 29 81 30 63 31 66 32
REMARK SMILES IDX 80 33 99 34 64 35 65 36 79 38 100 39 67 40 51 41 52 42 60 43
REMARK SMILES IDX 53 44 55 45 61 46 54 47 56 48 57 49 58 50 59 51 83 52 84 53
REMARK SMILES IDX 92 54 85 55 87 56 93 57 86 58 88 59 89 60 90 61 91 62 68 63
REMARK SMILES IDX 69 64 77 65 70 66 72 67 78 68 71 69 73 70 74 71 75 72 76 73
REMARK SMILES IDX 9 74 10 75 11 76 12 77 13 78 14 79 15 80 16 81 17 82 18 83
REMARK SMILES IDX 19 84 30 85 20 86 29 87 31 88 41 89 32 90 40 91 21 92 22 93
REMARK SMILES IDX 23 94 28 95 24 96 27 97 25 98 26 99 33 100 34 101 35 102
REMARK SMILES IDX 36 103 37 104 38 105 39 106
REMARK H PARENT 98 26 66 37
REMARK Flexibility Score: inf
ROOT
ATOM      1  C   UNL     1      15.344  -2.293   0.269  1.00  0.00     0.188 C 
ENDROOT
BRANCH   1   2
ATOM      2  C   UNL     1      14.613  -2.965  -0.906  1.00  0.00     0.188 C 
BRANCH   2   3
ATOM      3  O   UNL     1      13.509  -2.414  -1.603  1.00  0.00    -0.376 OA
BRANCH   3   4
ATOM      4  C   UNL     1      12.348  -1.742  -1.167  1.00  0.00     0.202 C 
BRANCH   4   5
ATOM      5  C   UNL     1      11.673  -1.843   0.199  1.00  0.00     0.261 C 
BRANCH   5   6
ATOM      6  O   UNL     1      12.483  -2.268   1.278  1.00  0.00    -0.460 OA
BRANCH   6   7
ATOM      7  C   UNL     1      12.738  -3.534   1.663  1.00  0.00     0.338 C 
ATOM      8  O   UNL     1      13.342  -3.703   2.721  1.00  0.00    -0.246 OA
BRANCH   7   9
ATOM      9  C   UNL     1      12.436  -4.727   0.830  1.00  0.00     0.060 A 
ATOM     10  C   UNL     1      11.480  -4.806  -0.185  1.00  0.00     0.016 A 
ATOM     11  C   UNL     1      13.177  -5.878   1.163  1.00  0.00     0.016 A 
ATOM     12  C   UNL     1      11.105  -6.032  -0.681  1.00  0.00     0.010 A 
ATOM     13  C   UNL     1      12.832  -7.107   0.642  1.00  0.00     0.010 A 
ATOM     14  C   UNL     1      11.720  -7.172  -0.181  1.00  0.00    -0.014 A 
BRANCH  14  15
ATOM     15  C   UNL     1      11.073  -8.425  -0.491  1.00  0.00     0.031 A 
ATOM     16  C   UNL     1      11.079  -8.781  -1.928  1.00  0.00     0.074 A 
ATOM     17  C   UNL     1      10.484  -9.127   0.495  1.00  0.00     0.049 A 
ATOM     18  N   UNL     1      10.064  -8.875  -2.723  1.00  0.00    -0.248 NA
ATOM     19  C   UNL     1      12.384  -8.870  -2.598  1.00  0.00     0.031 C 
ATOM     20  C   UNL     1      10.618  -8.943   1.946  1.00  0.00     0.029 A 
ATOM     21  N   UNL     1       9.746 -10.260   0.401  1.00  0.00    -0.354 N 
ATOM     22  C   UNL     1      10.593  -9.259  -3.952  1.00  0.00     0.074 A 
ATOM     23  C   UNL     1      12.018  -9.071  -3.864  1.00  0.00     0.031 C 
ATOM     24  C   UNL     1      10.247 -10.084   2.567  1.00  0.00     0.029 A 
ATOM     25  C   UNL     1       9.719 -11.001   1.575  1.00  0.00     0.049 A 
ATOM     26  H   UNL     1       9.275 -10.531  -0.420  1.00  0.00     0.167 HD
ATOM     27  C   UNL     1       9.848  -9.925  -4.874  1.00  0.00     0.034 A 
ATOM     28  C   UNL     1       9.406 -12.316   1.671  1.00  0.00     0.034 A 
ATOM     29  C   UNL     1       8.440  -9.796  -4.620  1.00  0.00     0.049 A 
ATOM     30  C   UNL     1       8.634 -12.668   0.454  1.00  0.00     0.074 A 
ATOM     31  C   UNL     1       7.552  -8.740  -4.591  1.00  0.00     0.029 A 
ATOM     32  N   UNL     1       7.824 -10.832  -3.960  1.00  0.00    -0.354 N 
ATOM     33  N   UNL     1       7.452 -12.184   0.190  1.00  0.00    -0.248 NA
ATOM     34  C   UNL     1       9.368 -13.190  -0.689  1.00  0.00     0.031 C 
ATOM     35  C   UNL     1       6.665  -9.038  -3.518  1.00  0.00     0.029 A 
ATOM     36  C   UNL     1       7.021 -10.284  -2.995  1.00  0.00     0.049 A 
ATOM     37  H   UNL     1       7.939 -11.792  -4.146  1.00  0.00     0.167 HD
ATOM     38  C   UNL     1       7.481 -11.925  -1.175  1.00  0.00     0.074 A 
ATOM     39  C   UNL     1       8.644 -12.657  -1.677  1.00  0.00     0.031 C 
ATOM     40  C   UNL     1       6.747 -10.910  -1.719  1.00  0.00     0.034 A 
BRANCH  27  41
ATOM     41  C   UNL     1      10.401 -10.967  -5.807  1.00  0.00     0.023 A 
ATOM     42  C   UNL     1       9.586 -11.405  -6.872  1.00  0.00     0.012 A 
ATOM     43  C   UNL     1      11.570 -11.717  -5.537  1.00  0.00     0.148 A 
ATOM     44  C   UNL     1       9.908 -12.547  -7.614  1.00  0.00     0.002 A 
ATOM     45  C   UNL     1      11.929 -12.799  -6.330  1.00  0.00     0.091 A 
ATOM     46  F   UNL     1      12.274 -11.474  -4.428  1.00  0.00    -0.205 F 
ATOM     47  C   UNL     1      11.086 -13.236  -7.353  1.00  0.00     0.022 A 
BRANCH  45  48
ATOM     48  S   UNL     1      13.468 -13.687  -6.066  1.00  0.00     0.127 S 
ATOM     49  O   UNL     1      12.989 -14.942  -5.496  1.00  0.00    -0.237 OA
ATOM     50  O   UNL     1      13.992 -13.784  -7.429  1.00  0.00    -0.237 OA
ATOM     51  O   UNL     1      14.260 -12.841  -5.183  1.00  0.00    -0.744 OA
ENDBRANCH  45  48
ENDBRANCH  27  41
BRANCH  28  52
ATOM     52  C   UNL     1      10.056 -13.347   2.515  1.00  0.00     0.023 A 
ATOM     53  C   UNL     1       9.408 -14.582   2.710  1.00  0.00     0.012 A 
ATOM     54  C   UNL     1      11.420 -13.245   2.878  1.00  0.00     0.148 A 
ATOM     55  C   UNL     1      10.105 -15.690   3.209  1.00  0.00     0.002 A 
ATOM     56  C   UNL     1      12.106 -14.347   3.376  1.00  0.00     0.091 A 
ATOM     57  F   UNL     1      12.070 -12.098   2.644  1.00  0.00    -0.205 F 
ATOM     58  C   UNL     1      11.454 -15.576   3.531  1.00  0.00     0.022 A 
BRANCH  56  59
ATOM     59  S   UNL     1      13.860 -14.286   3.769  1.00  0.00     0.127 S 
ATOM     60  O   UNL     1      13.892 -14.888   5.103  1.00  0.00    -0.237 OA
ATOM     61  O   UNL     1      14.434 -15.111   2.710  1.00  0.00    -0.237 OA
ATOM     62  O   UNL     1      14.227 -12.875   3.741  1.00  0.00    -0.744 OA
ENDBRANCH  56  59
ENDBRANCH  28  52
BRANCH  40  63
ATOM     63  C   UNL     1       5.744 -10.204  -0.838  1.00  0.00     0.023 A 
ATOM     64  C   UNL     1       6.131  -9.451   0.292  1.00  0.00     0.012 A 
ATOM     65  C   UNL     1       4.411 -10.132  -1.275  1.00  0.00     0.148 A 
ATOM     66  C   UNL     1       5.205  -8.658   0.978  1.00  0.00     0.002 A 
ATOM     67  C   UNL     1       3.507  -9.302  -0.623  1.00  0.00     0.091 A 
ATOM     68  F   UNL     1       4.059 -10.849  -2.352  1.00  0.00    -0.205 F 
ATOM     69  C   UNL     1       3.897  -8.571   0.511  1.00  0.00     0.022 A 
BRANCH  67  70
ATOM     70  S   UNL     1       1.853  -9.036  -1.264  1.00  0.00     0.127 S 
ATOM     71  O   UNL     1       1.037  -9.821  -0.340  1.00  0.00    -0.237 OA
ATOM     72  O   UNL     1       1.697  -7.585  -1.137  1.00  0.00    -0.237 OA
ATOM     73  O   UNL     1       1.877  -9.511  -2.642  1.00  0.00    -0.744 OA
ENDBRANCH  67  70
ENDBRANCH  40  63
ENDBRANCH  14  15
ENDBRANCH   7   9
ENDBRANCH   6   7
ENDBRANCH   5   6
ENDBRANCH   4   5
ENDBRANCH   3   4
ENDBRANCH   2   3
ENDBRANCH   1   2
BRANCH   1  74
ATOM     74  O   UNL     1      15.938  -1.033   0.023  1.00  0.00    -0.377 OA
BRANCH  74  75
ATOM     75  C   UNL     1      15.040  -0.058  -0.447  1.00  0.00     0.188 C 
BRANCH  75  76
ATOM     76  C   UNL     1      15.067   0.143  -1.980  1.00  0.00     0.188 C 
BRANCH  76  77
ATOM     77  O   UNL     1      16.072  -0.425  -2.804  1.00  0.00    -0.376 OA
BRANCH  77  78
ATOM     78  C   UNL     1      17.351  -0.719  -2.280  1.00  0.00     0.202 C 
BRANCH  78  79
ATOM     79  C   UNL     1      18.186   0.424  -1.683  1.00  0.00     0.261 C 
BRANCH  79  80
ATOM     80  O   UNL     1      17.494   1.387  -0.873  1.00  0.00    -0.458 OA
BRANCH  80  81
ATOM     81  C   UNL     1      16.985   2.496  -1.496  1.00  0.00     0.359 C 
ATOM     82  O   UNL     1      17.060   2.722  -2.698  1.00  0.00    -0.244 OA
BRANCH  81  83
ATOM     83  C   UNL     1      16.272   3.373  -0.550  1.00  0.00     0.175 A 
ATOM     84  N   UNL     1      16.978   4.036   0.386  1.00  0.00    -0.165 NA
ATOM     85  C   UNL     1      14.872   3.672  -0.426  1.00  0.00     0.028 A 
ATOM     86  N   UNL     1      16.067   4.712   1.109  1.00  0.00    -0.264 N 
ATOM     87  C   UNL     1      14.796   4.523   0.662  1.00  0.00     0.046 A 
ATOM     88  C   UNL     1      13.656   3.215  -1.177  1.00  0.00     0.159 C 
ATOM     89  C   UNL     1      13.549   5.137   1.185  1.00  0.00     0.078 C 
ATOM     90  N   UNL     1      12.486   4.035  -0.789  1.00  0.00    -0.337 N 
ATOM     91  C   UNL     1      12.340   4.352   0.646  1.00  0.00     0.126 C 
BRANCH  86  92
ATOM     92  C   UNL     1      16.528   5.641   2.131  1.00  0.00     0.180 C 
BRANCH  92  93
ATOM     93  C   UNL     1      17.015   4.946   3.380  1.00  0.00    -0.026 A 
ATOM     94  C   UNL     1      18.190   4.174   3.354  1.00  0.00     0.008 A 
ATOM     95  C   UNL     1      16.326   5.095   4.594  1.00  0.00     0.008 A 
ATOM     96  C   UNL     1      18.675   3.576   4.517  1.00  0.00     0.039 A 
ATOM     97  C   UNL     1      16.818   4.501   5.758  1.00  0.00     0.039 A 
ATOM     98  C   UNL     1      17.989   3.753   5.710  1.00  0.00     0.123 A 
ATOM     99  F   UNL     1      18.465   3.203   6.834  1.00  0.00    -0.207 F 
ENDBRANCH  92  93
ENDBRANCH  86  92
BRANCH  90 100
ATOM    100  C   UNL     1      11.521   4.301  -1.750  1.00  0.00     0.232 C 
ATOM    101  O   UNL     1      11.552   3.825  -2.883  1.00  0.00    -0.274 OA
BRANCH 100 102
ATOM    102  C   UNL     1      10.402   5.186  -1.367  1.00  0.00     0.154 C 
ATOM    103  C   UNL     1      10.637   6.685  -1.244  1.00  0.00     0.097 C 
ATOM    104  C   UNL     1       9.821   6.132  -2.351  1.00  0.00     0.260 C 
ATOM    105  F   UNL     1      10.277   6.272  -3.639  1.00  0.00    -0.206 F 
ATOM    106  F   UNL     1       8.470   6.398  -2.365  1.00  0.00    -0.206 F 
ENDBRANCH 100 102
ENDBRANCH  90 100
ENDBRANCH  81  83
ENDBRANCH  80  81
ENDBRANCH  79  80
ENDBRANCH  78  79
ENDBRANCH  77  78
ENDBRANCH  76  77
ENDBRANCH  75  76
ENDBRANCH  74  75
ENDBRANCH   1  74
TORSDOF 27
