REMARK SMILES CN1C(=O)C[C@@H](C(=O)OCCOCCOCCOCCOC(=O)c2ccc(-c3c4nc(c(-c5cccc(S(=O)(=O)[O-])c5F)c5ccc([nH]5)c(-c5cccc(S(=O)(=O)[O-])c5F)c5nc(c(-c6cccc(S(=O)(=O)[O-])c6F)c6ccc3[nH]6)C=C5)C=C4)cc2)C12CCN(C(=O)c1cccc3ccccc13)CC2
REMARK SMILES IDX 16 1 15 2 14 3 13 4 12 5 11 6 10 7 9 8 7 9 8 10 6 11 1 12
REMARK SMILES IDX 2 13 3 14 87 15 4 16 5 17 88 18 104 19 89 20 103 21 90 22
REMARK SMILES IDX 91 23 92 24 93 25 94 26 102 27 95 28 97 29 101 30 96 31
REMARK SMILES IDX 98 32 100 33 99 34 17 35 18 36 19 37 20 38 21 39 22 40 23 41
REMARK SMILES IDX 24 42 25 43 86 44 26 45 85 46 27 47 28 48 29 49 79 50 30 51
REMARK SMILES IDX 84 52 78 53 80 54 31 55 83 56 77 57 76 58 32 60 64 61 44 62
REMARK SMILES IDX 63 63 45 64 48 65 62 66 81 67 46 68 47 69 61 71 82 72 49 73
REMARK SMILES IDX 33 74 34 75 42 76 35 77 37 78 43 79 36 80 38 81 39 82 40 83
REMARK SMILES IDX 41 84 65 85 66 86 74 87 67 88 69 89 75 90 68 91 70 92 71 93
REMARK SMILES IDX 72 94 73 95 50 96 51 97 59 98 52 99 54 100 60 101 53 102
REMARK SMILES IDX 55 103 56 104 57 105 58 106
REMARK H PARENT 80 59 48 70
REMARK Flexibility Score: inf
ROOT
ATOM      1  C   UNL     1      -3.265   1.524  -2.653  1.00  0.00     0.188 C 
ENDROOT
BRANCH   1   2
ATOM      2  O   UNL     1      -3.283   0.130  -2.336  1.00  0.00    -0.377 OA
BRANCH   2   3
ATOM      3  C   UNL     1      -4.355  -0.687  -2.766  1.00  0.00     0.188 C 
BRANCH   3   4
ATOM      4  C   UNL     1      -5.373  -1.052  -1.690  1.00  0.00     0.188 C 
BRANCH   4   5
ATOM      5  O   UNL     1      -5.823  -0.005  -0.853  1.00  0.00    -0.376 OA
BRANCH   5   6
ATOM      6  C   UNL     1      -4.922   0.534   0.117  1.00  0.00     0.202 C 
BRANCH   6   7
ATOM      7  C   UNL     1      -3.932  -0.371   0.877  1.00  0.00     0.261 C 
BRANCH   7   8
ATOM      8  O   UNL     1      -2.710  -0.731   0.166  1.00  0.00    -0.463 OA
BRANCH   8   9
ATOM      9  C   UNL     1      -2.555  -2.043  -0.113  1.00  0.00     0.311 C 
ATOM     10  O   UNL     1      -3.439  -2.886   0.063  1.00  0.00    -0.252 OA
BRANCH   9  11
ATOM     11  C   UNL     1      -1.173  -2.538  -0.515  1.00  0.00     0.134 C 
ATOM     12  C   UNL     1       1.537  -0.162   0.439  1.00  0.00     0.147 C 
ATOM     13  N   UNL     1       0.589  -1.251   0.286  1.00  0.00    -0.339 N 
ATOM     14  C   UNL     1       0.294  -2.125   1.323  1.00  0.00     0.223 C 
ATOM     15  C   UNL     1       0.038  -1.701  -1.001  1.00  0.00     0.060 C 
ATOM     16  O   UNL     1       0.742  -2.106   2.457  1.00  0.00    -0.275 OA
ATOM     17  C   UNL     1      -0.645  -3.175   0.793  1.00  0.00     0.118 C 
ATOM     18  C   UNL     1      -0.196  -0.554  -2.003  1.00  0.00     0.051 C 
ATOM     19  C   UNL     1       1.094  -2.655  -1.663  1.00  0.00     0.051 C 
ATOM     20  C   UNL     1      -0.501  -0.991  -3.444  1.00  0.00     0.122 C 
ATOM     21  C   UNL     1       0.727  -3.092  -3.076  1.00  0.00     0.122 C 
ATOM     22  N   UNL     1       0.475  -1.957  -3.948  1.00  0.00    -0.338 N 
ATOM     23  C   UNL     1       1.029  -1.988  -5.234  1.00  0.00     0.254 C 
ATOM     24  O   UNL     1       1.877  -2.810  -5.583  1.00  0.00    -0.269 OA
BRANCH  23  25
ATOM     25  C   UNL     1       0.515  -1.096  -6.298  1.00  0.00     0.047 A 
ATOM     26  C   UNL     1      -0.511  -1.631  -7.093  1.00  0.00     0.014 A 
ATOM     27  C   UNL     1       1.087   0.167  -6.591  1.00  0.00    -0.006 A 
ATOM     28  C   UNL     1      -0.998  -0.915  -8.183  1.00  0.00     0.001 A 
ATOM     29  C   UNL     1       0.565   0.891  -7.699  1.00  0.00    -0.018 A 
ATOM     30  C   UNL     1       2.112   0.772  -5.831  1.00  0.00     0.009 A 
ATOM     31  C   UNL     1      -0.459   0.334  -8.486  1.00  0.00     0.009 A 
ATOM     32  C   UNL     1       1.015   2.196  -7.958  1.00  0.00     0.009 A 
ATOM     33  C   UNL     1       2.549   2.071  -6.107  1.00  0.00     0.001 A 
ATOM     34  C   UNL     1       1.986   2.789  -7.155  1.00  0.00     0.001 A 
ENDBRANCH  23  25
ENDBRANCH   9  11
ENDBRANCH   8   9
ENDBRANCH   7   8
ENDBRANCH   6   7
ENDBRANCH   5   6
ENDBRANCH   4   5
ENDBRANCH   3   4
ENDBRANCH   2   3
ENDBRANCH   1   2
BRANCH   1  35
ATOM     35  C   UNL     1      -4.276   2.085  -3.663  1.00  0.00     0.188 C 
BRANCH  35  36
ATOM     36  O   UNL     1      -4.328   1.464  -4.952  1.00  0.00    -0.376 OA
BRANCH  36  37
ATOM     37  C   UNL     1      -3.097   0.979  -5.475  1.00  0.00     0.202 C 
BRANCH  37  38
ATOM     38  C   UNL     1      -2.154   2.074  -5.933  1.00  0.00     0.261 C 
BRANCH  38  39
ATOM     39  O   UNL     1      -1.776   2.937  -4.865  1.00  0.00    -0.460 OA
BRANCH  39  40
ATOM     40  C   UNL     1      -1.428   4.171  -5.274  1.00  0.00     0.338 C 
ATOM     41  O   UNL     1      -1.384   4.606  -6.409  1.00  0.00    -0.246 OA
BRANCH  40  42
ATOM     42  C   UNL     1      -1.166   4.974  -4.082  1.00  0.00     0.060 A 
ATOM     43  C   UNL     1      -2.215   5.736  -3.567  1.00  0.00     0.016 A 
ATOM     44  C   UNL     1       0.140   5.090  -3.600  1.00  0.00     0.016 A 
ATOM     45  C   UNL     1      -1.928   6.722  -2.635  1.00  0.00     0.010 A 
ATOM     46  C   UNL     1       0.421   6.070  -2.651  1.00  0.00     0.010 A 
ATOM     47  C   UNL     1      -0.601   6.938  -2.234  1.00  0.00    -0.014 A 
BRANCH  47  48
ATOM     48  C   UNL     1      -0.286   8.223  -1.577  1.00  0.00     0.031 A 
ATOM     49  C   UNL     1       0.227   9.354  -2.428  1.00  0.00     0.074 A 
ATOM     50  C   UNL     1      -0.561   8.396  -0.274  1.00  0.00     0.049 A 
ATOM     51  N   UNL     1       0.400  10.610  -2.113  1.00  0.00    -0.248 NA
ATOM     52  C   UNL     1       0.583   9.034  -3.823  1.00  0.00     0.031 C 
ATOM     53  C   UNL     1      -1.046   7.353   0.629  1.00  0.00     0.029 A 
ATOM     54  N   UNL     1      -0.481   9.514   0.511  1.00  0.00    -0.354 N 
ATOM     55  C   UNL     1       0.893  11.223  -3.259  1.00  0.00     0.074 A 
ATOM     56  C   UNL     1       1.014  10.203  -4.274  1.00  0.00     0.031 C 
ATOM     57  C   UNL     1      -1.220   7.883   1.851  1.00  0.00     0.029 A 
ATOM     58  C   UNL     1      -0.860   9.298   1.813  1.00  0.00     0.049 A 
ATOM     59  H   UNL     1      -0.181  10.389   0.174  1.00  0.00     0.167 HD
ATOM     60  C   UNL     1       1.193  12.528  -3.453  1.00  0.00     0.034 A 
ATOM     61  C   UNL     1      -0.916  10.156   2.850  1.00  0.00     0.034 A 
ATOM     62  C   UNL     1       1.037  13.535  -2.442  1.00  0.00     0.049 A 
ATOM     63  C   UNL     1      -0.602  11.607   2.598  1.00  0.00     0.074 A 
ATOM     64  C   UNL     1       1.267  14.895  -2.536  1.00  0.00     0.029 A 
ATOM     65  N   UNL     1       0.617  13.285  -1.144  1.00  0.00    -0.354 N 
ATOM     66  N   UNL     1      -0.272  12.195   1.472  1.00  0.00    -0.248 NA
ATOM     67  C   UNL     1      -0.710  12.519   3.744  1.00  0.00     0.031 C 
ATOM     68  C   UNL     1       1.000  15.466  -1.287  1.00  0.00     0.029 A 
ATOM     69  C   UNL     1       0.589  14.463  -0.422  1.00  0.00     0.049 A 
ATOM     70  H   UNL     1       0.374  12.400  -0.790  1.00  0.00     0.167 HD
ATOM     71  C   UNL     1      -0.154  13.548   1.768  1.00  0.00     0.074 A 
ATOM     72  C   UNL     1      -0.482  13.694   3.172  1.00  0.00     0.031 C 
ATOM     73  C   UNL     1       0.214  14.576   0.964  1.00  0.00     0.034 A 
BRANCH  60  74
ATOM     74  C   UNL     1       1.683  12.943  -4.814  1.00  0.00     0.023 A 
ATOM     75  C   UNL     1       0.769  13.043  -5.883  1.00  0.00     0.012 A 
ATOM     76  C   UNL     1       3.032  13.289  -5.023  1.00  0.00     0.148 A 
ATOM     77  C   UNL     1       1.194  13.462  -7.144  1.00  0.00     0.002 A 
ATOM     78  C   UNL     1       3.441  13.740  -6.273  1.00  0.00     0.091 A 
ATOM     79  F   UNL     1       3.889  13.163  -4.000  1.00  0.00    -0.205 F 
ATOM     80  C   UNL     1       2.526  13.820  -7.335  1.00  0.00     0.022 A 
BRANCH  78  81
ATOM     81  S   UNL     1       5.121  14.281  -6.610  1.00  0.00     0.127 S 
ATOM     82  O   UNL     1       5.585  13.244  -7.531  1.00  0.00    -0.237 OA
ATOM     83  O   UNL     1       4.903  15.590  -7.225  1.00  0.00    -0.237 OA
ATOM     84  O   UNL     1       5.799  14.317  -5.322  1.00  0.00    -0.744 OA
ENDBRANCH  78  81
ENDBRANCH  60  74
BRANCH  61  85
ATOM     85  C   UNL     1      -1.339   9.671   4.193  1.00  0.00     0.023 A 
ATOM     86  C   UNL     1      -2.571  10.082   4.736  1.00  0.00     0.012 A 
ATOM     87  C   UNL     1      -0.538   8.769   4.920  1.00  0.00     0.148 A 
ATOM     88  C   UNL     1      -2.984   9.625   5.989  1.00  0.00     0.002 A 
ATOM     89  C   UNL     1      -0.982   8.272   6.141  1.00  0.00     0.091 A 
ATOM     90  F   UNL     1       0.644   8.405   4.403  1.00  0.00    -0.205 F 
ATOM     91  C   UNL     1      -2.197   8.711   6.685  1.00  0.00     0.022 A 
BRANCH  89  92
ATOM     92  S   UNL     1      -0.086   6.982   7.011  1.00  0.00     0.127 S 
ATOM     93  O   UNL     1       0.673   7.751   7.992  1.00  0.00    -0.237 OA
ATOM     94  O   UNL     1      -1.170   6.170   7.567  1.00  0.00    -0.237 OA
ATOM     95  O   UNL     1       0.692   6.304   5.981  1.00  0.00    -0.744 OA
ENDBRANCH  89  92
ENDBRANCH  61  85
BRANCH  73  96
ATOM     96  C   UNL     1       0.278  15.945   1.584  1.00  0.00     0.023 A 
ATOM     97  C   UNL     1       1.341  16.261   2.452  1.00  0.00     0.012 A 
ATOM     98  C   UNL     1      -0.669  16.933   1.254  1.00  0.00     0.148 A 
ATOM     99  C   UNL     1       1.443  17.534   3.010  1.00  0.00     0.002 A 
ATOM    100  C   UNL     1      -0.535  18.213   1.778  1.00  0.00     0.091 A 
ATOM    101  F   UNL     1      -1.685  16.605   0.442  1.00  0.00    -0.205 F 
ATOM    102  C   UNL     1       0.513  18.512   2.664  1.00  0.00     0.022 A 
BRANCH 100 103
ATOM    103  S   UNL     1      -1.636  19.551   1.306  1.00  0.00     0.127 S 
ATOM    104  O   UNL     1      -2.549  19.602   2.446  1.00  0.00    -0.237 OA
ATOM    105  O   UNL     1      -0.723  20.690   1.205  1.00  0.00    -0.237 OA
ATOM    106  O   UNL     1      -2.228  19.144   0.039  1.00  0.00    -0.744 OA
ENDBRANCH 100 103
ENDBRANCH  73  96
ENDBRANCH  47  48
ENDBRANCH  40  42
ENDBRANCH  39  40
ENDBRANCH  38  39
ENDBRANCH  37  38
ENDBRANCH  36  37
ENDBRANCH  35  36
ENDBRANCH   1  35
TORSDOF 24
