REMARK SMILES Cc1cc(Cl)cc2c1O[C@H](C(F)(F)F)C(C(=O)OCCOCCOCCOCCOC(=O)c1ccc(-c3c4nc(c(-c5cccc(S(=O)(=O)[O-])c5F)c5ccc([nH]5)c(-c5cccc(S(=O)(=O)[O-])c5F)c5nc(c(-c6cccc(S(=O)(=O)[O-])c6F)c6ccc3[nH]6)C=C5)C=C4)cc1)=C2
REMARK SMILES IDX 25 1 24 2 23 3 22 4 21 5 20 6 19 7 18 8 16 9 17 10 15 11
REMARK SMILES IDX 1 12 2 13 3 14 8 15 4 16 7 17 9 18 5 19 6 20 96 21 10 22
REMARK SMILES IDX 11 23 12 24 13 25 14 26 26 27 27 28 28 29 29 30 30 31 31 32
REMARK SMILES IDX 32 33 33 34 34 35 95 36 35 37 94 38 36 39 37 40 38 41 88 42
REMARK SMILES IDX 39 43 93 44 87 45 89 46 40 47 92 48 86 49 85 50 41 52 73 53
REMARK SMILES IDX 53 54 72 55 54 56 57 57 71 58 90 59 55 60 56 61 70 63 91 64
REMARK SMILES IDX 58 65 42 66 43 67 51 68 44 69 46 70 52 71 45 72 47 73 48 74
REMARK SMILES IDX 49 75 50 76 74 77 75 78 83 79 76 80 78 81 84 82 77 83 79 84
REMARK SMILES IDX 80 85 81 86 82 87 59 88 60 89 68 90 61 91 63 92 69 93 62 94
REMARK SMILES IDX 64 95 65 96 66 97 67 98
REMARK H PARENT 89 51 57 62
REMARK Flexibility Score: inf
ROOT
ATOM      1  C   UNL     1       0.030  -3.842   7.941  1.00  0.00     0.188 C 
ENDROOT
BRANCH   1   2
ATOM      2  O   UNL     1      -0.397  -3.065   6.822  1.00  0.00    -0.377 OA
BRANCH   2   3
ATOM      3  C   UNL     1      -0.075  -1.685   6.807  1.00  0.00     0.188 C 
BRANCH   3   4
ATOM      4  C   UNL     1      -1.063  -0.828   7.620  1.00  0.00     0.188 C 
BRANCH   4   5
ATOM      5  O   UNL     1      -1.831  -1.566   8.553  1.00  0.00    -0.376 OA
BRANCH   5   6
ATOM      6  C   UNL     1      -3.070  -2.158   8.195  1.00  0.00     0.202 C 
BRANCH   6   7
ATOM      7  C   UNL     1      -3.409  -2.744   6.809  1.00  0.00     0.261 C 
BRANCH   7   8
ATOM      8  O   UNL     1      -2.725  -2.206   5.678  1.00  0.00    -0.460 OA
BRANCH   8   9
ATOM      9  C   UNL     1      -3.154  -1.034   5.181  1.00  0.00     0.338 C 
ATOM     10  O   UNL     1      -4.084  -0.360   5.587  1.00  0.00    -0.246 OA
BRANCH   9  11
ATOM     11  C   UNL     1      -2.170  -0.599   4.164  1.00  0.00     0.087 C 
ATOM     12  C   UNL     1       0.948  -0.150   0.090  1.00  0.00     0.048 C 
ATOM     13  C   UNL     1       0.493   0.726   1.225  1.00  0.00    -0.007 A 
ATOM     14  C   UNL     1       0.884   2.075   1.228  1.00  0.00     0.027 A 
ATOM     15  C   UNL     1      -0.338   0.254   2.255  1.00  0.00     0.131 A 
ATOM     16  C   UNL     1       0.467   2.927   2.247  1.00  0.00     0.042 A 
ATOM     17  C   UNL     1      -0.793   1.129   3.248  1.00  0.00     0.019 A 
ATOM     18  O   UNL     1      -0.670  -1.070   2.227  1.00  0.00    -0.475 OA
ATOM     19  Cl  UNL     1       0.954   4.578   2.236  1.00  0.00    -0.084 Cl
ATOM     20  C   UNL     1      -0.366   2.461   3.259  1.00  0.00     0.032 A 
ATOM     21  C   UNL     1      -1.759   0.673   4.232  1.00  0.00     0.027 C 
ATOM     22  C   UNL     1      -1.630  -1.604   3.178  1.00  0.00     0.316 C 
BRANCH  22  23
ATOM     23  C   UNL     1      -2.752  -2.288   2.386  1.00  0.00     0.430 C 
ATOM     24  F   UNL     1      -2.255  -3.119   1.443  1.00  0.00    -0.167 F 
ATOM     25  F   UNL     1      -3.561  -3.020   3.183  1.00  0.00    -0.167 F 
ATOM     26  F   UNL     1      -3.530  -1.376   1.753  1.00  0.00    -0.167 F 
ENDBRANCH  22  23
ENDBRANCH   9  11
ENDBRANCH   8   9
ENDBRANCH   7   8
ENDBRANCH   6   7
ENDBRANCH   5   6
ENDBRANCH   4   5
ENDBRANCH   3   4
ENDBRANCH   2   3
ENDBRANCH   1   2
BRANCH   1  27
ATOM     27  C   UNL     1       0.355  -3.189   9.307  1.00  0.00     0.188 C 
BRANCH  27  28
ATOM     28  O   UNL     1       1.085  -1.970   9.220  1.00  0.00    -0.376 OA
BRANCH  28  29
ATOM     29  C   UNL     1       2.462  -1.998   9.560  1.00  0.00     0.202 C 
BRANCH  29  30
ATOM     30  C   UNL     1       3.378  -2.730   8.570  1.00  0.00     0.261 C 
BRANCH  30  31
ATOM     31  O   UNL     1       3.073  -4.115   8.349  1.00  0.00    -0.460 OA
BRANCH  31  32
ATOM     32  C   UNL     1       3.143  -4.943   9.413  1.00  0.00     0.338 C 
ATOM     33  O   UNL     1       3.486  -4.655  10.547  1.00  0.00    -0.246 OA
BRANCH  32  34
ATOM     34  C   UNL     1       2.531  -6.228   9.018  1.00  0.00     0.060 A 
ATOM     35  C   UNL     1       1.415  -6.693   9.725  1.00  0.00     0.016 A 
ATOM     36  C   UNL     1       3.048  -6.958   7.945  1.00  0.00     0.016 A 
ATOM     37  C   UNL     1       0.834  -7.914   9.382  1.00  0.00     0.010 A 
ATOM     38  C   UNL     1       2.481  -8.192   7.619  1.00  0.00     0.010 A 
ATOM     39  C   UNL     1       1.396  -8.691   8.361  1.00  0.00    -0.014 A 
BRANCH  39  40
ATOM     40  C   UNL     1       1.000 -10.113   8.226  1.00  0.00     0.031 A 
ATOM     41  C   UNL     1       1.844 -11.147   8.920  1.00  0.00     0.074 A 
ATOM     42  C   UNL     1      -0.087 -10.481   7.526  1.00  0.00     0.049 A 
ATOM     43  N   UNL     1       1.715 -12.447   8.937  1.00  0.00    -0.248 NA
ATOM     44  C   UNL     1       2.988 -10.646   9.703  1.00  0.00     0.031 C 
ATOM     45  C   UNL     1      -0.996  -9.571   6.833  1.00  0.00     0.029 A 
ATOM     46  N   UNL     1      -0.600 -11.729   7.272  1.00  0.00    -0.354 N 
ATOM     47  C   UNL     1       2.764 -12.919   9.715  1.00  0.00     0.074 A 
ATOM     48  C   UNL     1       3.535 -11.771  10.137  1.00  0.00     0.031 C 
ATOM     49  C   UNL     1      -1.947 -10.293   6.216  1.00  0.00     0.029 A 
ATOM     50  C   UNL     1      -1.700 -11.717   6.448  1.00  0.00     0.049 A 
ATOM     51  H   UNL     1      -0.215 -12.555   7.645  1.00  0.00     0.167 HD
ATOM     52  C   UNL     1       3.050 -14.193  10.066  1.00  0.00     0.034 A 
ATOM     53  C   UNL     1      -2.412 -12.739   5.929  1.00  0.00     0.034 A 
ATOM     54  C   UNL     1       2.276 -15.332   9.657  1.00  0.00     0.049 A 
ATOM     55  C   UNL     1      -2.037 -14.156   6.288  1.00  0.00     0.074 A 
ATOM     56  C   UNL     1       2.473 -16.662   9.981  1.00  0.00     0.029 A 
ATOM     57  N   UNL     1       1.167 -15.280   8.827  1.00  0.00    -0.354 N 
ATOM     58  N   UNL     1      -1.103 -14.583   7.104  1.00  0.00    -0.248 NA
ATOM     59  C   UNL     1      -2.830 -15.233   5.675  1.00  0.00     0.031 C 
ATOM     60  C   UNL     1       1.502 -17.418   9.320  1.00  0.00     0.029 A 
ATOM     61  C   UNL     1       0.677 -16.556   8.615  1.00  0.00     0.049 A 
ATOM     62  H   UNL     1       0.785 -14.457   8.446  1.00  0.00     0.167 HD
ATOM     63  C   UNL     1      -1.216 -15.970   7.127  1.00  0.00     0.074 A 
ATOM     64  C   UNL     1      -2.325 -16.311   6.261  1.00  0.00     0.031 C 
ATOM     65  C   UNL     1      -0.459 -16.880   7.790  1.00  0.00     0.034 A 
BRANCH  52  66
ATOM     66  C   UNL     1       4.234 -14.427  10.966  1.00  0.00     0.023 A 
ATOM     67  C   UNL     1       4.153 -14.066  12.327  1.00  0.00     0.012 A 
ATOM     68  C   UNL     1       5.388 -15.076  10.489  1.00  0.00     0.148 A 
ATOM     69  C   UNL     1       5.212 -14.330  13.194  1.00  0.00     0.002 A 
ATOM     70  C   UNL     1       6.419 -15.379  11.369  1.00  0.00     0.091 A 
ATOM     71  F   UNL     1       5.453 -15.387   9.186  1.00  0.00    -0.205 F 
ATOM     72  C   UNL     1       6.337 -14.998  12.719  1.00  0.00     0.022 A 
BRANCH  70  73
ATOM     73  S   UNL     1       7.873 -16.312  10.878  1.00  0.00     0.127 S 
ATOM     74  O   UNL     1       8.929 -15.312  11.028  1.00  0.00    -0.237 OA
ATOM     75  O   UNL     1       7.900 -17.382  11.876  1.00  0.00    -0.237 OA
ATOM     76  O   UNL     1       7.627 -16.755   9.513  1.00  0.00    -0.744 OA
ENDBRANCH  70  73
ENDBRANCH  52  66
BRANCH  53  77
ATOM     77  C   UNL     1      -3.582 -12.459   5.045  1.00  0.00     0.023 A 
ATOM     78  C   UNL     1      -4.880 -12.766   5.495  1.00  0.00     0.012 A 
ATOM     79  C   UNL     1      -3.418 -11.869   3.776  1.00  0.00     0.148 A 
ATOM     80  C   UNL     1      -5.992 -12.512   4.691  1.00  0.00     0.002 A 
ATOM     81  C   UNL     1      -4.534 -11.564   3.004  1.00  0.00     0.091 A 
ATOM     82  F   UNL     1      -2.174 -11.603   3.356  1.00  0.00    -0.205 F 
ATOM     83  C   UNL     1      -5.821 -11.900   3.452  1.00  0.00     0.022 A 
BRANCH  81  84
ATOM     84  S   UNL     1      -4.423 -10.658   1.457  1.00  0.00     0.127 S 
ATOM     85  O   UNL     1      -4.865 -11.661   0.490  1.00  0.00    -0.237 OA
ATOM     86  O   UNL     1      -5.366  -9.563   1.685  1.00  0.00    -0.237 OA
ATOM     87  O   UNL     1      -3.032 -10.243   1.341  1.00  0.00    -0.744 OA
ENDBRANCH  81  84
ENDBRANCH  53  77
BRANCH  65  88
ATOM     88  C   UNL     1      -0.798 -18.342   7.634  1.00  0.00     0.023 A 
ATOM     89  C   UNL     1      -0.517 -18.996   6.419  1.00  0.00     0.012 A 
ATOM     90  C   UNL     1      -1.274 -19.093   8.729  1.00  0.00     0.148 A 
ATOM     91  C   UNL     1      -0.725 -20.369   6.287  1.00  0.00     0.002 A 
ATOM     92  C   UNL     1      -1.427 -20.469   8.607  1.00  0.00     0.091 A 
ATOM     93  F   UNL     1      -1.546 -18.451   9.874  1.00  0.00    -0.205 F 
ATOM     94  C   UNL     1      -1.165 -21.107   7.384  1.00  0.00     0.022 A 
BRANCH  92  95
ATOM     95  S   UNL     1      -1.881 -21.520   9.993  1.00  0.00     0.127 S 
ATOM     96  O   UNL     1      -3.221 -21.959   9.607  1.00  0.00    -0.237 OA
ATOM     97  O   UNL     1      -0.858 -22.564   9.936  1.00  0.00    -0.237 OA
ATOM     98  O   UNL     1      -1.821 -20.675  11.177  1.00  0.00    -0.744 OA
ENDBRANCH  92  95
ENDBRANCH  65  88
ENDBRANCH  39  40
ENDBRANCH  32  34
ENDBRANCH  31  32
ENDBRANCH  30  31
ENDBRANCH  29  30
ENDBRANCH  28  29
ENDBRANCH  27  28
ENDBRANCH   1  27
TORSDOF 24
