REMARK SMILES C[C@H]1C[NH+](CC[C@@H]2CCC[C@]2([NH3+])C(=O)OCCOCCOCCOCCOC(=O)c2ccc(-c3c4nc(c(-c5cccc(S(=O)(=O)[O-])c5F)c5ccc([nH]5)c(-c5cccc(S(=O)(=O)[O-])c5F)c5nc(c(-c6cccc(S(=O)(=O)[O-])c6F)c6ccc3[nH]6)C=C5)C=C4)cc2)C[C@H](C)O1
REMARK SMILES IDX 21 1 20 2 19 3 18 4 17 5 16 6 15 7 13 8 14 9 11 10 7 11 8 12
REMARK SMILES IDX 9 13 10 14 6 15 5 16 4 17 1 18 2 19 3 20 96 21 94 22 93 23
REMARK SMILES IDX 95 25 12 26 22 30 23 31 24 32 25 33 26 34 27 35 28 36 29 37
REMARK SMILES IDX 30 38 31 39 92 40 32 41 91 42 33 43 34 44 35 45 85 46 36 47
REMARK SMILES IDX 90 48 84 49 86 50 37 51 89 52 83 53 82 54 38 56 70 57 50 58
REMARK SMILES IDX 69 59 51 60 54 61 68 62 87 63 52 64 53 65 67 67 88 68 55 69
REMARK SMILES IDX 39 70 40 71 48 72 41 73 43 74 49 75 42 76 44 77 45 78 46 79
REMARK SMILES IDX 47 80 71 81 72 82 80 83 73 84 75 85 81 86 74 87 76 88 77 89
REMARK SMILES IDX 78 90 79 91 56 92 57 93 65 94 58 95 60 96 66 97 59 98 61 99
REMARK SMILES IDX 62 100 63 101 64 102
REMARK H PARENT 4 24 12 27 12 28 12 29 86 55 54 66
REMARK Flexibility Score: inf
ROOT
ATOM      1  O   UNL     1       0.350  -3.874   4.519  1.00  0.00    -0.377 OA
ENDROOT
BRANCH   1   2
ATOM      2  C   UNL     1      -0.583  -2.815   4.569  1.00  0.00     0.188 C 
BRANCH   2   3
ATOM      3  C   UNL     1      -1.172  -2.502   5.950  1.00  0.00     0.188 C 
BRANCH   3   4
ATOM      4  O   UNL     1      -0.989  -3.376   7.054  1.00  0.00    -0.376 OA
BRANCH   4   5
ATOM      5  C   UNL     1      -0.548  -4.706   6.832  1.00  0.00     0.202 C 
BRANCH   5   6
ATOM      6  C   UNL     1      -1.437  -5.671   6.010  1.00  0.00     0.261 C 
BRANCH   6   7
ATOM      7  O   UNL     1      -2.005  -5.193   4.761  1.00  0.00    -0.459 OA
BRANCH   7   8
ATOM      8  C   UNL     1      -3.267  -4.711   4.839  1.00  0.00     0.368 C 
ATOM      9  O   UNL     1      -3.899  -4.695   5.898  1.00  0.00    -0.245 OA
BRANCH   8  10
ATOM     10  C   UNL     1      -3.959  -4.304   3.466  1.00  0.00     0.195 C 
ATOM     11  C   UNL     1      -3.282  -3.571   2.223  1.00  0.00     0.068 C 
ATOM     12  C   UNL     1      -3.376  -2.076   2.568  1.00  0.00     0.011 C 
ATOM     13  C   UNL     1      -4.338  -1.901   3.724  1.00  0.00     0.008 C 
ATOM     14  C   UNL     1      -5.035  -3.238   3.860  1.00  0.00     0.081 C 
BRANCH  11  15
ATOM     15  C   UNL     1      -1.934  -4.059   1.582  1.00  0.00     0.072 C 
BRANCH  15  16
ATOM     16  C   UNL     1      -1.498  -3.620   0.119  1.00  0.00     0.262 C 
BRANCH  16  17
ATOM     17  N   UNL     1      -1.011  -2.291  -0.347  1.00  0.00    -0.331 N 
ATOM     18  C   UNL     1       2.154   0.024  -0.369  1.00  0.00     0.045 C 
ATOM     19  C   UNL     1       0.749  -0.519  -0.583  1.00  0.00     0.170 C 
ATOM     20  C   UNL     1       0.384  -1.923   0.010  1.00  0.00     0.294 C 
ATOM     21  O   UNL     1      -0.138   0.488  -0.059  1.00  0.00    -0.364 OA
ATOM     22  C   UNL     1      -1.488   0.237  -0.472  1.00  0.00     0.170 C 
ATOM     23  C   UNL     1      -1.917  -1.185  -0.061  1.00  0.00     0.294 C 
ATOM     24  H   UNL     1      -0.998  -2.444  -1.356  1.00  0.00     0.348 HD
ATOM     25  C   UNL     1      -1.677   0.596  -1.938  1.00  0.00     0.045 C 
ENDBRANCH  16  17
ENDBRANCH  15  16
ENDBRANCH  11  15
BRANCH  10  26
ATOM     26  N   UNL     1      -4.674  -5.522   3.011  1.00  0.00    -0.343 N 
ATOM     27  H   UNL     1      -5.144  -5.330   2.127  1.00  0.00     0.345 HD
ATOM     28  H   UNL     1      -5.364  -5.792   3.712  1.00  0.00     0.345 HD
ATOM     29  H   UNL     1      -4.005  -6.281   2.883  1.00  0.00     0.345 HD
ENDBRANCH  10  26
ENDBRANCH   8  10
ENDBRANCH   7   8
ENDBRANCH   6   7
ENDBRANCH   5   6
ENDBRANCH   4   5
ENDBRANCH   3   4
ENDBRANCH   2   3
ENDBRANCH   1   2
BRANCH   1  30
ATOM     30  C   UNL     1       1.700  -3.523   4.307  1.00  0.00     0.188 C 
BRANCH  30  31
ATOM     31  C   UNL     1       2.252  -2.446   5.255  1.00  0.00     0.188 C 
BRANCH  31  32
ATOM     32  O   UNL     1       1.424  -1.293   5.357  1.00  0.00    -0.376 OA
BRANCH  32  33
ATOM     33  C   UNL     1       1.767  -0.158   4.580  1.00  0.00     0.202 C 
BRANCH  33  34
ATOM     34  C   UNL     1       1.748  -0.297   3.057  1.00  0.00     0.261 C 
BRANCH  34  35
ATOM     35  O   UNL     1       2.451  -1.434   2.507  1.00  0.00    -0.460 OA
BRANCH  35  36
ATOM     36  C   UNL     1       3.795  -1.429   2.413  1.00  0.00     0.338 C 
ATOM     37  O   UNL     1       4.531  -0.509   2.743  1.00  0.00    -0.246 OA
BRANCH  36  38
ATOM     38  C   UNL     1       4.259  -2.785   2.002  1.00  0.00     0.060 A 
ATOM     39  C   UNL     1       4.876  -3.593   2.964  1.00  0.00     0.016 A 
ATOM     40  C   UNL     1       4.117  -3.272   0.697  1.00  0.00     0.016 A 
ATOM     41  C   UNL     1       5.366  -4.862   2.627  1.00  0.00     0.010 A 
ATOM     42  C   UNL     1       4.628  -4.543   0.356  1.00  0.00     0.010 A 
ATOM     43  C   UNL     1       5.284  -5.340   1.312  1.00  0.00    -0.014 A 
BRANCH  43  44
ATOM     44  C   UNL     1       5.995  -6.607   0.953  1.00  0.00     0.031 A 
ATOM     45  C   UNL     1       7.328  -6.544   0.245  1.00  0.00     0.074 A 
ATOM     46  C   UNL     1       5.508  -7.815   1.306  1.00  0.00     0.049 A 
ATOM     47  N   UNL     1       8.148  -7.516  -0.069  1.00  0.00    -0.248 NA
ATOM     48  C   UNL     1       7.802  -5.210  -0.154  1.00  0.00     0.031 C 
ATOM     49  C   UNL     1       4.238  -8.047   1.990  1.00  0.00     0.029 A 
ATOM     50  N   UNL     1       6.027  -9.079   1.128  1.00  0.00    -0.354 N 
ATOM     51  C   UNL     1       9.223  -6.919  -0.719  1.00  0.00     0.074 A 
ATOM     52  C   UNL     1       8.945  -5.498  -0.763  1.00  0.00     0.031 C 
ATOM     53  C   UNL     1       4.067  -9.371   2.157  1.00  0.00     0.029 A 
ATOM     54  C   UNL     1       5.204 -10.087   1.577  1.00  0.00     0.049 A 
ATOM     55  H   UNL     1       6.906  -9.246   0.716  1.00  0.00     0.167 HD
ATOM     56  C   UNL     1      10.346  -7.488  -1.222  1.00  0.00     0.034 A 
ATOM     57  C   UNL     1       5.335 -11.430   1.516  1.00  0.00     0.034 A 
ATOM     58  C   UNL     1      10.646  -8.896  -1.174  1.00  0.00     0.049 A 
ATOM     59  C   UNL     1       6.582 -12.041   0.926  1.00  0.00     0.074 A 
ATOM     60  C   UNL     1      11.793  -9.543  -1.605  1.00  0.00     0.029 A 
ATOM     61  N   UNL     1       9.793  -9.877  -0.698  1.00  0.00    -0.354 N 
ATOM     62  N   UNL     1       7.649 -11.447   0.450  1.00  0.00    -0.248 NA
ATOM     63  C   UNL     1       6.658 -13.512   0.896  1.00  0.00     0.031 C 
ATOM     64  C   UNL     1      11.613 -10.919  -1.434  1.00  0.00     0.029 A 
ATOM     65  C   UNL     1      10.375 -11.126  -0.850  1.00  0.00     0.049 A 
ATOM     66  H   UNL     1       8.904  -9.713  -0.308  1.00  0.00     0.167 HD
ATOM     67  C   UNL     1       8.530 -12.466   0.096  1.00  0.00     0.074 A 
ATOM     68  C   UNL     1       7.885 -13.715   0.436  1.00  0.00     0.031 C 
ATOM     69  C   UNL     1       9.758 -12.372  -0.472  1.00  0.00     0.034 A 
BRANCH  56  70
ATOM     70  C   UNL     1      11.364  -6.585  -1.872  1.00  0.00     0.023 A 
ATOM     71  C   UNL     1      12.160  -5.736  -1.077  1.00  0.00     0.012 A 
ATOM     72  C   UNL     1      11.588  -6.642  -3.262  1.00  0.00     0.148 A 
ATOM     73  C   UNL     1      13.143  -4.935  -1.660  1.00  0.00     0.002 A 
ATOM     74  C   UNL     1      12.600  -5.876  -3.829  1.00  0.00     0.091 A 
ATOM     75  F   UNL     1      10.811  -7.446  -4.002  1.00  0.00    -0.205 F 
ATOM     76  C   UNL     1      13.369  -5.013  -3.031  1.00  0.00     0.022 A 
BRANCH  74  77
ATOM     77  S   UNL     1      13.025  -5.967  -5.572  1.00  0.00     0.127 S 
ATOM     78  O   UNL     1      12.607  -4.648  -6.046  1.00  0.00    -0.237 OA
ATOM     79  O   UNL     1      14.474  -6.165  -5.523  1.00  0.00    -0.237 OA
ATOM     80  O   UNL     1      12.274  -7.090  -6.113  1.00  0.00    -0.744 OA
ENDBRANCH  74  77
ENDBRANCH  56  70
BRANCH  57  81
ATOM     81  C   UNL     1       4.247 -12.312   2.034  1.00  0.00     0.023 A 
ATOM     82  C   UNL     1       4.470 -13.127   3.162  1.00  0.00     0.012 A 
ATOM     83  C   UNL     1       2.993 -12.360   1.394  1.00  0.00     0.148 A 
ATOM     84  C   UNL     1       3.478 -13.996   3.620  1.00  0.00     0.002 A 
ATOM     85  C   UNL     1       1.990 -13.182   1.891  1.00  0.00     0.091 A 
ATOM     86  F   UNL     1       2.808 -11.598   0.306  1.00  0.00    -0.205 F 
ATOM     87  C   UNL     1       2.236 -14.016   2.992  1.00  0.00     0.022 A 
BRANCH  85  88
ATOM     88  S   UNL     1       0.323 -13.179   1.222  1.00  0.00     0.127 S 
ATOM     89  O   UNL     1       0.245 -14.501   0.607  1.00  0.00    -0.237 OA
ATOM     90  O   UNL     1      -0.483 -13.012   2.431  1.00  0.00    -0.237 OA
ATOM     91  O   UNL     1       0.271 -12.050   0.302  1.00  0.00    -0.744 OA
ENDBRANCH  85  88
ENDBRANCH  57  81
BRANCH  69  92
ATOM     92  C   UNL     1      10.521 -13.648  -0.736  1.00  0.00     0.023 A 
ATOM     93  C   UNL     1      10.095 -14.530  -1.750  1.00  0.00     0.012 A 
ATOM     94  C   UNL     1      11.703 -13.939  -0.025  1.00  0.00     0.148 A 
ATOM     95  C   UNL     1      10.811 -15.697  -2.024  1.00  0.00     0.002 A 
ATOM     96  C   UNL     1      12.439 -15.077  -0.339  1.00  0.00     0.091 A 
ATOM     97  F   UNL     1      12.088 -13.098   0.946  1.00  0.00    -0.205 F 
ATOM     98  C   UNL     1      11.987 -15.964  -1.328  1.00  0.00     0.022 A 
BRANCH  96  99
ATOM     99  S   UNL     1      14.015 -15.455   0.437  1.00  0.00     0.127 S 
ATOM    100  O   UNL     1      13.676 -16.625   1.246  1.00  0.00    -0.237 OA
ATOM    101  O   UNL     1      14.868 -15.739  -0.717  1.00  0.00    -0.237 OA
ATOM    102  O   UNL     1      14.391 -14.265   1.190  1.00  0.00    -0.744 OA
ENDBRANCH  96  99
ENDBRANCH  69  92
ENDBRANCH  43  44
ENDBRANCH  36  38
ENDBRANCH  35  36
ENDBRANCH  34  35
ENDBRANCH  33  34
ENDBRANCH  32  33
ENDBRANCH  31  32
ENDBRANCH  30  31
ENDBRANCH   1  30
TORSDOF 27
