REMARK SMILES O=C(OCCOCCOCCOCCOC(=O)c1ccc(-c2c3nc(c(-c4cccc(S(=O)(=O)[O-])c4F)c4ccc([nH]4)c(-c4cccc(S(=O)(=O)[O-])c4F)c4nc(c(-c5cccc(S(=O)(=O)[O-])c5F)c5ccc2[nH]5)C=C4)C=C3)cc1)C1=Cc2cc(S(F)(F)(F)(F)F)cc(Br)c2O[C@@H]1C(F)(F)F
REMARK SMILES IDX 10 1 9 2 8 3 7 4 6 5 5 6 4 7 3 8 2 9 1 10 81 11 82 12 97 13
REMARK SMILES IDX 83 14 96 15 84 16 95 17 85 18 93 19 92 20 94 21 98 22 99 23
REMARK SMILES IDX 100 24 101 25 86 26 87 27 88 28 89 29 90 30 91 31 11 32
REMARK SMILES IDX 12 33 13 34 14 35 15 36 16 37 17 38 18 39 19 40 80 41 20 42
REMARK SMILES IDX 79 43 21 44 22 45 23 46 73 47 24 48 78 49 72 50 74 51 25 52
REMARK SMILES IDX 77 53 71 54 70 55 26 57 58 58 38 59 57 60 39 61 42 62 56 63
REMARK SMILES IDX 75 64 40 65 41 66 55 68 76 69 43 70 27 71 28 72 36 73 29 74
REMARK SMILES IDX 31 75 37 76 30 77 32 78 33 79 34 80 35 81 59 82 60 83 68 84
REMARK SMILES IDX 61 85 63 86 69 87 62 88 64 89 65 90 66 91 67 92 44 93 45 94
REMARK SMILES IDX 53 95 46 96 48 97 54 98 47 99 49 100 50 101 51 102 52 103
REMARK H PARENT 74 56 42 67
REMARK Flexibility Score: inf
ROOT
ATOM      1  C   UNL     1       4.422  -2.691   0.446  1.00  0.00     0.188 C 
ENDROOT
BRANCH   1   2
ATOM      2  O   UNL     1       3.002  -2.691   0.446  1.00  0.00    -0.377 OA
BRANCH   2   3
ATOM      3  C   UNL     1       2.528  -2.342  -0.846  1.00  0.00     0.188 C 
BRANCH   3   4
ATOM      4  C   UNL     1       3.035  -0.958  -1.215  1.00  0.00     0.188 C 
BRANCH   4   5
ATOM      5  O   UNL     1       4.455  -0.958  -1.215  1.00  0.00    -0.376 OA
BRANCH   5   6
ATOM      6  C   UNL     1       4.928  -1.306   0.078  1.00  0.00     0.202 C 
BRANCH   6   7
ATOM      7  C   UNL     1       4.422  -0.295   1.093  1.00  0.00     0.261 C 
BRANCH   7   8
ATOM      8  O   UNL     1       3.002  -0.295   1.093  1.00  0.00    -0.460 OA
BRANCH   8   9
ATOM      9  C   UNL     1       2.292   0.026  -0.094  1.00  0.00     0.338 C 
ATOM     10  O   UNL     1       1.021   0.026  -0.094  1.00  0.00    -0.246 OA
BRANCH   9  11
ATOM     11  C   UNL     1       3.052   0.369  -1.365  1.00  0.00     0.087 C 
ATOM     12  C   UNL     1       4.412   0.369  -1.365  1.00  0.00     0.027 C 
ATOM     13  C   UNL     1       2.292   0.711  -2.636  1.00  0.00     0.316 C 
ATOM     14  C   UNL     1       5.172   0.026  -0.094  1.00  0.00     0.020 A 
ATOM     15  O   UNL     1       3.568  -1.671   0.348  1.00  0.00    -0.474 OA
ATOM     16  C   UNL     1       6.279   0.783   0.252  1.00  0.00     0.036 A 
ATOM     17  C   UNL     1       4.795  -1.016   0.637  1.00  0.00     0.142 A 
ATOM     18  C   UNL     1       7.100   0.183   1.235  1.00  0.00     0.109 A 
ATOM     19  C   UNL     1       5.580  -1.466   1.671  1.00  0.00     0.062 A 
ATOM     20  C   UNL     1       6.719  -0.801   2.030  1.00  0.00     0.044 A 
ATOM     21  Br  UNL     1       5.059  -3.086   2.644  1.00  0.00    -0.047 Br
BRANCH  13  22
ATOM     22  C   UNL     1       2.659  -0.279  -3.729  1.00  0.00     0.430 C 
ATOM     23  F   UNL     1       2.337  -1.509  -3.338  1.00  0.00    -0.167 F 
ATOM     24  F   UNL     1       1.994   0.021  -4.841  1.00  0.00    -0.167 F 
ATOM     25  F   UNL     1       3.966  -0.216  -3.964  1.00  0.00    -0.167 F 
ENDBRANCH  13  22
BRANCH  18  26
ATOM     26  S   UNL     1       8.789   0.806   1.418  1.00  0.00     0.310 S 
ATOM     27  F   UNL     1       8.684   0.810   3.000  1.00  0.00    -0.094 F 
ATOM     28  F   UNL     1       8.212   2.272   1.444  1.00  0.00    -0.094 F 
ATOM     29  F   UNL     1      10.239   1.344   1.574  1.00  0.00    -0.094 F 
ATOM     30  F   UNL     1       9.334  -0.672   1.530  1.00  0.00    -0.094 F 
ATOM     31  F   UNL     1       7.313   0.243   1.372  1.00  0.00    -0.094 F 
ENDBRANCH  18  26
ENDBRANCH   9  11
ENDBRANCH   8   9
ENDBRANCH   7   8
ENDBRANCH   6   7
ENDBRANCH   5   6
ENDBRANCH   4   5
ENDBRANCH   3   4
ENDBRANCH   2   3
ENDBRANCH   1   2
BRANCH   1  32
ATOM     32  C   UNL     1       4.928  -3.703  -0.569  1.00  0.00     0.188 C 
BRANCH  32  33
ATOM     33  O   UNL     1       4.455  -3.354  -1.861  1.00  0.00    -0.376 OA
BRANCH  33  34
ATOM     34  C   UNL     1       3.035  -3.354  -1.861  1.00  0.00     0.202 C 
BRANCH  34  35
ATOM     35  C   UNL     1       2.528  -4.739  -1.493  1.00  0.00     0.261 C 
BRANCH  35  36
ATOM     36  O   UNL     1       3.002  -5.088  -0.200  1.00  0.00    -0.460 OA
BRANCH  36  37
ATOM     37  C   UNL     1       4.398  -5.155   0.050  1.00  0.00     0.338 C 
ATOM     38  O   UNL     1       5.224  -4.904  -0.882  1.00  0.00    -0.246 OA
BRANCH  37  39
ATOM     39  C   UNL     1       4.904  -5.528   1.434  1.00  0.00     0.060 A 
ATOM     40  C   UNL     1       5.987  -4.843   1.960  1.00  0.00     0.016 A 
ATOM     41  C   UNL     1       4.354  -6.548   2.083  1.00  0.00     0.016 A 
ATOM     42  C   UNL     1       6.605  -5.497   3.051  1.00  0.00     0.010 A 
ATOM     43  C   UNL     1       4.939  -7.051   3.220  1.00  0.00     0.010 A 
ATOM     44  C   UNL     1       6.045  -6.459   3.762  1.00  0.00    -0.014 A 
BRANCH  44  45
ATOM     45  C   UNL     1       6.601  -6.885   5.111  1.00  0.00     0.031 A 
ATOM     46  C   UNL     1       7.022  -8.204   5.282  1.00  0.00     0.074 A 
ATOM     47  C   UNL     1       6.734  -5.899   6.074  1.00  0.00     0.049 A 
ATOM     48  N   UNL     1       7.634  -8.732   6.343  1.00  0.00    -0.248 NA
ATOM     49  C   UNL     1       6.851  -9.261   4.274  1.00  0.00     0.031 C 
ATOM     50  C   UNL     1       6.320  -4.563   5.907  1.00  0.00     0.029 A 
ATOM     51  N   UNL     1       7.273  -6.018   7.337  1.00  0.00    -0.354 N 
ATOM     52  C   UNL     1       7.898 -10.023   6.129  1.00  0.00     0.074 A 
ATOM     53  C   UNL     1       7.392 -10.383   4.797  1.00  0.00     0.031 C 
ATOM     54  C   UNL     1       6.594  -3.889   7.054  1.00  0.00     0.029 A 
ATOM     55  C   UNL     1       7.185  -4.792   7.959  1.00  0.00     0.049 A 
ATOM     56  H   UNL     1       7.655  -6.837   7.726  1.00  0.00     0.167 HD
ATOM     57  C   UNL     1       8.541 -10.913   6.990  1.00  0.00     0.034 A 
ATOM     58  C   UNL     1       7.590  -4.461   9.242  1.00  0.00     0.034 A 
ATOM     59  C   UNL     1       8.985 -10.570   8.258  1.00  0.00     0.049 A 
ATOM     60  C   UNL     1       8.181  -5.366  10.127  1.00  0.00     0.074 A 
ATOM     61  C   UNL     1       9.642 -11.453   9.136  1.00  0.00     0.029 A 
ATOM     62  N   UNL     1       8.875  -9.351   8.889  1.00  0.00    -0.354 N 
ATOM     63  N   UNL     1       8.480  -6.646   9.897  1.00  0.00    -0.248 NA
ATOM     64  C   UNL     1       8.584  -5.035  11.499  1.00  0.00     0.031 C 
ATOM     65  C   UNL     1       9.916 -10.779  10.285  1.00  0.00     0.029 A 
ATOM     66  C   UNL     1       9.434  -9.464  10.143  1.00  0.00     0.049 A 
ATOM     67  H   UNL     1       8.467  -8.540   8.510  1.00  0.00     0.167 HD
ATOM     68  C   UNL     1       9.055  -7.184  10.974  1.00  0.00     0.074 A 
ATOM     69  C   UNL     1       9.123  -6.158  12.024  1.00  0.00     0.031 C 
ATOM     70  C   UNL     1       9.528  -8.489  11.124  1.00  0.00     0.034 A 
BRANCH  57  71
ATOM     71  C   UNL     1       8.768 -12.338   6.512  1.00  0.00     0.023 A 
ATOM     72  C   UNL     1       9.574 -12.481   5.394  1.00  0.00     0.012 A 
ATOM     73  C   UNL     1       8.267 -13.395   7.140  1.00  0.00     0.148 A 
ATOM     74  C   UNL     1       9.559 -13.783   4.840  1.00  0.00     0.002 A 
ATOM     75  C   UNL     1       8.408 -14.655   6.610  1.00  0.00     0.091 A 
ATOM     76  F   UNL     1       7.624 -13.233   8.293  1.00  0.00    -0.205 F 
ATOM     77  C   UNL     1       9.142 -14.863   5.476  1.00  0.00     0.022 A 
BRANCH  75  78
ATOM     78  S   UNL     1       7.610 -16.060   7.426  1.00  0.00     0.127 S 
ATOM     79  O   UNL     1       6.627 -16.721   6.458  1.00  0.00    -0.237 OA
ATOM     80  O   UNL     1       8.674 -17.077   7.847  1.00  0.00    -0.237 OA
ATOM     81  O   UNL     1       6.767 -15.512   8.809  1.00  0.00    -0.744 OA
ENDBRANCH  75  78
ENDBRANCH  57  71
BRANCH  58  82
ATOM     82  C   UNL     1       7.378  -3.031   9.714  1.00  0.00     0.023 A 
ATOM     83  C   UNL     1       8.449  -2.285  10.178  1.00  0.00     0.012 A 
ATOM     84  C   UNL     1       6.140  -2.554   9.747  1.00  0.00     0.148 A 
ATOM     85  C   UNL     1       8.071  -1.147  10.930  1.00  0.00     0.002 A 
ATOM     86  C   UNL     1       5.864  -1.367  10.383  1.00  0.00     0.091 A 
ATOM     87  F   UNL     1       5.157  -3.230   9.159  1.00  0.00    -0.205 F 
ATOM     88  C   UNL     1       6.867  -0.606  10.916  1.00  0.00     0.022 A 
BRANCH  86  89
ATOM     89  S   UNL     1       4.149  -0.804  10.517  1.00  0.00     0.127 S 
ATOM     90  O   UNL     1       3.772  -0.665  11.993  1.00  0.00    -0.237 OA
ATOM     91  O   UNL     1       4.002   0.552   9.823  1.00  0.00    -0.237 OA
ATOM     92  O   UNL     1       3.115  -1.943   9.769  1.00  0.00    -0.744 OA
ENDBRANCH  86  89
ENDBRANCH  58  82
BRANCH  70  93
ATOM     93  C   UNL     1      10.186  -8.863  12.442  1.00  0.00     0.023 A 
ATOM     94  C   UNL     1       9.472  -8.699  13.617  1.00  0.00     0.012 A 
ATOM     95  C   UNL     1      11.447  -9.280  12.454  1.00  0.00     0.148 A 
ATOM     96  C   UNL     1      10.274  -8.725  14.783  1.00  0.00     0.002 A 
ATOM     97  C   UNL     1      12.128  -9.413  13.640  1.00  0.00     0.091 A 
ATOM     98  F   UNL     1      12.056  -9.571  11.308  1.00  0.00    -0.205 F 
ATOM     99  C   UNL     1      11.501  -9.209  14.837  1.00  0.00     0.022 A 
BRANCH  97 100
ATOM    100  S   UNL     1      13.880  -9.865  13.616  1.00  0.00     0.127 S 
ATOM    101  O   UNL     1      14.701  -8.761  14.287  1.00  0.00    -0.237 OA
ATOM    102  O   UNL     1      14.079 -11.180  14.373  1.00  0.00    -0.237 OA
ATOM    103  O   UNL     1      14.398 -10.055  11.997  1.00  0.00    -0.744 OA
ENDBRANCH  97 100
ENDBRANCH  70  93
ENDBRANCH  44  45
ENDBRANCH  37  39
ENDBRANCH  36  37
ENDBRANCH  35  36
ENDBRANCH  34  35
ENDBRANCH  33  34
ENDBRANCH  32  33
ENDBRANCH   1  32
TORSDOF 25
