REMARK SMILES COC(=O)c1ccc2c(c1)=N[C@H](c1cn(CCC(=O)OCCOCCOCCOCCOC(=O)c3ccc(-c4c5nc(c(-c6cccc(S(=O)(=O)[O-])c6F)c6ccc([nH]6)c(-c6cccc(S(=O)(=O)[O-])c6F)c6nc(c(-c7cccc(S(=O)(=O)[O-])c7F)c7ccc4[nH]7)C=C6)C=C5)cc3)c3ccccc13)N=2
REMARK SMILES IDX 25 1 24 2 23 3 22 4 21 5 20 6 18 7 19 8 17 9 16 10 15 11
REMARK SMILES IDX 13 12 14 13 103 14 98 15 102 16 99 17 101 18 100 19 12 20
REMARK SMILES IDX 5 21 6 22 10 23 7 24 9 25 8 26 11 27 104 28 3 29 4 30 2 31
REMARK SMILES IDX 1 32 26 33 27 34 28 35 29 36 30 37 31 38 32 39 33 40 34 41
REMARK SMILES IDX 35 42 36 43 97 44 37 45 96 46 38 47 39 48 40 49 90 50 41 51
REMARK SMILES IDX 95 52 89 53 91 54 42 55 94 56 88 57 87 58 43 60 75 61 55 62
REMARK SMILES IDX 74 63 56 64 59 65 73 66 92 67 57 68 58 69 72 71 93 72 60 73
REMARK SMILES IDX 44 74 45 75 53 76 46 77 48 78 54 79 47 80 49 81 50 82 51 83
REMARK SMILES IDX 52 84 76 85 77 86 85 87 78 88 80 89 86 90 79 91 81 92 82 93
REMARK SMILES IDX 83 94 84 95 61 96 62 97 70 98 63 99 65 100 71 101 64 102
REMARK SMILES IDX 66 103 67 104 68 105 69 106
REMARK H PARENT 91 59 59 70
REMARK Flexibility Score: inf
ROOT
ATOM      1  C   UNL     1      -0.170  -1.965 -13.432  1.00  0.00     0.188 C 
ENDROOT
BRANCH   1   2
ATOM      2  C   UNL     1      -1.154  -2.094 -14.602  1.00  0.00     0.188 C 
BRANCH   2   3
ATOM      3  O   UNL     1      -2.547  -2.005 -14.405  1.00  0.00    -0.376 OA
BRANCH   3   4
ATOM      4  C   UNL     1      -3.346  -2.942 -13.701  1.00  0.00     0.202 C 
BRANCH   4   5
ATOM      5  C   UNL     1      -2.882  -4.348 -13.303  1.00  0.00     0.261 C 
BRANCH   5   6
ATOM      6  O   UNL     1      -1.610  -4.464 -12.630  1.00  0.00    -0.463 OA
BRANCH   6   7
ATOM      7  C   UNL     1      -0.699  -5.255 -13.250  1.00  0.00     0.307 C 
ATOM      8  O   UNL     1      -0.861  -5.722 -14.377  1.00  0.00    -0.252 OA
BRANCH   7   9
ATOM      9  C   UNL     1       0.562  -5.596 -12.471  1.00  0.00     0.144 C 
BRANCH   9  10
ATOM     10  C   UNL     1       1.277  -4.633 -11.517  1.00  0.00     0.134 C 
BRANCH  10  11
ATOM     11  N   UNL     1       0.755  -4.641 -10.171  1.00  0.00    -0.346 N 
ATOM     12  C   UNL     1       0.191  -5.387  -8.193  1.00  0.00     0.024 A 
ATOM     13  C   UNL     1       1.269  -5.297  -9.079  1.00  0.00     0.094 A 
ATOM     14  C   UNL     1      -0.970  -5.115  -9.027  1.00  0.00     0.007 A 
ATOM     15  C   UNL     1      -0.392  -4.047  -9.719  1.00  0.00     0.048 A 
ATOM     16  C   UNL     1      -2.337  -4.999  -8.738  1.00  0.00     0.011 A 
ATOM     17  C   UNL     1      -0.741  -2.743  -9.369  1.00  0.00     0.027 A 
ATOM     18  C   UNL     1      -2.768  -3.719  -8.414  1.00  0.00     0.001 A 
ATOM     19  C   UNL     1      -1.899  -2.641  -8.589  1.00  0.00     0.002 A 
BRANCH  12  20
ATOM     20  C   UNL     1       0.265  -5.485  -6.688  1.00  0.00     0.255 C 
ATOM     21  C   UNL     1       0.358  -2.075  -3.685  1.00  0.00     0.062 A 
ATOM     22  C   UNL     1      -1.056  -2.430  -3.612  1.00  0.00     0.018 A 
ATOM     23  C   UNL     1       1.193  -2.651  -4.570  1.00  0.00     0.046 A 
ATOM     24  C   UNL     1      -1.617  -3.383  -4.373  1.00  0.00     0.031 A 
ATOM     25  C   UNL     1       0.674  -3.755  -5.396  1.00  0.00     0.087 A 
ATOM     26  C   UNL     1      -0.747  -4.136  -5.289  1.00  0.00     0.086 A 
ATOM     27  N   UNL     1       1.325  -4.532  -6.191  1.00  0.00    -0.252 NA
ATOM     28  N   UNL     1      -1.024  -5.162  -6.011  1.00  0.00    -0.252 NA
BRANCH  21  29
ATOM     29  C   UNL     1       0.962  -1.062  -2.763  1.00  0.00     0.337 C 
ATOM     30  O   UNL     1       1.909  -0.345  -3.049  1.00  0.00    -0.246 OA
BRANCH  29  31
ATOM     31  O   UNL     1       0.356  -1.124  -1.547  1.00  0.00    -0.465 OA
ATOM     32  C   UNL     1       0.926  -0.277  -0.545  1.00  0.00     0.282 C 
ENDBRANCH  29  31
ENDBRANCH  21  29
ENDBRANCH  12  20
ENDBRANCH  10  11
ENDBRANCH   9  10
ENDBRANCH   7   9
ENDBRANCH   6   7
ENDBRANCH   5   6
ENDBRANCH   4   5
ENDBRANCH   3   4
ENDBRANCH   2   3
ENDBRANCH   1   2
BRANCH   1  33
ATOM     33  O   UNL     1      -0.298  -1.036 -12.380  1.00  0.00    -0.377 OA
BRANCH  33  34
ATOM     34  C   UNL     1      -1.611  -0.796 -11.920  1.00  0.00     0.188 C 
BRANCH  34  35
ATOM     35  C   UNL     1      -2.234   0.373 -12.675  1.00  0.00     0.188 C 
BRANCH  35  36
ATOM     36  O   UNL     1      -1.359   1.288 -13.318  1.00  0.00    -0.376 OA
BRANCH  36  37
ATOM     37  C   UNL     1      -0.179   1.754 -12.681  1.00  0.00     0.202 C 
BRANCH  37  38
ATOM     38  C   UNL     1       0.010   1.869 -11.150  1.00  0.00     0.261 C 
BRANCH  38  39
ATOM     39  O   UNL     1      -1.112   1.549 -10.326  1.00  0.00    -0.460 OA
BRANCH  39  40
ATOM     40  C   UNL     1      -2.019   2.509 -10.003  1.00  0.00     0.338 C 
ATOM     41  O   UNL     1      -1.905   3.696 -10.137  1.00  0.00    -0.246 OA
BRANCH  40  42
ATOM     42  C   UNL     1      -3.272   1.748  -9.704  1.00  0.00     0.060 A 
ATOM     43  C   UNL     1      -3.220   0.608  -8.913  1.00  0.00     0.016 A 
ATOM     44  C   UNL     1      -4.412   2.001 -10.481  1.00  0.00     0.016 A 
ATOM     45  C   UNL     1      -4.240  -0.335  -9.022  1.00  0.00     0.010 A 
ATOM     46  C   UNL     1      -5.429   1.035 -10.592  1.00  0.00     0.010 A 
ATOM     47  C   UNL     1      -5.326  -0.171  -9.903  1.00  0.00    -0.014 A 
BRANCH  47  48
ATOM     48  C   UNL     1      -6.370  -1.225  -9.857  1.00  0.00     0.031 A 
ATOM     49  C   UNL     1      -6.765  -1.557  -8.454  1.00  0.00     0.074 A 
ATOM     50  C   UNL     1      -7.046  -1.826 -10.867  1.00  0.00     0.049 A 
ATOM     51  N   UNL     1      -6.608  -2.677  -7.821  1.00  0.00    -0.248 NA
ATOM     52  C   UNL     1      -7.222  -0.441  -7.610  1.00  0.00     0.031 C 
ATOM     53  C   UNL     1      -7.022  -1.475 -12.287  1.00  0.00     0.029 A 
ATOM     54  N   UNL     1      -8.004  -2.820 -10.815  1.00  0.00    -0.354 N 
ATOM     55  C   UNL     1      -7.171  -2.459  -6.567  1.00  0.00     0.074 A 
ATOM     56  C   UNL     1      -7.357  -1.038  -6.428  1.00  0.00     0.031 C 
ATOM     57  C   UNL     1      -8.088  -2.040 -12.903  1.00  0.00     0.029 A 
ATOM     58  C   UNL     1      -8.790  -2.902 -11.967  1.00  0.00     0.049 A 
ATOM     59  H   UNL     1      -8.122  -3.414 -10.040  1.00  0.00     0.167 HD
ATOM     60  C   UNL     1      -7.727  -3.466  -5.844  1.00  0.00     0.034 A 
ATOM     61  C   UNL     1      -9.962  -3.574 -12.123  1.00  0.00     0.034 A 
ATOM     62  C   UNL     1      -7.365  -4.766  -6.317  1.00  0.00     0.049 A 
ATOM     63  C   UNL     1     -10.014  -4.666 -11.129  1.00  0.00     0.074 A 
ATOM     64  C   UNL     1      -6.326  -5.657  -6.184  1.00  0.00     0.029 A 
ATOM     65  N   UNL     1      -8.141  -5.189  -7.356  1.00  0.00    -0.354 N 
ATOM     66  N   UNL     1      -9.250  -5.721 -11.163  1.00  0.00    -0.248 NA
ATOM     67  C   UNL     1     -10.840  -4.516  -9.934  1.00  0.00     0.031 C 
ATOM     68  C   UNL     1      -6.458  -6.593  -7.253  1.00  0.00     0.029 A 
ATOM     69  C   UNL     1      -7.580  -6.253  -8.002  1.00  0.00     0.049 A 
ATOM     70  H   UNL     1      -8.999  -4.779  -7.609  1.00  0.00     0.167 HD
ATOM     71  C   UNL     1      -9.195  -6.125  -9.846  1.00  0.00     0.074 A 
ATOM     72  C   UNL     1     -10.316  -5.482  -9.180  1.00  0.00     0.031 C 
ATOM     73  C   UNL     1      -8.042  -6.613  -9.320  1.00  0.00     0.034 A 
BRANCH  60  74
ATOM     74  C   UNL     1      -8.986  -3.274  -5.033  1.00  0.00     0.023 A 
ATOM     75  C   UNL     1      -9.322  -4.234  -4.059  1.00  0.00     0.012 A 
ATOM     76  C   UNL     1      -9.985  -2.337  -5.388  1.00  0.00     0.148 A 
ATOM     77  C   UNL     1     -10.581  -4.235  -3.444  1.00  0.00     0.002 A 
ATOM     78  C   UNL     1     -11.196  -2.285  -4.714  1.00  0.00     0.091 A 
ATOM     79  F   UNL     1      -9.821  -1.583  -6.482  1.00  0.00    -0.205 F 
ATOM     80  C   UNL     1     -11.509  -3.244  -3.751  1.00  0.00     0.022 A 
BRANCH  78  81
ATOM     81  S   UNL     1     -12.393  -0.989  -5.047  1.00  0.00     0.127 S 
ATOM     82  O   UNL     1     -13.411  -1.716  -5.797  1.00  0.00    -0.237 OA
ATOM     83  O   UNL     1     -12.781  -0.588  -3.694  1.00  0.00    -0.237 OA
ATOM     84  O   UNL     1     -11.654   0.032  -5.780  1.00  0.00    -0.744 OA
ENDBRANCH  78  81
ENDBRANCH  60  74
BRANCH  61  85
ATOM     85  C   UNL     1     -11.168  -3.299 -12.959  1.00  0.00     0.023 A 
ATOM     86  C   UNL     1     -12.151  -4.310 -13.103  1.00  0.00     0.012 A 
ATOM     87  C   UNL     1     -11.525  -1.986 -13.328  1.00  0.00     0.148 A 
ATOM     88  C   UNL     1     -13.457  -4.011 -13.509  1.00  0.00     0.002 A 
ATOM     89  C   UNL     1     -12.825  -1.695 -13.744  1.00  0.00     0.091 A 
ATOM     90  F   UNL     1     -10.626  -1.005 -13.178  1.00  0.00    -0.205 F 
ATOM     91  C   UNL     1     -13.799  -2.699 -13.813  1.00  0.00     0.022 A 
BRANCH  89  92
ATOM     92  S   UNL     1     -13.338  -0.021 -14.151  1.00  0.00     0.127 S 
ATOM     93  O   UNL     1     -14.153  -0.231 -15.349  1.00  0.00    -0.237 OA
ATOM     94  O   UNL     1     -14.090   0.364 -12.961  1.00  0.00    -0.237 OA
ATOM     95  O   UNL     1     -12.104   0.717 -14.394  1.00  0.00    -0.744 OA
ENDBRANCH  89  92
ENDBRANCH  61  85
BRANCH  73  96
ATOM     96  C   UNL     1      -7.127  -7.384 -10.207  1.00  0.00     0.023 A 
ATOM     97  C   UNL     1      -6.327  -6.789 -11.197  1.00  0.00     0.012 A 
ATOM     98  C   UNL     1      -6.995  -8.755  -9.932  1.00  0.00     0.148 A 
ATOM     99  C   UNL     1      -5.395  -7.560 -11.897  1.00  0.00     0.002 A 
ATOM    100  C   UNL     1      -6.043  -9.506 -10.600  1.00  0.00     0.091 A 
ATOM    101  F   UNL     1      -7.789  -9.288  -8.990  1.00  0.00    -0.205 F 
ATOM    102  C   UNL     1      -5.241  -8.913 -11.587  1.00  0.00     0.022 A 
BRANCH 100 103
ATOM    103  S   UNL     1      -5.735 -11.221 -10.180  1.00  0.00     0.127 S 
ATOM    104  O   UNL     1      -6.126 -11.912 -11.408  1.00  0.00    -0.237 OA
ATOM    105  O   UNL     1      -4.298 -11.216  -9.909  1.00  0.00    -0.237 OA
ATOM    106  O   UNL     1      -6.565 -11.512  -9.017  1.00  0.00    -0.744 OA
ENDBRANCH 100 103
ENDBRANCH  73  96
ENDBRANCH  47  48
ENDBRANCH  40  42
ENDBRANCH  39  40
ENDBRANCH  38  39
ENDBRANCH  37  38
ENDBRANCH  36  37
ENDBRANCH  35  36
ENDBRANCH  34  35
ENDBRANCH  33  34
ENDBRANCH   1  33
TORSDOF 28
