REMARK SMILES CC1(C)[C@H](C(=O)OCCOCCOCCOCCOC(=O)c2ccc(-c3c4nc(c(-c5cccc(S(=O)(=O)[O-])c5F)c5ccc([nH]5)c(-c5cccc(S(=O)(=O)[O-])c5F)c5nc(c(-c6cccc(S(=O)(=O)[O-])c6F)c6ccc3[nH]6)C=C5)C=C4)cc2)[C@@H]1C(=O)Nc1ccc(NC(=O)C2CCC2)cc1
REMARK SMILES IDX 12 1 11 2 10 3 9 4 8 5 7 6 5 7 6 8 4 9 1 10 2 11 3 12 85 13
REMARK SMILES IDX 86 14 87 15 88 16 89 18 90 19 101 20 91 21 100 22 92 23
REMARK SMILES IDX 93 24 94 25 95 27 96 28 97 29 99 30 98 31 13 32 14 33 15 34
REMARK SMILES IDX 16 35 17 36 18 37 19 38 20 39 21 40 22 41 23 42 84 43 24 44
REMARK SMILES IDX 83 45 25 46 26 47 27 48 77 49 28 50 82 51 76 52 78 53 29 54
REMARK SMILES IDX 81 55 75 56 74 57 30 59 62 60 42 61 61 62 43 63 46 64 60 65
REMARK SMILES IDX 79 66 44 67 45 68 59 70 80 71 47 72 31 73 32 74 40 75 33 76
REMARK SMILES IDX 35 77 41 78 34 79 36 80 37 81 38 82 39 83 63 84 64 85 72 86
REMARK SMILES IDX 65 87 67 88 73 89 66 90 68 91 69 92 70 93 71 94 48 95 49 96
REMARK SMILES IDX 57 97 50 98 52 99 58 100 51 101 53 102 54 103 55 104 56 105
REMARK H PARENT 88 17 93 26 78 58 46 69
REMARK Flexibility Score: inf
ROOT
ATOM      1  C   UNL     1       0.227   0.969  -3.512  1.00  0.00     0.188 C 
ENDROOT
BRANCH   1   2
ATOM      2  C   UNL     1      -1.127   0.869  -4.228  1.00  0.00     0.188 C 
BRANCH   2   3
ATOM      3  O   UNL     1      -1.835   2.096  -4.337  1.00  0.00    -0.376 OA
BRANCH   3   4
ATOM      4  C   UNL     1      -2.717   2.463  -3.290  1.00  0.00     0.202 C 
BRANCH   4   5
ATOM      5  C   UNL     1      -2.102   2.853  -1.938  1.00  0.00     0.261 C 
BRANCH   5   6
ATOM      6  O   UNL     1      -1.507   1.842  -1.100  1.00  0.00    -0.463 OA
BRANCH   6   7
ATOM      7  C   UNL     1      -1.937   0.570  -1.133  1.00  0.00     0.310 C 
ATOM      8  O   UNL     1      -2.791   0.111  -1.874  1.00  0.00    -0.252 OA
BRANCH   7   9
ATOM      9  C   UNL     1      -1.205  -0.374  -0.274  1.00  0.00     0.118 C 
ATOM     10  C   UNL     1       1.086  -1.196   0.455  1.00  0.00     0.013 C 
ATOM     11  C   UNL     1       0.029  -0.119   0.552  1.00  0.00    -0.009 C 
ATOM     12  C   UNL     1       0.630   1.267   0.647  1.00  0.00     0.013 C 
ATOM     13  C   UNL     1      -1.333  -0.453   1.221  1.00  0.00     0.100 C 
BRANCH  13  14
ATOM     14  C   UNL     1      -1.916   0.534   2.163  1.00  0.00     0.228 C 
ATOM     15  O   UNL     1      -1.257   0.839   3.155  1.00  0.00    -0.274 OA
ATOM     16  N   UNL     1      -3.138   1.129   1.979  1.00  0.00    -0.326 N 
ATOM     17  H   UNL     1      -3.368   1.793   2.669  1.00  0.00     0.169 HD
BRANCH  16  18
ATOM     18  C   UNL     1      -4.116   0.968   0.996  1.00  0.00     0.041 A 
ATOM     19  C   UNL     1      -4.664   2.145   0.498  1.00  0.00     0.028 A 
ATOM     20  C   UNL     1      -4.509  -0.242   0.437  1.00  0.00     0.028 A 
ATOM     21  C   UNL     1      -5.402   2.135  -0.688  1.00  0.00     0.028 A 
ATOM     22  C   UNL     1      -5.319  -0.241  -0.719  1.00  0.00     0.028 A 
ATOM     23  C   UNL     1      -5.685   0.961  -1.355  1.00  0.00     0.041 A 
BRANCH  23  24
ATOM     24  N   UNL     1      -6.252   0.865  -2.637  1.00  0.00    -0.326 N 
ATOM     25  C   UNL     1      -6.546   1.690  -3.704  1.00  0.00     0.227 C 
ATOM     26  H   UNL     1      -6.516  -0.063  -2.832  1.00  0.00     0.169 HD
ATOM     27  O   UNL     1      -7.052   1.069  -4.666  1.00  0.00    -0.274 OA
BRANCH  25  28
ATOM     28  C   UNL     1      -6.254   3.189  -3.887  1.00  0.00     0.079 C 
ATOM     29  C   UNL     1      -7.420   3.975  -4.596  1.00  0.00     0.013 C 
ATOM     30  C   UNL     1      -6.324   4.322  -2.839  1.00  0.00     0.013 C 
ATOM     31  C   UNL     1      -6.892   5.247  -3.922  1.00  0.00     0.002 C 
ENDBRANCH  25  28
ENDBRANCH  23  24
ENDBRANCH  16  18
ENDBRANCH  13  14
ENDBRANCH   7   9
ENDBRANCH   6   7
ENDBRANCH   5   6
ENDBRANCH   4   5
ENDBRANCH   3   4
ENDBRANCH   2   3
ENDBRANCH   1   2
BRANCH   1  32
ATOM     32  O   UNL     1       0.723   2.262  -3.208  1.00  0.00    -0.377 OA
BRANCH  32  33
ATOM     33  C   UNL     1       0.648   3.293  -4.188  1.00  0.00     0.188 C 
BRANCH  33  34
ATOM     34  C   UNL     1       0.622   2.943  -5.688  1.00  0.00     0.188 C 
BRANCH  34  35
ATOM     35  O   UNL     1       1.125   1.652  -6.005  1.00  0.00    -0.376 OA
BRANCH  35  36
ATOM     36  C   UNL     1       2.459   1.590  -6.484  1.00  0.00     0.202 C 
BRANCH  36  37
ATOM     37  C   UNL     1       3.539   1.893  -5.439  1.00  0.00     0.261 C 
BRANCH  37  38
ATOM     38  O   UNL     1       3.556   3.233  -4.921  1.00  0.00    -0.460 OA
BRANCH  38  39
ATOM     39  C   UNL     1       3.619   4.257  -5.800  1.00  0.00     0.338 C 
ATOM     40  O   UNL     1       3.749   4.183  -7.008  1.00  0.00    -0.246 OA
BRANCH  39  41
ATOM     41  C   UNL     1       3.288   5.501  -5.073  1.00  0.00     0.060 A 
ATOM     42  C   UNL     1       2.259   6.316  -5.566  1.00  0.00     0.016 A 
ATOM     43  C   UNL     1       3.971   5.851  -3.905  1.00  0.00     0.016 A 
ATOM     44  C   UNL     1       1.960   7.520  -4.930  1.00  0.00     0.010 A 
ATOM     45  C   UNL     1       3.686   7.067  -3.282  1.00  0.00     0.010 A 
ATOM     46  C   UNL     1       2.718   7.929  -3.825  1.00  0.00    -0.014 A 
BRANCH  46  47
ATOM     47  C   UNL     1       2.705   9.360  -3.437  1.00  0.00     0.031 A 
ATOM     48  C   UNL     1       3.740  10.257  -4.065  1.00  0.00     0.074 A 
ATOM     49  C   UNL     1       1.806   9.862  -2.573  1.00  0.00     0.049 A 
ATOM     50  N   UNL     1       3.929  11.540  -3.913  1.00  0.00    -0.248 NA
ATOM     51  C   UNL     1       4.691   9.614  -4.990  1.00  0.00     0.031 C 
ATOM     52  C   UNL     1       0.758   9.101  -1.898  1.00  0.00     0.029 A 
ATOM     53  N   UNL     1       1.650  11.143  -2.104  1.00  0.00    -0.354 N 
ATOM     54  C   UNL     1       5.027  11.854  -4.705  1.00  0.00     0.074 A 
ATOM     55  C   UNL     1       5.476  10.626  -5.321  1.00  0.00     0.031 C 
ATOM     56  C   UNL     1       0.081   9.928  -1.080  1.00  0.00     0.029 A 
ATOM     57  C   UNL     1       0.655  11.270  -1.165  1.00  0.00     0.049 A 
ATOM     58  H   UNL     1       2.200  11.900  -2.412  1.00  0.00     0.167 HD
ATOM     59  C   UNL     1       5.602  13.059  -4.922  1.00  0.00     0.034 A 
ATOM     60  C   UNL     1       0.267  12.347  -0.450  1.00  0.00     0.034 A 
ATOM     61  C   UNL     1       5.154  14.283  -4.322  1.00  0.00     0.049 A 
ATOM     62  C   UNL     1       0.942  13.676  -0.690  1.00  0.00     0.074 A 
ATOM     63  C   UNL     1       5.644  15.562  -4.509  1.00  0.00     0.029 A 
ATOM     64  N   UNL     1       4.120  14.377  -3.405  1.00  0.00    -0.354 N 
ATOM     65  N   UNL     1       1.888  13.983  -1.545  1.00  0.00    -0.248 NA
ATOM     66  C   UNL     1       0.469  14.816   0.112  1.00  0.00     0.031 C 
ATOM     67  C   UNL     1       4.920  16.429  -3.685  1.00  0.00     0.029 A 
ATOM     68  C   UNL     1       3.962  15.693  -3.006  1.00  0.00     0.049 A 
ATOM     69  H   UNL     1       3.577  13.621  -3.084  1.00  0.00     0.167 HD
ATOM     70  C   UNL     1       2.096  15.353  -1.411  1.00  0.00     0.074 A 
ATOM     71  C   UNL     1       1.163  15.820  -0.407  1.00  0.00     0.031 C 
ATOM     72  C   UNL     1       2.989  16.151  -2.049  1.00  0.00     0.034 A 
BRANCH  59  73
ATOM     73  C   UNL     1       6.767  13.107  -5.871  1.00  0.00     0.023 A 
ATOM     74  C   UNL     1       6.542  12.964  -7.256  1.00  0.00     0.012 A 
ATOM     75  C   UNL     1       8.075  13.324  -5.400  1.00  0.00     0.148 A 
ATOM     76  C   UNL     1       7.607  13.007  -8.155  1.00  0.00     0.002 A 
ATOM     77  C   UNL     1       9.125  13.408  -6.306  1.00  0.00     0.091 A 
ATOM     78  F   UNL     1       8.270  13.426  -4.077  1.00  0.00    -0.205 F 
ATOM     79  C   UNL     1       8.895  13.239  -7.681  1.00  0.00     0.022 A 
BRANCH  77  80
ATOM     80  S   UNL     1      10.809  13.775  -5.801  1.00  0.00     0.127 S 
ATOM     81  O   UNL     1      11.468  12.488  -6.013  1.00  0.00    -0.237 OA
ATOM     82  O   UNL     1      11.193  14.821  -6.750  1.00  0.00    -0.237 OA
ATOM     83  O   UNL     1      10.726  14.214  -4.415  1.00  0.00    -0.744 OA
ENDBRANCH  77  80
ENDBRANCH  59  73
BRANCH  60  84
ATOM     84  C   UNL     1      -0.847  12.231   0.534  1.00  0.00     0.023 A 
ATOM     85  C   UNL     1      -2.070  12.884   0.282  1.00  0.00     0.012 A 
ATOM     86  C   UNL     1      -0.702  11.483   1.719  1.00  0.00     0.148 A 
ATOM     87  C   UNL     1      -3.114  12.823   1.206  1.00  0.00     0.002 A 
ATOM     88  C   UNL     1      -1.765  11.381   2.609  1.00  0.00     0.091 A 
ATOM     89  F   UNL     1       0.476  10.886   1.952  1.00  0.00    -0.205 F 
ATOM     90  C   UNL     1      -2.965  12.065   2.364  1.00  0.00     0.022 A 
BRANCH  88  91
ATOM     91  S   UNL     1      -1.709  10.325   4.061  1.00  0.00     0.127 S 
ATOM     92  O   UNL     1      -1.679  11.306   5.143  1.00  0.00    -0.237 OA
ATOM     93  O   UNL     1      -2.963   9.580   3.938  1.00  0.00    -0.237 OA
ATOM     94  O   UNL     1      -0.511   9.512   3.909  1.00  0.00    -0.744 OA
ENDBRANCH  88  91
ENDBRANCH  60  84
BRANCH  72  95
ATOM     95  C   UNL     1       2.986  17.621  -1.715  1.00  0.00     0.023 A 
ATOM     96  C   UNL     1       3.493  18.059  -0.476  1.00  0.00     0.012 A 
ATOM     97  C   UNL     1       2.560  18.573  -2.663  1.00  0.00     0.148 A 
ATOM     98  C   UNL     1       3.547  19.419  -0.173  1.00  0.00     0.002 A 
ATOM     99  C   UNL     1       2.663  19.929  -2.373  1.00  0.00     0.091 A 
ATOM    100  F   UNL     1       2.065  18.138  -3.830  1.00  0.00    -0.205 F 
ATOM    101  C   UNL     1       3.144  20.354  -1.124  1.00  0.00     0.022 A 
BRANCH  99 102
ATOM    102  S   UNL     1       2.260  21.201  -3.576  1.00  0.00     0.127 S 
ATOM    103  O   UNL     1       0.979  21.694  -3.072  1.00  0.00    -0.237 OA
ATOM    104  O   UNL     1       3.374  22.138  -3.426  1.00  0.00    -0.237 OA
ATOM    105  O   UNL     1       2.209  20.528  -4.867  1.00  0.00    -0.744 OA
ENDBRANCH  99 102
ENDBRANCH  72  95
ENDBRANCH  46  47
ENDBRANCH  39  41
ENDBRANCH  38  39
ENDBRANCH  37  38
ENDBRANCH  36  37
ENDBRANCH  35  36
ENDBRANCH  34  35
ENDBRANCH  33  34
ENDBRANCH  32  33
ENDBRANCH   1  32
TORSDOF 27
