REMARK SMILES CCc1ccc(S(=O)(=O)N[C@H](C(=O)OCCOCCOCCOCCOC(=O)c2ccc(-c3c4nc(c(-c5cccc(S(=O)(=O)[O-])c5F)c5ccc([nH]5)c(-c5cccc(S(=O)(=O)[O-])c5F)c5nc(c(-c6cccc(S(=O)(=O)[O-])c6F)c6ccc3[nH]6)C=C5)C=C4)cc2)C(C)C)cc1
REMARK SMILES IDX 19 1 18 2 17 3 16 4 15 5 14 6 12 7 13 8 11 9 10 10 7 12 8 13
REMARK SMILES IDX 9 14 6 15 3 16 4 17 96 18 5 19 95 20 2 21 1 22 92 23 93 24
REMARK SMILES IDX 94 25 20 26 21 27 22 28 23 29 24 30 25 31 26 32 27 33 28 34
REMARK SMILES IDX 29 35 30 36 91 37 31 38 90 39 32 40 33 41 34 42 84 43 35 44
REMARK SMILES IDX 89 45 83 46 85 47 36 48 88 49 82 50 81 51 37 53 69 54 49 55
REMARK SMILES IDX 68 56 50 57 53 58 67 59 86 60 51 61 52 62 66 64 87 65 54 66
REMARK SMILES IDX 38 67 39 68 47 69 40 70 42 71 48 72 41 73 43 74 44 75 45 76
REMARK SMILES IDX 46 77 70 78 71 79 79 80 72 81 74 82 80 83 73 84 75 85 76 86
REMARK SMILES IDX 77 87 78 88 55 89 56 90 64 91 57 92 59 93 65 94 58 95 60 96
REMARK SMILES IDX 61 97 62 98 63 99
REMARK H PARENT 10 11 85 52 53 63
REMARK Flexibility Score: inf
ROOT
ATOM      1  C   UNL     1       1.365   4.336   5.643  1.00  0.00     0.188 C 
ENDROOT
BRANCH   1   2
ATOM      2  C   UNL     1       2.621   4.196   4.767  1.00  0.00     0.188 C 
BRANCH   2   3
ATOM      3  O   UNL     1       3.815   4.717   5.334  1.00  0.00    -0.376 OA
BRANCH   3   4
ATOM      4  C   UNL     1       4.482   5.704   4.552  1.00  0.00     0.202 C 
BRANCH   4   5
ATOM      5  C   UNL     1       3.857   7.103   4.618  1.00  0.00     0.261 C 
BRANCH   5   6
ATOM      6  O   UNL     1       2.437   7.099   4.426  1.00  0.00    -0.462 OA
BRANCH   6   7
ATOM      7  C   UNL     1       1.982   7.065   3.162  1.00  0.00     0.324 C 
ATOM      8  O   UNL     1       2.731   6.918   2.198  1.00  0.00    -0.250 OA
BRANCH   7   9
ATOM      9  C   UNL     1       0.456   7.000   3.071  1.00  0.00     0.182 C 
BRANCH   9  10
ATOM     10  N   UNL     1      -0.413   7.109   4.271  1.00  0.00    -0.197 NA
ATOM     11  H   UNL     1      -1.358   7.166   3.891  1.00  0.00     0.142 HD
BRANCH  10  12
ATOM     12  S   UNL     1      -0.396   8.246   5.507  1.00  0.00     0.241 S 
ATOM     13  O   UNL     1       0.956   8.530   5.914  1.00  0.00    -0.207 OA
ATOM     14  O   UNL     1      -1.399   7.782   6.446  1.00  0.00    -0.207 OA
BRANCH  12  15
ATOM     15  C   UNL     1      -1.054   9.715   4.774  1.00  0.00     0.082 A 
ATOM     16  C   UNL     1      -1.757  11.936   3.236  1.00  0.00    -0.048 A 
ATOM     17  C   UNL     1      -0.751  12.032   4.212  1.00  0.00     0.005 A 
ATOM     18  C   UNL     1      -2.486  10.742   3.133  1.00  0.00     0.005 A 
ATOM     19  C   UNL     1      -0.390  10.924   4.973  1.00  0.00     0.022 A 
ATOM     20  C   UNL     1      -2.154   9.640   3.922  1.00  0.00     0.022 A 
BRANCH  16  21
ATOM     21  C   UNL     1      -1.947  13.118   2.314  1.00  0.00     0.032 C 
ATOM     22  C   UNL     1      -3.021  12.983   1.244  1.00  0.00     0.009 C 
ENDBRANCH  16  21
ENDBRANCH  12  15
ENDBRANCH  10  12
ENDBRANCH   9  10
BRANCH   9  23
ATOM     23  C   UNL     1      -0.166   7.805   1.892  1.00  0.00     0.012 C 
ATOM     24  C   UNL     1       0.687   7.892   0.620  1.00  0.00     0.009 C 
ATOM     25  C   UNL     1      -1.522   7.200   1.482  1.00  0.00     0.009 C 
ENDBRANCH   9  23
ENDBRANCH   7   9
ENDBRANCH   6   7
ENDBRANCH   5   6
ENDBRANCH   4   5
ENDBRANCH   3   4
ENDBRANCH   2   3
ENDBRANCH   1   2
BRANCH   1  26
ATOM     26  O   UNL     1       1.304   5.354   6.622  1.00  0.00    -0.377 OA
BRANCH  26  27
ATOM     27  C   UNL     1       2.357   5.477   7.578  1.00  0.00     0.188 C 
BRANCH  27  28
ATOM     28  C   UNL     1       3.116   4.222   8.063  1.00  0.00     0.188 C 
BRANCH  28  29
ATOM     29  O   UNL     1       2.481   2.982   7.776  1.00  0.00    -0.376 OA
BRANCH  29  30
ATOM     30  C   UNL     1       1.761   2.385   8.848  1.00  0.00     0.202 C 
BRANCH  30  31
ATOM     31  C   UNL     1       0.533   3.171   9.327  1.00  0.00     0.261 C 
BRANCH  31  32
ATOM     32  O   UNL     1       0.836   4.408   9.992  1.00  0.00    -0.460 OA
BRANCH  32  33
ATOM     33  C   UNL     1       1.607   4.332  11.098  1.00  0.00     0.338 C 
ATOM     34  O   UNL     1       2.015   3.324  11.646  1.00  0.00    -0.246 OA
BRANCH  33  35
ATOM     35  C   UNL     1       2.040   5.695  11.447  1.00  0.00     0.060 A 
ATOM     36  C   UNL     1       3.412   5.964  11.519  1.00  0.00     0.016 A 
ATOM     37  C   UNL     1       1.099   6.684  11.743  1.00  0.00     0.016 A 
ATOM     38  C   UNL     1       3.848   7.213  11.953  1.00  0.00     0.010 A 
ATOM     39  C   UNL     1       1.538   7.930  12.191  1.00  0.00     0.010 A 
ATOM     40  C   UNL     1       2.912   8.180  12.344  1.00  0.00    -0.014 A 
BRANCH  40  41
ATOM     41  C   UNL     1       3.377   9.360  13.107  1.00  0.00     0.031 A 
ATOM     42  C   UNL     1       3.351   9.292  14.610  1.00  0.00     0.074 A 
ATOM     43  C   UNL     1       3.823  10.462  12.483  1.00  0.00     0.049 A 
ATOM     44  N   UNL     1       3.783  10.161  15.485  1.00  0.00    -0.248 NA
ATOM     45  C   UNL     1       2.756   8.083  15.205  1.00  0.00     0.031 C 
ATOM     46  C   UNL     1       3.861  10.657  11.036  1.00  0.00     0.029 A 
ATOM     47  N   UNL     1       4.311  11.636  12.999  1.00  0.00    -0.354 N 
ATOM     48  C   UNL     1       3.499   9.614  16.730  1.00  0.00     0.074 A 
ATOM     49  C   UNL     1       2.839   8.349  16.500  1.00  0.00     0.031 C 
ATOM     50  C   UNL     1       4.325  11.893  10.778  1.00  0.00     0.029 A 
ATOM     51  C   UNL     1       4.615  12.572  12.041  1.00  0.00     0.049 A 
ATOM     52  H   UNL     1       4.433  11.792  13.963  1.00  0.00     0.167 HD
ATOM     53  C   UNL     1       3.783  10.110  17.956  1.00  0.00     0.034 A 
ATOM     54  C   UNL     1       5.073  13.833  12.172  1.00  0.00     0.034 A 
ATOM     55  C   UNL     1       4.453  11.360  18.182  1.00  0.00     0.049 A 
ATOM     56  C   UNL     1       5.401  14.357  13.547  1.00  0.00     0.074 A 
ATOM     57  C   UNL     1       4.849  11.920  19.383  1.00  0.00     0.029 A 
ATOM     58  N   UNL     1       4.809  12.255  17.185  1.00  0.00    -0.354 N 
ATOM     59  N   UNL     1       5.291  13.757  14.709  1.00  0.00    -0.248 NA
ATOM     60  C   UNL     1       5.960  15.715  13.628  1.00  0.00     0.031 C 
ATOM     61  C   UNL     1       5.426  13.165  19.113  1.00  0.00     0.029 A 
ATOM     62  C   UNL     1       5.408  13.370  17.742  1.00  0.00     0.049 A 
ATOM     63  H   UNL     1       4.657  12.117  16.222  1.00  0.00     0.167 HD
ATOM     64  C   UNL     1       5.799  14.646  15.651  1.00  0.00     0.074 A 
ATOM     65  C   UNL     1       6.233  15.820  14.922  1.00  0.00     0.031 C 
ATOM     66  C   UNL     1       5.887  14.508  16.998  1.00  0.00     0.034 A 
BRANCH  53  67
ATOM     67  C   UNL     1       3.398   9.273  19.146  1.00  0.00     0.023 A 
ATOM     68  C   UNL     1       4.136   8.109  19.444  1.00  0.00     0.012 A 
ATOM     69  C   UNL     1       2.332   9.651  19.984  1.00  0.00     0.148 A 
ATOM     70  C   UNL     1       3.798   7.316  20.539  1.00  0.00     0.002 A 
ATOM     71  C   UNL     1       2.026   8.876  21.097  1.00  0.00     0.091 A 
ATOM     72  F   UNL     1       1.623  10.743  19.666  1.00  0.00    -0.205 F 
ATOM     73  C   UNL     1       2.751   7.704  21.371  1.00  0.00     0.022 A 
BRANCH  71  74
ATOM     74  S   UNL     1       0.741   9.339  22.263  1.00  0.00     0.127 S 
ATOM     75  O   UNL     1      -0.338   8.426  21.892  1.00  0.00    -0.237 OA
ATOM     76  O   UNL     1       1.369   9.046  23.552  1.00  0.00    -0.237 OA
ATOM     77  O   UNL     1       0.482  10.752  22.027  1.00  0.00    -0.744 OA
ENDBRANCH  71  74
ENDBRANCH  53  67
BRANCH  54  78
ATOM     78  C   UNL     1       5.314  14.657  10.955  1.00  0.00     0.023 A 
ATOM     79  C   UNL     1       6.635  14.939  10.556  1.00  0.00     0.012 A 
ATOM     80  C   UNL     1       4.243  15.123  10.166  1.00  0.00     0.148 A 
ATOM     81  C   UNL     1       6.885  15.689   9.406  1.00  0.00     0.002 A 
ATOM     82  C   UNL     1       4.500  15.825   8.994  1.00  0.00     0.091 A 
ATOM     83  F   UNL     1       2.994  14.859  10.573  1.00  0.00    -0.205 F 
ATOM     84  C   UNL     1       5.820  16.122   8.620  1.00  0.00     0.022 A 
BRANCH  82  85
ATOM     85  S   UNL     1       3.199  16.310   7.854  1.00  0.00     0.127 S 
ATOM     86  O   UNL     1       3.178  17.761   8.023  1.00  0.00    -0.237 OA
ATOM     87  O   UNL     1       3.730  15.848   6.571  1.00  0.00    -0.237 OA
ATOM     88  O   UNL     1       2.003  15.605   8.295  1.00  0.00    -0.744 OA
ENDBRANCH  82  85
ENDBRANCH  54  78
BRANCH  66  89
ATOM     89  C   UNL     1       6.499  15.638  17.784  1.00  0.00     0.023 A 
ATOM     90  C   UNL     1       5.770  16.827  17.980  1.00  0.00     0.012 A 
ATOM     91  C   UNL     1       7.754  15.486  18.407  1.00  0.00     0.148 A 
ATOM     92  C   UNL     1       6.292  17.858  18.761  1.00  0.00     0.002 A 
ATOM     93  C   UNL     1       8.248  16.500  19.221  1.00  0.00     0.091 A 
ATOM     94  F   UNL     1       8.443  14.356  18.194  1.00  0.00    -0.205 F 
ATOM     95  C   UNL     1       7.523  17.690  19.391  1.00  0.00     0.022 A 
BRANCH  93  96
ATOM     96  S   UNL     1       9.779  16.324  20.145  1.00  0.00     0.127 S 
ATOM     97  O   UNL     1      10.706  17.120  19.343  1.00  0.00    -0.237 OA
ATOM     98  O   UNL     1       9.434  16.913  21.440  1.00  0.00    -0.237 OA
ATOM     99  O   UNL     1      10.052  14.894  20.191  1.00  0.00    -0.744 OA
ENDBRANCH  93  96
ENDBRANCH  66  89
ENDBRANCH  40  41
ENDBRANCH  33  35
ENDBRANCH  32  33
ENDBRANCH  31  32
ENDBRANCH  30  31
ENDBRANCH  29  30
ENDBRANCH  28  29
ENDBRANCH  27  28
ENDBRANCH  26  27
ENDBRANCH   1  26
TORSDOF 28
