REMARK SMILES Cc1cccc([C@@H](CC(=O)OCCOCCOCCOCCOC(=O)c2ccc(-c3c4nc(c(-c5cccc(S(=O)(=O)[O-])c5F)c5ccc([nH]5)c(-c5cccc(S(=O)(=O)[O-])c5F)c5nc(c(-c6cccc(S(=O)(=O)[O-])c6F)c6ccc3[nH]6)C=C5)C=C4)cc2)NC(=O)OC(C)(C)C)c1
REMARK SMILES IDX 16 1 15 2 14 3 13 4 12 5 11 6 9 7 10 8 8 9 7 10 6 11 1 12
REMARK SMILES IDX 2 13 3 14 97 15 4 16 5 17 89 18 90 19 91 21 92 22 93 23
REMARK SMILES IDX 94 24 95 25 96 26 17 27 18 28 19 29 20 30 21 31 22 32 23 33
REMARK SMILES IDX 24 34 25 35 26 36 27 37 88 38 28 39 87 40 29 41 30 42 31 43
REMARK SMILES IDX 81 44 32 45 86 46 80 47 82 48 33 49 85 50 79 51 78 52 34 54
REMARK SMILES IDX 66 55 46 56 65 57 47 58 50 59 64 60 83 61 48 62 49 63 63 65
REMARK SMILES IDX 84 66 51 67 35 68 36 69 44 70 37 71 39 72 45 73 38 74 40 75
REMARK SMILES IDX 41 76 42 77 43 78 67 79 68 80 76 81 69 82 71 83 77 84 70 85
REMARK SMILES IDX 72 86 73 87 74 88 75 89 52 90 53 91 61 92 54 93 56 94 62 95
REMARK SMILES IDX 55 96 57 97 58 98 59 99 60 100
REMARK H PARENT 89 20 82 53 50 64
REMARK Flexibility Score: inf
ROOT
ATOM      1  C   UNL     1      -4.791   3.386   1.333  1.00  0.00     0.188 C 
ENDROOT
BRANCH   1   2
ATOM      2  C   UNL     1      -5.944   3.840   0.437  1.00  0.00     0.188 C 
BRANCH   2   3
ATOM      3  O   UNL     1      -6.841   2.866  -0.035  1.00  0.00    -0.376 OA
BRANCH   3   4
ATOM      4  C   UNL     1      -6.299   2.058  -1.060  1.00  0.00     0.202 C 
BRANCH   4   5
ATOM      5  C   UNL     1      -5.428   2.701  -2.126  1.00  0.00     0.261 C 
BRANCH   5   6
ATOM      6  O   UNL     1      -4.034   2.590  -1.673  1.00  0.00    -0.463 OA
BRANCH   6   7
ATOM      7  C   UNL     1      -3.206   3.564  -1.288  1.00  0.00     0.308 C 
ATOM      8  O   UNL     1      -3.468   4.755  -1.435  1.00  0.00    -0.252 OA
BRANCH   7   9
ATOM      9  C   UNL     1      -1.833   3.060  -0.736  1.00  0.00     0.152 C 
BRANCH   9  10
ATOM     10  C   UNL     1      -1.444   2.112   0.542  1.00  0.00     0.127 C 
BRANCH  10  11
ATOM     11  C   UNL     1      -1.120   0.425   0.606  1.00  0.00    -0.025 A 
ATOM     12  C   UNL     1       2.948  -0.855  -0.295  1.00  0.00     0.044 C 
ATOM     13  C   UNL     1       1.438  -0.979  -0.470  1.00  0.00    -0.051 A 
ATOM     14  C   UNL     1       0.573  -2.503  -0.779  1.00  0.00     0.003 A 
ATOM     15  C   UNL     1       0.607   0.439   0.093  1.00  0.00     0.009 A 
ATOM     16  C   UNL     1      -1.238  -2.643  -0.474  1.00  0.00     0.001 A 
ATOM     17  C   UNL     1      -2.077  -1.214   0.431  1.00  0.00     0.006 A 
ENDBRANCH  10  11
BRANCH  10  18
ATOM     18  N   UNL     1      -1.807   2.556   1.859  1.00  0.00    -0.314 N 
ATOM     19  C   UNL     1      -1.890   3.711   2.547  1.00  0.00     0.408 C 
ATOM     20  H   UNL     1      -2.073   1.794   2.423  1.00  0.00     0.167 HD
ATOM     21  O   UNL     1      -2.597   3.720   3.550  1.00  0.00    -0.225 OA
BRANCH  19  22
ATOM     22  O   UNL     1      -1.159   4.766   2.108  1.00  0.00    -0.444 OA
BRANCH  22  23
ATOM     23  C   UNL     1      -1.095   5.910   3.018  1.00  0.00     0.106 C 
ATOM     24  C   UNL     1      -2.419   6.694   3.064  1.00  0.00     0.056 C 
ATOM     25  C   UNL     1      -0.653   5.473   4.432  1.00  0.00     0.056 C 
ATOM     26  C   UNL     1      -0.005   6.844   2.472  1.00  0.00     0.056 C 
ENDBRANCH  22  23
ENDBRANCH  19  22
ENDBRANCH  10  18
ENDBRANCH   9  10
ENDBRANCH   7   9
ENDBRANCH   6   7
ENDBRANCH   5   6
ENDBRANCH   4   5
ENDBRANCH   3   4
ENDBRANCH   2   3
ENDBRANCH   1   2
BRANCH   1  27
ATOM     27  O   UNL     1      -4.055   2.222   0.973  1.00  0.00    -0.377 OA
BRANCH  27  28
ATOM     28  C   UNL     1      -4.457   1.028   1.606  1.00  0.00     0.188 C 
BRANCH  28  29
ATOM     29  C   UNL     1      -4.311   0.857   3.071  1.00  0.00     0.188 C 
BRANCH  29  30
ATOM     30  O   UNL     1      -5.507   1.481   3.490  1.00  0.00    -0.376 OA
BRANCH  30  31
ATOM     31  C   UNL     1      -5.457   1.933   4.800  1.00  0.00     0.202 C 
BRANCH  31  32
ATOM     32  C   UNL     1      -5.196   0.727   5.675  1.00  0.00     0.261 C 
BRANCH  32  33
ATOM     33  O   UNL     1      -6.294  -0.258   5.467  1.00  0.00    -0.460 OA
BRANCH  33  34
ATOM     34  C   UNL     1      -6.362  -1.453   4.769  1.00  0.00     0.338 C 
ATOM     35  O   UNL     1      -6.614  -2.478   5.402  1.00  0.00    -0.246 OA
BRANCH  34  36
ATOM     36  C   UNL     1      -6.492  -1.520   3.239  1.00  0.00     0.060 A 
ATOM     37  C   UNL     1      -6.048  -2.630   2.495  1.00  0.00     0.016 A 
ATOM     38  C   UNL     1      -7.102  -0.561   2.462  1.00  0.00     0.016 A 
ATOM     39  C   UNL     1      -5.720  -2.555   1.095  1.00  0.00     0.010 A 
ATOM     40  C   UNL     1      -6.876  -0.543   1.053  1.00  0.00     0.010 A 
ATOM     41  C   UNL     1      -5.949  -1.388   0.379  1.00  0.00    -0.014 A 
BRANCH  41  42
ATOM     42  C   UNL     1      -5.465  -1.042  -1.073  1.00  0.00     0.031 A 
ATOM     43  C   UNL     1      -6.625  -1.077  -2.031  1.00  0.00     0.074 A 
ATOM     44  C   UNL     1      -4.293  -0.378  -1.502  1.00  0.00     0.049 A 
ATOM     45  N   UNL     1      -6.539  -0.729  -3.258  1.00  0.00    -0.248 NA
ATOM     46  C   UNL     1      -8.028  -1.203  -1.623  1.00  0.00     0.031 C 
ATOM     47  C   UNL     1      -3.767   0.260  -2.724  1.00  0.00     0.029 A 
ATOM     48  N   UNL     1      -3.220   0.109  -0.794  1.00  0.00    -0.354 N 
ATOM     49  C   UNL     1      -7.721  -0.093  -3.603  1.00  0.00     0.074 A 
ATOM     50  C   UNL     1      -8.650  -0.491  -2.575  1.00  0.00     0.031 C 
ATOM     51  C   UNL     1      -2.427   0.575  -2.736  1.00  0.00     0.029 A 
ATOM     52  C   UNL     1      -1.925   0.051  -1.494  1.00  0.00     0.049 A 
ATOM     53  H   UNL     1      -3.311   0.470   0.117  1.00  0.00     0.167 HD
ATOM     54  C   UNL     1      -7.658   0.841  -4.604  1.00  0.00     0.034 A 
ATOM     55  C   UNL     1      -0.746  -0.811  -1.045  1.00  0.00     0.034 A 
ATOM     56  C   UNL     1      -6.250   0.858  -5.206  1.00  0.00     0.049 A 
ATOM     57  C   UNL     1      -1.122  -1.665  -2.659  1.00  0.00     0.074 A 
ATOM     58  C   UNL     1      -5.288   1.818  -5.502  1.00  0.00     0.029 A 
ATOM     59  N   UNL     1      -5.542  -0.369  -5.352  1.00  0.00    -0.354 N 
ATOM     60  N   UNL     1      -2.342  -1.731  -3.239  1.00  0.00    -0.248 NA
ATOM     61  C   UNL     1      -0.201  -2.282  -3.633  1.00  0.00     0.031 C 
ATOM     62  C   UNL     1      -4.013   1.162  -5.701  1.00  0.00     0.029 A 
ATOM     63  C   UNL     1      -4.144  -0.213  -5.449  1.00  0.00     0.049 A 
ATOM     64  H   UNL     1      -5.987  -1.246  -5.383  1.00  0.00     0.167 HD
ATOM     65  C   UNL     1      -2.308  -1.871  -4.630  1.00  0.00     0.074 A 
ATOM     66  C   UNL     1      -0.978  -2.485  -4.734  1.00  0.00     0.031 C 
ATOM     67  C   UNL     1      -3.232  -1.399  -5.612  1.00  0.00     0.034 A 
BRANCH  54  68
ATOM     68  C   UNL     1      -8.763   1.901  -4.946  1.00  0.00     0.023 A 
ATOM     69  C   UNL     1      -8.371   2.946  -5.816  1.00  0.00     0.012 A 
ATOM     70  C   UNL     1     -10.138   1.968  -4.547  1.00  0.00     0.148 A 
ATOM     71  C   UNL     1      -9.223   3.963  -6.274  1.00  0.00     0.002 A 
ATOM     72  C   UNL     1     -11.011   2.978  -5.033  1.00  0.00     0.091 A 
ATOM     73  F   UNL     1     -10.642   1.054  -3.714  1.00  0.00    -0.205 F 
ATOM     74  C   UNL     1     -10.548   3.971  -5.898  1.00  0.00     0.022 A 
BRANCH  72  75
ATOM     75  S   UNL     1     -12.782   3.097  -4.654  1.00  0.00     0.127 S 
ATOM     76  O   UNL     1     -12.929   4.503  -4.266  1.00  0.00    -0.237 OA
ATOM     77  O   UNL     1     -13.398   2.768  -5.939  1.00  0.00    -0.237 OA
ATOM     78  O   UNL     1     -13.034   2.149  -3.577  1.00  0.00    -0.744 OA
ENDBRANCH  72  75
ENDBRANCH  54  68
BRANCH  55  79
ATOM     79  C   UNL     1      -0.221  -1.532   0.925  1.00  0.00     0.023 A 
ATOM     80  C   UNL     1       0.188  -0.783   2.208  1.00  0.00     0.012 A 
ATOM     81  C   UNL     1      -0.884  -2.871   1.731  1.00  0.00     0.148 A 
ATOM     82  C   UNL     1      -0.327  -0.953   3.569  1.00  0.00     0.002 A 
ATOM     83  C   UNL     1      -1.413  -2.971   3.048  1.00  0.00     0.091 A 
ATOM     84  F   UNL     1      -1.140  -4.036   1.087  1.00  0.00    -0.205 F 
ATOM     85  C   UNL     1      -1.181  -1.971   3.955  1.00  0.00     0.022 A 
BRANCH  83  86
ATOM     86  S   UNL     1      -2.781  -4.131   3.465  1.00  0.00     0.127 S 
ATOM     87  O   UNL     1      -2.184  -4.990   4.483  1.00  0.00    -0.237 OA
ATOM     88  O   UNL     1      -3.762  -3.180   3.983  1.00  0.00    -0.237 OA
ATOM     89  O   UNL     1      -3.181  -4.803   2.234  1.00  0.00    -0.744 OA
ENDBRANCH  83  86
ENDBRANCH  55  79
BRANCH  67  90
ATOM     90  C   UNL     1      -3.459  -1.983  -7.028  1.00  0.00     0.023 A 
ATOM     91  C   UNL     1      -2.787  -3.108  -7.485  1.00  0.00     0.012 A 
ATOM     92  C   UNL     1      -4.531  -1.512  -7.880  1.00  0.00     0.148 A 
ATOM     93  C   UNL     1      -3.182  -3.761  -8.660  1.00  0.00     0.002 A 
ATOM     94  C   UNL     1      -5.011  -2.240  -8.951  1.00  0.00     0.091 A 
ATOM     95  F   UNL     1      -5.062  -0.293  -7.737  1.00  0.00    -0.205 F 
ATOM     96  C   UNL     1      -4.323  -3.369  -9.356  1.00  0.00     0.022 A 
BRANCH  94  97
ATOM     97  S   UNL     1      -6.534  -1.781  -9.799  1.00  0.00     0.127 S 
ATOM     98  O   UNL     1      -6.014  -1.191 -11.030  1.00  0.00    -0.237 OA
ATOM     99  O   UNL     1      -7.186  -3.080  -9.968  1.00  0.00    -0.237 OA
ATOM    100  O   UNL     1      -7.240  -0.871  -8.907  1.00  0.00    -0.744 OA
ENDBRANCH  94  97
ENDBRANCH  67  90
ENDBRANCH  41  42
ENDBRANCH  34  36
ENDBRANCH  33  34
ENDBRANCH  32  33
ENDBRANCH  31  32
ENDBRANCH  30  31
ENDBRANCH  29  30
ENDBRANCH  28  29
ENDBRANCH  27  28
ENDBRANCH   1  27
TORSDOF 28
