REMARK SMILES CC(C)C[C@H](NC(=O)[C@H](Cc1ccccc1)NC(=O)CNC(=O)CNC(=O)OCc1ccccc1)C(=O)OCCOCCOCCOCCOC(=O)c1ccc(-c2c3nc(c(-c4cccc(S(=O)(=O)[O-])c4F)c4ccc([nH]4)c(-c4cccc(S(=O)(=O)[O-])c4F)c4nc(c(-c5cccc(S(=O)(=O)[O-])c5F)c5ccc2[nH]5)C=C4)C=C3)cc1
REMARK SMILES IDX 40 1 39 2 38 3 36 4 37 5 5 6 4 7 2 8 1 9 3 10 6 11 7 12 8 14
REMARK SMILES IDX 9 15 17 16 18 17 19 19 20 20 21 21 22 22 23 24 24 25 25 26
REMARK SMILES IDX 26 27 27 29 28 30 29 31 30 32 31 33 35 34 32 35 34 36 33 37
REMARK SMILES IDX 10 38 11 39 12 40 16 41 13 42 15 43 14 44 41 45 42 46 43 47
REMARK SMILES IDX 44 48 45 49 46 50 47 51 48 52 49 53 50 54 51 55 52 56 53 57
REMARK SMILES IDX 54 58 115 59 55 60 114 61 56 62 57 63 58 64 108 65 59 66
REMARK SMILES IDX 113 67 107 68 109 69 60 70 112 71 106 72 105 73 61 75 93 76
REMARK SMILES IDX 73 77 92 78 74 79 77 80 91 81 110 82 75 83 76 84 90 86
REMARK SMILES IDX 111 87 78 88 62 89 63 90 71 91 64 92 66 93 72 94 65 95 67 96
REMARK SMILES IDX 68 97 69 98 70 99 94 100 95 101 103 102 96 103 98 104
REMARK SMILES IDX 104 105 97 106 99 107 100 108 101 109 102 110 79 111 80 112
REMARK SMILES IDX 88 113 81 114 83 115 89 116 82 117 84 118 85 119 86 120
REMARK SMILES IDX 87 121
REMARK H PARENT 6 13 17 18 21 23 25 28 109 74 77 85
REMARK Flexibility Score: inf
ROOT
ATOM      1  C   UNL     1      -4.825  -6.896  -2.324  1.00  0.00     0.202 C 
ENDROOT
BRANCH   1   2
ATOM      2  C   UNL     1      -4.590  -5.282  -1.721  1.00  0.00     0.261 C 
BRANCH   2   3
ATOM      3  O   UNL     1      -4.192  -5.029  -0.344  1.00  0.00    -0.462 OA
BRANCH   3   4
ATOM      4  C   UNL     1      -5.018  -4.463   0.568  1.00  0.00     0.328 C 
ATOM      5  O   UNL     1      -5.934  -3.705   0.276  1.00  0.00    -0.250 OA
BRANCH   4   6
ATOM      6  C   UNL     1      -4.722  -4.934   2.063  1.00  0.00     0.192 C 
BRANCH   6   7
ATOM      7  C   UNL     1      -4.503  -3.706   2.937  1.00  0.00     0.040 C 
BRANCH   7   8
ATOM      8  C   UNL     1      -3.505  -3.716   4.111  1.00  0.00    -0.015 C 
ATOM      9  C   UNL     1      -2.036  -4.035   3.831  1.00  0.00     0.007 C 
ATOM     10  C   UNL     1      -3.553  -2.304   4.648  1.00  0.00     0.007 C 
ENDBRANCH   7   8
ENDBRANCH   6   7
BRANCH   6  11
ATOM     11  N   UNL     1      -3.915  -6.078   2.510  1.00  0.00    -0.341 N 
ATOM     12  C   UNL     1      -2.615  -6.402   2.259  1.00  0.00     0.243 C 
ATOM     13  H   UNL     1      -4.393  -6.717   3.087  1.00  0.00     0.164 HD
ATOM     14  O   UNL     1      -2.024  -7.146   3.043  1.00  0.00    -0.273 OA
BRANCH  12  15
ATOM     15  C   UNL     1      -2.009  -5.942   0.943  1.00  0.00     0.175 C 
BRANCH  15  16
ATOM     16  N   UNL     1      -0.556  -5.778   1.007  1.00  0.00    -0.342 N 
ATOM     17  C   UNL     1       0.243  -5.374  -0.028  1.00  0.00     0.240 C 
ATOM     18  H   UNL     1      -0.117  -5.974   1.866  1.00  0.00     0.164 HD
ATOM     19  O   UNL     1       1.274  -6.024  -0.213  1.00  0.00    -0.273 OA
BRANCH  17  20
ATOM     20  C   UNL     1      -0.043  -4.105  -0.868  1.00  0.00     0.216 C 
BRANCH  20  21
ATOM     21  N   UNL     1      -1.301  -3.966  -1.609  1.00  0.00    -0.346 N 
ATOM     22  C   UNL     1      -2.115  -2.868  -1.749  1.00  0.00     0.239 C 
ATOM     23  H   UNL     1      -1.606  -4.778  -2.074  1.00  0.00     0.164 HD
ATOM     24  O   UNL     1      -2.671  -2.713  -2.843  1.00  0.00    -0.273 OA
BRANCH  22  25
ATOM     25  C   UNL     1      -2.446  -1.908  -0.581  1.00  0.00     0.219 C 
BRANCH  25  26
ATOM     26  N   UNL     1      -1.895  -2.359   0.667  1.00  0.00    -0.312 N 
ATOM     27  C   UNL     1      -1.012  -1.752   1.498  1.00  0.00     0.407 C 
ATOM     28  H   UNL     1      -2.207  -3.244   0.965  1.00  0.00     0.167 HD
ATOM     29  O   UNL     1      -0.201  -2.439   2.091  1.00  0.00    -0.225 OA
BRANCH  27  30
ATOM     30  O   UNL     1      -1.175  -0.419   1.634  1.00  0.00    -0.445 OA
BRANCH  30  31
ATOM     31  C   UNL     1      -0.292   0.124   2.634  1.00  0.00     0.270 C 
BRANCH  31  32
ATOM     32  C   UNL     1      -0.919   0.092   4.014  1.00  0.00    -0.011 A 
ATOM     33  C   UNL     1      -0.307  -0.607   5.069  1.00  0.00     0.007 A 
ATOM     34  C   UNL     1      -2.141   0.736   4.255  1.00  0.00     0.007 A 
ATOM     35  C   UNL     1      -0.907  -0.664   6.332  1.00  0.00     0.000 A 
ATOM     36  C   UNL     1      -2.747   0.670   5.515  1.00  0.00     0.000 A 
ATOM     37  C   UNL     1      -2.129  -0.027   6.554  1.00  0.00     0.000 A 
ENDBRANCH  31  32
ENDBRANCH  30  31
ENDBRANCH  27  30
ENDBRANCH  25  26
ENDBRANCH  22  25
ENDBRANCH  20  21
ENDBRANCH  17  20
ENDBRANCH  15  16
BRANCH  15  38
ATOM     38  C   UNL     1      -2.293  -7.075  -0.011  1.00  0.00     0.070 C 
BRANCH  38  39
ATOM     39  C   UNL     1      -3.573  -7.472  -0.703  1.00  0.00    -0.045 A 
ATOM     40  C   UNL     1      -5.353  -7.159  -0.317  1.00  0.00     0.004 A 
ATOM     41  C   UNL     1      -3.158  -8.417  -2.193  1.00  0.00     0.004 A 
ATOM     42  C   UNL     1      -6.632  -7.730  -1.466  1.00  0.00     0.000 A 
ATOM     43  C   UNL     1      -4.448  -8.998  -3.277  1.00  0.00     0.000 A 
ATOM     44  C   UNL     1      -6.158  -8.668  -2.918  1.00  0.00     0.000 A 
ENDBRANCH  38  39
ENDBRANCH  15  38
ENDBRANCH  12  15
ENDBRANCH   6  11
ENDBRANCH   4   6
ENDBRANCH   3   4
ENDBRANCH   2   3
ENDBRANCH   1   2
BRANCH   1  45
ATOM     45  O   UNL     1      -4.895  -8.675  -1.409  1.00  0.00    -0.376 OA
BRANCH  45  46
ATOM     46  C   UNL     1      -5.267  -9.511  -0.164  1.00  0.00     0.188 C 
BRANCH  46  47
ATOM     47  C   UNL     1      -4.519  -9.388   1.199  1.00  0.00     0.188 C 
BRANCH  47  48
ATOM     48  O   UNL     1      -3.239  -9.925   1.450  1.00  0.00    -0.377 OA
BRANCH  48  49
ATOM     49  C   UNL     1      -2.307 -10.215   0.443  1.00  0.00     0.188 C 
BRANCH  49  50
ATOM     50  C   UNL     1      -2.378 -11.581  -0.202  1.00  0.00     0.188 C 
BRANCH  50  51
ATOM     51  O   UNL     1      -2.903 -12.677   0.514  1.00  0.00    -0.376 OA
BRANCH  51  52
ATOM     52  C   UNL     1      -2.988 -12.604   1.924  1.00  0.00     0.202 C 
BRANCH  52  53
ATOM     53  C   UNL     1      -1.739 -12.363   2.808  1.00  0.00     0.261 C 
BRANCH  53  54
ATOM     54  O   UNL     1      -0.670 -11.518   2.343  1.00  0.00    -0.460 OA
BRANCH  54  55
ATOM     55  C   UNL     1       0.277 -12.088   1.562  1.00  0.00     0.338 C 
ATOM     56  O   UNL     1       0.315 -13.258   1.217  1.00  0.00    -0.246 OA
BRANCH  55  57
ATOM     57  C   UNL     1       1.216 -11.059   1.028  1.00  0.00     0.060 A 
ATOM     58  C   UNL     1       1.284 -10.875  -0.362  1.00  0.00     0.016 A 
ATOM     59  C   UNL     1       2.129 -10.396   1.853  1.00  0.00     0.016 A 
ATOM     60  C   UNL     1       2.311 -10.123  -0.938  1.00  0.00     0.010 A 
ATOM     61  C   UNL     1       3.184  -9.665   1.271  1.00  0.00     0.010 A 
ATOM     62  C   UNL     1       3.325  -9.600  -0.130  1.00  0.00    -0.014 A 
BRANCH  62  63
ATOM     63  C   UNL     1       4.664  -9.374  -0.755  1.00  0.00     0.031 A 
ATOM     64  C   UNL     1       5.659 -10.511  -0.683  1.00  0.00     0.074 A 
ATOM     65  C   UNL     1       4.988  -8.262  -1.440  1.00  0.00     0.049 A 
ATOM     66  N   UNL     1       6.877 -10.589  -1.153  1.00  0.00    -0.248 NA
ATOM     67  C   UNL     1       5.211 -11.731   0.012  1.00  0.00     0.031 C 
ATOM     68  C   UNL     1       4.112  -7.118  -1.653  1.00  0.00     0.029 A 
ATOM     69  N   UNL     1       6.157  -7.910  -2.076  1.00  0.00    -0.354 N 
ATOM     70  C   UNL     1       7.350 -11.841  -0.772  1.00  0.00     0.074 A 
ATOM     71  C   UNL     1       6.295 -12.486  -0.028  1.00  0.00     0.031 C 
ATOM     72  C   UNL     1       4.779  -6.172  -2.339  1.00  0.00     0.029 A 
ATOM     73  C   UNL     1       6.140  -6.636  -2.600  1.00  0.00     0.049 A 
ATOM     74  H   UNL     1       6.932  -8.512  -2.150  1.00  0.00     0.167 HD
ATOM     75  C   UNL     1       8.552 -12.411  -1.021  1.00  0.00     0.034 A 
ATOM     76  C   UNL     1       7.114  -5.923  -3.202  1.00  0.00     0.034 A 
ATOM     77  C   UNL     1       9.600 -11.781  -1.774  1.00  0.00     0.049 A 
ATOM     78  C   UNL     1       8.464  -6.561  -3.424  1.00  0.00     0.074 A 
ATOM     79  C   UNL     1      10.840 -12.291  -2.113  1.00  0.00     0.029 A 
ATOM     80  N   UNL     1       9.542 -10.494  -2.283  1.00  0.00    -0.354 N 
ATOM     81  N   UNL     1       8.866  -7.774  -3.131  1.00  0.00    -0.248 NA
ATOM     82  C   UNL     1       9.485  -5.742  -4.096  1.00  0.00     0.031 C 
ATOM     83  C   UNL     1      11.555 -11.290  -2.778  1.00  0.00     0.029 A 
ATOM     84  C   UNL     1      10.734 -10.182  -2.914  1.00  0.00     0.049 A 
ATOM     85  H   UNL     1       8.768  -9.890  -2.208  1.00  0.00     0.167 HD
ATOM     86  C   UNL     1      10.162  -7.880  -3.627  1.00  0.00     0.074 A 
ATOM     87  C   UNL     1      10.473  -6.612  -4.251  1.00  0.00     0.031 C 
ATOM     88  C   UNL     1      11.017  -8.932  -3.571  1.00  0.00     0.034 A 
BRANCH  75  89
ATOM     89  C   UNL     1       8.806 -13.781  -0.445  1.00  0.00     0.023 A 
ATOM     90  C   UNL     1       8.123 -14.907  -0.949  1.00  0.00     0.012 A 
ATOM     91  C   UNL     1       9.748 -13.950   0.588  1.00  0.00     0.148 A 
ATOM     92  C   UNL     1       8.343 -16.172  -0.404  1.00  0.00     0.002 A 
ATOM     93  C   UNL     1      10.003 -15.221   1.088  1.00  0.00     0.091 A 
ATOM     94  F   UNL     1      10.368 -12.865   1.071  1.00  0.00    -0.205 F 
ATOM     95  C   UNL     1       9.290 -16.330   0.606  1.00  0.00     0.022 A 
BRANCH  93  96
ATOM     96  S   UNL     1      11.264 -15.538   2.326  1.00  0.00     0.127 S 
ATOM     97  O   UNL     1      10.455 -15.929   3.479  1.00  0.00    -0.237 OA
ATOM     98  O   UNL     1      12.023 -16.630   1.715  1.00  0.00    -0.237 OA
ATOM     99  O   UNL     1      12.004 -14.293   2.478  1.00  0.00    -0.744 OA
ENDBRANCH  93  96
ENDBRANCH  75  89
BRANCH  76 100
ATOM    100  C   UNL     1       6.854  -4.528  -3.671  1.00  0.00     0.023 A 
ATOM    101  C   UNL     1       6.860  -4.242  -5.051  1.00  0.00     0.012 A 
ATOM    102  C   UNL     1       6.617  -3.481  -2.758  1.00  0.00     0.148 A 
ATOM    103  C   UNL     1       6.675  -2.937  -5.511  1.00  0.00     0.002 A 
ATOM    104  C   UNL     1       6.375  -2.194  -3.225  1.00  0.00     0.091 A 
ATOM    105  F   UNL     1       6.633  -3.765  -1.449  1.00  0.00    -0.205 F 
ATOM    106  C   UNL     1       6.424  -1.915  -4.600  1.00  0.00     0.022 A 
BRANCH 104 107
ATOM    107  S   UNL     1       5.927  -0.835  -2.139  1.00  0.00     0.127 S 
ATOM    108  O   UNL     1       7.059   0.073  -2.308  1.00  0.00    -0.237 OA
ATOM    109  O   UNL     1       4.674  -0.375  -2.739  1.00  0.00    -0.237 OA
ATOM    110  O   UNL     1       5.782  -1.415  -0.811  1.00  0.00    -0.744 OA
ENDBRANCH 104 107
ENDBRANCH  76 100
BRANCH  88 111
ATOM    111  C   UNL     1      12.351  -8.793  -4.262  1.00  0.00     0.023 A 
ATOM    112  C   UNL     1      13.334  -7.920  -3.756  1.00  0.00     0.012 A 
ATOM    113  C   UNL     1      12.648  -9.584  -5.392  1.00  0.00     0.148 A 
ATOM    114  C   UNL     1      14.569  -7.798  -4.392  1.00  0.00     0.002 A 
ATOM    115  C   UNL     1      13.901  -9.502  -5.984  1.00  0.00     0.091 A 
ATOM    116  F   UNL     1      11.697 -10.400  -5.869  1.00  0.00    -0.205 F 
ATOM    117  C   UNL     1      14.857  -8.596  -5.497  1.00  0.00     0.022 A 
BRANCH 115 118
ATOM    118  S   UNL     1      14.395 -10.565  -7.345  1.00  0.00     0.127 S 
ATOM    119  O   UNL     1      14.427  -9.623  -8.462  1.00  0.00    -0.237 OA
ATOM    120  O   UNL     1      15.709 -11.037  -6.907  1.00  0.00    -0.237 OA
ATOM    121  O   UNL     1      13.378 -11.605  -7.434  1.00  0.00    -0.744 OA
ENDBRANCH 115 118
ENDBRANCH  88 111
ENDBRANCH  62  63
ENDBRANCH  55  57
ENDBRANCH  54  55
ENDBRANCH  53  54
ENDBRANCH  52  53
ENDBRANCH  51  52
ENDBRANCH  50  51
ENDBRANCH  49  50
ENDBRANCH  48  49
ENDBRANCH  47  48
ENDBRANCH  46  47
ENDBRANCH  45  46
ENDBRANCH   1  45
TORSDOF 37
