REMARK SMILES CC(C)[C@H](CO)Nc1ccc(C(=O)OCCOCCOCCOCCOC(=O)c2ccc(-c3c4nc(c(-c5cccc(S(=O)(=O)[O-])c5F)c5ccc([nH]5)c(-c5cccc(S(=O)(=O)[O-])c5F)c5nc(c(-c6cccc(S(=O)(=O)[O-])c6F)c6ccc3[nH]6)C=C5)C=C4)cc2)cc1
REMARK SMILES IDX 19 1 18 2 17 3 16 4 15 5 14 6 12 7 13 8 11 9 8 10 9 11 93 12
REMARK SMILES IDX 10 13 92 14 7 15 4 17 2 18 1 19 3 20 5 21 6 22 20 24 21 25
REMARK SMILES IDX 22 26 23 27 24 28 25 29 26 30 27 31 28 32 29 33 30 34 91 35
REMARK SMILES IDX 31 36 90 37 32 38 33 39 34 40 84 41 35 42 89 43 83 44 85 45
REMARK SMILES IDX 36 46 88 47 82 48 81 49 37 51 69 52 49 53 68 54 50 55 53 56
REMARK SMILES IDX 67 57 86 58 51 59 52 60 66 62 87 63 54 64 38 65 39 66 47 67
REMARK SMILES IDX 40 68 42 69 48 70 41 71 43 72 44 73 45 74 46 75 70 76 71 77
REMARK SMILES IDX 79 78 72 79 74 80 80 81 73 82 75 83 76 84 77 85 78 86 55 87
REMARK SMILES IDX 56 88 64 89 57 90 59 91 65 92 58 93 60 94 61 95 62 96 63 97
REMARK H PARENT 7 16 6 23 85 50 53 61
REMARK Flexibility Score: inf
ROOT
ATOM      1  C   UNL     1      -6.562  -5.988   0.742  1.00  0.00     0.188 C 
ENDROOT
BRANCH   1   2
ATOM      2  C   UNL     1      -6.131  -7.202   1.591  1.00  0.00     0.188 C 
BRANCH   2   3
ATOM      3  O   UNL     1      -7.048  -7.553   2.610  1.00  0.00    -0.376 OA
BRANCH   3   4
ATOM      4  C   UNL     1      -6.753  -7.248   3.960  1.00  0.00     0.202 C 
BRANCH   4   5
ATOM      5  C   UNL     1      -6.411  -5.809   4.374  1.00  0.00     0.261 C 
BRANCH   5   6
ATOM      6  O   UNL     1      -5.560  -5.080   3.487  1.00  0.00    -0.460 OA
BRANCH   6   7
ATOM      7  C   UNL     1      -4.252  -5.411   3.471  1.00  0.00     0.338 C 
ATOM      8  O   UNL     1      -3.706  -6.277   4.130  1.00  0.00    -0.246 OA
BRANCH   7   9
ATOM      9  C   UNL     1      -3.619  -4.688   2.343  1.00  0.00     0.060 A 
ATOM     10  C   UNL     1      -2.376  -3.379   0.186  1.00  0.00     0.034 A 
ATOM     11  C   UNL     1      -2.125  -4.732   0.437  1.00  0.00     0.026 A 
ATOM     12  C   UNL     1      -3.313  -2.716   0.991  1.00  0.00     0.026 A 
ATOM     13  C   UNL     1      -2.728  -5.382   1.518  1.00  0.00     0.018 A 
ATOM     14  C   UNL     1      -3.942  -3.362   2.056  1.00  0.00     0.018 A 
BRANCH  10  15
ATOM     15  N   UNL     1      -1.613  -2.710  -0.759  1.00  0.00    -0.380 N 
ATOM     16  H   UNL     1      -1.425  -3.134  -1.627  1.00  0.00     0.160 HD
BRANCH  15  17
ATOM     17  C   UNL     1      -1.085  -1.372  -0.468  1.00  0.00     0.107 C 
BRANCH  17  18
ATOM     18  C   UNL     1      -1.592  -0.300  -1.470  1.00  0.00     0.007 C 
ATOM     19  C   UNL     1      -2.726  -0.754  -2.393  1.00  0.00     0.009 C 
ATOM     20  C   UNL     1      -2.050   0.942  -0.691  1.00  0.00     0.009 C 
ENDBRANCH  17  18
BRANCH  17  21
ATOM     21  C   UNL     1       0.462  -1.435  -0.416  1.00  0.00     0.181 C 
BRANCH  21  22
ATOM     22  O   UNL     1       1.044  -1.724  -1.687  1.00  0.00    -0.394 OA
ATOM     23  H   UNL     1       0.742  -2.594  -1.991  1.00  0.00     0.210 HD
ENDBRANCH  21  22
ENDBRANCH  17  21
ENDBRANCH  15  17
ENDBRANCH  10  15
ENDBRANCH   7   9
ENDBRANCH   6   7
ENDBRANCH   5   6
ENDBRANCH   4   5
ENDBRANCH   3   4
ENDBRANCH   2   3
ENDBRANCH   1   2
BRANCH   1  24
ATOM     24  O   UNL     1      -7.650  -5.193   1.186  1.00  0.00    -0.377 OA
BRANCH  24  25
ATOM     25  C   UNL     1      -8.881  -5.802   1.565  1.00  0.00     0.188 C 
BRANCH  25  26
ATOM     26  C   UNL     1      -9.286  -7.212   1.072  1.00  0.00     0.188 C 
BRANCH  26  27
ATOM     27  O   UNL     1      -8.466  -7.749   0.047  1.00  0.00    -0.376 OA
BRANCH  27  28
ATOM     28  C   UNL     1      -9.007  -7.804  -1.260  1.00  0.00     0.202 C 
BRANCH  28  29
ATOM     29  C   UNL     1      -9.333  -6.460  -1.928  1.00  0.00     0.261 C 
BRANCH  29  30
ATOM     30  O   UNL     1     -10.220  -5.597  -1.202  1.00  0.00    -0.460 OA
BRANCH  30  31
ATOM     31  C   UNL     1     -11.490  -6.030  -1.022  1.00  0.00     0.338 C 
ATOM     32  O   UNL     1     -11.971  -7.070  -1.420  1.00  0.00    -0.246 OA
BRANCH  31  33
ATOM     33  C   UNL     1     -12.148  -5.100  -0.078  1.00  0.00     0.060 A 
ATOM     34  C   UNL     1     -12.622  -5.598   1.142  1.00  0.00     0.016 A 
ATOM     35  C   UNL     1     -12.282  -3.745  -0.390  1.00  0.00     0.016 A 
ATOM     36  C   UNL     1     -13.265  -4.746   2.040  1.00  0.00     0.010 A 
ATOM     37  C   UNL     1     -12.944  -2.897   0.502  1.00  0.00     0.010 A 
ATOM     38  C   UNL     1     -13.468  -3.400   1.706  1.00  0.00    -0.014 A 
BRANCH  38  39
ATOM     39  C   UNL     1     -14.367  -2.569   2.543  1.00  0.00     0.031 A 
ATOM     40  C   UNL     1     -15.784  -2.351   2.086  1.00  0.00     0.074 A 
ATOM     41  C   UNL     1     -13.943  -2.034   3.702  1.00  0.00     0.049 A 
ATOM     42  N   UNL     1     -16.746  -1.677   2.659  1.00  0.00    -0.248 NA
ATOM     43  C   UNL     1     -16.168  -2.979   0.810  1.00  0.00     0.031 C 
ATOM     44  C   UNL     1     -12.596  -2.172   4.254  1.00  0.00     0.029 A 
ATOM     45  N   UNL     1     -14.602  -1.248   4.614  1.00  0.00    -0.354 N 
ATOM     46  C   UNL     1     -17.839  -1.776   1.806  1.00  0.00     0.074 A 
ATOM     47  C   UNL     1     -17.418  -2.564   0.668  1.00  0.00     0.031 C 
ATOM     48  C   UNL     1     -12.522  -1.473   5.400  1.00  0.00     0.029 A 
ATOM     49  C   UNL     1     -13.806  -0.820   5.649  1.00  0.00     0.049 A 
ATOM     50  H   UNL     1     -15.555  -1.012   4.534  1.00  0.00     0.167 HD
ATOM     51  C   UNL     1     -19.085  -1.270   1.960  1.00  0.00     0.034 A 
ATOM     52  C   UNL     1     -14.078   0.020   6.669  1.00  0.00     0.034 A 
ATOM     53  C   UNL     1     -19.506  -0.494   3.095  1.00  0.00     0.049 A 
ATOM     54  C   UNL     1     -15.466   0.594   6.802  1.00  0.00     0.074 A 
ATOM     55  C   UNL     1     -20.761   0.023   3.365  1.00  0.00     0.029 A 
ATOM     56  N   UNL     1     -18.681  -0.102   4.138  1.00  0.00    -0.354 N 
ATOM     57  N   UNL     1     -16.522   0.390   6.052  1.00  0.00    -0.248 NA
ATOM     58  C   UNL     1     -15.708   1.487   7.946  1.00  0.00     0.031 C 
ATOM     59  C   UNL     1     -20.684   0.763   4.550  1.00  0.00     0.029 A 
ATOM     60  C   UNL     1     -19.393   0.666   5.043  1.00  0.00     0.049 A 
ATOM     61  H   UNL     1     -17.728  -0.337   4.222  1.00  0.00     0.167 HD
ATOM     62  C   UNL     1     -17.559   1.099   6.651  1.00  0.00     0.074 A 
ATOM     63  C   UNL     1     -17.009   1.714   7.841  1.00  0.00     0.031 C 
ATOM     64  C   UNL     1     -18.846   1.241   6.246  1.00  0.00     0.034 A 
BRANCH  51  65
ATOM     65  C   UNL     1     -20.092  -1.548   0.874  1.00  0.00     0.023 A 
ATOM     66  C   UNL     1     -20.617  -2.847   0.716  1.00  0.00     0.012 A 
ATOM     67  C   UNL     1     -20.560  -0.508   0.047  1.00  0.00     0.148 A 
ATOM     68  C   UNL     1     -21.568  -3.114  -0.268  1.00  0.00     0.002 A 
ATOM     69  C   UNL     1     -21.543  -0.771  -0.899  1.00  0.00     0.091 A 
ATOM     70  F   UNL     1     -20.033   0.715   0.198  1.00  0.00    -0.205 F 
ATOM     71  C   UNL     1     -22.039  -2.075  -1.067  1.00  0.00     0.022 A 
BRANCH  69  72
ATOM     72  S   UNL     1     -22.274   0.512  -1.921  1.00  0.00     0.127 S 
ATOM     73  O   UNL     1     -21.781   0.149  -3.248  1.00  0.00    -0.237 OA
ATOM     74  O   UNL     1     -23.705   0.285  -1.719  1.00  0.00    -0.237 OA
ATOM     75  O   UNL     1     -21.777   1.777  -1.397  1.00  0.00    -0.744 OA
ENDBRANCH  69  72
ENDBRANCH  51  65
BRANCH  52  76
ATOM     76  C   UNL     1     -13.018   0.361   7.661  1.00  0.00     0.023 A 
ATOM     77  C   UNL     1     -13.141  -0.074   8.995  1.00  0.00     0.012 A 
ATOM     78  C   UNL     1     -11.891   1.119   7.288  1.00  0.00     0.148 A 
ATOM     79  C   UNL     1     -12.181   0.271   9.948  1.00  0.00     0.002 A 
ATOM     80  C   UNL     1     -10.909   1.408   8.227  1.00  0.00     0.091 A 
ATOM     81  F   UNL     1     -11.801   1.538   6.019  1.00  0.00    -0.205 F 
ATOM     82  C   UNL     1     -11.061   1.003   9.562  1.00  0.00     0.022 A 
BRANCH  80  83
ATOM     83  S   UNL     1      -9.373   2.232   7.794  1.00  0.00     0.127 S 
ATOM     84  O   UNL     1      -9.516   3.512   8.484  1.00  0.00    -0.237 OA
ATOM     85  O   UNL     1      -8.376   1.329   8.369  1.00  0.00    -0.237 OA
ATOM     86  O   UNL     1      -9.357   2.298   6.339  1.00  0.00    -0.744 OA
ENDBRANCH  80  83
ENDBRANCH  52  76
BRANCH  64  87
ATOM     87  C   UNL     1     -19.766   2.063   7.116  1.00  0.00     0.023 A 
ATOM     88  C   UNL     1     -19.592   3.458   7.208  1.00  0.00     0.012 A 
ATOM     89  C   UNL     1     -20.834   1.455   7.807  1.00  0.00     0.148 A 
ATOM     90  C   UNL     1     -20.433   4.228   8.012  1.00  0.00     0.002 A 
ATOM     91  C   UNL     1     -21.702   2.236   8.562  1.00  0.00     0.091 A 
ATOM     92  F   UNL     1     -20.978   0.125   7.721  1.00  0.00    -0.205 F 
ATOM     93  C   UNL     1     -21.493   3.619   8.680  1.00  0.00     0.022 A 
BRANCH  91  94
ATOM     94  S   UNL     1     -23.150   1.553   9.376  1.00  0.00     0.127 S 
ATOM     95  O   UNL     1     -22.754   1.605  10.782  1.00  0.00    -0.237 OA
ATOM     96  O   UNL     1     -24.195   2.507   9.001  1.00  0.00    -0.237 OA
ATOM     97  O   UNL     1     -23.328   0.216   8.826  1.00  0.00    -0.744 OA
ENDBRANCH  91  94
ENDBRANCH  64  87
ENDBRANCH  38  39
ENDBRANCH  31  33
ENDBRANCH  30  31
ENDBRANCH  29  30
ENDBRANCH  28  29
ENDBRANCH  27  28
ENDBRANCH  26  27
ENDBRANCH  25  26
ENDBRANCH  24  25
ENDBRANCH   1  24
TORSDOF 28
