REMARK SMILES N#Cc1ccc2c(c1)C=C(C(=O)OCCOCCOCCOCCOC(=O)c1ccc(-c3c4nc(c(-c5cccc(S(=O)(=O)[O-])c5F)c5ccc([nH]5)c(-c5cccc(S(=O)(=O)[O-])c5F)c5nc(c(-c6cccc(S(=O)(=O)[O-])c6F)c6ccc3[nH]6)C=C5)C=C4)cc1)[C@@H](C(F)(F)F)O2
REMARK SMILES IDX 20 1 19 2 18 3 17 4 16 5 15 6 14 7 13 8 11 9 12 10 10 11
REMARK SMILES IDX 3 12 4 13 8 14 5 15 7 16 6 17 9 18 96 19 91 20 2 21 1 22
REMARK SMILES IDX 92 23 93 24 94 25 95 26 21 27 22 28 23 29 24 30 25 31 26 32
REMARK SMILES IDX 27 33 28 34 29 35 90 36 30 37 89 38 31 39 32 40 33 41 83 42
REMARK SMILES IDX 34 43 88 44 82 45 84 46 35 47 87 48 81 49 80 50 36 52 68 53
REMARK SMILES IDX 48 54 67 55 49 56 52 57 66 58 85 59 50 60 51 61 65 63 86 64
REMARK SMILES IDX 53 65 37 66 38 67 46 68 39 69 41 70 47 71 40 72 42 73 43 74
REMARK SMILES IDX 44 75 45 76 69 77 70 78 78 79 71 80 73 81 79 82 72 83 74 84
REMARK SMILES IDX 75 85 76 86 77 87 54 88 55 89 63 90 56 91 58 92 64 93 57 94
REMARK SMILES IDX 59 95 60 96 61 97 62 98
REMARK H PARENT 84 51 52 62
REMARK Flexibility Score: inf
ROOT
ATOM      1  C   UNL     1      10.925  -4.664   2.922  1.00  0.00     0.188 C 
ENDROOT
BRANCH   1   2
ATOM      2  O   UNL     1      10.124  -3.752   2.170  1.00  0.00    -0.377 OA
BRANCH   2   3
ATOM      3  C   UNL     1       8.717  -3.884   2.194  1.00  0.00     0.188 C 
BRANCH   3   4
ATOM      4  C   UNL     1       8.138  -5.084   1.415  1.00  0.00     0.188 C 
BRANCH   4   5
ATOM      5  O   UNL     1       9.005  -6.170   1.164  1.00  0.00    -0.376 OA
BRANCH   5   6
ATOM      6  C   UNL     1       9.961  -6.196   0.120  1.00  0.00     0.202 C 
BRANCH   6   7
ATOM      7  C   UNL     1      10.426  -5.002  -0.733  1.00  0.00     0.261 C 
BRANCH   7   8
ATOM      8  O   UNL     1       9.742  -3.765  -0.562  1.00  0.00    -0.460 OA
BRANCH   8   9
ATOM      9  C   UNL     1       8.643  -3.584  -1.316  1.00  0.00     0.338 C 
ATOM     10  O   UNL     1       8.174  -4.357  -2.132  1.00  0.00    -0.246 OA
BRANCH   9  11
ATOM     11  C   UNL     1       7.969  -2.355  -0.848  1.00  0.00     0.087 C 
ATOM     12  C   UNL     1       3.864  -0.044   0.081  1.00  0.00     0.053 A 
ATOM     13  C   UNL     1       4.576   1.152   0.209  1.00  0.00     0.023 A 
ATOM     14  C   UNL     1       4.552  -1.242  -0.135  1.00  0.00     0.031 A 
ATOM     15  C   UNL     1       5.972   1.145   0.148  1.00  0.00     0.048 A 
ATOM     16  C   UNL     1       5.946  -1.236  -0.259  1.00  0.00     0.019 A 
ATOM     17  C   UNL     1       6.657  -0.048  -0.086  1.00  0.00     0.128 A 
ATOM     18  C   UNL     1       6.647  -2.440  -0.658  1.00  0.00     0.027 C 
ATOM     19  O   UNL     1       8.016   0.042  -0.149  1.00  0.00    -0.475 OA
ATOM     20  C   UNL     1       8.787  -1.121  -0.569  1.00  0.00     0.316 C 
BRANCH  12  21
ATOM     21  C   UNL     1       2.429  -0.043   0.127  1.00  0.00     0.099 C 
ATOM     22  N   UNL     1       1.273  -0.048   0.152  1.00  0.00    -0.192 NA
ENDBRANCH  12  21
BRANCH  20  23
ATOM     23  C   UNL     1       9.641  -0.720  -1.780  1.00  0.00     0.430 C 
ATOM     24  F   UNL     1      10.290   0.448  -1.562  1.00  0.00    -0.167 F 
ATOM     25  F   UNL     1      10.581  -1.647  -2.068  1.00  0.00    -0.167 F 
ATOM     26  F   UNL     1       8.878  -0.558  -2.887  1.00  0.00    -0.167 F 
ENDBRANCH  20  23
ENDBRANCH   9  11
ENDBRANCH   8   9
ENDBRANCH   7   8
ENDBRANCH   6   7
ENDBRANCH   5   6
ENDBRANCH   4   5
ENDBRANCH   3   4
ENDBRANCH   2   3
ENDBRANCH   1   2
BRANCH   1  27
ATOM     27  C   UNL     1      10.340  -5.908   3.642  1.00  0.00     0.188 C 
BRANCH  27  28
ATOM     28  O   UNL     1       8.963  -5.829   3.951  1.00  0.00    -0.376 OA
BRANCH  28  29
ATOM     29  C   UNL     1       8.516  -5.531   5.255  1.00  0.00     0.202 C 
BRANCH  29  30
ATOM     30  C   UNL     1       9.063  -4.314   6.013  1.00  0.00     0.261 C 
BRANCH  30  31
ATOM     31  O   UNL     1      10.452  -4.019   5.858  1.00  0.00    -0.460 OA
BRANCH  31  32
ATOM     32  C   UNL     1      11.337  -4.827   6.489  1.00  0.00     0.338 C 
ATOM     33  O   UNL     1      11.079  -5.809   7.157  1.00  0.00    -0.246 OA
BRANCH  32  34
ATOM     34  C   UNL     1      12.684  -4.403   6.041  1.00  0.00     0.060 A 
ATOM     35  C   UNL     1      13.101  -3.088   6.256  1.00  0.00     0.016 A 
ATOM     36  C   UNL     1      13.496  -5.297   5.330  1.00  0.00     0.016 A 
ATOM     37  C   UNL     1      14.345  -2.676   5.778  1.00  0.00     0.010 A 
ATOM     38  C   UNL     1      14.738  -4.877   4.841  1.00  0.00     0.010 A 
ATOM     39  C   UNL     1      15.181  -3.570   5.082  1.00  0.00    -0.014 A 
BRANCH  39  40
ATOM     40  C   UNL     1      16.583  -3.177   4.793  1.00  0.00     0.031 A 
ATOM     41  C   UNL     1      17.063  -2.841   3.414  1.00  0.00     0.074 A 
ATOM     42  C   UNL     1      17.441  -3.131   5.832  1.00  0.00     0.049 A 
ATOM     43  N   UNL     1      18.234  -2.384   3.051  1.00  0.00    -0.248 NA
ATOM     44  C   UNL     1      16.124  -3.041   2.300  1.00  0.00     0.031 C 
ATOM     45  C   UNL     1      17.101  -3.493   7.211  1.00  0.00     0.029 A 
ATOM     46  N   UNL     1      18.758  -2.760   5.899  1.00  0.00    -0.354 N 
ATOM     47  C   UNL     1      18.182  -2.243   1.671  1.00  0.00     0.074 A 
ATOM     48  C   UNL     1      16.865  -2.682   1.256  1.00  0.00     0.031 C 
ATOM     49  C   UNL     1      18.173  -3.298   7.991  1.00  0.00     0.029 A 
ATOM     50  C   UNL     1      19.282  -2.827   7.168  1.00  0.00     0.049 A 
ATOM     51  H   UNL     1      19.279  -2.473   5.114  1.00  0.00     0.167 HD
ATOM     52  C   UNL     1      19.139  -1.774   0.835  1.00  0.00     0.034 A 
ATOM     53  C   UNL     1      20.515  -2.541   7.628  1.00  0.00     0.034 A 
ATOM     54  C   UNL     1      20.446  -1.335   1.254  1.00  0.00     0.049 A 
ATOM     55  C   UNL     1      21.556  -2.026   6.680  1.00  0.00     0.074 A 
ATOM     56  C   UNL     1      21.452  -0.785   0.478  1.00  0.00     0.029 A 
ATOM     57  N   UNL     1      20.938  -1.415   2.547  1.00  0.00    -0.354 N 
ATOM     58  N   UNL     1      21.443  -1.776   5.399  1.00  0.00    -0.248 NA
ATOM     59  C   UNL     1      22.882  -1.729   7.239  1.00  0.00     0.031 C 
ATOM     60  C   UNL     1      22.565  -0.567   1.293  1.00  0.00     0.029 A 
ATOM     61  C   UNL     1      22.239  -0.943   2.586  1.00  0.00     0.049 A 
ATOM     62  H   UNL     1      20.437  -1.756   3.322  1.00  0.00     0.167 HD
ATOM     63  C   UNL     1      22.675  -1.275   5.000  1.00  0.00     0.074 A 
ATOM     64  C   UNL     1      23.517  -1.244   6.178  1.00  0.00     0.031 C 
ATOM     65  C   UNL     1      23.066  -0.883   3.764  1.00  0.00     0.034 A 
BRANCH  52  66
ATOM     66  C   UNL     1      18.815  -1.656  -0.630  1.00  0.00     0.023 A 
ATOM     67  C   UNL     1      18.009  -0.589  -1.073  1.00  0.00     0.012 A 
ATOM     68  C   UNL     1      19.416  -2.511  -1.575  1.00  0.00     0.148 A 
ATOM     69  C   UNL     1      17.800  -0.377  -2.436  1.00  0.00     0.002 A 
ATOM     70  C   UNL     1      19.223  -2.280  -2.932  1.00  0.00     0.091 A 
ATOM     71  F   UNL     1      20.180  -3.518  -1.128  1.00  0.00    -0.205 F 
ATOM     72  C   UNL     1      18.415  -1.215  -3.364  1.00  0.00     0.022 A 
BRANCH  70  73
ATOM     73  S   UNL     1      19.994  -3.280  -4.210  1.00  0.00     0.127 S 
ATOM     74  O   UNL     1      18.826  -3.892  -4.846  1.00  0.00    -0.237 OA
ATOM     75  O   UNL     1      20.671  -2.270  -5.023  1.00  0.00    -0.237 OA
ATOM     76  O   UNL     1      20.877  -4.209  -3.521  1.00  0.00    -0.744 OA
ENDBRANCH  70  73
ENDBRANCH  52  66
BRANCH  53  77
ATOM     77  C   UNL     1      20.790  -2.691   9.080  1.00  0.00     0.023 A 
ATOM     78  C   UNL     1      20.855  -1.546   9.895  1.00  0.00     0.012 A 
ATOM     79  C   UNL     1      20.889  -3.968   9.665  1.00  0.00     0.148 A 
ATOM     80  C   UNL     1      21.013  -1.672  11.276  1.00  0.00     0.002 A 
ATOM     81  C   UNL     1      21.014  -4.087  11.043  1.00  0.00     0.091 A 
ATOM     82  F   UNL     1      20.812  -5.038   8.862  1.00  0.00    -0.205 F 
ATOM     83  C   UNL     1      21.081  -2.939  11.850  1.00  0.00     0.022 A 
BRANCH  81  84
ATOM     84  S   UNL     1      21.033  -5.674  11.880  1.00  0.00     0.127 S 
ATOM     85  O   UNL     1      22.347  -5.656  12.520  1.00  0.00    -0.237 OA
ATOM     86  O   UNL     1      19.899  -5.541  12.795  1.00  0.00    -0.237 OA
ATOM     87  O   UNL     1      20.862  -6.677  10.839  1.00  0.00    -0.744 OA
ENDBRANCH  81  84
ENDBRANCH  53  77
BRANCH  65  88
ATOM     88  C   UNL     1      24.468  -0.365   3.591  1.00  0.00     0.023 A 
ATOM     89  C   UNL     1      25.544  -1.271   3.540  1.00  0.00     0.012 A 
ATOM     90  C   UNL     1      24.697   1.002   3.341  1.00  0.00     0.148 A 
ATOM     91  C   UNL     1      26.831  -0.823   3.243  1.00  0.00     0.002 A 
ATOM     92  C   UNL     1      25.976   1.438   3.015  1.00  0.00     0.091 A 
ATOM     93  F   UNL     1      23.654   1.843   3.397  1.00  0.00    -0.205 F 
ATOM     94  C   UNL     1      27.044   0.526   2.967  1.00  0.00     0.022 A 
BRANCH  92  95
ATOM     95  S   UNL     1      26.343   3.145   2.596  1.00  0.00     0.127 S 
ATOM     96  O   UNL     1      27.247   3.529   3.679  1.00  0.00    -0.237 OA
ATOM     97  O   UNL     1      26.980   3.011   1.286  1.00  0.00    -0.237 OA
ATOM     98  O   UNL     1      25.065   3.845   2.585  1.00  0.00    -0.744 OA
ENDBRANCH  92  95
ENDBRANCH  65  88
ENDBRANCH  39  40
ENDBRANCH  32  34
ENDBRANCH  31  32
ENDBRANCH  30  31
ENDBRANCH  29  30
ENDBRANCH  28  29
ENDBRANCH  27  28
ENDBRANCH   1  27
TORSDOF 25
