REMARK SMILES C=CCN1C(=O)/C(=C/c2ccc(OCC(=O)OCCOCCOCCOCCOC(=O)c3ccc(-c4c5nc(c(-c6cccc(S(=O)(=O)[O-])c6F)c6ccc([nH]6)c(-c6cccc(S(=O)(=O)[O-])c6F)c6nc(c(-c7cccc(S(=O)(=O)[O-])c7F)c7ccc4[nH]7)C=C6)C=C5)cc3)c(OC)c2)C(=O)[NH+]=C1S
REMARK SMILES IDX 22 1 21 2 20 3 19 4 18 5 17 6 15 7 16 8 14 9 13 10 12 11
REMARK SMILES IDX 9 12 10 13 98 14 11 15 95 16 8 17 4 18 5 19 102 20 6 21 7 22
REMARK SMILES IDX 101 23 99 24 100 26 3 27 2 28 1 29 103 30 96 32 97 33 23 34
REMARK SMILES IDX 24 35 25 36 26 37 27 38 28 39 29 40 30 41 31 42 32 43 33 44
REMARK SMILES IDX 94 45 34 46 93 47 35 48 36 49 37 50 87 51 38 52 92 53 86 54
REMARK SMILES IDX 88 55 39 56 91 57 85 58 84 59 40 61 72 62 52 63 71 64 53 65
REMARK SMILES IDX 56 66 70 67 89 68 54 69 55 70 69 72 90 73 57 74 41 75 42 76
REMARK SMILES IDX 50 77 43 78 45 79 51 80 44 81 46 82 47 83 48 84 49 85 73 86
REMARK SMILES IDX 74 87 82 88 75 89 77 90 83 91 76 92 78 93 79 94 80 95 81 96
REMARK SMILES IDX 58 97 59 98 67 99 60 100 62 101 68 102 61 103 63 104 64 105
REMARK SMILES IDX 65 106 66 107
REMARK H PARENT 101 25 103 31 88 60 56 71
REMARK Flexibility Score: inf
ROOT
ATOM      1  C   UNL     1      -2.804  -7.432   6.243  1.00  0.00     0.188 C 
ENDROOT
BRANCH   1   2
ATOM      2  C   UNL     1      -4.244  -7.275   5.659  1.00  0.00     0.188 C 
BRANCH   2   3
ATOM      3  O   UNL     1      -5.387  -7.374   6.499  1.00  0.00    -0.376 OA
BRANCH   3   4
ATOM      4  C   UNL     1      -5.216  -8.035   7.733  1.00  0.00     0.202 C 
BRANCH   4   5
ATOM      5  C   UNL     1      -4.774  -9.512   7.657  1.00  0.00     0.261 C 
BRANCH   5   6
ATOM      6  O   UNL     1      -3.941  -9.890   6.520  1.00  0.00    -0.461 OA
BRANCH   6   7
ATOM      7  C   UNL     1      -4.522 -10.278   5.350  1.00  0.00     0.344 C 
ATOM      8  O   UNL     1      -5.702 -10.607   5.266  1.00  0.00    -0.248 OA
BRANCH   7   9
ATOM      9  C   UNL     1      -3.529 -10.296   4.104  1.00  0.00     0.352 C 
BRANCH   9  10
ATOM     10  O   UNL     1      -2.416  -9.428   3.841  1.00  0.00    -0.478 OA
BRANCH  10  11
ATOM     11  C   UNL     1      -2.341  -8.411   2.906  1.00  0.00     0.162 A 
ATOM     12  C   UNL     1      -1.815  -5.884   1.522  1.00  0.00    -0.021 A 
ATOM     13  C   UNL     1      -0.777  -6.713   1.980  1.00  0.00     0.012 A 
ATOM     14  C   UNL     1      -3.103  -6.445   1.609  1.00  0.00     0.058 A 
ATOM     15  C   UNL     1      -1.037  -7.933   2.675  1.00  0.00     0.051 A 
ATOM     16  C   UNL     1      -3.374  -7.691   2.289  1.00  0.00     0.161 A 
BRANCH  12  17
ATOM     17  C   UNL     1      -1.518  -4.516   0.937  1.00  0.00     0.032 C 
ATOM     18  N   UNL     1      -1.568  -0.786   0.991  1.00  0.00    -0.183 N 
ATOM     19  C   UNL     1      -1.242  -2.060   0.473  1.00  0.00     0.349 C 
ATOM     20  C   UNL     1      -2.760  -0.658   1.687  1.00  0.00     0.318 C 
ATOM     21  O   UNL     1      -0.606  -2.248  -0.561  1.00  0.00    -0.240 OA
ATOM     22  C   UNL     1      -1.806  -3.220   1.271  1.00  0.00     0.154 C 
ATOM     23  N   UNL     1      -3.399  -1.680   2.140  1.00  0.00    -0.200 N 
ATOM     24  C   UNL     1      -2.485  -2.633   2.450  1.00  0.00     0.347 C 
ATOM     25  H   UNL     1      -4.375  -1.756   2.243  1.00  0.00     0.316 HD
ATOM     26  O   UNL     1      -1.987  -2.618   3.561  1.00  0.00    -0.241 OA
BRANCH  18  27
ATOM     27  C   UNL     1      -0.810   0.370   0.523  1.00  0.00     0.275 C 
BRANCH  27  28
ATOM     28  C   UNL     1       0.649   0.231   0.846  1.00  0.00     0.011 C 
ATOM     29  C   UNL     1       1.595   0.106  -0.095  1.00  0.00     0.008 C 
ENDBRANCH  27  28
ENDBRANCH  18  27
BRANCH  20  30
ATOM     30  S   UNL     1      -3.461   0.895   2.043  1.00  0.00    -0.055 SA
ATOM     31  H   UNL     1      -2.686   1.876   1.506  1.00  0.00     0.116 HD
ENDBRANCH  20  30
ENDBRANCH  12  17
BRANCH  16  32
ATOM     32  O   UNL     1      -4.634  -8.214   2.409  1.00  0.00    -0.493 OA
ATOM     33  C   UNL     1      -5.721  -7.336   2.161  1.00  0.00     0.278 C 
ENDBRANCH  16  32
ENDBRANCH  10  11
ENDBRANCH   9  10
ENDBRANCH   7   9
ENDBRANCH   6   7
ENDBRANCH   5   6
ENDBRANCH   4   5
ENDBRANCH   3   4
ENDBRANCH   2   3
ENDBRANCH   1   2
BRANCH   1  34
ATOM     34  O   UNL     1      -2.681  -6.928   7.553  1.00  0.00    -0.377 OA
BRANCH  34  35
ATOM     35  C   UNL     1      -2.135  -5.630   7.627  1.00  0.00     0.188 C 
BRANCH  35  36
ATOM     36  C   UNL     1      -2.953  -4.518   6.956  1.00  0.00     0.188 C 
BRANCH  36  37
ATOM     37  O   UNL     1      -3.263  -4.515   5.575  1.00  0.00    -0.376 OA
BRANCH  37  38
ATOM     38  C   UNL     1      -2.411  -4.962   4.543  1.00  0.00     0.202 C 
BRANCH  38  39
ATOM     39  C   UNL     1      -0.893  -4.804   4.554  1.00  0.00     0.261 C 
BRANCH  39  40
ATOM     40  O   UNL     1      -0.451  -4.271   5.769  1.00  0.00    -0.460 OA
BRANCH  40  41
ATOM     41  C   UNL     1       0.268  -3.137   5.775  1.00  0.00     0.338 C 
ATOM     42  O   UNL     1       0.577  -2.382   4.898  1.00  0.00    -0.246 OA
BRANCH  41  43
ATOM     43  C   UNL     1       0.820  -3.252   7.122  1.00  0.00     0.060 A 
ATOM     44  C   UNL     1       0.033  -2.925   8.231  1.00  0.00     0.016 A 
ATOM     45  C   UNL     1       2.017  -3.964   7.231  1.00  0.00     0.016 A 
ATOM     46  C   UNL     1       0.483  -3.271   9.491  1.00  0.00     0.010 A 
ATOM     47  C   UNL     1       2.469  -4.306   8.488  1.00  0.00     0.010 A 
ATOM     48  C   UNL     1       1.721  -3.913   9.610  1.00  0.00    -0.014 A 
BRANCH  48  49
ATOM     49  C   UNL     1       2.383  -3.919  10.915  1.00  0.00     0.031 A 
ATOM     50  C   UNL     1       3.359  -2.812  11.168  1.00  0.00     0.074 A 
ATOM     51  C   UNL     1       2.123  -4.893  11.797  1.00  0.00     0.049 A 
ATOM     52  N   UNL     1       4.120  -2.607  12.202  1.00  0.00    -0.248 NA
ATOM     53  C   UNL     1       3.508  -1.803  10.098  1.00  0.00     0.031 C 
ATOM     54  C   UNL     1       1.186  -5.997  11.587  1.00  0.00     0.029 A 
ATOM     55  N   UNL     1       2.655  -5.123  13.032  1.00  0.00    -0.354 N 
ATOM     56  C   UNL     1       4.864  -1.477  11.894  1.00  0.00     0.074 A 
ATOM     57  C   UNL     1       4.474  -1.038  10.577  1.00  0.00     0.031 C 
ATOM     58  C   UNL     1       1.239  -6.816  12.652  1.00  0.00     0.029 A 
ATOM     59  C   UNL     1       2.232  -6.303  13.591  1.00  0.00     0.049 A 
ATOM     60  H   UNL     1       3.279  -4.506  13.477  1.00  0.00     0.167 HD
ATOM     61  C   UNL     1       5.792  -0.864  12.658  1.00  0.00     0.034 A 
ATOM     62  C   UNL     1       2.643  -6.902  14.723  1.00  0.00     0.034 A 
ATOM     63  C   UNL     1       6.151  -1.334  13.963  1.00  0.00     0.049 A 
ATOM     64  C   UNL     1       3.678  -6.194  15.556  1.00  0.00     0.074 A 
ATOM     65  C   UNL     1       7.034  -0.778  14.866  1.00  0.00     0.029 A 
ATOM     66  N   UNL     1       5.657  -2.497  14.537  1.00  0.00    -0.354 N 
ATOM     67  N   UNL     1       4.290  -5.056  15.319  1.00  0.00    -0.248 NA
ATOM     68  C   UNL     1       4.054  -6.826  16.825  1.00  0.00     0.031 C 
ATOM     69  C   UNL     1       7.108  -1.632  15.970  1.00  0.00     0.029 A 
ATOM     70  C   UNL     1       6.230  -2.690  15.778  1.00  0.00     0.049 A 
ATOM     71  H   UNL     1       4.995  -3.096  14.121  1.00  0.00     0.167 HD
ATOM     72  C   UNL     1       5.096  -4.816  16.424  1.00  0.00     0.074 A 
ATOM     73  C   UNL     1       4.876  -5.921  17.338  1.00  0.00     0.031 C 
ATOM     74  C   UNL     1       5.947  -3.788  16.667  1.00  0.00     0.034 A 
BRANCH  61  75
ATOM     75  C   UNL     1       6.477   0.349  12.093  1.00  0.00     0.023 A 
ATOM     76  C   UNL     1       5.766   1.556  11.928  1.00  0.00     0.012 A 
ATOM     77  C   UNL     1       7.841   0.297  11.752  1.00  0.00     0.148 A 
ATOM     78  C   UNL     1       6.398   2.685  11.409  1.00  0.00     0.002 A 
ATOM     79  C   UNL     1       8.477   1.440  11.284  1.00  0.00     0.091 A 
ATOM     80  F   UNL     1       8.487  -0.870  11.880  1.00  0.00    -0.205 F 
ATOM     81  C   UNL     1       7.755   2.631  11.100  1.00  0.00     0.022 A 
BRANCH  79  82
ATOM     82  S   UNL     1      10.236   1.493  10.933  1.00  0.00     0.127 S 
ATOM     83  O   UNL     1      10.242   1.714   9.487  1.00  0.00    -0.237 OA
ATOM     84  O   UNL     1      10.669   2.642  11.728  1.00  0.00    -0.237 OA
ATOM     85  O   UNL     1      10.775   0.211  11.365  1.00  0.00    -0.744 OA
ENDBRANCH  79  82
ENDBRANCH  61  75
BRANCH  62  86
ATOM     86  C   UNL     1       2.069  -8.214  15.127  1.00  0.00     0.023 A 
ATOM     87  C   UNL     1       1.243  -8.298  16.264  1.00  0.00     0.012 A 
ATOM     88  C   UNL     1       2.316  -9.376  14.369  1.00  0.00     0.148 A 
ATOM     89  C   UNL     1       0.704  -9.523  16.660  1.00  0.00     0.002 A 
ATOM     90  C   UNL     1       1.730 -10.581  14.738  1.00  0.00     0.091 A 
ATOM     91  F   UNL     1       3.110  -9.277  13.295  1.00  0.00    -0.205 F 
ATOM     92  C   UNL     1       0.939 -10.661  15.893  1.00  0.00     0.022 A 
BRANCH  90  93
ATOM     93  S   UNL     1       1.876 -12.067  13.739  1.00  0.00     0.127 S 
ATOM     94  O   UNL     1       2.729 -12.906  14.576  1.00  0.00    -0.237 OA
ATOM     95  O   UNL     1       0.483 -12.504  13.644  1.00  0.00    -0.237 OA
ATOM     96  O   UNL     1       2.458 -11.637  12.475  1.00  0.00    -0.744 OA
ENDBRANCH  90  93
ENDBRANCH  62  86
BRANCH  74  97
ATOM     97  C   UNL     1       6.661  -3.787  17.990  1.00  0.00     0.023 A 
ATOM     98  C   UNL     1       7.695  -4.710  18.236  1.00  0.00     0.012 A 
ATOM     99  C   UNL     1       6.354  -2.808  18.954  1.00  0.00     0.148 A 
ATOM    100  C   UNL     1       8.388  -4.684  19.444  1.00  0.00     0.002 A 
ATOM    101  C   UNL     1       7.090  -2.750  20.129  1.00  0.00     0.091 A 
ATOM    102  F   UNL     1       5.356  -1.949  18.700  1.00  0.00    -0.205 F 
ATOM    103  C   UNL     1       8.095  -3.696  20.383  1.00  0.00     0.022 A 
BRANCH 101 104
ATOM    104  S   UNL     1       6.858  -1.447  21.341  1.00  0.00     0.127 S 
ATOM    105  O   UNL     1       6.248  -2.179  22.450  1.00  0.00    -0.237 OA
ATOM    106  O   UNL     1       8.231  -1.004  21.583  1.00  0.00    -0.237 OA
ATOM    107  O   UNL     1       6.004  -0.452  20.707  1.00  0.00    -0.744 OA
ENDBRANCH 101 104
ENDBRANCH  74  97
ENDBRANCH  48  49
ENDBRANCH  41  43
ENDBRANCH  40  41
ENDBRANCH  39  40
ENDBRANCH  38  39
ENDBRANCH  37  38
ENDBRANCH  36  37
ENDBRANCH  35  36
ENDBRANCH  34  35
ENDBRANCH   1  34
TORSDOF 30
