REMARK SMILES C[C@@H]1C[C@@H](C)CN(C(=O)CCn2ccc(C(=O)OCCOCCOCCOCCOC(=O)c3ccc(-c4c5nc(c(-c6cccc(S(=O)(=O)[O-])c6F)c6ccc([nH]6)c(-c6cccc(S(=O)(=O)[O-])c6F)c6nc(c(-c7cccc(S(=O)(=O)[O-])c7F)c7ccc4[nH]7)C=C6)C=C5)cc3)n2)C1
REMARK SMILES IDX 24 1 23 2 22 3 21 4 20 5 19 6 18 7 16 8 17 9 15 10 12 11
REMARK SMILES IDX 13 12 96 13 14 14 11 15 10 16 8 17 1 18 2 19 3 20 97 21 4 22
REMARK SMILES IDX 7 23 6 24 5 25 9 26 25 27 26 28 27 29 28 30 29 31 30 32
REMARK SMILES IDX 31 33 32 34 33 35 34 36 95 37 35 38 94 39 36 40 37 41 38 42
REMARK SMILES IDX 88 43 39 44 93 45 87 46 89 47 40 48 92 49 86 50 85 51 41 53
REMARK SMILES IDX 73 54 53 55 72 56 54 57 57 58 71 59 90 60 55 61 56 62 70 64
REMARK SMILES IDX 91 65 58 66 42 67 43 68 51 69 44 70 46 71 52 72 45 73 47 74
REMARK SMILES IDX 48 75 49 76 50 77 74 78 75 79 83 80 76 81 78 82 84 83 77 84
REMARK SMILES IDX 79 85 80 86 81 87 82 88 59 89 60 90 68 91 61 92 63 93 69 94
REMARK SMILES IDX 62 95 64 96 65 97 66 98 67 99
REMARK H PARENT 89 52 57 63
REMARK Flexibility Score: inf
ROOT
ATOM      1  O   UNL     1      -2.461  -2.995  -0.318  1.00  0.00    -0.377 OA
ENDROOT
BRANCH   1   2
ATOM      2  C   UNL     1      -3.219  -3.990   0.361  1.00  0.00     0.188 C 
BRANCH   2   3
ATOM      3  C   UNL     1      -2.638  -4.188   1.759  1.00  0.00     0.188 C 
BRANCH   3   4
ATOM      4  O   UNL     1      -3.210  -3.291   2.716  1.00  0.00    -0.376 OA
BRANCH   4   5
ATOM      5  C   UNL     1      -2.804  -1.927   2.592  1.00  0.00     0.202 C 
BRANCH   5   6
ATOM      6  C   UNL     1      -1.600  -1.575   3.469  1.00  0.00     0.261 C 
BRANCH   6   7
ATOM      7  O   UNL     1      -0.338  -1.988   2.914  1.00  0.00    -0.458 OA
BRANCH   7   8
ATOM      8  C   UNL     1       0.260  -3.069   3.501  1.00  0.00     0.358 C 
ATOM      9  O   UNL     1      -0.286  -3.794   4.327  1.00  0.00    -0.244 OA
BRANCH   8  10
ATOM     10  C   UNL     1       1.631  -3.328   3.022  1.00  0.00     0.170 A 
ATOM     11  N   UNL     1       3.568  -3.061   2.156  1.00  0.00    -0.271 N 
ATOM     12  C   UNL     1       3.525  -4.383   2.497  1.00  0.00     0.109 A 
ATOM     13  N   UNL     1       2.454  -2.387   2.514  1.00  0.00    -0.166 NA
ATOM     14  C   UNL     1       2.288  -4.589   3.058  1.00  0.00     0.057 A 
BRANCH  11  15
ATOM     15  C   UNL     1       4.694  -2.372   1.537  1.00  0.00     0.154 C 
BRANCH  15  16
ATOM     16  C   UNL     1       4.978  -2.809   0.097  1.00  0.00     0.124 C 
BRANCH  16  17
ATOM     17  C   UNL     1       4.392  -1.808  -0.879  1.00  0.00     0.224 C 
ATOM     18  C   UNL     1       1.530  -0.049  -0.233  1.00  0.00     0.009 C 
ATOM     19  C   UNL     1       1.245  -0.860  -1.502  1.00  0.00     0.006 C 
ATOM     20  C   UNL     1       0.513  -2.186  -1.181  1.00  0.00     0.010 C 
ATOM     21  C   UNL     1       2.535  -1.107  -2.311  1.00  0.00     0.122 C 
ATOM     22  C   UNL     1       1.438  -3.328  -0.731  1.00  0.00     0.006 C 
ATOM     23  N   UNL     1       3.317  -2.167  -1.675  1.00  0.00    -0.342 N 
ATOM     24  C   UNL     1       2.632  -3.452  -1.669  1.00  0.00     0.122 C 
ATOM     25  C   UNL     1       0.716  -4.658  -0.569  1.00  0.00     0.009 C 
ATOM     26  O   UNL     1       4.872  -0.671  -0.896  1.00  0.00    -0.275 OA
ENDBRANCH  16  17
ENDBRANCH  15  16
ENDBRANCH  11  15
ENDBRANCH   8  10
ENDBRANCH   7   8
ENDBRANCH   6   7
ENDBRANCH   5   6
ENDBRANCH   4   5
ENDBRANCH   3   4
ENDBRANCH   2   3
ENDBRANCH   1   2
BRANCH   1  27
ATOM     27  C   UNL     1      -3.163  -2.232  -1.296  1.00  0.00     0.188 C 
BRANCH  27  28
ATOM     28  C   UNL     1      -4.204  -2.985  -2.130  1.00  0.00     0.188 C 
BRANCH  28  29
ATOM     29  O   UNL     1      -3.870  -4.287  -2.611  1.00  0.00    -0.376 OA
BRANCH  29  30
ATOM     30  C   UNL     1      -2.544  -4.544  -3.066  1.00  0.00     0.202 C 
BRANCH  30  31
ATOM     31  C   UNL     1      -2.213  -4.007  -4.446  1.00  0.00     0.261 C 
BRANCH  31  32
ATOM     32  O   UNL     1      -1.904  -2.620  -4.349  1.00  0.00    -0.460 OA
BRANCH  32  33
ATOM     33  C   UNL     1      -2.870  -1.785  -4.781  1.00  0.00     0.338 C 
ATOM     34  O   UNL     1      -4.002  -2.082  -5.120  1.00  0.00    -0.246 OA
BRANCH  33  35
ATOM     35  C   UNL     1      -2.304  -0.437  -4.924  1.00  0.00     0.060 A 
ATOM     36  C   UNL     1      -3.169   0.521  -5.454  1.00  0.00     0.016 A 
ATOM     37  C   UNL     1      -0.912  -0.257  -4.902  1.00  0.00     0.016 A 
ATOM     38  C   UNL     1      -2.625   1.513  -6.235  1.00  0.00     0.010 A 
ATOM     39  C   UNL     1      -0.369   0.736  -5.684  1.00  0.00     0.010 A 
ATOM     40  C   UNL     1      -1.241   1.518  -6.437  1.00  0.00    -0.014 A 
BRANCH  40  41
ATOM     41  C   UNL     1      -0.767   2.242  -7.596  1.00  0.00     0.031 A 
ATOM     42  C   UNL     1      -0.637   3.696  -7.446  1.00  0.00     0.074 A 
ATOM     43  C   UNL     1      -0.434   1.612  -8.738  1.00  0.00     0.049 A 
ATOM     44  N   UNL     1      -1.305   4.615  -8.059  1.00  0.00    -0.248 NA
ATOM     45  C   UNL     1       0.303   4.178  -6.430  1.00  0.00     0.031 C 
ATOM     46  C   UNL     1      -0.194   0.180  -8.937  1.00  0.00     0.029 A 
ATOM     47  N   UNL     1      -0.100   2.163  -9.937  1.00  0.00    -0.354 N 
ATOM     48  C   UNL     1      -0.737   5.810  -7.640  1.00  0.00     0.074 A 
ATOM     49  C   UNL     1       0.145   5.495  -6.543  1.00  0.00     0.031 C 
ATOM     50  C   UNL     1       0.486   0.012 -10.092  1.00  0.00     0.029 A 
ATOM     51  C   UNL     1       0.600   1.298 -10.761  1.00  0.00     0.049 A 
ATOM     52  H   UNL     1      -0.332   3.085 -10.193  1.00  0.00     0.167 HD
ATOM     53  C   UNL     1      -0.871   6.965  -8.341  1.00  0.00     0.034 A 
ATOM     54  C   UNL     1       1.307   1.642 -11.859  1.00  0.00     0.034 A 
ATOM     55  C   UNL     1      -1.897   6.905  -9.342  1.00  0.00     0.049 A 
ATOM     56  C   UNL     1       0.834   2.970 -12.315  1.00  0.00     0.074 A 
ATOM     57  C   UNL     1      -3.263   6.720  -9.337  1.00  0.00     0.029 A 
ATOM     58  N   UNL     1      -1.492   6.744 -10.643  1.00  0.00    -0.354 N 
ATOM     59  N   UNL     1      -0.341   3.197 -12.834  1.00  0.00    -0.248 NA
ATOM     60  C   UNL     1       1.566   4.154 -11.893  1.00  0.00     0.031 C 
ATOM     61  C   UNL     1      -3.563   6.065 -10.566  1.00  0.00     0.029 A 
ATOM     62  C   UNL     1      -2.358   5.867 -11.244  1.00  0.00     0.049 A 
ATOM     63  H   UNL     1      -0.719   7.180 -11.069  1.00  0.00     0.167 HD
ATOM     64  C   UNL     1      -0.663   4.488 -12.433  1.00  0.00     0.074 A 
ATOM     65  C   UNL     1       0.600   5.070 -11.998  1.00  0.00     0.031 C 
ATOM     66  C   UNL     1      -1.960   4.863 -12.215  1.00  0.00     0.034 A 
BRANCH  53  67
ATOM     67  C   UNL     1       0.128   8.078  -8.279  1.00  0.00     0.023 A 
ATOM     68  C   UNL     1      -0.282   9.373  -8.646  1.00  0.00     0.012 A 
ATOM     69  C   UNL     1       1.504   7.870  -8.049  1.00  0.00     0.148 A 
ATOM     70  C   UNL     1       0.639  10.420  -8.752  1.00  0.00     0.002 A 
ATOM     71  C   UNL     1       2.398   8.932  -8.058  1.00  0.00     0.091 A 
ATOM     72  F   UNL     1       1.982   6.623  -7.925  1.00  0.00    -0.205 F 
ATOM     73  C   UNL     1       1.976  10.208  -8.430  1.00  0.00     0.022 A 
BRANCH  71  74
ATOM     74  S   UNL     1       4.087   8.673  -7.513  1.00  0.00     0.127 S 
ATOM     75  O   UNL     1       4.736   8.219  -8.737  1.00  0.00    -0.237 OA
ATOM     76  O   UNL     1       4.484  10.008  -7.061  1.00  0.00    -0.237 OA
ATOM     77  O   UNL     1       3.959   7.698  -6.435  1.00  0.00    -0.744 OA
ENDBRANCH  71  74
ENDBRANCH  53  67
BRANCH  54  78
ATOM     78  C   UNL     1       2.513   0.991 -12.413  1.00  0.00     0.023 A 
ATOM     79  C   UNL     1       2.835   1.159 -13.771  1.00  0.00     0.012 A 
ATOM     80  C   UNL     1       3.472   0.385 -11.569  1.00  0.00     0.148 A 
ATOM     81  C   UNL     1       4.075   0.745 -14.272  1.00  0.00     0.002 A 
ATOM     82  C   UNL     1       4.692  -0.048 -12.076  1.00  0.00     0.091 A 
ATOM     83  F   UNL     1       3.229   0.315 -10.252  1.00  0.00    -0.205 F 
ATOM     84  C   UNL     1       5.003   0.140 -13.427  1.00  0.00     0.022 A 
BRANCH  82  85
ATOM     85  S   UNL     1       5.911  -0.856 -11.030  1.00  0.00     0.127 S 
ATOM     86  O   UNL     1       6.457  -1.881 -11.922  1.00  0.00    -0.237 OA
ATOM     87  O   UNL     1       6.825   0.239 -10.725  1.00  0.00    -0.237 OA
ATOM     88  O   UNL     1       5.155  -1.396  -9.905  1.00  0.00    -0.744 OA
ENDBRANCH  82  85
ENDBRANCH  54  78
BRANCH  66  89
ATOM     89  C   UNL     1      -3.062   3.960 -12.726  1.00  0.00     0.023 A 
ATOM     90  C   UNL     1      -3.194   2.635 -12.261  1.00  0.00     0.012 A 
ATOM     91  C   UNL     1      -4.084   4.497 -13.531  1.00  0.00     0.148 A 
ATOM     92  C   UNL     1      -4.297   1.854 -12.613  1.00  0.00     0.002 A 
ATOM     93  C   UNL     1      -5.206   3.732 -13.840  1.00  0.00     0.091 A 
ATOM     94  F   UNL     1      -3.960   5.762 -13.962  1.00  0.00    -0.205 F 
ATOM     95  C   UNL     1      -5.310   2.406 -13.392  1.00  0.00     0.022 A 
BRANCH  93  96
ATOM     96  S   UNL     1      -6.610   4.435 -14.714  1.00  0.00     0.127 S 
ATOM     97  O   UNL     1      -6.365   4.007 -16.089  1.00  0.00    -0.237 OA
ATOM     98  O   UNL     1      -7.751   3.784 -14.067  1.00  0.00    -0.237 OA
ATOM     99  O   UNL     1      -6.539   5.872 -14.473  1.00  0.00    -0.744 OA
ENDBRANCH  93  96
ENDBRANCH  66  89
ENDBRANCH  40  41
ENDBRANCH  33  35
ENDBRANCH  32  33
ENDBRANCH  31  32
ENDBRANCH  30  31
ENDBRANCH  29  30
ENDBRANCH  28  29
ENDBRANCH  27  28
ENDBRANCH   1  27
TORSDOF 26
