REMARK SMILES CC[C@@H](C)CN(C)C(=O)NC(=O)CCC(=O)OCCOCCOCCOCCOC(=O)c1ccc(-c2c3nc(c(-c4cccc(S(=O)(=O)[O-])c4F)c4ccc([nH]4)c(-c4cccc(S(=O)(=O)[O-])c4F)c4nc(c(-c5cccc(S(=O)(=O)[O-])c5F)c5ccc2[nH]5)C=C4)C=C3)cc1
REMARK SMILES IDX 21 1 20 2 19 3 18 4 17 5 15 6 16 7 14 8 13 9 11 10 8 11 9 12
REMARK SMILES IDX 10 13 12 15 6 16 7 17 5 18 3 19 4 20 2 21 1 22 22 23 23 24
REMARK SMILES IDX 24 25 25 26 26 27 27 28 28 29 29 30 30 31 31 32 32 33 33 34
REMARK SMILES IDX 94 35 34 36 93 37 35 38 36 39 37 40 87 41 38 42 92 43 86 44
REMARK SMILES IDX 88 45 39 46 91 47 85 48 84 49 40 51 72 52 52 53 71 54 53 55
REMARK SMILES IDX 56 56 70 57 89 58 54 59 55 60 69 62 90 63 57 64 41 65 42 66
REMARK SMILES IDX 50 67 43 68 45 69 51 70 44 71 46 72 47 73 48 74 49 75 73 76
REMARK SMILES IDX 74 77 82 78 75 79 77 80 83 81 76 82 78 83 79 84 80 85 81 86
REMARK SMILES IDX 58 87 59 88 67 89 60 90 62 91 68 92 61 93 63 94 64 95 65 96
REMARK SMILES IDX 66 97
REMARK H PARENT 10 14 88 50 56 61
REMARK Flexibility Score: inf
ROOT
ATOM      1  C   UNL     1      -0.505  -3.049  -2.180  1.00  0.00     0.188 C 
ENDROOT
BRANCH   1   2
ATOM      2  O   UNL     1       0.371  -1.944  -1.957  1.00  0.00    -0.376 OA
BRANCH   2   3
ATOM      3  C   UNL     1       0.468  -0.642  -2.577  1.00  0.00     0.202 C 
BRANCH   3   4
ATOM      4  C   UNL     1       2.021  -0.082  -2.566  1.00  0.00     0.261 C 
BRANCH   4   5
ATOM      5  O   UNL     1       3.039  -0.611  -3.499  1.00  0.00    -0.463 OA
BRANCH   5   6
ATOM      6  C   UNL     1       4.168  -1.176  -2.982  1.00  0.00     0.306 C 
ATOM      7  O   UNL     1       4.462  -1.170  -1.785  1.00  0.00    -0.252 OA
BRANCH   6   8
ATOM      8  C   UNL     1       5.148  -1.804  -3.977  1.00  0.00     0.132 C 
BRANCH   8   9
ATOM      9  C   UNL     1       4.825  -2.687  -5.173  1.00  0.00     0.112 C 
BRANCH   9  10
ATOM     10  C   UNL     1       3.495  -2.621  -5.840  1.00  0.00     0.228 C 
ATOM     11  C   UNL     1       2.067  -2.930  -4.037  1.00  0.00     0.323 C 
ATOM     12  O   UNL     1       1.223  -2.075  -4.238  1.00  0.00    -0.248 OA
ATOM     13  N   UNL     1       2.507  -3.345  -5.248  1.00  0.00    -0.278 N 
ATOM     14  H   UNL     1       2.126  -4.142  -5.684  1.00  0.00     0.174 HD
ATOM     15  O   UNL     1       3.317  -2.061  -6.918  1.00  0.00    -0.275 OA
BRANCH  11  16
ATOM     16  N   UNL     1       2.497  -3.578  -2.865  1.00  0.00    -0.327 N 
ATOM     17  C   UNL     1       2.890  -4.960  -3.129  1.00  0.00     0.148 C 
BRANCH  16  18
ATOM     18  C   UNL     1       2.392  -3.368  -1.293  1.00  0.00     0.124 C 
BRANCH  18  19
ATOM     19  C   UNL     1       2.073  -2.374   0.054  1.00  0.00     0.005 C 
ATOM     20  C   UNL     1       1.503  -3.383   1.112  1.00  0.00     0.009 C 
BRANCH  19  21
ATOM     21  C   UNL     1       1.171  -1.111   0.383  1.00  0.00     0.002 C 
ATOM     22  C   UNL     1       1.686  -0.243   1.549  1.00  0.00     0.004 C 
ENDBRANCH  19  21
ENDBRANCH  18  19
ENDBRANCH  16  18
ENDBRANCH  11  16
ENDBRANCH   9  10
ENDBRANCH   8   9
ENDBRANCH   6   8
ENDBRANCH   5   6
ENDBRANCH   4   5
ENDBRANCH   3   4
ENDBRANCH   2   3
ENDBRANCH   1   2
BRANCH   1  23
ATOM     23  C   UNL     1      -0.833  -3.635  -3.563  1.00  0.00     0.188 C 
BRANCH  23  24
ATOM     24  O   UNL     1      -1.745  -2.916  -4.361  1.00  0.00    -0.377 OA
BRANCH  24  25
ATOM     25  C   UNL     1      -2.579  -2.044  -3.634  1.00  0.00     0.188 C 
BRANCH  25  26
ATOM     26  C   UNL     1      -3.632  -2.703  -2.727  1.00  0.00     0.188 C 
BRANCH  26  27
ATOM     27  O   UNL     1      -3.662  -4.107  -2.563  1.00  0.00    -0.376 OA
BRANCH  27  28
ATOM     28  C   UNL     1      -3.808  -5.033  -3.626  1.00  0.00     0.202 C 
BRANCH  28  29
ATOM     29  C   UNL     1      -4.291  -4.755  -5.060  1.00  0.00     0.261 C 
BRANCH  29  30
ATOM     30  O   UNL     1      -4.272  -3.419  -5.542  1.00  0.00    -0.460 OA
BRANCH  30  31
ATOM     31  C   UNL     1      -5.386  -2.690  -5.317  1.00  0.00     0.338 C 
ATOM     32  O   UNL     1      -6.391  -3.052  -4.723  1.00  0.00    -0.246 OA
BRANCH  31  33
ATOM     33  C   UNL     1      -5.082  -1.292  -5.689  1.00  0.00     0.060 A 
ATOM     34  C   UNL     1      -5.259  -0.297  -4.713  1.00  0.00     0.016 A 
ATOM     35  C   UNL     1      -4.492  -0.983  -6.919  1.00  0.00     0.016 A 
ATOM     36  C   UNL     1      -4.840   1.007  -4.963  1.00  0.00     0.010 A 
ATOM     37  C   UNL     1      -4.138   0.338  -7.195  1.00  0.00     0.010 A 
ATOM     38  C   UNL     1      -4.340   1.339  -6.228  1.00  0.00    -0.014 A 
BRANCH  38  39
ATOM     39  C   UNL     1      -4.373   2.757  -6.644  1.00  0.00     0.031 A 
ATOM     40  C   UNL     1      -5.676   3.257  -7.207  1.00  0.00     0.074 A 
ATOM     41  C   UNL     1      -3.310   3.572  -6.536  1.00  0.00     0.049 A 
ATOM     42  N   UNL     1      -5.979   4.433  -7.683  1.00  0.00    -0.248 NA
ATOM     43  C   UNL     1      -6.791   2.291  -7.230  1.00  0.00     0.031 C 
ATOM     44  C   UNL     1      -2.008   3.207  -5.982  1.00  0.00     0.029 A 
ATOM     45  N   UNL     1      -3.161   4.881  -6.920  1.00  0.00    -0.354 N 
ATOM     46  C   UNL     1      -7.306   4.340  -8.085  1.00  0.00     0.074 A 
ATOM     47  C   UNL     1      -7.753   2.998  -7.797  1.00  0.00     0.031 C 
ATOM     48  C   UNL     1      -1.177   4.260  -6.101  1.00  0.00     0.029 A 
ATOM     49  C   UNL     1      -1.881   5.358  -6.763  1.00  0.00     0.049 A 
ATOM     50  H   UNL     1      -3.900   5.427  -7.275  1.00  0.00     0.167 HD
ATOM     51  C   UNL     1      -8.089   5.288  -8.643  1.00  0.00     0.034 A 
ATOM     52  C   UNL     1      -1.343   6.533  -7.147  1.00  0.00     0.034 A 
ATOM     53  C   UNL     1      -7.638   6.615  -8.946  1.00  0.00     0.049 A 
ATOM     54  C   UNL     1      -2.221   7.555  -7.830  1.00  0.00     0.074 A 
ATOM     55  C   UNL     1      -8.357   7.663  -9.488  1.00  0.00     0.029 A 
ATOM     56  N   UNL     1      -6.341   7.067  -8.759  1.00  0.00    -0.354 N 
ATOM     57  N   UNL     1      -3.505   7.500  -8.098  1.00  0.00    -0.248 NA
ATOM     58  C   UNL     1      -1.580   8.812  -8.245  1.00  0.00     0.031 C 
ATOM     59  C   UNL     1      -7.483   8.739  -9.668  1.00  0.00     0.029 A 
ATOM     60  C   UNL     1      -6.231   8.373  -9.198  1.00  0.00     0.049 A 
ATOM     61  H   UNL     1      -5.608   6.536  -8.371  1.00  0.00     0.167 HD
ATOM     62  C   UNL     1      -3.829   8.721  -8.683  1.00  0.00     0.074 A 
ATOM     63  C   UNL     1      -2.612   9.505  -8.708  1.00  0.00     0.031 C 
ATOM     64  C   UNL     1      -5.019   9.152  -9.172  1.00  0.00     0.034 A 
BRANCH  51  65
ATOM     65  C   UNL     1      -9.506   4.909  -8.970  1.00  0.00     0.023 A 
ATOM     66  C   UNL     1     -10.441   4.724  -7.931  1.00  0.00     0.012 A 
ATOM     67  C   UNL     1      -9.916   4.755 -10.307  1.00  0.00     0.148 A 
ATOM     68  C   UNL     1     -11.756   4.363  -8.217  1.00  0.00     0.002 A 
ATOM     69  C   UNL     1     -11.239   4.443 -10.587  1.00  0.00     0.091 A 
ATOM     70  F   UNL     1      -9.001   4.901 -11.277  1.00  0.00    -0.205 F 
ATOM     71  C   UNL     1     -12.157   4.234  -9.544  1.00  0.00     0.022 A 
BRANCH  69  72
ATOM     72  S   UNL     1     -11.872   4.328 -12.263  1.00  0.00     0.127 S 
ATOM     73  O   UNL     1     -12.168   2.900 -12.370  1.00  0.00    -0.237 OA
ATOM     74  O   UNL     1     -13.052   5.192 -12.202  1.00  0.00    -0.237 OA
ATOM     75  O   UNL     1     -10.807   4.811 -13.131  1.00  0.00    -0.744 OA
ENDBRANCH  69  72
ENDBRANCH  51  65
BRANCH  52  76
ATOM     76  C   UNL     1       0.101   6.819  -6.899  1.00  0.00     0.023 A 
ATOM     77  C   UNL     1       0.465   7.833  -5.992  1.00  0.00     0.012 A 
ATOM     78  C   UNL     1       1.113   6.104  -7.569  1.00  0.00     0.148 A 
ATOM     79  C   UNL     1       1.808   8.151  -5.780  1.00  0.00     0.002 A 
ATOM     80  C   UNL     1       2.450   6.389  -7.314  1.00  0.00     0.091 A 
ATOM     81  F   UNL     1       0.747   5.158  -8.445  1.00  0.00    -0.205 F 
ATOM     82  C   UNL     1       2.799   7.424  -6.433  1.00  0.00     0.022 A 
BRANCH  80  83
ATOM     83  S   UNL     1       3.798   5.439  -8.024  1.00  0.00     0.127 S 
ATOM     84  O   UNL     1       4.436   6.426  -8.892  1.00  0.00    -0.237 OA
ATOM     85  O   UNL     1       4.568   5.078  -6.833  1.00  0.00    -0.237 OA
ATOM     86  O   UNL     1       3.172   4.314  -8.706  1.00  0.00    -0.744 OA
ENDBRANCH  80  83
ENDBRANCH  52  76
BRANCH  64  87
ATOM     87  C   UNL     1      -5.082  10.543  -9.750  1.00  0.00     0.023 A 
ATOM     88  C   UNL     1      -4.472  10.816 -10.989  1.00  0.00     0.012 A 
ATOM     89  C   UNL     1      -5.827  11.553  -9.108  1.00  0.00     0.148 A 
ATOM     90  C   UNL     1      -4.572  12.082 -11.565  1.00  0.00     0.002 A 
ATOM     91  C   UNL     1      -5.967  12.796  -9.712  1.00  0.00     0.091 A 
ATOM     92  F   UNL     1      -6.393  11.275  -7.924  1.00  0.00    -0.205 F 
ATOM     93  C   UNL     1      -5.329  13.067 -10.933  1.00  0.00     0.022 A 
BRANCH  91  94
ATOM     94  S   UNL     1      -7.004  14.093  -9.026  1.00  0.00     0.127 S 
ATOM     95  O   UNL     1      -6.009  15.080  -8.609  1.00  0.00    -0.237 OA
ATOM     96  O   UNL     1      -7.809  14.489 -10.182  1.00  0.00    -0.237 OA
ATOM     97  O   UNL     1      -7.759  13.477  -7.944  1.00  0.00    -0.744 OA
ENDBRANCH  91  94
ENDBRANCH  64  87
ENDBRANCH  38  39
ENDBRANCH  31  33
ENDBRANCH  30  31
ENDBRANCH  29  30
ENDBRANCH  28  29
ENDBRANCH  27  28
ENDBRANCH  26  27
ENDBRANCH  25  26
ENDBRANCH  24  25
ENDBRANCH  23  24
ENDBRANCH   1  23
TORSDOF 29
