REMARK SMILES O=C(OCCOCCOCCOCCOC(=O)c1ccc(-c2c3nc(c(-c4cccc(S(=O)(=O)[O-])c4F)c4ccc([nH]4)c(-c4cccc(S(=O)(=O)[O-])c4F)c4nc(c(-c5cccc(S(=O)(=O)[O-])c5F)c5ccc2[nH]5)C=C4)C=C3)cc1)C1=Cc2cc(S(F)(F)(F)(F)F)cc(Br)c2O[C@H]1C(F)(F)F
REMARK SMILES IDX 10 1 9 2 8 3 7 4 6 5 5 6 4 7 3 8 2 9 1 10 81 11 82 12 97 13
REMARK SMILES IDX 83 14 96 15 84 16 95 17 85 18 93 19 92 20 94 21 98 22 99 23
REMARK SMILES IDX 100 24 101 25 86 26 87 27 88 28 89 29 90 30 91 31 11 32
REMARK SMILES IDX 12 33 13 34 14 35 15 36 16 37 17 38 18 39 19 40 80 41 20 42
REMARK SMILES IDX 79 43 21 44 22 45 23 46 73 47 24 48 78 49 72 50 74 51 25 52
REMARK SMILES IDX 77 53 71 54 70 55 26 57 58 58 38 59 57 60 39 61 42 62 56 63
REMARK SMILES IDX 75 64 40 65 41 66 55 68 76 69 43 70 27 71 28 72 36 73 29 74
REMARK SMILES IDX 31 75 37 76 30 77 32 78 33 79 34 80 35 81 59 82 60 83 68 84
REMARK SMILES IDX 61 85 63 86 69 87 62 88 64 89 65 90 66 91 67 92 44 93 45 94
REMARK SMILES IDX 53 95 46 96 48 97 54 98 47 99 49 100 50 101 51 102 52 103
REMARK H PARENT 74 56 42 67
REMARK Flexibility Score: inf
ROOT
ATOM      1  C   UNL     1       4.330  -2.374   1.490  1.00  0.00     0.188 C 
ENDROOT
BRANCH   1   2
ATOM      2  O   UNL     1       2.910  -2.374   1.490  1.00  0.00    -0.377 OA
BRANCH   2   3
ATOM      3  C   UNL     1       2.437  -2.538   0.161  1.00  0.00     0.188 C 
BRANCH   3   4
ATOM      4  C   UNL     1       2.943  -1.394  -0.702  1.00  0.00     0.188 C 
BRANCH   4   5
ATOM      5  O   UNL     1       4.363  -1.394  -0.702  1.00  0.00    -0.376 OA
BRANCH   5   6
ATOM      6  C   UNL     1       4.837  -1.230   0.626  1.00  0.00     0.202 C 
BRANCH   6   7
ATOM      7  C   UNL     1       4.330   0.089   1.186  1.00  0.00     0.261 C 
BRANCH   7   8
ATOM      8  O   UNL     1       2.910   0.089   1.186  1.00  0.00    -0.460 OA
BRANCH   8   9
ATOM      9  C   UNL     1       2.200  -0.061  -0.035  1.00  0.00     0.338 C 
ATOM     10  O   UNL     1       0.929  -0.061  -0.035  1.00  0.00    -0.246 OA
BRANCH   9  11
ATOM     11  C   UNL     1       2.960  -0.222  -1.341  1.00  0.00     0.087 C 
ATOM     12  C   UNL     1       4.320  -0.222  -1.341  1.00  0.00     0.027 C 
ATOM     13  C   UNL     1       2.200  -0.383  -2.648  1.00  0.00     0.316 C 
ATOM     14  C   UNL     1       5.080  -0.061  -0.035  1.00  0.00     0.020 A 
ATOM     15  O   UNL     1       3.487  -1.498   0.988  1.00  0.00    -0.474 OA
ATOM     16  C   UNL     1       6.167   0.796   0.020  1.00  0.00     0.036 A 
ATOM     17  C   UNL     1       4.696  -0.755   1.030  1.00  0.00     0.142 A 
ATOM     18  C   UNL     1       6.968   0.634   1.175  1.00  0.00     0.109 A 
ATOM     19  C   UNL     1       5.458  -0.759   2.174  1.00  0.00     0.062 A 
ATOM     20  C   UNL     1       6.578   0.018   2.276  1.00  0.00     0.044 A 
ATOM     21  Br  UNL     1       4.932  -1.898   3.680  1.00  0.00    -0.047 Br
BRANCH  13  22
ATOM     22  C   UNL     1       0.706  -0.349  -2.372  1.00  0.00     0.430 C 
ATOM     23  F   UNL     1       0.483   0.255  -1.208  1.00  0.00    -0.167 F 
ATOM     24  F   UNL     1       0.091   0.319  -3.344  1.00  0.00    -0.167 F 
ATOM     25  F   UNL     1       0.235  -1.593  -2.323  1.00  0.00    -0.167 F 
ENDBRANCH  13  22
BRANCH  18  26
ATOM     26  S   UNL     1       8.643   1.319   1.141  1.00  0.00     0.310 S 
ATOM     27  F   UNL     1       8.740   1.323   2.724  1.00  0.00    -0.094 F 
ATOM     28  F   UNL     1       8.024   2.764   1.243  1.00  0.00    -0.094 F 
ATOM     29  F   UNL     1      10.082   1.906   1.112  1.00  0.00    -0.094 F 
ATOM     30  F   UNL     1       9.248  -0.140   1.180  1.00  0.00    -0.094 F 
ATOM     31  F   UNL     1       7.193   0.705   1.284  1.00  0.00    -0.094 F 
ENDBRANCH  18  26
ENDBRANCH   9  11
ENDBRANCH   8   9
ENDBRANCH   7   8
ENDBRANCH   6   7
ENDBRANCH   5   6
ENDBRANCH   4   5
ENDBRANCH   3   4
ENDBRANCH   2   3
ENDBRANCH   1   2
BRANCH   1  32
ATOM     32  C   UNL     1       4.837  -3.694   0.930  1.00  0.00     0.188 C 
BRANCH  32  33
ATOM     33  O   UNL     1       4.363  -3.857  -0.398  1.00  0.00    -0.376 OA
BRANCH  33  34
ATOM     34  C   UNL     1       2.943  -3.857  -0.398  1.00  0.00     0.202 C 
BRANCH  34  35
ATOM     35  C   UNL     1       2.437  -5.002   0.465  1.00  0.00     0.261 C 
BRANCH  35  36
ATOM     36  O   UNL     1       2.910  -4.838   1.793  1.00  0.00    -0.460 OA
BRANCH  36  37
ATOM     37  C   UNL     1       4.306  -4.806   2.051  1.00  0.00     0.338 C 
ATOM     38  O   UNL     1       5.132  -4.924   1.092  1.00  0.00    -0.246 OA
BRANCH  37  39
ATOM     39  C   UNL     1       4.813  -4.631   3.473  1.00  0.00     0.060 A 
ATOM     40  C   UNL     1       5.859  -3.757   3.721  1.00  0.00     0.016 A 
ATOM     41  C   UNL     1       4.257  -5.335   4.452  1.00  0.00     0.016 A 
ATOM     42  C   UNL     1       6.444  -3.913   5.000  1.00  0.00     0.010 A 
ATOM     43  C   UNL     1       4.804  -5.334   5.712  1.00  0.00     0.010 A 
ATOM     44  C   UNL     1       5.875  -4.540   6.013  1.00  0.00    -0.014 A 
BRANCH  44  45
ATOM     45  C   UNL     1       6.384  -4.386   7.437  1.00  0.00     0.031 A 
ATOM     46  C   UNL     1       6.818  -5.534   8.104  1.00  0.00     0.074 A 
ATOM     47  C   UNL     1       6.404  -3.117   7.988  1.00  0.00     0.049 A 
ATOM     48  N   UNL     1       7.343  -5.614   9.327  1.00  0.00    -0.248 NA
ATOM     49  C   UNL     1       6.766  -6.888   7.533  1.00  0.00     0.031 C 
ATOM     50  C   UNL     1       5.976  -1.953   7.319  1.00  0.00     0.029 A 
ATOM     51  N   UNL     1       6.827  -2.748   9.246  1.00  0.00    -0.354 N 
ATOM     52  C   UNL     1       7.655  -6.880   9.613  1.00  0.00     0.074 A 
ATOM     53  C   UNL     1       7.283  -7.718   8.465  1.00  0.00     0.031 C 
ATOM     54  C   UNL     1       6.128  -0.901   8.165  1.00  0.00     0.029 A 
ATOM     55  C   UNL     1       6.654  -1.388   9.377  1.00  0.00     0.049 A 
ATOM     56  H   UNL     1       7.191  -3.352   9.933  1.00  0.00     0.167 HD
ATOM     57  C   UNL     1       8.238  -7.367  10.784  1.00  0.00     0.034 A 
ATOM     58  C   UNL     1       6.931  -0.599  10.482  1.00  0.00     0.034 A 
ATOM     59  C   UNL     1       8.555  -6.572  11.873  1.00  0.00     0.049 A 
ATOM     60  C   UNL     1       7.460  -1.096  11.676  1.00  0.00     0.074 A 
ATOM     61  C   UNL     1       9.149  -7.046  13.058  1.00  0.00     0.029 A 
ATOM     62  N   UNL     1       8.359  -5.216  12.013  1.00  0.00    -0.354 N 
ATOM     63  N   UNL     1       7.809  -2.355  11.946  1.00  0.00    -0.248 NA
ATOM     64  C   UNL     1       7.728  -0.276  12.864  1.00  0.00     0.031 C 
ATOM     65  C   UNL     1       9.301  -5.993  13.905  1.00  0.00     0.029 A 
ATOM     66  C   UNL     1       8.803  -4.843  13.262  1.00  0.00     0.049 A 
ATOM     67  H   UNL     1       7.968  -4.616  11.337  1.00  0.00     0.167 HD
ATOM     68  C   UNL     1       8.295  -2.441  13.186  1.00  0.00     0.074 A 
ATOM     69  C   UNL     1       8.243  -1.106  13.797  1.00  0.00     0.031 C 
ATOM     70  C   UNL     1       8.783  -3.579  13.831  1.00  0.00     0.034 A 
BRANCH  57  71
ATOM     71  C   UNL     1       8.541  -8.854  10.869  1.00  0.00     0.023 A 
ATOM     72  C   UNL     1       9.417  -9.438   9.968  1.00  0.00     0.012 A 
ATOM     73  C   UNL     1       7.964  -9.567  11.829  1.00  0.00     0.148 A 
ATOM     74  C   UNL     1       9.398 -10.853   9.985  1.00  0.00     0.002 A 
ATOM     75  C   UNL     1       8.099 -10.934  11.863  1.00  0.00     0.091 A 
ATOM     76  F   UNL     1       7.248  -8.952  12.767  1.00  0.00    -0.205 F 
ATOM     77  C   UNL     1       8.902 -11.584  10.967  1.00  0.00     0.022 A 
BRANCH  75  78
ATOM     78  S   UNL     1       7.202 -11.889  13.112  1.00  0.00     0.127 S 
ATOM     79  O   UNL     1       6.266 -12.882  12.420  1.00  0.00    -0.237 OA
ATOM     80  O   UNL     1       8.200 -12.652  13.986  1.00  0.00    -0.237 OA
ATOM     81  O   UNL     1       6.284 -10.827  14.089  1.00  0.00    -0.744 OA
ENDBRANCH  75  78
ENDBRANCH  57  71
BRANCH  58  82
ATOM     82  C   UNL     1       6.644   0.890  10.391  1.00  0.00     0.023 A 
ATOM     83  C   UNL     1       7.665   1.813  10.546  1.00  0.00     0.012 A 
ATOM     84  C   UNL     1       5.396   1.278  10.154  1.00  0.00     0.148 A 
ATOM     85  C   UNL     1       7.215   3.143  10.722  1.00  0.00     0.002 A 
ATOM     86  C   UNL     1       5.054   2.608  10.209  1.00  0.00     0.091 A 
ATOM     87  F   UNL     1       4.468   0.371   9.860  1.00  0.00    -0.205 F 
ATOM     88  C   UNL     1       6.003   3.570  10.418  1.00  0.00     0.022 A 
BRANCH  86  89
ATOM     89  S   UNL     1       3.323   3.093  10.002  1.00  0.00     0.127 S 
ATOM     90  O   UNL     1       2.845   3.827  11.258  1.00  0.00    -0.237 OA
ATOM     91  O   UNL     1       3.194   4.019   8.790  1.00  0.00    -0.237 OA
ATOM     92  O   UNL     1       2.365   1.698   9.758  1.00  0.00    -0.744 OA
ENDBRANCH  86  89
ENDBRANCH  58  82
BRANCH  70  93
ATOM     93  C   UNL     1       9.326  -3.422  15.242  1.00  0.00     0.023 A 
ATOM     94  C   UNL     1       8.499  -2.935  16.239  1.00  0.00     0.012 A 
ATOM     95  C   UNL     1      10.592  -3.740  15.490  1.00  0.00     0.148 A 
ATOM     96  C   UNL     1       9.185  -2.542  17.413  1.00  0.00     0.002 A 
ATOM     97  C   UNL     1      11.160  -3.450  16.707  1.00  0.00     0.091 A 
ATOM     98  F   UNL     1      11.316  -4.344  14.552  1.00  0.00    -0.205 F 
ATOM     99  C   UNL     1      10.415  -2.912  17.720  1.00  0.00     0.022 A 
BRANCH  97 100
ATOM    100  S   UNL     1      12.919  -3.784  16.973  1.00  0.00     0.127 S 
ATOM    101  O   UNL     1      13.639  -2.478  17.318  1.00  0.00    -0.237 OA
ATOM    102  O   UNL     1      13.081  -4.776  18.126  1.00  0.00    -0.237 OA
ATOM    103  O   UNL     1      13.594  -4.449  15.549  1.00  0.00    -0.744 OA
ENDBRANCH  97 100
ENDBRANCH  70  93
ENDBRANCH  44  45
ENDBRANCH  37  39
ENDBRANCH  36  37
ENDBRANCH  35  36
ENDBRANCH  34  35
ENDBRANCH  33  34
ENDBRANCH  32  33
ENDBRANCH   1  32
TORSDOF 25
