REMARK SMILES O=C(CCS[C@H]1CC(=O)c2ccccc2C1=O)OCCOCCOCCOCCOC(=O)c1ccc(-c2c3nc(c(-c4cccc(S(=O)(=O)[O-])c4F)c4ccc([nH]4)c(-c4cccc(S(=O)(=O)[O-])c4F)c4nc(c(-c5cccc(S(=O)(=O)[O-])c5F)c5ccc2[nH]5)C=C4)C=C3)cc1
REMARK SMILES IDX 24 1 23 2 22 3 21 4 20 5 19 6 18 7 2 8 1 9 3 10 4 11 5 12
REMARK SMILES IDX 6 13 7 14 16 15 8 16 15 17 17 18 9 19 10 20 14 21 11 22
REMARK SMILES IDX 13 23 12 24 25 25 26 26 27 27 28 28 29 29 30 30 31 31 32 32
REMARK SMILES IDX 33 33 34 34 95 35 35 36 94 37 36 38 37 39 38 40 88 41 39 42
REMARK SMILES IDX 93 43 87 44 89 45 40 46 92 47 86 48 85 49 41 51 73 52 53 53
REMARK SMILES IDX 72 54 54 55 57 56 71 57 90 58 55 59 56 60 70 62 91 63 58 64
REMARK SMILES IDX 42 65 43 66 51 67 44 68 46 69 52 70 45 71 47 72 48 73 49 74
REMARK SMILES IDX 50 75 74 76 75 77 83 78 76 79 78 80 84 81 77 82 79 83 80 84
REMARK SMILES IDX 81 85 82 86 59 87 60 88 68 89 61 90 63 91 69 92 62 93 64 94
REMARK SMILES IDX 65 95 66 96 67 97
REMARK H PARENT 89 50 57 61
REMARK Flexibility Score: inf
ROOT
ATOM      1  O   UNL     1       5.406  -4.052   1.669  1.00  0.00    -0.377 OA
ENDROOT
BRANCH   1   2
ATOM      2  C   UNL     1       4.201  -4.499   1.048  1.00  0.00     0.188 C 
BRANCH   2   3
ATOM      3  C   UNL     1       3.297  -3.458   0.395  1.00  0.00     0.188 C 
BRANCH   3   4
ATOM      4  O   UNL     1       2.949  -2.429   1.323  1.00  0.00    -0.376 OA
BRANCH   4   5
ATOM      5  C   UNL     1       1.895  -2.813   2.195  1.00  0.00     0.202 C 
BRANCH   5   6
ATOM      6  C   UNL     1       0.650  -1.971   1.975  1.00  0.00     0.261 C 
BRANCH   6   7
ATOM      7  O   UNL     1       0.211  -1.952   0.603  1.00  0.00    -0.463 OA
BRANCH   7   8
ATOM      8  C   UNL     1       0.605  -1.191  -0.435  1.00  0.00     0.306 C 
ATOM      9  O   UNL     1      -0.060  -1.274  -1.474  1.00  0.00    -0.252 OA
BRANCH   8  10
ATOM     10  C   UNL     1       1.891  -0.377  -0.470  1.00  0.00     0.133 C 
BRANCH  10  11
ATOM     11  C   UNL     1       2.044   0.970   0.225  1.00  0.00     0.082 C 
BRANCH  11  12
ATOM     12  S   UNL     1       2.242   0.951   2.024  1.00  0.00    -0.149 SA
BRANCH  12  13
ATOM     13  C   UNL     1       4.001   1.411   2.359  1.00  0.00     0.126 C 
ATOM     14  C   UNL     1       4.024   2.521   3.407  1.00  0.00     0.104 C 
ATOM     15  C   UNL     1       4.778   0.288   3.026  1.00  0.00     0.176 C 
ATOM     16  C   UNL     1       3.385   2.067   4.714  1.00  0.00     0.165 C 
ATOM     17  C   UNL     1       4.181  -0.257   4.266  1.00  0.00     0.030 A 
ATOM     18  O   UNL     1       5.899  -0.047   2.660  1.00  0.00    -0.293 OA
ATOM     19  O   UNL     1       2.900   2.873   5.500  1.00  0.00    -0.294 OA
ATOM     20  C   UNL     1       3.397   0.610   5.033  1.00  0.00     0.028 A 
ATOM     21  C   UNL     1       4.277  -1.611   4.590  1.00  0.00     0.012 A 
ATOM     22  C   UNL     1       2.594   0.093   6.051  1.00  0.00     0.012 A 
ATOM     23  C   UNL     1       3.455  -2.127   5.593  1.00  0.00     0.001 A 
ATOM     24  C   UNL     1       2.589  -1.283   6.293  1.00  0.00     0.001 A 
ENDBRANCH  12  13
ENDBRANCH  11  12
ENDBRANCH  10  11
ENDBRANCH   8  10
ENDBRANCH   7   8
ENDBRANCH   6   7
ENDBRANCH   5   6
ENDBRANCH   4   5
ENDBRANCH   3   4
ENDBRANCH   2   3
ENDBRANCH   1   2
BRANCH   1  25
ATOM     25  C   UNL     1       5.982  -2.821   1.249  1.00  0.00     0.188 C 
BRANCH  25  26
ATOM     26  C   UNL     1       7.486  -2.880   0.981  1.00  0.00     0.188 C 
BRANCH  26  27
ATOM     27  O   UNL     1       7.881  -3.739  -0.085  1.00  0.00    -0.376 OA
BRANCH  27  28
ATOM     28  C   UNL     1       7.588  -5.126   0.070  1.00  0.00     0.202 C 
BRANCH  28  29
ATOM     29  C   UNL     1       8.191  -5.854   1.284  1.00  0.00     0.261 C 
BRANCH  29  30
ATOM     30  O   UNL     1       7.564  -5.548   2.553  1.00  0.00    -0.460 OA
BRANCH  30  31
ATOM     31  C   UNL     1       8.352  -4.940   3.471  1.00  0.00     0.338 C 
ATOM     32  O   UNL     1       9.529  -4.621   3.307  1.00  0.00    -0.246 OA
BRANCH  31  33
ATOM     33  C   UNL     1       7.633  -4.604   4.723  1.00  0.00     0.060 A 
ATOM     34  C   UNL     1       6.925  -5.570   5.441  1.00  0.00     0.016 A 
ATOM     35  C   UNL     1       7.847  -3.340   5.293  1.00  0.00     0.016 A 
ATOM     36  C   UNL     1       6.500  -5.289   6.753  1.00  0.00     0.010 A 
ATOM     37  C   UNL     1       7.424  -3.064   6.602  1.00  0.00     0.010 A 
ATOM     38  C   UNL     1       6.780  -4.049   7.364  1.00  0.00    -0.014 A 
BRANCH  38  39
ATOM     39  C   UNL     1       6.608  -3.891   8.840  1.00  0.00     0.031 A 
ATOM     40  C   UNL     1       5.501  -3.101   9.471  1.00  0.00     0.074 A 
ATOM     41  C   UNL     1       7.517  -4.449   9.664  1.00  0.00     0.049 A 
ATOM     42  N   UNL     1       5.023  -3.179  10.688  1.00  0.00    -0.248 NA
ATOM     43  C   UNL     1       4.846  -2.091   8.640  1.00  0.00     0.031 C 
ATOM     44  C   UNL     1       8.739  -5.127   9.235  1.00  0.00     0.029 A 
ATOM     45  N   UNL     1       7.558  -4.510  11.034  1.00  0.00    -0.354 N 
ATOM     46  C   UNL     1       3.947  -2.302  10.732  1.00  0.00     0.074 A 
ATOM     47  C   UNL     1       3.881  -1.655   9.443  1.00  0.00     0.031 C 
ATOM     48  C   UNL     1       9.415  -5.530  10.322  1.00  0.00     0.029 A 
ATOM     49  C   UNL     1       8.665  -5.157  11.522  1.00  0.00     0.049 A 
ATOM     50  H   UNL     1       6.860  -4.126  11.613  1.00  0.00     0.167 HD
ATOM     51  C   UNL     1       3.085  -2.068  11.749  1.00  0.00     0.034 A 
ATOM     52  C   UNL     1       9.032  -5.441  12.787  1.00  0.00     0.034 A 
ATOM     53  C   UNL     1       3.258  -2.561  13.087  1.00  0.00     0.049 A 
ATOM     54  C   UNL     1       8.120  -5.101  13.932  1.00  0.00     0.074 A 
ATOM     55  C   UNL     1       2.419  -2.404  14.177  1.00  0.00     0.029 A 
ATOM     56  N   UNL     1       4.386  -3.222  13.539  1.00  0.00    -0.354 N 
ATOM     57  N   UNL     1       6.927  -4.560  13.899  1.00  0.00    -0.248 NA
ATOM     58  C   UNL     1       8.583  -5.449  15.284  1.00  0.00     0.031 C 
ATOM     59  C   UNL     1       3.063  -2.932  15.300  1.00  0.00     0.029 A 
ATOM     60  C   UNL     1       4.291  -3.436  14.901  1.00  0.00     0.049 A 
ATOM     61  H   UNL     1       5.143  -3.498  12.974  1.00  0.00     0.167 HD
ATOM     62  C   UNL     1       6.488  -4.521  15.218  1.00  0.00     0.074 A 
ATOM     63  C   UNL     1       7.538  -5.101  16.028  1.00  0.00     0.031 C 
ATOM     64  C   UNL     1       5.320  -4.038  15.706  1.00  0.00     0.034 A 
BRANCH  51  65
ATOM     65  C   UNL     1       1.820  -1.310  11.455  1.00  0.00     0.023 A 
ATOM     66  C   UNL     1       0.729  -2.039  10.938  1.00  0.00     0.012 A 
ATOM     67  C   UNL     1       1.642   0.033  11.832  1.00  0.00     0.148 A 
ATOM     68  C   UNL     1      -0.525  -1.446  10.806  1.00  0.00     0.002 A 
ATOM     69  C   UNL     1       0.384   0.615  11.710  1.00  0.00     0.091 A 
ATOM     70  F   UNL     1       2.695   0.702  12.322  1.00  0.00    -0.205 F 
ATOM     71  C   UNL     1      -0.699  -0.123  11.200  1.00  0.00     0.022 A 
BRANCH  69  72
ATOM     72  S   UNL     1       0.029   2.299  12.223  1.00  0.00     0.127 S 
ATOM     73  O   UNL     1      -0.404   2.903  10.963  1.00  0.00    -0.237 OA
ATOM     74  O   UNL     1      -1.039   2.100  13.202  1.00  0.00    -0.237 OA
ATOM     75  O   UNL     1       1.274   2.827  12.763  1.00  0.00    -0.744 OA
ENDBRANCH  69  72
ENDBRANCH  51  65
BRANCH  52  76
ATOM     76  C   UNL     1      10.308  -6.167  13.009  1.00  0.00     0.023 A 
ATOM     77  C   UNL     1      10.278  -7.545  13.291  1.00  0.00     0.012 A 
ATOM     78  C   UNL     1      11.546  -5.516  12.845  1.00  0.00     0.148 A 
ATOM     79  C   UNL     1      11.466  -8.266  13.408  1.00  0.00     0.002 A 
ATOM     80  C   UNL     1      12.723  -6.248  12.924  1.00  0.00     0.091 A 
ATOM     81  F   UNL     1      11.539  -4.202  12.582  1.00  0.00    -0.205 F 
ATOM     82  C   UNL     1      12.686  -7.622  13.214  1.00  0.00     0.022 A 
BRANCH  80  83
ATOM     83  S   UNL     1      14.333  -5.530  12.583  1.00  0.00     0.127 S 
ATOM     84  O   UNL     1      14.979  -5.614  13.891  1.00  0.00    -0.237 OA
ATOM     85  O   UNL     1      14.861  -6.448  11.574  1.00  0.00    -0.237 OA
ATOM     86  O   UNL     1      14.072  -4.182  12.098  1.00  0.00    -0.744 OA
ENDBRANCH  80  83
ENDBRANCH  52  76
BRANCH  64  87
ATOM     87  C   UNL     1       5.083  -4.082  17.190  1.00  0.00     0.023 A 
ATOM     88  C   UNL     1       5.675  -3.102  18.009  1.00  0.00     0.012 A 
ATOM     89  C   UNL     1       4.151  -4.982  17.744  1.00  0.00     0.148 A 
ATOM     90  C   UNL     1       5.342  -3.015  19.361  1.00  0.00     0.002 A 
ATOM     91  C   UNL     1       3.799  -4.869  19.084  1.00  0.00     0.091 A 
ATOM     92  F   UNL     1       3.604  -5.906  16.941  1.00  0.00    -0.205 F 
ATOM     93  C   UNL     1       4.396  -3.889  19.894  1.00  0.00     0.022 A 
BRANCH  91  94
ATOM     94  S   UNL     1       2.533  -5.891  19.846  1.00  0.00     0.127 S 
ATOM     95  O   UNL     1       3.305  -6.623  20.850  1.00  0.00    -0.237 OA
ATOM     96  O   UNL     1       1.616  -4.891  20.390  1.00  0.00    -0.237 OA
ATOM     97  O   UNL     1       1.978  -6.713  18.778  1.00  0.00    -0.744 OA
ENDBRANCH  91  94
ENDBRANCH  64  87
ENDBRANCH  38  39
ENDBRANCH  31  33
ENDBRANCH  30  31
ENDBRANCH  29  30
ENDBRANCH  28  29
ENDBRANCH  27  28
ENDBRANCH  26  27
ENDBRANCH  25  26
ENDBRANCH   1  25
TORSDOF 26
