REMARK SMILES [NH3+][C@H](c1ccc(C(=O)OCCOCCOCCOCCOC(=O)c2ccc(-c3c4nc(c(-c5cccc(S(=O)(=O)[O-])c5F)c5ccc([nH]5)c(-c5cccc(S(=O)(=O)[O-])c5F)c5nc(c(-c6cccc(S(=O)(=O)[O-])c6F)c6ccc3[nH]6)C=C5)C=C4)cc2)cc1Cl)C(F)(F)F
REMARK SMILES IDX 16 1 15 2 14 3 13 4 12 5 11 6 10 7 9 8 7 9 8 10 6 11 3 12
REMARK SMILES IDX 4 13 88 14 5 15 87 16 89 17 2 18 1 19 90 23 91 24 92 25
REMARK SMILES IDX 93 26 17 27 18 28 19 29 20 30 21 31 22 32 23 33 24 34 25 35
REMARK SMILES IDX 86 36 26 37 85 38 27 39 28 40 29 41 79 42 30 43 84 44 78 45
REMARK SMILES IDX 80 46 31 47 83 48 77 49 76 50 32 52 64 53 44 54 63 55 45 56
REMARK SMILES IDX 48 57 62 58 81 59 46 60 47 61 61 63 82 64 49 65 33 66 34 67
REMARK SMILES IDX 42 68 35 69 37 70 43 71 36 72 38 73 39 74 40 75 41 76 65 77
REMARK SMILES IDX 66 78 74 79 67 80 69 81 75 82 68 83 70 84 71 85 72 86 73 87
REMARK SMILES IDX 50 88 51 89 59 90 52 91 54 92 60 93 53 94 55 95 56 96 57 97
REMARK SMILES IDX 58 98
REMARK H PARENT 1 20 1 21 1 22 80 51 48 62
REMARK Flexibility Score: inf
ROOT
ATOM      1  C   UNL     1       5.219  -5.719  -0.467  1.00  0.00     0.188 C 
ENDROOT
BRANCH   1   2
ATOM      2  O   UNL     1       4.249  -4.683  -0.357  1.00  0.00    -0.377 OA
BRANCH   2   3
ATOM      3  C   UNL     1       4.343  -3.532  -1.179  1.00  0.00     0.188 C 
BRANCH   3   4
ATOM      4  C   UNL     1       5.713  -2.844  -1.368  1.00  0.00     0.188 C 
BRANCH   4   5
ATOM      5  O   UNL     1       6.812  -3.553  -0.823  1.00  0.00    -0.376 OA
BRANCH   5   6
ATOM      6  C   UNL     1       7.425  -3.053   0.352  1.00  0.00     0.202 C 
BRANCH   6   7
ATOM      7  C   UNL     1       6.581  -2.951   1.633  1.00  0.00     0.261 C 
BRANCH   7   8
ATOM      8  O   UNL     1       5.281  -2.367   1.475  1.00  0.00    -0.460 OA
BRANCH   8   9
ATOM      9  C   UNL     1       5.250  -1.040   1.254  1.00  0.00     0.338 C 
ATOM     10  O   UNL     1       6.202  -0.279   1.199  1.00  0.00    -0.246 OA
BRANCH   9  11
ATOM     11  C   UNL     1       3.883  -0.654   0.846  1.00  0.00     0.061 A 
ATOM     12  C   UNL     1       1.394   0.493   0.174  1.00  0.00     0.037 A 
ATOM     13  C   UNL     1       2.492   0.556  -0.711  1.00  0.00     0.013 A 
ATOM     14  C   UNL     1       1.532  -0.359   1.296  1.00  0.00     0.051 A 
ATOM     15  C   UNL     1       3.736   0.049  -0.348  1.00  0.00     0.016 A 
ATOM     16  C   UNL     1       2.764  -0.952   1.615  1.00  0.00     0.036 A 
ATOM     17  Cl  UNL     1       0.256  -0.652   2.414  1.00  0.00    -0.084 Cl
BRANCH  12  18
ATOM     18  C   UNL     1       0.255   1.531   0.049  1.00  0.00     0.320 C 
BRANCH  18  19
ATOM     19  N   UNL     1       0.612   2.608  -0.945  1.00  0.00    -0.344 N 
ATOM     20  H   UNL     1      -0.154   3.279  -1.010  1.00  0.00     0.345 HD
ATOM     21  H   UNL     1       0.772   2.186  -1.860  1.00  0.00     0.345 HD
ATOM     22  H   UNL     1       1.458   3.087  -0.638  1.00  0.00     0.345 HD
ENDBRANCH  18  19
BRANCH  18  23
ATOM     23  C   UNL     1      -1.214   1.036  -0.161  1.00  0.00     0.445 C 
ATOM     24  F   UNL     1      -1.754   0.438   0.915  1.00  0.00    -0.165 F 
ATOM     25  F   UNL     1      -2.025   2.098  -0.436  1.00  0.00    -0.165 F 
ATOM     26  F   UNL     1      -1.312   0.193  -1.214  1.00  0.00    -0.165 F 
ENDBRANCH  18  23
ENDBRANCH  12  18
ENDBRANCH   9  11
ENDBRANCH   8   9
ENDBRANCH   7   8
ENDBRANCH   6   7
ENDBRANCH   5   6
ENDBRANCH   4   5
ENDBRANCH   3   4
ENDBRANCH   2   3
ENDBRANCH   1   2
BRANCH   1  27
ATOM     27  C   UNL     1       5.965  -5.978  -1.798  1.00  0.00     0.188 C 
BRANCH  27  28
ATOM     28  O   UNL     1       5.489  -5.226  -2.903  1.00  0.00    -0.376 OA
BRANCH  28  29
ATOM     29  C   UNL     1       4.736  -5.915  -3.885  1.00  0.00     0.202 C 
BRANCH  29  30
ATOM     30  C   UNL     1       3.400  -6.524  -3.439  1.00  0.00     0.261 C 
BRANCH  30  31
ATOM     31  O   UNL     1       3.452  -7.414  -2.315  1.00  0.00    -0.460 OA
BRANCH  31  32
ATOM     32  C   UNL     1       4.146  -8.563  -2.458  1.00  0.00     0.338 C 
ATOM     33  O   UNL     1       4.742  -8.942  -3.454  1.00  0.00    -0.246 OA
BRANCH  32  34
ATOM     34  C   UNL     1       4.230  -9.198  -1.127  1.00  0.00     0.060 A 
ATOM     35  C   UNL     1       5.488  -9.401  -0.542  1.00  0.00     0.016 A 
ATOM     36  C   UNL     1       3.065  -9.560  -0.448  1.00  0.00     0.016 A 
ATOM     37  C   UNL     1       5.583  -9.995   0.717  1.00  0.00     0.010 A 
ATOM     38  C   UNL     1       3.163 -10.175   0.801  1.00  0.00     0.010 A 
ATOM     39  C   UNL     1       4.423 -10.425   1.375  1.00  0.00    -0.014 A 
BRANCH  39  40
ATOM     40  C   UNL     1       4.530 -11.300   2.566  1.00  0.00     0.031 A 
ATOM     41  C   UNL     1       4.365 -12.783   2.377  1.00  0.00     0.074 A 
ATOM     42  C   UNL     1       4.758 -10.793   3.791  1.00  0.00     0.049 A 
ATOM     43  N   UNL     1       4.373 -13.738   3.268  1.00  0.00    -0.248 NA
ATOM     44  C   UNL     1       4.160 -13.249   0.995  1.00  0.00     0.031 C 
ATOM     45  C   UNL     1       4.941  -9.376   4.100  1.00  0.00     0.029 A 
ATOM     46  N   UNL     1       4.845 -11.419   5.010  1.00  0.00    -0.354 N 
ATOM     47  C   UNL     1       4.142 -14.913   2.563  1.00  0.00     0.074 A 
ATOM     48  C   UNL     1       3.988 -14.550   1.171  1.00  0.00     0.031 C 
ATOM     49  C   UNL     1       5.089  -9.237   5.429  1.00  0.00     0.029 A 
ATOM     50  C   UNL     1       4.982 -10.549   6.065  1.00  0.00     0.049 A 
ATOM     51  H   UNL     1       4.813 -12.397   5.117  1.00  0.00     0.167 HD
ATOM     52  C   UNL     1       4.076 -16.182   3.029  1.00  0.00     0.034 A 
ATOM     53  C   UNL     1       4.990 -10.785   7.393  1.00  0.00     0.034 A 
ATOM     54  C   UNL     1       4.237 -16.540   4.411  1.00  0.00     0.049 A 
ATOM     55  C   UNL     1       4.878 -12.205   7.891  1.00  0.00     0.074 A 
ATOM     56  C   UNL     1       4.232 -17.802   4.978  1.00  0.00     0.029 A 
ATOM     57  N   UNL     1       4.409 -15.636   5.448  1.00  0.00    -0.354 N 
ATOM     58  N   UNL     1       4.777 -13.317   7.203  1.00  0.00    -0.248 NA
ATOM     59  C   UNL     1       4.915 -12.405   9.348  1.00  0.00     0.031 C 
ATOM     60  C   UNL     1       4.361 -17.659   6.362  1.00  0.00     0.029 A 
ATOM     61  C   UNL     1       4.495 -16.310   6.653  1.00  0.00     0.049 A 
ATOM     62  H   UNL     1       4.462 -14.659   5.342  1.00  0.00     0.167 HD
ATOM     63  C   UNL     1       4.780 -14.347   8.138  1.00  0.00     0.074 A 
ATOM     64  C   UNL     1       4.909 -13.728   9.440  1.00  0.00     0.031 C 
ATOM     65  C   UNL     1       4.676 -15.685   7.938  1.00  0.00     0.034 A 
BRANCH  52  66
ATOM     66  C   UNL     1       3.824 -17.281   2.030  1.00  0.00     0.023 A 
ATOM     67  C   UNL     1       4.831 -17.642   1.112  1.00  0.00     0.012 A 
ATOM     68  C   UNL     1       2.606 -17.989   2.035  1.00  0.00     0.148 A 
ATOM     69  C   UNL     1       4.618 -18.668   0.192  1.00  0.00     0.002 A 
ATOM     70  C   UNL     1       2.420 -19.042   1.148  1.00  0.00     0.091 A 
ATOM     71  F   UNL     1       1.652 -17.615   2.899  1.00  0.00    -0.205 F 
ATOM     72  C   UNL     1       3.419 -19.374   0.218  1.00  0.00     0.022 A 
BRANCH  70  73
ATOM     73  S   UNL     1       0.945 -20.066   1.156  1.00  0.00     0.127 S 
ATOM     74  O   UNL     1       0.320 -19.692  -0.112  1.00  0.00    -0.237 OA
ATOM     75  O   UNL     1       1.509 -21.415   1.183  1.00  0.00    -0.237 OA
ATOM     76  O   UNL     1       0.201 -19.692   2.350  1.00  0.00    -0.744 OA
ENDBRANCH  70  73
ENDBRANCH  52  66
BRANCH  53  77
ATOM     77  C   UNL     1       5.130  -9.653   8.354  1.00  0.00     0.023 A 
ATOM     78  C   UNL     1       6.300  -9.536   9.129  1.00  0.00     0.012 A 
ATOM     79  C   UNL     1       4.110  -8.693   8.501  1.00  0.00     0.148 A 
ATOM     80  C   UNL     1       6.437  -8.503  10.059  1.00  0.00     0.002 A 
ATOM     81  C   UNL     1       4.277  -7.635   9.386  1.00  0.00     0.091 A 
ATOM     82  F   UNL     1       2.997  -8.832   7.766  1.00  0.00    -0.205 F 
ATOM     83  C   UNL     1       5.431  -7.548  10.180  1.00  0.00     0.022 A 
BRANCH  81  84
ATOM     84  S   UNL     1       3.094  -6.290   9.519  1.00  0.00     0.127 S 
ATOM     85  O   UNL     1       2.569  -6.486  10.868  1.00  0.00    -0.237 OA
ATOM     86  O   UNL     1       3.955  -5.118   9.356  1.00  0.00    -0.237 OA
ATOM     87  O   UNL     1       2.142  -6.493   8.436  1.00  0.00    -0.744 OA
ENDBRANCH  81  84
ENDBRANCH  53  77
BRANCH  65  88
ATOM     88  C   UNL     1       4.755 -16.587   9.144  1.00  0.00     0.023 A 
ATOM     89  C   UNL     1       3.689 -16.638  10.063  1.00  0.00     0.012 A 
ATOM     90  C   UNL     1       5.859 -17.447   9.319  1.00  0.00     0.148 A 
ATOM     91  C   UNL     1       3.736 -17.505  11.155  1.00  0.00     0.002 A 
ATOM     92  C   UNL     1       5.874 -18.345  10.378  1.00  0.00     0.091 A 
ATOM     93  F   UNL     1       6.871 -17.373   8.442  1.00  0.00    -0.205 F 
ATOM     94  C   UNL     1       4.820 -18.366  11.306  1.00  0.00     0.022 A 
BRANCH  92  95
ATOM     95  S   UNL     1       7.179 -19.560  10.595  1.00  0.00     0.127 S 
ATOM     96  O   UNL     1       7.858 -19.058  11.788  1.00  0.00    -0.237 OA
ATOM     97  O   UNL     1       6.421 -20.795  10.798  1.00  0.00    -0.237 OA
ATOM     98  O   UNL     1       7.968 -19.529   9.371  1.00  0.00    -0.744 OA
ENDBRANCH  92  95
ENDBRANCH  65  88
ENDBRANCH  39  40
ENDBRANCH  32  34
ENDBRANCH  31  32
ENDBRANCH  30  31
ENDBRANCH  29  30
ENDBRANCH  28  29
ENDBRANCH  27  28
ENDBRANCH   1  27
TORSDOF 26
