REMARK SMILES COc1cccc(CSc2nc3ccccc3c(=O)n2CCC(=O)OCCOCCOCCOCCOC(=O)c2ccc(-c3c4nc(c(-c5cccc(S(=O)(=O)[O-])c5F)c5ccc([nH]5)c(-c5cccc(S(=O)(=O)[O-])c5F)c5nc(c(-c6cccc(S(=O)(=O)[O-])c6F)c6ccc3[nH]6)C=C5)C=C4)cc2)c1
REMARK SMILES IDX 29 1 28 2 27 3 26 4 25 5 23 6 24 7 22 8 21 9 20 10 10 11
REMARK SMILES IDX 11 12 12 13 18 14 13 15 17 16 19 17 14 18 16 19 15 20 9 21
REMARK SMILES IDX 8 22 7 23 3 24 4 25 103 26 5 27 6 28 2 29 1 30 30 31 31 32
REMARK SMILES IDX 32 33 33 34 34 35 35 36 36 37 37 38 38 39 39 40 40 41 41 42
REMARK SMILES IDX 102 43 42 44 101 45 43 46 44 47 45 48 95 49 46 50 100 51
REMARK SMILES IDX 94 52 96 53 47 54 99 55 93 56 92 57 48 59 80 60 60 61 79 62
REMARK SMILES IDX 61 63 64 64 78 65 97 66 62 67 63 68 77 70 98 71 65 72 49 73
REMARK SMILES IDX 50 74 58 75 51 76 53 77 59 78 52 79 54 80 55 81 56 82 57 83
REMARK SMILES IDX 81 84 82 85 90 86 83 87 85 88 91 89 84 90 86 91 87 92 88 93
REMARK SMILES IDX 89 94 66 95 67 96 75 97 68 98 70 99 76 100 69 101 71 102
REMARK SMILES IDX 72 103 73 104 74 105
REMARK H PARENT 96 58 64 69
REMARK Flexibility Score: inf
ROOT
ATOM      1  C   UNL     1       4.572   2.810   5.510  1.00  0.00     0.188 C 
ENDROOT
BRANCH   1   2
ATOM      2  O   UNL     1       5.843   3.130   6.031  1.00  0.00    -0.376 OA
BRANCH   2   3
ATOM      3  C   UNL     1       6.784   3.731   5.134  1.00  0.00     0.202 C 
BRANCH   3   4
ATOM      4  C   UNL     1       7.380   2.927   3.937  1.00  0.00     0.261 C 
BRANCH   4   5
ATOM      5  O   UNL     1       6.711   2.946   2.640  1.00  0.00    -0.463 OA
BRANCH   5   6
ATOM      6  C   UNL     1       6.449   1.756   2.020  1.00  0.00     0.307 C 
ATOM      7  O   UNL     1       6.432   0.676   2.605  1.00  0.00    -0.252 OA
BRANCH   6   8
ATOM      8  C   UNL     1       6.268   1.851   0.485  1.00  0.00     0.144 C 
BRANCH   8   9
ATOM      9  C   UNL     1       4.941   2.206  -0.246  1.00  0.00     0.140 C 
BRANCH   9  10
ATOM     10  N   UNL     1       4.473   3.567  -0.082  1.00  0.00    -0.286 N 
ATOM     11  C   UNL     1       4.527   4.200   1.101  1.00  0.00     0.171 A 
ATOM     12  N   UNL     1       4.946   5.417   1.215  1.00  0.00    -0.224 NA
ATOM     13  C   UNL     1       5.037   6.130   0.009  1.00  0.00     0.079 A 
ATOM     14  C   UNL     1       3.834   4.298  -1.061  1.00  0.00     0.262 A 
ATOM     15  C   UNL     1       5.783   7.296  -0.103  1.00  0.00     0.029 A 
ATOM     16  C   UNL     1       4.205   5.741  -1.050  1.00  0.00     0.066 A 
ATOM     17  O   UNL     1       3.064   3.820  -1.884  1.00  0.00    -0.269 OA
ATOM     18  C   UNL     1       5.605   8.113  -1.222  1.00  0.00     0.002 A 
ATOM     19  C   UNL     1       3.918   6.606  -2.098  1.00  0.00     0.016 A 
ATOM     20  C   UNL     1       4.625   7.805  -2.175  1.00  0.00     0.001 A 
BRANCH  11  21
ATOM     21  S   UNL     1       3.774   3.487   2.443  1.00  0.00    -0.083 SA
BRANCH  21  22
ATOM     22  C   UNL     1       3.303   1.757   2.431  1.00  0.00     0.113 C 
BRANCH  22  23
ATOM     23  C   UNL     1       1.827   1.583   2.234  1.00  0.00    -0.034 A 
ATOM     24  C   UNL     1       0.005   0.940   0.787  1.00  0.00     0.119 A 
ATOM     25  C   UNL     1      -0.898   1.533   1.671  1.00  0.00     0.046 A 
ATOM     26  C   UNL     1       1.366   0.978   1.068  1.00  0.00     0.051 A 
ATOM     27  C   UNL     1      -0.455   2.068   2.878  1.00  0.00     0.004 A 
ATOM     28  C   UNL     1       0.901   2.058   3.173  1.00  0.00     0.005 A 
BRANCH  24  29
ATOM     29  O   UNL     1      -0.533   0.375  -0.337  1.00  0.00    -0.497 OA
ATOM     30  C   UNL     1       0.324  -0.531  -1.025  1.00  0.00     0.278 C 
ENDBRANCH  24  29
ENDBRANCH  22  23
ENDBRANCH  21  22
ENDBRANCH  11  21
ENDBRANCH   9  10
ENDBRANCH   8   9
ENDBRANCH   6   8
ENDBRANCH   5   6
ENDBRANCH   4   5
ENDBRANCH   3   4
ENDBRANCH   2   3
ENDBRANCH   1   2
BRANCH   1  31
ATOM     31  C   UNL     1       3.477   3.884   5.383  1.00  0.00     0.188 C 
BRANCH  31  32
ATOM     32  O   UNL     1       3.798   5.252   5.284  1.00  0.00    -0.377 OA
BRANCH  32  33
ATOM     33  C   UNL     1       4.210   5.852   6.494  1.00  0.00     0.188 C 
BRANCH  33  34
ATOM     34  C   UNL     1       3.213   5.809   7.673  1.00  0.00     0.188 C 
BRANCH  34  35
ATOM     35  O   UNL     1       2.461   4.610   7.813  1.00  0.00    -0.376 OA
BRANCH  35  36
ATOM     36  C   UNL     1       1.039   4.707   7.643  1.00  0.00     0.202 C 
BRANCH  36  37
ATOM     37  C   UNL     1       0.418   5.103   6.276  1.00  0.00     0.261 C 
BRANCH  37  38
ATOM     38  O   UNL     1       0.981   6.239   5.619  1.00  0.00    -0.460 OA
BRANCH  38  39
ATOM     39  C   UNL     1       0.727   7.434   6.182  1.00  0.00     0.338 C 
ATOM     40  O   UNL     1       0.069   7.644   7.194  1.00  0.00    -0.246 OA
BRANCH  39  41
ATOM     41  C   UNL     1       1.565   8.435   5.510  1.00  0.00     0.060 A 
ATOM     42  C   UNL     1       2.609   9.010   6.244  1.00  0.00     0.016 A 
ATOM     43  C   UNL     1       1.313   8.828   4.193  1.00  0.00     0.016 A 
ATOM     44  C   UNL     1       3.409   9.984   5.670  1.00  0.00     0.010 A 
ATOM     45  C   UNL     1       2.076   9.856   3.636  1.00  0.00     0.010 A 
ATOM     46  C   UNL     1       3.097  10.458   4.393  1.00  0.00    -0.014 A 
BRANCH  46  47
ATOM     47  C   UNL     1       3.625  11.786   4.026  1.00  0.00     0.031 A 
ATOM     48  C   UNL     1       2.821  12.981   4.460  1.00  0.00     0.074 A 
ATOM     49  C   UNL     1       4.808  11.925   3.409  1.00  0.00     0.049 A 
ATOM     50  N   UNL     1       3.076  14.252   4.311  1.00  0.00    -0.248 NA
ATOM     51  C   UNL     1       1.561  12.699   5.174  1.00  0.00     0.031 C 
ATOM     52  C   UNL     1       5.684  10.829   2.998  1.00  0.00     0.029 A 
ATOM     53  N   UNL     1       5.470  13.058   3.016  1.00  0.00    -0.354 N 
ATOM     54  C   UNL     1       2.002  14.917   4.890  1.00  0.00     0.074 A 
ATOM     55  C   UNL     1       1.090  13.916   5.389  1.00  0.00     0.031 C 
ATOM     56  C   UNL     1       6.761  11.346   2.380  1.00  0.00     0.029 A 
ATOM     57  C   UNL     1       6.633  12.802   2.332  1.00  0.00     0.049 A 
ATOM     58  H   UNL     1       5.144  13.967   3.206  1.00  0.00     0.167 HD
ATOM     59  C   UNL     1       1.795  16.249   4.999  1.00  0.00     0.034 A 
ATOM     60  C   UNL     1       7.474  13.656   1.718  1.00  0.00     0.034 A 
ATOM     61  C   UNL     1       2.702  17.232   4.482  1.00  0.00     0.049 A 
ATOM     62  C   UNL     1       7.190  15.136   1.796  1.00  0.00     0.074 A 
ATOM     63  C   UNL     1       2.602  18.609   4.536  1.00  0.00     0.029 A 
ATOM     64  N   UNL     1       3.869  16.938   3.793  1.00  0.00    -0.354 N 
ATOM     65  N   UNL     1       6.215  15.760   2.414  1.00  0.00    -0.248 NA
ATOM     66  C   UNL     1       8.138  16.032   1.119  1.00  0.00     0.031 C 
ATOM     67  C   UNL     1       3.689  19.148   3.841  1.00  0.00     0.029 A 
ATOM     68  C   UNL     1       4.494  18.107   3.402  1.00  0.00     0.049 A 
ATOM     69  H   UNL     1       4.204  16.030   3.609  1.00  0.00     0.167 HD
ATOM     70  C   UNL     1       6.456  17.119   2.241  1.00  0.00     0.074 A 
ATOM     71  C   UNL     1       7.676  17.226   1.466  1.00  0.00     0.031 C 
ATOM     72  C   UNL     1       5.737  18.183   2.677  1.00  0.00     0.034 A 
BRANCH  59  73
ATOM     73  C   UNL     1       0.534  16.701   5.683  1.00  0.00     0.023 A 
ATOM     74  C   UNL     1       0.383  16.528   7.074  1.00  0.00     0.012 A 
ATOM     75  C   UNL     1      -0.500  17.311   4.946  1.00  0.00     0.148 A 
ATOM     76  C   UNL     1      -0.793  16.919   7.715  1.00  0.00     0.002 A 
ATOM     77  C   UNL     1      -1.647  17.744   5.599  1.00  0.00     0.091 A 
ATOM     78  F   UNL     1      -0.350  17.438   3.620  1.00  0.00    -0.205 F 
ATOM     79  C   UNL     1      -1.802  17.536   6.979  1.00  0.00     0.022 A 
BRANCH  77  80
ATOM     80  S   UNL     1      -2.968  18.618   4.754  1.00  0.00     0.127 S 
ATOM     81  O   UNL     1      -4.051  17.637   4.803  1.00  0.00    -0.237 OA
ATOM     82  O   UNL     1      -3.162  19.784   5.616  1.00  0.00    -0.237 OA
ATOM     83  O   UNL     1      -2.464  18.923   3.423  1.00  0.00    -0.744 OA
ENDBRANCH  77  80
ENDBRANCH  59  73
BRANCH  60  84
ATOM     84  C   UNL     1       8.669  13.139   0.993  1.00  0.00     0.023 A 
ATOM     85  C   UNL     1       9.960  13.416   1.481  1.00  0.00     0.012 A 
ATOM     86  C   UNL     1       8.529  12.364  -0.176  1.00  0.00     0.148 A 
ATOM     87  C   UNL     1      11.091  12.962   0.800  1.00  0.00     0.002 A 
ATOM     88  C   UNL     1       9.657  11.871  -0.820  1.00  0.00     0.091 A 
ATOM     89  F   UNL     1       7.292  12.113  -0.627  1.00  0.00    -0.205 F 
ATOM     90  C   UNL     1      10.940  12.184  -0.344  1.00  0.00     0.022 A 
BRANCH  88  91
ATOM     91  S   UNL     1       9.559  10.767  -2.233  1.00  0.00     0.127 S 
ATOM     92  O   UNL     1      10.206  11.557  -3.277  1.00  0.00    -0.237 OA
ATOM     93  O   UNL     1      10.328   9.615  -1.764  1.00  0.00    -0.237 OA
ATOM     94  O   UNL     1       8.140  10.505  -2.436  1.00  0.00    -0.744 OA
ENDBRANCH  88  91
ENDBRANCH  60  84
BRANCH  72  95
ATOM     95  C   UNL     1       6.274  19.560   2.389  1.00  0.00     0.023 A 
ATOM     96  C   UNL     1       6.227  20.082   1.083  1.00  0.00     0.012 A 
ATOM     97  C   UNL     1       6.734  20.372   3.446  1.00  0.00     0.148 A 
ATOM     98  C   UNL     1       6.660  21.383   0.827  1.00  0.00     0.002 A 
ATOM     99  C   UNL     1       7.110  21.684   3.193  1.00  0.00     0.091 A 
ATOM    100  F   UNL     1       6.782  19.849   4.680  1.00  0.00    -0.205 F 
ATOM    101  C   UNL     1       7.088  22.187   1.882  1.00  0.00     0.022 A 
BRANCH  99 102
ATOM    102  S   UNL     1       7.571  22.824   4.502  1.00  0.00     0.127 S 
ATOM    103  O   UNL     1       9.002  22.996   4.256  1.00  0.00    -0.237 OA
ATOM    104  O   UNL     1       6.753  23.997   4.192  1.00  0.00    -0.237 OA
ATOM    105  O   UNL     1       7.229  22.161   5.754  1.00  0.00    -0.744 OA
ENDBRANCH  99 102
ENDBRANCH  72  95
ENDBRANCH  46  47
ENDBRANCH  39  41
ENDBRANCH  38  39
ENDBRANCH  37  38
ENDBRANCH  36  37
ENDBRANCH  35  36
ENDBRANCH  34  35
ENDBRANCH  33  34
ENDBRANCH  32  33
ENDBRANCH  31  32
ENDBRANCH   1  31
TORSDOF 29
