REMARK SMILES COc1ccc2c(c1)O[C@@]1(CCC(=O)N([C@@H](C)C(=O)OCCOCCOCCOCCOC(=O)c3ccc(-c4c5nc(c(-c6cccc(S(=O)(=O)[O-])c6F)c6ccc([nH]6)c(-c6cccc(S(=O)(=O)[O-])c6F)c6nc(c(-c7cccc(S(=O)(=O)[O-])c7F)c7ccc4[nH]7)C=C6)C=C5)cc3)CC1)CC2=O
REMARK SMILES IDX 25 1 24 2 23 3 22 4 21 5 20 6 18 7 19 8 16 9 17 10 15 11
REMARK SMILES IDX 98 12 99 13 10 14 3 15 4 16 8 17 5 18 7 19 6 20 9 21 101 22
REMARK SMILES IDX 100 23 102 24 2 25 1 26 11 27 13 29 14 30 12 31 26 33 27 34
REMARK SMILES IDX 28 35 29 36 30 37 31 38 32 39 33 40 34 41 35 42 36 43 97 44
REMARK SMILES IDX 37 45 96 46 38 47 39 48 40 49 90 50 41 51 95 52 89 53 91 54
REMARK SMILES IDX 42 55 94 56 88 57 87 58 43 60 75 61 55 62 74 63 56 64 59 65
REMARK SMILES IDX 73 66 92 67 57 68 58 69 72 71 93 72 60 73 44 74 45 75 53 76
REMARK SMILES IDX 46 77 48 78 54 79 47 80 49 81 50 82 51 83 52 84 76 85 77 86
REMARK SMILES IDX 85 87 78 88 80 89 86 90 79 91 81 92 82 93 83 94 84 95 61 96
REMARK SMILES IDX 62 97 70 98 63 99 65 100 71 101 64 102 66 103 67 104 68 105
REMARK SMILES IDX 69 106
REMARK H PARENT 91 59 59 70
REMARK Flexibility Score: 90.00
ROOT
ATOM      1  C   UNL     1      -0.661   0.036   1.638  1.00  0.00     0.188 C 
ENDROOT
BRANCH   1   2
ATOM      2  C   UNL     1      -0.276   1.507   1.631  1.00  0.00     0.188 C 
BRANCH   2   3
ATOM      3  O   UNL     1      -0.157   2.069   2.928  1.00  0.00    -0.376 OA
BRANCH   3   4
ATOM      4  C   UNL     1      -1.353   2.699   3.380  1.00  0.00     0.202 C 
BRANCH   4   5
ATOM      5  C   UNL     1      -2.210   1.817   4.295  1.00  0.00     0.261 C 
BRANCH   5   6
ATOM      6  O   UNL     1      -2.732   0.577   3.760  1.00  0.00    -0.462 OA
BRANCH   6   7
ATOM      7  C   UNL     1      -3.663   0.671   2.778  1.00  0.00     0.328 C 
ATOM      8  O   UNL     1      -3.869   1.700   2.139  1.00  0.00    -0.250 OA
BRANCH   7   9
ATOM      9  C   UNL     1      -4.593  -0.572   2.680  1.00  0.00     0.192 C 
ATOM     10  C   UNL     1      -5.242  -0.676   4.077  1.00  0.00     0.044 C 
BRANCH   9  11
ATOM     11  N   UNL     1      -4.315  -1.961   2.136  1.00  0.00    -0.329 N 
BRANCH  11  12
ATOM     12  C   UNL     1      -3.385  -2.273   1.048  1.00  0.00     0.124 C 
BRANCH  12  13
ATOM     13  C   UNL     1      -3.980  -2.163  -0.426  1.00  0.00     0.070 C 
BRANCH  13  14
ATOM     14  C   UNL     1      -5.114  -1.089  -0.708  1.00  0.00     0.118 C 
ATOM     15  C   UNL     1      -1.480   1.795  -1.632  1.00  0.00     0.122 A 
ATOM     16  C   UNL     1      -2.201   3.000  -1.659  1.00  0.00     0.047 A 
ATOM     17  C   UNL     1      -2.124   0.618  -1.235  1.00  0.00     0.093 A 
ATOM     18  C   UNL     1      -3.573   3.022  -1.395  1.00  0.00     0.019 A 
ATOM     19  C   UNL     1      -3.473   0.673  -0.888  1.00  0.00     0.134 A 
ATOM     20  C   UNL     1      -4.195   1.829  -1.063  1.00  0.00     0.060 A 
ATOM     21  O   UNL     1      -4.095  -0.233  -0.042  1.00  0.00    -0.486 OA
ATOM     22  C   UNL     1      -5.614   1.631  -0.824  1.00  0.00     0.170 C 
ATOM     23  C   UNL     1      -6.077   0.175  -0.675  1.00  0.00     0.129 C 
ATOM     24  O   UNL     1      -6.390   2.581  -0.800  1.00  0.00    -0.294 OA
BRANCH  15  25
ATOM     25  O   UNL     1      -0.149   1.940  -1.911  1.00  0.00    -0.497 OA
ATOM     26  C   UNL     1       0.673   0.781  -1.962  1.00  0.00     0.278 C 
ENDBRANCH  15  25
BRANCH  14  27
ATOM     27  C   UNL     1      -6.303  -2.089  -0.115  1.00  0.00     0.059 CG0
ATOM     28  G   UNL     1      -6.570  -2.352   1.373  1.00  0.00     0.000 G0
ENDBRANCH  14  27
ENDBRANCH  13  14
ENDBRANCH  12  13
ENDBRANCH  11  12
BRANCH  11  29
ATOM     29  C   UNL     1      -5.359  -2.879   2.100  1.00  0.00     0.223 C 
ATOM     30  O   UNL     1      -5.228  -4.069   2.369  1.00  0.00    -0.275 OA
BRANCH  29  31
ATOM     31  C   UNL     1      -6.570  -2.352   1.373  1.00  0.00     0.104 CG0
ATOM     32  G   UNL     1      -6.303  -2.089  -0.115  1.00  0.00     0.000 G0
ENDBRANCH  29  31
ENDBRANCH  11  29
ENDBRANCH   9  11
ENDBRANCH   7   9
ENDBRANCH   6   7
ENDBRANCH   5   6
ENDBRANCH   4   5
ENDBRANCH   3   4
ENDBRANCH   2   3
ENDBRANCH   1   2
BRANCH   1  33
ATOM     33  O   UNL     1      -0.399  -0.747   2.784  1.00  0.00    -0.377 OA
BRANCH  33  34
ATOM     34  C   UNL     1       0.915  -0.702   3.316  1.00  0.00     0.188 C 
BRANCH  34  35
ATOM     35  C   UNL     1       2.072  -0.587   2.313  1.00  0.00     0.188 C 
BRANCH  35  36
ATOM     36  O   UNL     1       1.974  -1.357   1.113  1.00  0.00    -0.376 OA
BRANCH  36  37
ATOM     37  C   UNL     1       1.598  -2.729   1.238  1.00  0.00     0.202 C 
BRANCH  37  38
ATOM     38  C   UNL     1       2.674  -3.635   1.839  1.00  0.00     0.261 C 
BRANCH  38  39
ATOM     39  O   UNL     1       2.605  -3.579   3.272  1.00  0.00    -0.460 OA
BRANCH  39  40
ATOM     40  C   UNL     1       3.633  -2.975   3.912  1.00  0.00     0.338 C 
ATOM     41  O   UNL     1       4.689  -2.609   3.425  1.00  0.00    -0.246 OA
BRANCH  40  42
ATOM     42  C   UNL     1       3.148  -2.592   5.256  1.00  0.00     0.060 A 
ATOM     43  C   UNL     1       2.350  -3.461   6.008  1.00  0.00     0.016 A 
ATOM     44  C   UNL     1       3.431  -1.302   5.727  1.00  0.00     0.016 A 
ATOM     45  C   UNL     1       1.863  -3.051   7.248  1.00  0.00     0.010 A 
ATOM     46  C   UNL     1       2.930  -0.888   6.961  1.00  0.00     0.010 A 
ATOM     47  C   UNL     1       2.171  -1.772   7.741  1.00  0.00    -0.014 A 
BRANCH  47  48
ATOM     48  C   UNL     1       1.935  -1.471   9.169  1.00  0.00     0.031 A 
ATOM     49  C   UNL     1       0.747  -0.702   9.650  1.00  0.00     0.074 A 
ATOM     50  C   UNL     1       2.873  -1.906  10.033  1.00  0.00     0.049 A 
ATOM     51  N   UNL     1       0.417  -0.409  10.881  1.00  0.00    -0.248 NA
ATOM     52  C   UNL     1      -0.192  -0.196   8.637  1.00  0.00     0.031 C 
ATOM     53  C   UNL     1       4.095  -2.622   9.649  1.00  0.00     0.029 A 
ATOM     54  N   UNL     1       2.964  -1.798  11.394  1.00  0.00    -0.354 N 
ATOM     55  C   UNL     1      -0.763   0.316  10.800  1.00  0.00     0.074 A 
ATOM     56  C   UNL     1      -1.091   0.428   9.393  1.00  0.00     0.031 C 
ATOM     57  C   UNL     1       4.823  -2.867  10.746  1.00  0.00     0.029 A 
ATOM     58  C   UNL     1       4.126  -2.323  11.905  1.00  0.00     0.049 A 
ATOM     59  H   UNL     1       2.266  -1.384  11.952  1.00  0.00     0.167 HD
ATOM     60  C   UNL     1      -1.505   0.818  11.816  1.00  0.00     0.034 A 
ATOM     61  C   UNL     1       4.588  -2.358  13.167  1.00  0.00     0.034 A 
ATOM     62  C   UNL     1      -1.168   0.688  13.211  1.00  0.00     0.049 A 
ATOM     63  C   UNL     1       3.735  -1.808  14.267  1.00  0.00     0.074 A 
ATOM     64  C   UNL     1      -1.893   1.113  14.311  1.00  0.00     0.029 A 
ATOM     65  N   UNL     1      -0.010   0.103  13.699  1.00  0.00    -0.354 N 
ATOM     66  N   UNL     1       2.553  -1.250  14.182  1.00  0.00    -0.248 NA
ATOM     67  C   UNL     1       4.256  -1.921  15.635  1.00  0.00     0.031 C 
ATOM     68  C   UNL     1      -1.169   0.796  15.464  1.00  0.00     0.029 A 
ATOM     69  C   UNL     1       0.004   0.164  15.083  1.00  0.00     0.049 A 
ATOM     70  H   UNL     1       0.699  -0.297  13.145  1.00  0.00     0.167 HD
ATOM     71  C   UNL     1       2.182  -0.950  15.484  1.00  0.00     0.074 A 
ATOM     72  C   UNL     1       3.254  -1.415  16.343  1.00  0.00     0.031 C 
ATOM     73  C   UNL     1       1.063  -0.328  15.925  1.00  0.00     0.034 A 
BRANCH  60  74
ATOM     74  C   UNL     1      -2.804   1.504  11.490  1.00  0.00     0.023 A 
ATOM     75  C   UNL     1      -3.948   0.714  11.265  1.00  0.00     0.012 A 
ATOM     76  C   UNL     1      -2.931   2.904  11.576  1.00  0.00     0.148 A 
ATOM     77  C   UNL     1      -5.204   1.306  11.136  1.00  0.00     0.002 A 
ATOM     78  C   UNL     1      -4.190   3.486  11.469  1.00  0.00     0.091 A 
ATOM     79  F   UNL     1      -1.826   3.632  11.790  1.00  0.00    -0.205 F 
ATOM     80  C   UNL     1      -5.326   2.688  11.250  1.00  0.00     0.022 A 
BRANCH  78  81
ATOM     81  S   UNL     1      -4.470   5.251  11.649  1.00  0.00     0.127 S 
ATOM     82  O   UNL     1      -5.044   5.592  10.347  1.00  0.00    -0.237 OA
ATOM     83  O   UNL     1      -5.416   5.298  12.764  1.00  0.00    -0.237 OA
ATOM     84  O   UNL     1      -3.167   5.843  11.917  1.00  0.00    -0.744 OA
ENDBRANCH  78  81
ENDBRANCH  60  74
BRANCH  61  85
ATOM     85  C   UNL     1       5.908  -2.986  13.433  1.00  0.00     0.023 A 
ATOM     86  C   UNL     1       5.963  -4.274  13.995  1.00  0.00     0.012 A 
ATOM     87  C   UNL     1       7.100  -2.347  13.039  1.00  0.00     0.148 A 
ATOM     88  C   UNL     1       7.189  -4.915  14.169  1.00  0.00     0.002 A 
ATOM     89  C   UNL     1       8.313  -3.008  13.176  1.00  0.00     0.091 A 
ATOM     90  F   UNL     1       7.014  -1.120  12.506  1.00  0.00    -0.205 F 
ATOM     91  C   UNL     1       8.361  -4.288  13.750  1.00  0.00     0.022 A 
BRANCH  89  92
ATOM     92  S   UNL     1       9.857  -2.329  12.559  1.00  0.00     0.127 S 
ATOM     93  O   UNL     1      10.581  -2.064  13.800  1.00  0.00    -0.237 OA
ATOM     94  O   UNL     1      10.379  -3.442  11.766  1.00  0.00    -0.237 OA
ATOM     95  O   UNL     1       9.490  -1.154  11.781  1.00  0.00    -0.744 OA
ENDBRANCH  89  92
ENDBRANCH  61  85
BRANCH  73  96
ATOM     96  C   UNL     1       0.938  -0.095  17.404  1.00  0.00     0.023 A 
ATOM     97  C   UNL     1       1.665   0.957  17.996  1.00  0.00     0.012 A 
ATOM     98  C   UNL     1       0.046  -0.853  18.186  1.00  0.00     0.148 A 
ATOM     99  C   UNL     1       1.517   1.241  19.352  1.00  0.00     0.002 A 
ATOM    100  C   UNL     1      -0.122  -0.541  19.529  1.00  0.00     0.091 A 
ATOM    101  F   UNL     1      -0.622  -1.857  17.600  1.00  0.00    -0.205 F 
ATOM    102  C   UNL     1       0.617   0.501  20.115  1.00  0.00     0.022 A 
BRANCH 100 103
ATOM    103  S   UNL     1      -1.306  -1.392  20.578  1.00  0.00     0.127 S 
ATOM    104  O   UNL     1      -0.426  -2.144  21.470  1.00  0.00    -0.237 OA
ATOM    105  O   UNL     1      -2.013  -0.279  21.213  1.00  0.00    -0.237 OA
ATOM    106  O   UNL     1      -2.126  -2.201  19.686  1.00  0.00    -0.744 OA
ENDBRANCH 100 103
ENDBRANCH  73  96
ENDBRANCH  47  48
ENDBRANCH  40  42
ENDBRANCH  39  40
ENDBRANCH  38  39
ENDBRANCH  37  38
ENDBRANCH  36  37
ENDBRANCH  35  36
ENDBRANCH  34  35
ENDBRANCH  33  34
ENDBRANCH   1  33
TORSDOF 25
