ROOT
ATOM    138  H33 UNL A   1       6.480  -1.445   8.205  1.00  0.00    +0.000 H 
ATOM    139  H34 UNL A   1       5.767  -4.013   8.185  1.00  0.00    +0.000 H 
ATOM    140  H35 UNL A   1       3.400  -1.984  10.728  1.00  0.00    +0.000 H 
ATOM    141  H36 UNL A   1      -1.955  -4.373   4.903  1.00  0.00    +0.000 H 
ATOM    142  H37 UNL A   1      -0.224  -3.156   3.485  1.00  0.00    +0.000 H 
ATOM    143  H38 UNL A   1       0.893  -2.681   7.460  1.00  0.00    +0.000 H 
ATOM    144  H39 UNL A   1      -1.111  -2.197   9.949  1.00  0.00    +0.000 H 
ATOM    145  H40 UNL A   1       1.423  -2.064  10.410  1.00  0.00    +0.000 H 
ATOM    146  H41 UNL A   1       2.931   2.283   7.217  1.00  0.00    +0.000 H 
ATOM    147  H42 UNL A   1       1.302   1.391   5.436  1.00  0.00    +0.000 H 
ATOM     47  C36 UNL A   1       1.510  -1.439   5.049  1.00  0.00    +0.000 C 
ATOM     48  C37 UNL A   1       2.202  -0.596   6.064  1.00  0.00    +0.000 C 
ATOM     49  N8  UNL A   1       3.103  -0.953   6.923  1.00  0.00    +0.000 N 
ATOM     50  C38 UNL A   1       3.382   0.185   7.680  1.00  0.00    +0.000 C 
ATOM     51  C39 UNL A   1       3.904   0.092   8.935  1.00  0.00    +0.000 C 
ATOM     63  C46 UNL A   1       4.541  -1.183   9.143  1.00  0.00    +0.000 C 
ATOM     64  C47 UNL A   1       5.602  -1.852   8.565  1.00  0.00    +0.000 C 
ATOM     65  C48 UNL A   1       5.222  -3.227   8.573  1.00  0.00    +0.000 C 
ATOM     66  C49 UNL A   1       3.980  -3.316   9.200  1.00  0.00    +0.000 C 
ATOM     67  N9  UNL A   1       3.871  -2.130   9.876  1.00  0.00    +0.000 N 
ATOM     68  C50 UNL A   1       2.927  -4.298   9.158  1.00  0.00    +0.000 C 
ATOM     80  C57 UNL A   1       1.619  -4.041   9.448  1.00  0.00    +0.000 C 
ATOM     81  N10 UNL A   1       0.608  -4.858   8.964  1.00  0.00    +0.000 N 
ATOM     82  C58 UNL A   1      -0.437  -4.080   8.890  1.00  0.00    +0.000 C 
ATOM     83  C59 UNL A   1      -1.420  -4.137   7.779  1.00  0.00    +0.000 C 
ATOM     95  C66 UNL A   1      -0.785  -3.707   6.659  1.00  0.00    +0.000 C 
ATOM     96  C67 UNL A   1      -1.148  -3.842   5.265  1.00  0.00    +0.000 C 
ATOM     97  C68 UNL A   1      -0.256  -3.160   4.516  1.00  0.00    +0.000 C 
ATOM     98  C69 UNL A   1       0.658  -2.427   5.393  1.00  0.00    +0.000 C 
ATOM     99  N11 UNL A   1       0.364  -2.892   6.657  1.00  0.00    +0.000 N 
ATOM    100  C70 UNL A   1      -0.368  -2.857   9.672  1.00  0.00    +0.000 C 
ATOM    101  C71 UNL A   1       0.943  -2.839   9.928  1.00  0.00    +0.000 C 
ATOM    102  C72 UNL A   1       2.764   1.289   6.996  1.00  0.00    +0.000 C 
ATOM    103  C73 UNL A   1       1.946   0.853   6.038  1.00  0.00    +0.000 C 
ENDROOT
BRANCH   47   46
ATOM    104  C74 UNL A   1       0.672  -0.427   2.949  1.00  0.00    +0.000 C 
ATOM    105  C75 UNL A   1       0.901  -0.015   1.644  1.00  0.00    +0.000 C 
ATOM    136  H31 UNL A   1       4.166  -0.712   1.416  1.00  0.00    +0.000 H 
ATOM     43  C32 UNL A   1       2.163  -0.173   1.039  1.00  0.00    +0.000 C 
ATOM     44  C33 UNL A   1       3.215  -0.665   1.814  1.00  0.00    +0.000 C 
ATOM     45  C34 UNL A   1       2.989  -1.093   3.119  1.00  0.00    +0.000 C 
ATOM    137  H32 UNL A   1       3.769  -1.470   3.681  1.00  0.00    +0.000 H 
ATOM     46  C35 UNL A   1       1.709  -1.013   3.667  1.00  0.00    +0.000 C 
ATOM    148  H43 UNL A   1      -0.257  -0.301   3.381  1.00  0.00    +0.000 H 
ATOM    149  H44 UNL A   1       0.133   0.417   1.107  1.00  0.00    +0.000 H 
BRANCH   43    2
ATOM      1  O1  UNL A   1       1.218   0.637  -0.947  1.00  0.00    +0.000 O 
ATOM      2  C1  UNL A   1       2.216   0.145  -0.414  1.00  0.00    +0.000 C 
BRANCH    2    3
ATOM    106  H1  UNL A   1       3.037  -0.016  -2.193  1.00  0.00    +0.000 H 
ATOM      3  N1  UNL A   1       3.267  -0.126  -1.242  1.00  0.00    +0.000 N 
BRANCH    3    4
ATOM    108  H3  UNL A   1       5.185  -0.212  -1.908  1.00  0.00    +0.000 H 
ATOM    107  H2  UNL A   1       4.997  -0.096  -0.141  1.00  0.00    +0.000 H 
ATOM      4  C2  UNL A   1       4.639  -0.538  -1.047  1.00  0.00    +0.000 C 
BRANCH    4    5
ATOM    109  H4  UNL A   1       4.306  -2.397  -0.083  1.00  0.00    +0.000 H 
ATOM      5  C3  UNL A   1       4.828  -2.052  -0.950  1.00  0.00    +0.000 C 
ATOM    110  H5  UNL A   1       5.884  -2.220  -0.905  1.00  0.00    +0.000 H 
BRANCH    5    6
ATOM      6  C4  UNL A   1       4.318  -2.846  -2.159  1.00  0.00    +0.000 C 
ATOM    111  H6  UNL A   1       3.252  -2.763  -2.180  1.00  0.00    +0.000 H 
ATOM    112  H7  UNL A   1       4.674  -3.846  -2.021  1.00  0.00    +0.000 H 
BRANCH    6    7
ATOM    113  H8  UNL A   1       4.469  -1.420  -3.723  1.00  0.00    +0.000 H 
ATOM    114  H9  UNL A   1       4.527  -3.140  -4.223  1.00  0.00    +0.000 H 
ATOM      7  C5  UNL A   1       4.852  -2.399  -3.523  1.00  0.00    +0.000 C 
BRANCH    7    8
ATOM    115  H10 UNL A   1       6.741  -1.614  -2.954  1.00  0.00    +0.000 H 
ATOM    116  H11 UNL A   1       6.587  -2.096  -4.668  1.00  0.00    +0.000 H 
ATOM      8  C6  UNL A   1       6.377  -2.343  -3.648  1.00  0.00    +0.000 C 
BRANCH    8    9
ATOM      9  C7  UNL A   1       7.091  -3.662  -3.370  1.00  0.00    +0.000 C 
ATOM    117  H12 UNL A   1       6.776  -4.028  -2.415  1.00  0.00    +0.000 H 
ATOM    118  H13 UNL A   1       8.144  -3.473  -3.390  1.00  0.00    +0.000 H 
BRANCH    9   10
ATOM     10  N2  UNL A   1       6.803  -4.673  -4.375  1.00  0.00    +0.000 N 
ATOM    119  H14 UNL A   1       5.882  -5.019  -4.379  1.00  0.00    +0.000 H 
BRANCH   10   11
ATOM     11  C8  UNL A   1       7.642  -5.208  -5.319  1.00  0.00    +0.000 C 
ATOM     12  O2  UNL A   1       7.198  -5.906  -6.229  1.00  0.00    +0.000 O 
BRANCH   11   13
ATOM    134  H29 UNL A   1      11.708  -5.080  -3.175  1.00  0.00    +0.000 H 
ATOM    135  H30 UNL A   1       9.346  -5.649  -3.279  1.00  0.00    +0.000 H 
ATOM     41  C30 UNL A   1      11.161  -4.873  -4.025  1.00  0.00    +0.000 C 
ATOM     42  C31 UNL A   1       9.810  -5.203  -4.086  1.00  0.00    +0.000 C 
ATOM     13  C9  UNL A   1       9.088  -4.924  -5.250  1.00  0.00    +0.000 C 
ATOM     14  C10 UNL A   1       9.719  -4.368  -6.369  1.00  0.00    +0.000 C 
ATOM     15  C11 UNL A   1      11.063  -3.996  -6.299  1.00  0.00    +0.000 C 
ATOM     16  C12 UNL A   1      11.778  -4.255  -5.129  1.00  0.00    +0.000 C 
ATOM    120  H15 UNL A   1       9.192  -4.233  -7.246  1.00  0.00    +0.000 H 
ATOM    121  H16 UNL A   1      11.521  -3.535  -7.101  1.00  0.00    +0.000 H 
BRANCH   16   17
ATOM     39  N6  UNL A   1      15.066  -2.992  -5.301  1.00  0.00    +0.000 N 
ATOM     40  N7  UNL A   1      13.767  -2.909  -5.595  1.00  0.00    +0.000 N 
ATOM     17  N3  UNL A   1      13.161  -4.004  -5.093  1.00  0.00    +0.000 N 
ATOM     18  C13 UNL A   1      14.094  -4.828  -4.536  1.00  0.00    +0.000 C 
ATOM     19  C14 UNL A   1      15.305  -4.209  -4.702  1.00  0.00    +0.000 C 
ATOM    122  H17 UNL A   1      13.922  -5.737  -4.079  1.00  0.00    +0.000 H 
BRANCH   19   20
ATOM    124  H19 UNL A   1      17.168  -3.659  -4.295  1.00  0.00    +0.000 H 
ATOM    123  H18 UNL A   1      16.413  -4.892  -3.121  1.00  0.00    +0.000 H 
ATOM     20  C15 UNL A   1      16.620  -4.561  -4.117  1.00  0.00    +0.000 C 
BRANCH   20   21
ATOM     21  S1  UNL A   1      17.740  -5.779  -4.811  1.00  0.00    +0.000 S 
BRANCH   21   22
ATOM    127  H22 UNL A   1      15.638  -9.885 -10.889  1.00  0.00    +0.000 H 
ATOM    126  H21 UNL A   1      18.037  -9.973 -10.513  1.00  0.00    +0.000 H 
ATOM    128  H23 UNL A   1      14.205  -8.774  -9.263  1.00  0.00    +0.000 H 
ATOM    125  H20 UNL A   1      19.027  -8.762  -8.655  1.00  0.00    +0.000 H 
ATOM     22  C16 UNL A   1      16.972  -6.934  -5.866  1.00  0.00    +0.000 C 
ATOM     23  N4  UNL A   1      17.728  -7.257  -6.878  1.00  0.00    +0.000 N 
ATOM     24  C17 UNL A   1      17.190  -8.087  -7.871  1.00  0.00    +0.000 C 
ATOM     25  C18 UNL A   1      18.003  -8.765  -8.779  1.00  0.00    +0.000 C 
ATOM     26  C19 UNL A   1      17.433  -9.450  -9.861  1.00  0.00    +0.000 C 
ATOM     27  C20 UNL A   1      16.050  -9.428 -10.060  1.00  0.00    +0.000 C 
ATOM     28  C21 UNL A   1      15.229  -8.789  -9.135  1.00  0.00    +0.000 C 
ATOM     29  C22 UNL A   1      15.815  -8.166  -8.029  1.00  0.00    +0.000 C 
ATOM     30  C23 UNL A   1      15.020  -7.653  -6.908  1.00  0.00    +0.000 C 
ATOM     31  O3  UNL A   1      13.832  -7.398  -7.096  1.00  0.00    +0.000 O 
ATOM     32  N5  UNL A   1      15.717  -7.494  -5.704  1.00  0.00    +0.000 N 
BRANCH   32   33
ATOM     33  C24 UNL A   1      15.046  -7.859  -4.473  1.00  0.00    +0.000 C 
ATOM     34  C25 UNL A   1      13.825  -8.566  -4.530  1.00  0.00    +0.000 C 
ATOM    129  H24 UNL A   1      13.537  -8.992  -5.424  1.00  0.00    +0.000 H 
ATOM     35  C26 UNL A   1      12.994  -8.708  -3.416  1.00  0.00    +0.000 C 
ATOM    133  H28 UNL A   1      16.482  -7.237  -3.060  1.00  0.00    +0.000 H 
ATOM     38  C29 UNL A   1      15.503  -7.536  -3.191  1.00  0.00    +0.000 C 
ATOM     37  C28 UNL A   1      14.648  -7.613  -2.080  1.00  0.00    +0.000 C 
ATOM    130  H25 UNL A   1      12.099  -9.214  -3.498  1.00  0.00    +0.000 H 
ATOM     36  C27 UNL A   1      13.379  -8.164  -2.201  1.00  0.00    +0.000 C 
ATOM    132  H27 UNL A   1      14.966  -7.257  -1.165  1.00  0.00    +0.000 H 
ATOM    131  H26 UNL A   1      12.731  -8.169  -1.398  1.00  0.00    +0.000 H 
ENDBRANCH   32   33
ENDBRANCH   21   22
ENDBRANCH   20   21
ENDBRANCH   19   20
ENDBRANCH   16   17
ENDBRANCH   11   13
ENDBRANCH   10   11
ENDBRANCH    9   10
ENDBRANCH    8    9
ENDBRANCH    7    8
ENDBRANCH    6    7
ENDBRANCH    5    6
ENDBRANCH    4    5
ENDBRANCH    3    4
ENDBRANCH    2    3
ENDBRANCH   43    2
ENDBRANCH   47   46
BRANCH   51   52
ATOM     52  C40 UNL A   1       3.497   0.978  10.094  1.00  0.00    +0.000 C 
ATOM     53  C41 UNL A   1       4.136   0.802  11.340  1.00  0.00    +0.000 C 
ATOM     54  F1  UNL A   1       5.278   0.105  11.432  1.00  0.00    +0.000 F 
ATOM     55  C42 UNL A   1       3.561   1.242  12.536  1.00  0.00    +0.000 C 
ATOM     56  F2  UNL A   1       4.131   0.920  13.705  1.00  0.00    +0.000 F 
ATOM     57  C43 UNL A   1       2.367   1.937  12.525  1.00  0.00    +0.000 C 
ATOM     58  F3  UNL A   1       1.774   2.292  13.672  1.00  0.00    +0.000 F 
ATOM     59  C44 UNL A   1       1.763   2.219  11.319  1.00  0.00    +0.000 C 
ATOM     60  F4  UNL A   1       0.600   2.885  11.288  1.00  0.00    +0.000 F 
ATOM     61  C45 UNL A   1       2.307   1.738  10.129  1.00  0.00    +0.000 C 
ATOM     62  F5  UNL A   1       1.562   1.956   9.041  1.00  0.00    +0.000 F 
ENDBRANCH   51   52
BRANCH   68   69
ATOM     69  C51 UNL A   1       3.253  -5.616   8.517  1.00  0.00    +0.000 C 
ATOM     70  C52 UNL A   1       2.791  -5.998   7.245  1.00  0.00    +0.000 C 
ATOM     71  F6  UNL A   1       1.987  -5.193   6.537  1.00  0.00    +0.000 F 
ATOM     72  C53 UNL A   1       3.203  -7.193   6.657  1.00  0.00    +0.000 C 
ATOM     73  F7  UNL A   1       2.741  -7.541   5.447  1.00  0.00    +0.000 F 
ATOM     74  C54 UNL A   1       4.122  -8.004   7.304  1.00  0.00    +0.000 C 
ATOM     75  F8  UNL A   1       4.553  -9.130   6.720  1.00  0.00    +0.000 F 
ATOM     76  C55 UNL A   1       4.618  -7.630   8.543  1.00  0.00    +0.000 C 
ATOM     77  F9  UNL A   1       5.546  -8.384   9.148  1.00  0.00    +0.000 F 
ATOM     78  C56 UNL A   1       4.179  -6.456   9.148  1.00  0.00    +0.000 C 
ATOM     79  F10 UNL A   1       4.699  -6.110  10.336  1.00  0.00    +0.000 F 
ENDBRANCH   68   69
BRANCH   83   84
ATOM     84  C60 UNL A   1      -2.878  -4.258   8.012  1.00  0.00    +0.000 C 
ATOM     85  C61 UNL A   1      -3.386  -5.001   9.090  1.00  0.00    +0.000 C 
ATOM     86  F11 UNL A   1      -2.572  -5.790   9.807  1.00  0.00    +0.000 F 
ATOM     87  C62 UNL A   1      -4.722  -4.892   9.491  1.00  0.00    +0.000 C 
ATOM     88  F12 UNL A   1      -5.158  -5.573  10.560  1.00  0.00    +0.000 F 
ATOM     89  C63 UNL A   1      -5.587  -4.040   8.824  1.00  0.00    +0.000 C 
ATOM     90  F13 UNL A   1      -6.851  -3.889   9.244  1.00  0.00    +0.000 F 
ATOM     91  C64 UNL A   1      -5.124  -3.310   7.745  1.00  0.00    +0.000 C 
ATOM     92  F14 UNL A   1      -5.939  -2.452   7.116  1.00  0.00    +0.000 F 
ATOM     93  C65 UNL A   1      -3.791  -3.415   7.348  1.00  0.00    +0.000 C 
ATOM     94  F15 UNL A   1      -3.383  -2.603   6.362  1.00  0.00    +0.000 F 
ENDBRANCH   83   84
TORSDOF 20