ROOT
ATOM    142  H40 UNL A   1     -10.716  18.413  -4.675  1.00  0.00    +0.000 H 
ATOM    143  H41 UNL A   1     -13.044  18.826  -5.774  1.00  0.00    +0.000 H 
ATOM    144  H42 UNL A   1     -10.665  16.797  -8.489  1.00  0.00    +0.000 H 
ATOM    145  H43 UNL A   1      -9.791  14.394 -14.336  1.00  0.00    +0.000 H 
ATOM    146  H44 UNL A   1      -7.545  13.940 -13.239  1.00  0.00    +0.000 H 
ATOM    147  H45 UNL A   1      -9.938  15.909 -10.468  1.00  0.00    +0.000 H 
ATOM    148  H46 UNL A   1     -14.383  16.589 -12.717  1.00  0.00    +0.000 H 
ATOM    149  H47 UNL A   1     -15.116  17.835 -10.605  1.00  0.00    +0.000 H 
ATOM    150  H48 UNL A   1      -6.296  15.797  -6.244  1.00  0.00    +0.000 H 
ATOM    151  H49 UNL A   1      -5.378  14.977  -8.489  1.00  0.00    +0.000 H 
ATOM     38  C31 UNL A   1      -7.329  14.904 -10.565  1.00  0.00    +0.000 C 
ATOM     39  C32 UNL A   1      -7.490  15.444  -9.172  1.00  0.00    +0.000 C 
ATOM     40  N4  UNL A   1      -8.539  15.994  -8.612  1.00  0.00    +0.000 N 
ATOM     41  C33 UNL A   1      -8.167  16.273  -7.304  1.00  0.00    +0.000 C 
ATOM     42  C34 UNL A   1      -8.881  16.898  -6.337  1.00  0.00    +0.000 C 
ATOM     54  C41 UNL A   1     -10.218  17.403  -6.515  1.00  0.00    +0.000 C 
ATOM     55  C42 UNL A   1     -11.000  18.111  -5.620  1.00  0.00    +0.000 C 
ATOM     56  C43 UNL A   1     -12.244  18.347  -6.217  1.00  0.00    +0.000 C 
ATOM     57  C44 UNL A   1     -12.220  17.829  -7.501  1.00  0.00    +0.000 C 
ATOM     58  N5  UNL A   1     -10.972  17.250  -7.670  1.00  0.00    +0.000 N 
ATOM     59  C45 UNL A   1     -13.256  17.858  -8.501  1.00  0.00    +0.000 C 
ATOM     71  C52 UNL A   1     -13.148  17.341  -9.750  1.00  0.00    +0.000 C 
ATOM     72  N6  UNL A   1     -12.069  16.692 -10.334  1.00  0.00    +0.000 N 
ATOM     73  C53 UNL A   1     -12.456  16.368 -11.544  1.00  0.00    +0.000 C 
ATOM     74  C54 UNL A   1     -11.686  15.671 -12.632  1.00  0.00    +0.000 C 
ATOM     86  C61 UNL A   1     -10.406  15.317 -12.408  1.00  0.00    +0.000 C 
ATOM     87  C62 UNL A   1      -9.534  14.648 -13.369  1.00  0.00    +0.000 C 
ATOM     88  C63 UNL A   1      -8.344  14.418 -12.793  1.00  0.00    +0.000 C 
ATOM     89  C64 UNL A   1      -8.359  14.954 -11.431  1.00  0.00    +0.000 C 
ATOM     90  N7  UNL A   1      -9.623  15.470 -11.291  1.00  0.00    +0.000 N 
ATOM     91  C65 UNL A   1     -13.838  16.757 -11.857  1.00  0.00    +0.000 C 
ATOM     92  C66 UNL A   1     -14.200  17.380 -10.745  1.00  0.00    +0.000 C 
ATOM     93  C67 UNL A   1      -6.814  15.787  -7.137  1.00  0.00    +0.000 C 
ATOM     94  C68 UNL A   1      -6.327  15.326  -8.280  1.00  0.00    +0.000 C 
ENDROOT
BRANCH   38   37
ATOM     34  C27 UNL A   1      -3.721  12.943 -11.796  1.00  0.00    +0.000 C 
ATOM     35  C28 UNL A   1      -4.090  14.152 -12.395  1.00  0.00    +0.000 C 
ATOM     36  C29 UNL A   1      -5.247  14.812 -11.973  1.00  0.00    +0.000 C 
ATOM     37  C30 UNL A   1      -6.061  14.251 -10.976  1.00  0.00    +0.000 C 
ATOM    140  H38 UNL A   1      -3.510  14.555 -13.146  1.00  0.00    +0.000 H 
ATOM    141  H39 UNL A   1      -5.505  15.717 -12.397  1.00  0.00    +0.000 H 
ATOM    152  H50 UNL A   1      -6.262  12.626  -9.638  1.00  0.00    +0.000 H 
ATOM    153  H51 UNL A   1      -4.157  11.585 -10.239  1.00  0.00    +0.000 H 
ATOM     95  C69 UNL A   1      -5.667  13.050 -10.367  1.00  0.00    +0.000 C 
ATOM     96  C70 UNL A   1      -4.479  12.427 -10.741  1.00  0.00    +0.000 C 
BRANCH   34   32
ATOM     33  O4  UNL A   1      -1.509  12.921 -12.573  1.00  0.00    +0.000 O 
ATOM     32  C26 UNL A   1      -2.496  12.258 -12.267  1.00  0.00    +0.000 C 
BRANCH   32   31
ATOM    139  H37 UNL A   1      -1.555  10.495 -12.386  1.00  0.00    +0.000 H 
ATOM     31  N3  UNL A   1      -2.456  10.890 -12.358  1.00  0.00    +0.000 N 
BRANCH   31   30
ATOM    137  H35 UNL A   1      -3.416   9.200 -11.658  1.00  0.00    +0.000 H 
ATOM    138  H36 UNL A   1      -4.468  10.476 -12.276  1.00  0.00    +0.000 H 
ATOM     30  C25 UNL A   1      -3.554   9.937 -12.421  1.00  0.00    +0.000 C 
BRANCH   30   29
ATOM     29  C24 UNL A   1      -3.628   9.237 -13.776  1.00  0.00    +0.000 C 
ATOM    135  H33 UNL A   1      -4.492   8.606 -13.778  1.00  0.00    +0.000 H 
ATOM    136  H34 UNL A   1      -3.669  10.012 -14.513  1.00  0.00    +0.000 H 
BRANCH   29   28
ATOM     28  C23 UNL A   1      -2.408   8.377 -14.123  1.00  0.00    +0.000 C 
ATOM    133  H31 UNL A   1      -2.578   7.936 -15.083  1.00  0.00    +0.000 H 
ATOM    134  H32 UNL A   1      -1.567   9.036 -14.092  1.00  0.00    +0.000 H 
BRANCH   28   27
ATOM     27  C22 UNL A   1      -2.092   7.246 -13.134  1.00  0.00    +0.000 C 
ATOM    132  H30 UNL A   1      -1.865   7.721 -12.202  1.00  0.00    +0.000 H 
ATOM    131  H29 UNL A   1      -1.278   6.677 -13.532  1.00  0.00    +0.000 H 
BRANCH   27   26
ATOM    129  H27 UNL A   1      -2.939   5.594 -12.096  1.00  0.00    +0.000 H 
ATOM     26  C21 UNL A   1      -3.251   6.285 -12.852  1.00  0.00    +0.000 C 
ATOM    130  H28 UNL A   1      -4.083   6.883 -12.544  1.00  0.00    +0.000 H 
BRANCH   26   25
ATOM     25  C20 UNL A   1      -3.707   5.486 -14.076  1.00  0.00    +0.000 C 
ATOM    127  H25 UNL A   1      -4.750   5.267 -13.978  1.00  0.00    +0.000 H 
ATOM    128  H26 UNL A   1      -3.518   6.077 -14.948  1.00  0.00    +0.000 H 
BRANCH   25   24
ATOM    126  H24 UNL A   1      -2.114   4.327 -14.673  1.00  0.00    +0.000 H 
ATOM     24  N2  UNL A   1      -2.978   4.242 -14.209  1.00  0.00    +0.000 N 
BRANCH   24   22
ATOM     22  C19 UNL A   1      -3.275   2.976 -13.806  1.00  0.00    +0.000 C 
ATOM     23  O3  UNL A   1      -2.352   2.155 -13.863  1.00  0.00    +0.000 O 
BRANCH   22   20
ATOM    122  H20 UNL A   1      -4.628   1.462 -13.317  1.00  0.00    +0.000 H 
ATOM     20  C17 UNL A   1      -4.667   2.531 -13.329  1.00  0.00    +0.000 C 
BRANCH   20   19
ATOM     97  C71 UNL A   1      -4.692   1.955 -10.868  1.00  0.00    +0.000 C 
ATOM     98  C72 UNL A   1      -4.895   2.271  -9.509  1.00  0.00    +0.000 C 
ATOM     16  C13 UNL A   1      -5.285   3.564  -9.112  1.00  0.00    +0.000 C 
ATOM     17  C14 UNL A   1      -5.597   4.469 -10.141  1.00  0.00    +0.000 C 
ATOM     18  C15 UNL A   1      -5.480   4.125 -11.492  1.00  0.00    +0.000 C 
ATOM     19  C16 UNL A   1      -4.962   2.889 -11.880  1.00  0.00    +0.000 C 
ATOM    120  H18 UNL A   1      -5.922   5.416  -9.893  1.00  0.00    +0.000 H 
ATOM    121  H19 UNL A   1      -5.783   4.797 -12.214  1.00  0.00    +0.000 H 
ATOM    154  H52 UNL A   1      -4.338   1.020 -11.123  1.00  0.00    +0.000 H 
BRANCH   16   15
ATOM    102  C73 UNL A   1      -4.262   3.808  -6.828  1.00  0.00    +0.000 C 
ATOM     11  C8  UNL A   1      -4.330   4.258  -5.508  1.00  0.00    +0.000 C 
ATOM     12  C9  UNL A   1      -5.437   4.959  -5.040  1.00  0.00    +0.000 C 
ATOM     13  C10 UNL A   1      -6.492   5.219  -5.908  1.00  0.00    +0.000 C 
ATOM     14  C11 UNL A   1      -6.444   4.751  -7.225  1.00  0.00    +0.000 C 
ATOM     15  C12 UNL A   1      -5.333   4.035  -7.710  1.00  0.00    +0.000 C 
ATOM    117  H15 UNL A   1      -5.475   5.282  -4.061  1.00  0.00    +0.000 H 
ATOM    118  H16 UNL A   1      -7.310   5.756  -5.580  1.00  0.00    +0.000 H 
ATOM    119  H17 UNL A   1      -7.240   4.936  -7.855  1.00  0.00    +0.000 H 
ATOM    155  H53 UNL A   1      -3.423   3.307  -7.157  1.00  0.00    +0.000 H 
BRANCH   11   10
ATOM     10  O2  UNL A   1      -3.368   3.889  -4.551  1.00  0.00    +0.000 O 
BRANCH   10    8
ATOM      9  O1  UNL A   1      -1.558   4.660  -5.792  1.00  0.00    +0.000 O 
ATOM      8  C7  UNL A   1      -2.021   4.060  -4.831  1.00  0.00    +0.000 C 
BRANCH    8    7
ATOM    116  H14 UNL A   1      -0.238   3.579  -4.030  1.00  0.00    +0.000 H 
ATOM      7  N1  UNL A   1      -1.208   3.483  -3.893  1.00  0.00    +0.000 N 
BRANCH    7    6
ATOM    114  H12 UNL A   1      -1.314   3.276  -1.845  1.00  0.00    +0.000 H 
ATOM    115  H13 UNL A   1      -2.695   2.651  -2.752  1.00  0.00    +0.000 H 
ATOM      6  C6  UNL A   1      -1.629   2.744  -2.719  1.00  0.00    +0.000 C 
BRANCH    6    5
ATOM    113  H11 UNL A   1      -1.282   0.882  -3.618  1.00  0.00    +0.000 H 
ATOM      5  C5  UNL A   1      -1.035   1.336  -2.681  1.00  0.00    +0.000 C 
ATOM    112  H10 UNL A   1      -1.449   0.823  -1.839  1.00  0.00    +0.000 H 
BRANCH    5    4
ATOM      4  C4  UNL A   1       0.493   1.282  -2.567  1.00  0.00    +0.000 C 
ATOM    110  H8  UNL A   1       0.785   0.254  -2.534  1.00  0.00    +0.000 H 
ATOM    111  H9  UNL A   1       0.870   1.810  -3.418  1.00  0.00    +0.000 H 
BRANCH    4    3
ATOM      3  C3  UNL A   1       1.089   1.982  -1.341  1.00  0.00    +0.000 C 
ATOM    108  H6  UNL A   1       2.151   1.861  -1.375  1.00  0.00    +0.000 H 
ATOM    109  H7  UNL A   1       0.769   3.001  -1.399  1.00  0.00    +0.000 H 
BRANCH    3    2
ATOM      2  C2  UNL A   1       0.599   1.464   0.014  1.00  0.00    +0.000 C 
ATOM    107  H5  UNL A   1      -0.469   1.527   0.010  1.00  0.00    +0.000 H 
ATOM    106  H4  UNL A   1       1.036   2.063   0.785  1.00  0.00    +0.000 H 
BRANCH    2    1
ATOM      1  C1  UNL A   1       0.963   0.009   0.269  1.00  0.00    +0.000 C 
ATOM    105  H3  UNL A   1       0.524  -0.606  -0.488  1.00  0.00    +0.000 H 
ATOM    103  H1  UNL A   1       0.593  -0.288   1.228  1.00  0.00    +0.000 H 
ATOM    104  H2  UNL A   1       2.027  -0.102   0.248  1.00  0.00    +0.000 H 
ENDBRANCH    2    1
ENDBRANCH    3    2
ENDBRANCH    4    3
ENDBRANCH    5    4
ENDBRANCH    6    5
ENDBRANCH    7    6
ENDBRANCH    8    7
ENDBRANCH   10    8
ENDBRANCH   11   10
ENDBRANCH   16   15
BRANCH   98   99
ATOM     99  N8  UNL A   1      -4.744   1.201  -8.548  1.00  0.00    +0.000 N 
ATOM    100  O5  UNL A   1      -3.940   0.310  -8.734  1.00  0.00    +0.000 O 
ATOM    101  O6  UNL A   1      -5.597   1.079  -7.477  1.00  0.00    +0.000 O 
ENDBRANCH   98   99
ENDBRANCH   20   19
BRANCH   20   21
ATOM    125  H23 UNL A   1      -5.542   2.392 -15.275  1.00  0.00    +0.000 H 
ATOM    123  H21 UNL A   1      -5.932   3.866 -14.421  1.00  0.00    +0.000 H 
ATOM    124  H22 UNL A   1      -6.701   2.364 -13.968  1.00  0.00    +0.000 H 
ATOM     21  C18 UNL A   1      -5.795   2.809 -14.323  1.00  0.00    +0.000 C 
ENDBRANCH   20   21
ENDBRANCH   22   20
ENDBRANCH   24   22
ENDBRANCH   25   24
ENDBRANCH   26   25
ENDBRANCH   27   26
ENDBRANCH   28   27
ENDBRANCH   29   28
ENDBRANCH   30   29
ENDBRANCH   31   30
ENDBRANCH   32   31
ENDBRANCH   34   32
ENDBRANCH   38   37
BRANCH   42   43
ATOM     43  C35 UNL A   1      -8.228  17.071  -4.996  1.00  0.00    +0.000 C 
ATOM     44  C36 UNL A   1      -7.155  17.956  -4.808  1.00  0.00    +0.000 C 
ATOM     45  F1  UNL A   1      -6.660  18.646  -5.846  1.00  0.00    +0.000 F 
ATOM     46  C37 UNL A   1      -6.558  18.104  -3.559  1.00  0.00    +0.000 C 
ATOM     47  F2  UNL A   1      -5.501  18.916  -3.415  1.00  0.00    +0.000 F 
ATOM     48  C38 UNL A   1      -7.043  17.400  -2.467  1.00  0.00    +0.000 C 
ATOM     49  F3  UNL A   1      -6.470  17.547  -1.265  1.00  0.00    +0.000 F 
ATOM     50  C39 UNL A   1      -8.119  16.539  -2.624  1.00  0.00    +0.000 C 
ATOM     51  F4  UNL A   1      -8.598  15.868  -1.567  1.00  0.00    +0.000 F 
ATOM     52  C40 UNL A   1      -8.699  16.366  -3.878  1.00  0.00    +0.000 C 
ATOM     53  F5  UNL A   1      -9.727  15.512  -4.000  1.00  0.00    +0.000 F 
ENDBRANCH   42   43
BRANCH   59   60
ATOM     65  C49 UNL A   1     -16.948  19.814  -7.441  1.00  0.00    +0.000 C 
ATOM     66  F8  UNL A   1     -18.094  20.426  -7.114  1.00  0.00    +0.000 F 
ATOM     67  C50 UNL A   1     -15.793  20.558  -7.632  1.00  0.00    +0.000 C 
ATOM     68  F9  UNL A   1     -15.819  21.887  -7.468  1.00  0.00    +0.000 F 
ATOM     69  C51 UNL A   1     -14.607  19.925  -7.994  1.00  0.00    +0.000 C 
ATOM     70  F10 UNL A   1     -13.510  20.672  -8.185  1.00  0.00    +0.000 F 
ATOM     60  C46 UNL A   1     -14.551  18.532  -8.149  1.00  0.00    +0.000 C 
ATOM     61  C47 UNL A   1     -15.726  17.797  -7.932  1.00  0.00    +0.000 C 
ATOM     62  F6  UNL A   1     -15.726  16.464  -8.084  1.00  0.00    +0.000 F 
ATOM     63  C48 UNL A   1     -16.917  18.436  -7.598  1.00  0.00    +0.000 C 
ATOM     64  F7  UNL A   1     -18.038  17.719  -7.442  1.00  0.00    +0.000 F 
ENDBRANCH   59   60
BRANCH   74   75
ATOM     75  C55 UNL A   1     -12.307  15.398 -13.953  1.00  0.00    +0.000 C 
ATOM     76  C56 UNL A   1     -12.592  16.444 -14.842  1.00  0.00    +0.000 C 
ATOM     77  F11 UNL A   1     -12.331  17.711 -14.489  1.00  0.00    +0.000 F 
ATOM     78  C57 UNL A   1     -13.178  16.195 -16.081  1.00  0.00    +0.000 C 
ATOM     79  F12 UNL A   1     -13.476  17.217 -16.895  1.00  0.00    +0.000 F 
ATOM     80  C58 UNL A   1     -13.465  14.895 -16.466  1.00  0.00    +0.000 C 
ATOM     81  F13 UNL A   1     -14.022  14.655 -17.661  1.00  0.00    +0.000 F 
ATOM     82  C59 UNL A   1     -13.178  13.843 -15.610  1.00  0.00    +0.000 C 
ATOM     83  F14 UNL A   1     -13.440  12.583 -15.985  1.00  0.00    +0.000 F 
ATOM     84  C60 UNL A   1     -12.617  14.092 -14.359  1.00  0.00    +0.000 C 
ATOM     85  F15 UNL A   1     -12.357  13.057 -13.547  1.00  0.00    +0.000 F 
ENDBRANCH   74   75
TORSDOF 28