ROOT
ATOM     19  C15 UNL A   1      13.118   1.998   0.136  1.00  0.00    +0.000 C 
ATOM     20  C16 UNL A   1      13.752   2.593   1.361  1.00  0.00    +0.000 C 
ATOM     21  N3  UNL A   1      14.382   3.733   1.497  1.00  0.00    +0.000 N 
ATOM     22  C17 UNL A   1      14.725   3.817   2.840  1.00  0.00    +0.000 C 
ATOM     23  C18 UNL A   1      15.431   4.784   3.472  1.00  0.00    +0.000 C 
ATOM     35  C25 UNL A   1      15.984   5.943   2.823  1.00  0.00    +0.000 C 
ATOM     36  C26 UNL A   1      16.770   6.944   3.366  1.00  0.00    +0.000 C 
ATOM     37  C27 UNL A   1      17.044   7.879   2.361  1.00  0.00    +0.000 C 
ATOM     38  C28 UNL A   1      16.459   7.441   1.185  1.00  0.00    +0.000 C 
ATOM     39  N4  UNL A   1      15.809   6.254   1.483  1.00  0.00    +0.000 N 
ATOM     40  C29 UNL A   1      16.488   8.057  -0.116  1.00  0.00    +0.000 C 
ATOM     52  C36 UNL A   1      15.898   7.556  -1.228  1.00  0.00    +0.000 C 
ATOM     53  N5  UNL A   1      15.165   6.387  -1.374  1.00  0.00    +0.000 N 
ATOM     54  C37 UNL A   1      14.798   6.346  -2.631  1.00  0.00    +0.000 C 
ATOM     55  C38 UNL A   1      14.004   5.294  -3.354  1.00  0.00    +0.000 C 
ATOM     67  C45 UNL A   1      13.597   4.198  -2.686  1.00  0.00    +0.000 C 
ATOM     68  C46 UNL A   1      12.827   3.096  -3.255  1.00  0.00    +0.000 C 
ATOM     69  C47 UNL A   1      12.567   2.199  -2.290  1.00  0.00    +0.000 C 
ATOM     70  C48 UNL A   1      13.180   2.650  -1.040  1.00  0.00    +0.000 C 
ATOM     71  N6  UNL A   1      13.776   3.841  -1.372  1.00  0.00    +0.000 N 
ATOM     72  C49 UNL A   1      15.239   7.504  -3.423  1.00  0.00    +0.000 C 
ATOM     73  C50 UNL A   1      15.934   8.193  -2.529  1.00  0.00    +0.000 C 
ATOM     74  C51 UNL A   1      14.198   2.633   3.486  1.00  0.00    +0.000 C 
ATOM     75  C52 UNL A   1      13.641   1.815   2.605  1.00  0.00    +0.000 C 
ATOM    111  H21 UNL A   1      17.098   6.993   4.343  1.00  0.00    +0.000 H 
ATOM    112  H22 UNL A   1      17.590   8.747   2.477  1.00  0.00    +0.000 H 
ATOM    113  H23 UNL A   1      15.299   5.712   0.839  1.00  0.00    +0.000 H 
ATOM    114  H24 UNL A   1      12.531   3.018  -4.240  1.00  0.00    +0.000 H 
ATOM    115  H25 UNL A   1      12.022   1.331  -2.411  1.00  0.00    +0.000 H 
ATOM    116  H26 UNL A   1      14.284   4.387  -0.729  1.00  0.00    +0.000 H 
ATOM    117  H27 UNL A   1      15.056   7.722  -4.415  1.00  0.00    +0.000 H 
ATOM    118  H28 UNL A   1      16.436   9.071  -2.733  1.00  0.00    +0.000 H 
ATOM    119  H29 UNL A   1      14.250   2.450   4.500  1.00  0.00    +0.000 H 
ATOM    120  H30 UNL A   1      13.236   0.877   2.752  1.00  0.00    +0.000 H 
ENDROOT
BRANCH   19   18
ATOM     76  C53 UNL A   1      11.165   0.683   0.965  1.00  0.00    +0.000 C 
ATOM    109  H19 UNL A   1      12.393  -2.465  -0.832  1.00  0.00    +0.000 H 
ATOM     77  C54 UNL A   1      10.441  -0.503   1.066  1.00  0.00    +0.000 C 
ATOM     15  C11 UNL A   1      10.859  -1.636   0.361  1.00  0.00    +0.000 C 
ATOM     16  C12 UNL A   1      12.063  -1.615  -0.349  1.00  0.00    +0.000 C 
ATOM     17  C13 UNL A   1      12.818  -0.442  -0.402  1.00  0.00    +0.000 C 
ATOM    110  H20 UNL A   1      13.717  -0.432  -0.908  1.00  0.00    +0.000 H 
ATOM     18  C14 UNL A   1      12.360   0.725   0.231  1.00  0.00    +0.000 C 
ATOM    121  H31 UNL A   1      10.820   1.536   1.433  1.00  0.00    +0.000 H 
ATOM    122  H32 UNL A   1       9.598  -0.546   1.660  1.00  0.00    +0.000 H 
BRANCH   15   13
ATOM     13  C10 UNL A   1      10.056  -2.879   0.366  1.00  0.00    +0.000 C 
ATOM     14  O2  UNL A   1      10.615  -3.961   0.520  1.00  0.00    +0.000 O 
BRANCH   13   12
ATOM    108  H18 UNL A   1       8.213  -3.662   0.353  1.00  0.00    +0.000 H 
ATOM     12  N2  UNL A   1       8.698  -2.822   0.181  1.00  0.00    +0.000 N 
BRANCH   12   11
ATOM    106  H16 UNL A   1       7.246  -1.413   0.585  1.00  0.00    +0.000 H 
ATOM     11  C9  UNL A   1       7.872  -1.700  -0.234  1.00  0.00    +0.000 C 
ATOM    107  H17 UNL A   1       8.526  -0.904  -0.525  1.00  0.00    +0.000 H 
BRANCH   11   10
ATOM    105  H15 UNL A   1       7.638  -2.450  -2.175  1.00  0.00    +0.000 H 
ATOM     10  C8  UNL A   1       6.988  -2.038  -1.431  1.00  0.00    +0.000 C 
ATOM    104  H14 UNL A   1       6.497  -1.141  -1.745  1.00  0.00    +0.000 H 
BRANCH   10    9
ATOM      9  C7  UNL A   1       5.917  -3.098  -1.165  1.00  0.00    +0.000 C 
ATOM    102  H12 UNL A   1       5.353  -3.231  -2.065  1.00  0.00    +0.000 H 
ATOM    103  H13 UNL A   1       6.440  -3.978  -0.854  1.00  0.00    +0.000 H 
BRANCH    9    8
ATOM    100  H10 UNL A   1       4.202  -3.542   0.003  1.00  0.00    +0.000 H 
ATOM    101  H11 UNL A   1       5.527  -2.685   0.852  1.00  0.00    +0.000 H 
ATOM      8  C6  UNL A   1       4.937  -2.765  -0.037  1.00  0.00    +0.000 C 
BRANCH    8    7
ATOM     98  H8  UNL A   1       3.553  -1.310   0.663  1.00  0.00    +0.000 H 
ATOM     99  H9  UNL A   1       4.960  -0.671  -0.235  1.00  0.00    +0.000 H 
ATOM      7  C5  UNL A   1       4.203  -1.425  -0.179  1.00  0.00    +0.000 C 
BRANCH    7    6
ATOM     97  H7  UNL A   1       3.991  -1.478  -2.296  1.00  0.00    +0.000 H 
ATOM      6  C4  UNL A   1       3.359  -1.286  -1.455  1.00  0.00    +0.000 C 
ATOM     96  H6  UNL A   1       2.956  -0.295  -1.498  1.00  0.00    +0.000 H 
BRANCH    6    5
ATOM      5  N1  UNL A   1       2.264  -2.242  -1.480  1.00  0.00    +0.000 N 
ATOM     95  H5  UNL A   1       2.349  -3.039  -2.052  1.00  0.00    +0.000 H 
BRANCH    5    3
ATOM      3  C3  UNL A   1       1.114  -2.081  -0.740  1.00  0.00    +0.000 C 
ATOM      4  O1  UNL A   1       0.780  -3.007  -0.003  1.00  0.00    +0.000 O 
BRANCH    3    2
ATOM      2  C2  UNL A   1       0.394  -0.732  -0.822  1.00  0.00    +0.000 C 
ATOM     94  H4  UNL A   1       0.741  -0.273  -1.724  1.00  0.00    +0.000 H 
BRANCH    2    1
ATOM      1  C1  UNL A   1       0.752   0.049   0.454  1.00  0.00    +0.000 C 
ATOM     91  H1  UNL A   1       1.814   0.050   0.585  1.00  0.00    +0.000 H 
ATOM     92  H2  UNL A   1       0.289  -0.417   1.298  1.00  0.00    +0.000 H 
ATOM     93  H3  UNL A   1       0.403   1.056   0.366  1.00  0.00    +0.000 H 
ENDBRANCH    2    1
BRANCH    2   78
ATOM    130  H40 UNL A   1      -3.879  -2.671  -1.157  1.00  0.00    +0.000 H 
ATOM     78  C55 UNL A   1      -1.120  -0.744  -1.026  1.00  0.00    +0.000 C 
ATOM     79  C56 UNL A   1      -1.777   0.498  -1.141  1.00  0.00    +0.000 C 
ATOM     80  C57 UNL A   1      -3.170   0.587  -1.215  1.00  0.00    +0.000 C 
ATOM     81  C58 UNL A   1      -3.961  -0.564  -1.173  1.00  0.00    +0.000 C 
ATOM     88  C64 UNL A   1      -3.318  -1.805  -1.145  1.00  0.00    +0.000 C 
ATOM     89  C65 UNL A   1      -1.922  -1.887  -1.100  1.00  0.00    +0.000 C 
ATOM     90  F16 UNL A   1      -1.391  -3.113  -1.156  1.00  0.00    +0.000 F 
ATOM    123  H33 UNL A   1      -1.216   1.364  -1.170  1.00  0.00    +0.000 H 
ATOM    124  H34 UNL A   1      -3.619   1.512  -1.302  1.00  0.00    +0.000 H 
BRANCH   81   82
ATOM     82  C59 UNL A   1      -5.471  -0.467  -1.154  1.00  0.00    +0.000 C 
ATOM    125  H35 UNL A   1      -5.876  -1.438  -1.351  1.00  0.00    +0.000 H 
ATOM    126  H36 UNL A   1      -5.752   0.246  -1.901  1.00  0.00    +0.000 H 
BRANCH   82   83
ATOM    129  H39 UNL A   1      -7.694   0.047   3.219  1.00  0.00    +0.000 H 
ATOM     83  C60 UNL A   1      -6.020   0.024   0.161  1.00  0.00    +0.000 C 
ATOM     84  C61 UNL A   1      -5.956   1.295   0.703  1.00  0.00    +0.000 C 
ATOM     85  C62 UNL A   1      -6.608   1.387   1.966  1.00  0.00    +0.000 C 
ATOM     86  C63 UNL A   1      -7.167   0.187   2.343  1.00  0.00    +0.000 C 
ATOM     87  S1  UNL A   1      -6.884  -1.043   1.190  1.00  0.00    +0.000 S 
ATOM    127  H37 UNL A   1      -5.487   2.090   0.242  1.00  0.00    +0.000 H 
ATOM    128  H38 UNL A   1      -6.656   2.250   2.530  1.00  0.00    +0.000 H 
ENDBRANCH   82   83
ENDBRANCH   81   82
ENDBRANCH    2   78
ENDBRANCH    3    2
ENDBRANCH    5    3
ENDBRANCH    6    5
ENDBRANCH    7    6
ENDBRANCH    8    7
ENDBRANCH    9    8
ENDBRANCH   10    9
ENDBRANCH   11   10
ENDBRANCH   12   11
ENDBRANCH   13   12
ENDBRANCH   15   13
ENDBRANCH   19   18
BRANCH   23   24
ATOM     33  C24 UNL A   1      14.995   5.468   5.859  1.00  0.00    +0.000 C 
ATOM     34  F5  UNL A   1      14.144   6.407   5.420  1.00  0.00    +0.000 F 
ATOM     24  C19 UNL A   1      15.650   4.626   4.948  1.00  0.00    +0.000 C 
ATOM     25  C20 UNL A   1      16.533   3.664   5.459  1.00  0.00    +0.000 C 
ATOM     26  F1  UNL A   1      17.174   2.828   4.629  1.00  0.00    +0.000 F 
ATOM     27  C21 UNL A   1      16.733   3.533   6.831  1.00  0.00    +0.000 C 
ATOM     28  F2  UNL A   1      17.547   2.577   7.299  1.00  0.00    +0.000 F 
ATOM     29  C22 UNL A   1      16.079   4.379   7.713  1.00  0.00    +0.000 C 
ATOM     30  F3  UNL A   1      16.275   4.254   9.033  1.00  0.00    +0.000 F 
ATOM     31  C23 UNL A   1      15.216   5.351   7.229  1.00  0.00    +0.000 C 
ATOM     32  F4  UNL A   1      14.592   6.176   8.080  1.00  0.00    +0.000 F 
ENDBRANCH   23   24
BRANCH   40   41
ATOM     41  C30 UNL A   1      17.243   9.344  -0.262  1.00  0.00    +0.000 C 
ATOM     42  C31 UNL A   1      16.579  10.571  -0.399  1.00  0.00    +0.000 C 
ATOM     43  F6  UNL A   1      15.239  10.611  -0.454  1.00  0.00    +0.000 F 
ATOM     44  C32 UNL A   1      17.293  11.761  -0.514  1.00  0.00    +0.000 C 
ATOM     45  F7  UNL A   1      16.639  12.919  -0.683  1.00  0.00    +0.000 F 
ATOM     46  C33 UNL A   1      18.679  11.748  -0.468  1.00  0.00    +0.000 C 
ATOM     47  F8  UNL A   1      19.364  12.895  -0.574  1.00  0.00    +0.000 F 
ATOM     48  C34 UNL A   1      19.355  10.547  -0.320  1.00  0.00    +0.000 C 
ATOM     49  F9  UNL A   1      20.695  10.534  -0.266  1.00  0.00    +0.000 F 
ATOM     50  C35 UNL A   1      18.646   9.353  -0.228  1.00  0.00    +0.000 C 
ATOM     51  F10 UNL A   1      19.326   8.205  -0.095  1.00  0.00    +0.000 F 
ENDBRANCH   40   41
BRANCH   55   56
ATOM     65  C44 UNL A   1      12.388   5.709  -5.239  1.00  0.00    +0.000 C 
ATOM     66  F15 UNL A   1      11.393   5.849  -4.351  1.00  0.00    +0.000 F 
ATOM     56  C39 UNL A   1      13.690   5.436  -4.798  1.00  0.00    +0.000 C 
ATOM     57  C40 UNL A   1      14.694   5.295  -5.765  1.00  0.00    +0.000 C 
ATOM     58  F11 UNL A   1      15.958   5.054  -5.387  1.00  0.00    +0.000 F 
ATOM     59  C41 UNL A   1      14.410   5.436  -7.122  1.00  0.00    +0.000 C 
ATOM     60  F12 UNL A   1      15.395   5.332  -8.024  1.00  0.00    +0.000 F 
ATOM     61  C42 UNL A   1      13.113   5.697  -7.537  1.00  0.00    +0.000 C 
ATOM     62  F13 UNL A   1      12.839   5.829  -8.842  1.00  0.00    +0.000 F 
ATOM     63  C43 UNL A   1      12.101   5.828  -6.597  1.00  0.00    +0.000 C 
ATOM     64  F14 UNL A   1      10.845   6.069  -6.996  1.00  0.00    +0.000 F 
ENDBRANCH   55   56
TORSDOF 19