ROOT
ATOM    148  H44 UNL A   1      -3.101  14.500  10.254  1.00  0.00    +0.000 H 
ATOM    149  H45 UNL A   1      -0.820  13.160  10.506  1.00  0.00    +0.000 H 
ATOM    150  H46 UNL A   1      -1.744  14.889  14.064  1.00  0.00    +0.000 H 
ATOM    151  H47 UNL A   1      -2.041   7.308  16.526  1.00  0.00    +0.000 H 
ATOM    152  H48 UNL A   1      -3.787   7.316  14.671  1.00  0.00    +0.000 H 
ATOM    153  H49 UNL A   1      -2.372  11.207  15.028  1.00  0.00    +0.000 H 
ATOM    154  H50 UNL A   1      -1.531  12.702  17.801  1.00  0.00    +0.000 H 
ATOM    155  H51 UNL A   1      -1.269  14.198  15.718  1.00  0.00    +0.000 H 
ATOM    156  H52 UNL A   1      -6.975  13.870  13.845  1.00  0.00    +0.000 H 
ATOM    157  H53 UNL A   1      -6.984  11.434  14.673  1.00  0.00    +0.000 H 
ATOM     37  C32 UNL A   1      -4.624   9.984  13.922  1.00  0.00    +0.000 C 
ATOM     38  C33 UNL A   1      -4.918  11.434  13.730  1.00  0.00    +0.000 C 
ATOM     39  N3  UNL A   1      -4.213  12.312  13.091  1.00  0.00    +0.000 N 
ATOM     40  C34 UNL A   1      -4.896  13.519  13.228  1.00  0.00    +0.000 C 
ATOM     41  C35 UNL A   1      -4.260  14.715  13.099  1.00  0.00    +0.000 C 
ATOM     53  C42 UNL A   1      -3.005  14.576  12.415  1.00  0.00    +0.000 C 
ATOM     54  C43 UNL A   1      -2.610  14.269  11.131  1.00  0.00    +0.000 C 
ATOM     55  C44 UNL A   1      -1.377  13.566  11.274  1.00  0.00    +0.000 C 
ATOM     56  C45 UNL A   1      -1.054  13.520  12.631  1.00  0.00    +0.000 C 
ATOM     57  N4  UNL A   1      -1.902  14.424  13.211  1.00  0.00    +0.000 N 
ATOM     58  C46 UNL A   1      -0.178  12.661  13.396  1.00  0.00    +0.000 C 
ATOM     70  C53 UNL A   1      -0.199  12.526  14.754  1.00  0.00    +0.000 C 
ATOM     71  N5  UNL A   1       0.256  11.360  15.347  1.00  0.00    +0.000 N 
ATOM     72  C54 UNL A   1      -0.440  11.258  16.445  1.00  0.00    +0.000 C 
ATOM     73  C55 UNL A   1      -0.907   9.968  17.004  1.00  0.00    +0.000 C 
ATOM     85  C62 UNL A   1      -1.823   9.475  16.135  1.00  0.00    +0.000 C 
ATOM     86  C63 UNL A   1      -2.349   8.136  15.992  1.00  0.00    +0.000 C 
ATOM     87  C64 UNL A   1      -3.308   8.150  15.045  1.00  0.00    +0.000 C 
ATOM     88  C65 UNL A   1      -3.567   9.530  14.627  1.00  0.00    +0.000 C 
ATOM     89  N6  UNL A   1      -2.557  10.259  15.220  1.00  0.00    +0.000 N 
ATOM     90  C66 UNL A   1      -1.082  12.479  16.898  1.00  0.00    +0.000 C 
ATOM     91  C67 UNL A   1      -0.922  13.230  15.807  1.00  0.00    +0.000 C 
ATOM     92  C68 UNL A   1      -6.189  13.205  13.774  1.00  0.00    +0.000 C 
ATOM     93  C69 UNL A   1      -6.230  11.935  14.177  1.00  0.00    +0.000 C 
ENDROOT
BRANCH   37   36
ATOM     33  C28 UNL A   1      -7.620   7.470  12.265  1.00  0.00    +0.000 C 
ATOM     34  C29 UNL A   1      -6.930   8.386  11.470  1.00  0.00    +0.000 C 
ATOM     35  C30 UNL A   1      -5.932   9.181  12.016  1.00  0.00    +0.000 C 
ATOM     36  C31 UNL A   1      -5.643   9.093  13.378  1.00  0.00    +0.000 C 
ATOM    146  H42 UNL A   1      -7.164   8.474  10.468  1.00  0.00    +0.000 H 
ATOM    147  H43 UNL A   1      -5.405   9.835  11.416  1.00  0.00    +0.000 H 
ATOM    158  H54 UNL A   1      -6.235   8.266  15.226  1.00  0.00    +0.000 H 
ATOM    159  H55 UNL A   1      -7.908   6.818  14.255  1.00  0.00    +0.000 H 
ATOM     94  C70 UNL A   1      -6.396   8.269  14.207  1.00  0.00    +0.000 C 
ATOM     95  C71 UNL A   1      -7.365   7.451  13.647  1.00  0.00    +0.000 C 
BRANCH   33   31
ATOM     31  C27 UNL A   1      -8.601   6.465  11.785  1.00  0.00    +0.000 C 
ATOM     32  O2  UNL A   1      -9.174   5.750  12.611  1.00  0.00    +0.000 O 
BRANCH   31   30
ATOM    145  H41 UNL A   1      -9.630   5.579  10.366  1.00  0.00    +0.000 H 
ATOM     30  N2  UNL A   1      -8.898   6.228  10.477  1.00  0.00    +0.000 N 
BRANCH   30   29
ATOM     29  C26 UNL A   1      -8.385   6.712   9.216  1.00  0.00    +0.000 C 
ATOM    143  H39 UNL A   1      -9.087   6.470   8.445  1.00  0.00    +0.000 H 
ATOM    144  H40 UNL A   1      -8.246   7.769   9.309  1.00  0.00    +0.000 H 
BRANCH   29   28
ATOM     28  C25 UNL A   1      -7.031   6.101   8.852  1.00  0.00    +0.000 C 
ATOM    141  H37 UNL A   1      -6.782   6.398   7.855  1.00  0.00    +0.000 H 
ATOM    142  H38 UNL A   1      -6.320   6.457   9.568  1.00  0.00    +0.000 H 
BRANCH   28   27
ATOM     27  C24 UNL A   1      -7.019   4.567   8.922  1.00  0.00    +0.000 C 
ATOM    140  H36 UNL A   1      -7.140   4.310   9.954  1.00  0.00    +0.000 H 
ATOM    139  H35 UNL A   1      -6.095   4.222   8.508  1.00  0.00    +0.000 H 
BRANCH   27   26
ATOM    137  H33 UNL A   1      -8.000   2.827   8.179  1.00  0.00    +0.000 H 
ATOM     26  C23 UNL A   1      -8.168   3.883   8.166  1.00  0.00    +0.000 C 
ATOM    138  H34 UNL A   1      -9.076   4.156   8.661  1.00  0.00    +0.000 H 
BRANCH   26   25
ATOM     25  C22 UNL A   1      -8.294   4.333   6.720  1.00  0.00    +0.000 C 
ATOM    135  H31 UNL A   1      -9.107   3.812   6.259  1.00  0.00    +0.000 H 
ATOM    136  H32 UNL A   1      -8.473   5.388   6.700  1.00  0.00    +0.000 H 
BRANCH   25   24
ATOM    133  H29 UNL A   1      -7.014   4.619   5.063  1.00  0.00    +0.000 H 
ATOM    134  H30 UNL A   1      -6.194   4.293   6.587  1.00  0.00    +0.000 H 
ATOM     24  C21 UNL A   1      -7.024   4.040   5.963  1.00  0.00    +0.000 C 
BRANCH   24   23
ATOM    132  H28 UNL A   1      -7.129   1.994   6.340  1.00  0.00    +0.000 H 
ATOM     23  N1  UNL A   1      -6.925   2.632   5.619  1.00  0.00    +0.000 N 
BRANCH   23   21
ATOM     21  C20 UNL A   1      -6.580   2.085   4.403  1.00  0.00    +0.000 C 
ATOM     22  O1  UNL A   1      -6.057   0.988   4.417  1.00  0.00    +0.000 O 
BRANCH   21   18
ATOM     18  C17 UNL A   1      -6.638   3.002   3.174  1.00  0.00    +0.000 C 
BRANCH   18   17
ATOM     17  C16 UNL A   1      -6.623   2.385   1.745  1.00  0.00    +0.000 C 
ATOM    124  H20 UNL A   1      -7.402   1.653   1.700  1.00  0.00    +0.000 H 
ATOM    125  H21 UNL A   1      -6.749   3.214   1.080  1.00  0.00    +0.000 H 
BRANCH   17   16
ATOM      4  C4  UNL A   1      -1.063   0.099   1.219  1.00  0.00    +0.000 C 
ATOM      5  C5  UNL A   1      -1.765  -1.091   1.430  1.00  0.00    +0.000 C 
ATOM      6  C6  UNL A   1      -3.163  -1.123   1.472  1.00  0.00    +0.000 C 
ATOM      7  C7  UNL A   1      -3.870   0.081   1.310  1.00  0.00    +0.000 C 
ATOM      8  C8  UNL A   1      -3.213   1.289   1.020  1.00  0.00    +0.000 C 
ATOM      9  C9  UNL A   1      -1.793   1.276   0.968  1.00  0.00    +0.000 C 
ATOM     10  C10 UNL A   1      -4.208   2.328   0.881  1.00  0.00    +0.000 C 
ATOM    112  H8  UNL A   1      -1.238  -1.969   1.560  1.00  0.00    +0.000 H 
ATOM    113  H9  UNL A   1      -3.666  -2.013   1.618  1.00  0.00    +0.000 H 
ATOM    114  H10 UNL A   1      -1.287   2.147   0.742  1.00  0.00    +0.000 H 
ATOM     16  C15 UNL A   1      -5.383   1.738   1.322  1.00  0.00    +0.000 C 
ATOM     96  N7  UNL A   1      -5.228   0.356   1.390  1.00  0.00    +0.000 N 
BRANCH    4    2
ATOM      2  C2  UNL A   1       0.457   0.081   1.266  1.00  0.00    +0.000 C 
ATOM    108  H4  UNL A   1       0.731  -0.832   1.752  1.00  0.00    +0.000 H 
BRANCH    2    1
ATOM      1  C1  UNL A   1       1.044   0.090  -0.144  1.00  0.00    +0.000 C 
ATOM    106  H2  UNL A   1       0.726   0.973  -0.658  1.00  0.00    +0.000 H 
ATOM    107  H3  UNL A   1       0.706  -0.774  -0.677  1.00  0.00    +0.000 H 
ATOM    105  H1  UNL A   1       2.113   0.078  -0.086  1.00  0.00    +0.000 H 
ENDBRANCH    2    1
BRANCH    2    3
ATOM      3  C3  UNL A   1       1.052   1.213   2.112  1.00  0.00    +0.000 C 
ATOM    109  H5  UNL A   1       0.806   2.156   1.669  1.00  0.00    +0.000 H 
ATOM    110  H6  UNL A   1       2.115   1.105   2.155  1.00  0.00    +0.000 H 
ATOM    111  H7  UNL A   1       0.648   1.168   3.102  1.00  0.00    +0.000 H 
ENDBRANCH    2    3
ENDBRANCH    4    2
BRANCH   10   11
ATOM     11  S1  UNL A   1      -3.748   4.016   0.507  1.00  0.00    +0.000 S 
ATOM     12  C11 UNL A   1      -5.067   5.328   0.226  1.00  0.00    +0.000 C 
ATOM     13  C12 UNL A   1      -5.848   5.023  -1.057  1.00  0.00    +0.000 C 
ATOM     14  C13 UNL A   1      -6.079   5.806   1.297  1.00  0.00    +0.000 C 
ATOM     15  C14 UNL A   1      -4.219   6.617   0.033  1.00  0.00    +0.000 C 
ATOM    115  H11 UNL A   1      -6.429   4.135  -0.918  1.00  0.00    +0.000 H 
ATOM    116  H12 UNL A   1      -5.163   4.878  -1.866  1.00  0.00    +0.000 H 
ATOM    117  H13 UNL A   1      -6.497   5.843  -1.283  1.00  0.00    +0.000 H 
ATOM    118  H14 UNL A   1      -6.747   5.006   1.539  1.00  0.00    +0.000 H 
ATOM    119  H15 UNL A   1      -6.638   6.635   0.915  1.00  0.00    +0.000 H 
ATOM    120  H16 UNL A   1      -5.550   6.108   2.177  1.00  0.00    +0.000 H 
ATOM    121  H17 UNL A   1      -3.459   6.438  -0.698  1.00  0.00    +0.000 H 
ATOM    122  H18 UNL A   1      -3.764   6.888   0.963  1.00  0.00    +0.000 H 
ATOM    123  H19 UNL A   1      -4.852   7.414  -0.299  1.00  0.00    +0.000 H 
ENDBRANCH   10   11
BRANCH   96   97
ATOM     97  C72 UNL A   1      -6.303  -0.679   1.341  1.00  0.00    +0.000 C 
ATOM    161  H57 UNL A   1      -6.967  -0.326   0.580  1.00  0.00    +0.000 H 
ATOM    160  H56 UNL A   1      -5.826  -1.619   1.159  1.00  0.00    +0.000 H 
BRANCH   97   98
ATOM     98  C73 UNL A   1      -7.205  -0.864   2.557  1.00  0.00    +0.000 C 
ATOM     99  C74 UNL A   1      -8.448  -0.205   2.659  1.00  0.00    +0.000 C 
ATOM    100  C75 UNL A   1      -9.161  -0.170   3.864  1.00  0.00    +0.000 C 
ATOM    162  H58 UNL A   1      -8.841   0.261   1.827  1.00  0.00    +0.000 H 
ATOM    165  H61 UNL A   1      -5.981  -2.273   3.551  1.00  0.00    +0.000 H 
ATOM    103  C77 UNL A   1      -7.573  -1.705   4.823  1.00  0.00    +0.000 C 
ATOM    104  C78 UNL A   1      -6.823  -1.682   3.634  1.00  0.00    +0.000 C 
ATOM    163  H59 UNL A   1     -10.022   0.393   3.942  1.00  0.00    +0.000 H 
ATOM    164  H60 UNL A   1      -7.286  -2.320   5.601  1.00  0.00    +0.000 H 
ATOM    101  C76 UNL A   1      -8.701  -0.899   4.953  1.00  0.00    +0.000 C 
ATOM    102 Cl1  UNL A   1      -9.510  -0.769   6.467  1.00  0.00    +0.000 Cl
ENDBRANCH   97   98
ENDBRANCH   96   97
ENDBRANCH   17   16
ENDBRANCH   18   17
BRANCH   18   19
ATOM     19  C18 UNL A   1      -5.308   3.755   3.468  1.00  0.00    +0.000 C 
ATOM    126  H22 UNL A   1      -5.133   4.482   2.702  1.00  0.00    +0.000 H 
ATOM    127  H23 UNL A   1      -4.498   3.055   3.486  1.00  0.00    +0.000 H 
ATOM    128  H24 UNL A   1      -5.377   4.245   4.416  1.00  0.00    +0.000 H 
ENDBRANCH   18   19
BRANCH   18   20
ATOM    129  H25 UNL A   1      -8.097   4.361   2.324  1.00  0.00    +0.000 H 
ATOM    130  H26 UNL A   1      -8.137   4.287   4.069  1.00  0.00    +0.000 H 
ATOM    131  H27 UNL A   1      -8.805   2.979   3.124  1.00  0.00    +0.000 H 
ATOM     20  C19 UNL A   1      -8.029   3.713   3.173  1.00  0.00    +0.000 C 
ENDBRANCH   18   20
ENDBRANCH   21   18
ENDBRANCH   23   21
ENDBRANCH   24   23
ENDBRANCH   25   24
ENDBRANCH   26   25
ENDBRANCH   27   26
ENDBRANCH   28   27
ENDBRANCH   29   28
ENDBRANCH   30   29
ENDBRANCH   31   30
ENDBRANCH   33   31
ENDBRANCH   37   36
BRANCH   41   42
ATOM     42  C36 UNL A   1      -4.574  15.921  13.950  1.00  0.00    +0.000 C 
ATOM     43  C37 UNL A   1      -4.023  17.175  13.622  1.00  0.00    +0.000 C 
ATOM     44  F1  UNL A   1      -3.410  17.363  12.443  1.00  0.00    +0.000 F 
ATOM     45  C38 UNL A   1      -4.015  18.237  14.532  1.00  0.00    +0.000 C 
ATOM     46  F2  UNL A   1      -3.388  19.379  14.218  1.00  0.00    +0.000 F 
ATOM     47  C39 UNL A   1      -4.596  18.099  15.780  1.00  0.00    +0.000 C 
ATOM     48  F3  UNL A   1      -4.548  19.099  16.669  1.00  0.00    +0.000 F 
ATOM     49  C40 UNL A   1      -5.181  16.899  16.123  1.00  0.00    +0.000 C 
ATOM     50  F4  UNL A   1      -5.720  16.734  17.339  1.00  0.00    +0.000 F 
ATOM     51  C41 UNL A   1      -5.145  15.823  15.238  1.00  0.00    +0.000 C 
ATOM     52  F5  UNL A   1      -5.583  14.658  15.731  1.00  0.00    +0.000 F 
ENDBRANCH   41   42
BRANCH   58   59
ATOM     65  F8  UNL A   1       2.939   9.257  10.129  1.00  0.00    +0.000 F 
ATOM     66  C51 UNL A   1       2.446  11.405  10.975  1.00  0.00    +0.000 C 
ATOM     67  F9  UNL A   1       3.373  11.949  10.175  1.00  0.00    +0.000 F 
ATOM     68  C52 UNL A   1       1.694  12.221  11.814  1.00  0.00    +0.000 C 
ATOM     69  F10 UNL A   1       1.928  13.542  11.805  1.00  0.00    +0.000 F 
ATOM     59  C47 UNL A   1       0.673  11.695  12.619  1.00  0.00    +0.000 C 
ATOM     60  C48 UNL A   1       0.440  10.311  12.550  1.00  0.00    +0.000 C 
ATOM     61  F6  UNL A   1      -0.575   9.750  13.222  1.00  0.00    +0.000 F 
ATOM     62  C49 UNL A   1       1.223   9.489  11.738  1.00  0.00    +0.000 C 
ATOM     63  F7  UNL A   1       0.992   8.169  11.696  1.00  0.00    +0.000 F 
ATOM     64  C50 UNL A   1       2.218  10.039  10.944  1.00  0.00    +0.000 C 
ENDBRANCH   58   59
BRANCH   73   74
ATOM     74  C56 UNL A   1      -0.683   9.599  18.422  1.00  0.00    +0.000 C 
ATOM     75  C57 UNL A   1       0.464  10.040  19.106  1.00  0.00    +0.000 C 
ATOM     76  F11 UNL A   1       1.487  10.580  18.427  1.00  0.00    +0.000 F 
ATOM     77  C58 UNL A   1       0.543  10.011  20.502  1.00  0.00    +0.000 C 
ATOM     78  F12 UNL A   1       1.621  10.511  21.122  1.00  0.00    +0.000 F 
ATOM     79  C59 UNL A   1      -0.517   9.530  21.253  1.00  0.00    +0.000 C 
ATOM     80  F13 UNL A   1      -0.473   9.569  22.591  1.00  0.00    +0.000 F 
ATOM     81  C60 UNL A   1      -1.643   9.050  20.609  1.00  0.00    +0.000 C 
ATOM     82  F14 UNL A   1      -2.689   8.615  21.325  1.00  0.00    +0.000 F 
ATOM     83  C61 UNL A   1      -1.725   9.084  19.216  1.00  0.00    +0.000 C 
ATOM     84  F15 UNL A   1      -2.884   8.697  18.664  1.00  0.00    +0.000 F 
ENDBRANCH   73   74
TORSDOF 25