ROOT
ATOM    129  H31 UNL A   1     -11.474   2.624  -7.725  1.00  0.00    +0.000 H 
ATOM    130  H32 UNL A   1     -13.671   2.129  -3.237  1.00  0.00    +0.000 H 
ATOM    131  H33 UNL A   1     -15.538   3.631  -4.134  1.00  0.00    +0.000 H 
ATOM    132  H34 UNL A   1     -10.510   4.911 -12.734  1.00  0.00    +0.000 H 
ATOM    133  H35 UNL A   1      -8.908   3.025 -12.073  1.00  0.00    +0.000 H 
ATOM     36  C27 UNL A   1      -9.346   2.018  -9.439  1.00  0.00    +0.000 C 
ATOM     37  C28 UNL A   1     -10.163   3.038 -10.183  1.00  0.00    +0.000 C 
ATOM     38  N4  UNL A   1     -11.238   3.678  -9.797  1.00  0.00    +0.000 N 
ATOM     39  C29 UNL A   1     -11.578   4.516 -10.851  1.00  0.00    +0.000 C 
ATOM     40  C30 UNL A   1     -12.660   5.321 -10.973  1.00  0.00    +0.000 C 
ATOM     52  C37 UNL A   1     -13.677   5.469  -9.965  1.00  0.00    +0.000 C 
ATOM     53  C38 UNL A   1     -14.826   6.239 -10.005  1.00  0.00    +0.000 C 
ATOM     54  C39 UNL A   1     -15.486   6.106  -8.779  1.00  0.00    +0.000 C 
ATOM     55  C40 UNL A   1     -14.780   5.206  -7.998  1.00  0.00    +0.000 C 
ATOM     56  N5  UNL A   1     -13.666   4.831  -8.733  1.00  0.00    +0.000 N 
ATOM     57  C41 UNL A   1     -15.098   4.723  -6.679  1.00  0.00    +0.000 C 
ATOM     69  C48 UNL A   1     -14.351   3.837  -5.976  1.00  0.00    +0.000 C 
ATOM     70  N6  UNL A   1     -13.166   3.210  -6.337  1.00  0.00    +0.000 N 
ATOM     71  C49 UNL A   1     -12.823   2.468  -5.311  1.00  0.00    +0.000 C 
ATOM     72  C50 UNL A   1     -11.645   1.543  -5.156  1.00  0.00    +0.000 C 
ATOM     84  C57 UNL A   1     -10.789   1.399  -6.186  1.00  0.00    +0.000 C 
ATOM     85  C58 UNL A   1      -9.614   0.535  -6.194  1.00  0.00    +0.000 C 
ATOM     86  C59 UNL A   1      -8.966   0.690  -7.359  1.00  0.00    +0.000 C 
ATOM     87  C60 UNL A   1      -9.705   1.634  -8.199  1.00  0.00    +0.000 C 
ATOM     88  N7  UNL A   1     -10.778   1.996  -7.423  1.00  0.00    +0.000 N 
ATOM     89  C61 UNL A   1     -13.741   2.568  -4.168  1.00  0.00    +0.000 C 
ATOM     90  C62 UNL A   1     -14.680   3.371  -4.645  1.00  0.00    +0.000 C 
ATOM     91  C63 UNL A   1     -10.559   4.357 -11.865  1.00  0.00    +0.000 C 
ATOM     92  C64 UNL A   1      -9.699   3.407 -11.530  1.00  0.00    +0.000 C 
ATOM    124  H26 UNL A   1     -15.143   6.812 -10.803  1.00  0.00    +0.000 H 
ATOM    125  H27 UNL A   1     -16.351   6.595  -8.503  1.00  0.00    +0.000 H 
ATOM    126  H28 UNL A   1     -12.970   4.206  -8.427  1.00  0.00    +0.000 H 
ATOM    127  H29 UNL A   1      -9.327  -0.094  -5.428  1.00  0.00    +0.000 H 
ATOM    128  H30 UNL A   1      -8.086   0.218  -7.621  1.00  0.00    +0.000 H 
ENDROOT
BRANCH   36   35
ATOM     33  C24 UNL A   1      -6.827  -0.442 -10.852  1.00  0.00    +0.000 C 
ATOM     34  C25 UNL A   1      -8.015   0.088 -10.346  1.00  0.00    +0.000 C 
ATOM     35  C26 UNL A   1      -8.113   1.457 -10.047  1.00  0.00    +0.000 C 
ATOM    134  H36 UNL A   1      -7.086   3.305 -10.102  1.00  0.00    +0.000 H 
ATOM    135  H37 UNL A   1      -5.109   2.418 -11.187  1.00  0.00    +0.000 H 
ATOM    122  H24 UNL A   1      -6.748  -1.454 -11.037  1.00  0.00    +0.000 H 
ATOM    123  H25 UNL A   1      -8.827  -0.530 -10.191  1.00  0.00    +0.000 H 
ATOM     93  C65 UNL A   1      -7.028   2.299 -10.327  1.00  0.00    +0.000 C 
ATOM     94  C66 UNL A   1      -5.872   1.784 -10.906  1.00  0.00    +0.000 C 
ATOM     32  C23 UNL A   1      -5.747   0.405 -11.107  1.00  0.00    +0.000 C 
BRANCH   32   30
ATOM     30  C22 UNL A   1      -4.487  -0.176 -11.616  1.00  0.00    +0.000 C 
ATOM     31  O4  UNL A   1      -4.520  -1.098 -12.425  1.00  0.00    +0.000 O 
BRANCH   30   29
ATOM    121  H23 UNL A   1      -2.515   0.145 -11.775  1.00  0.00    +0.000 H 
ATOM     29  N3  UNL A   1      -3.284   0.322 -11.187  1.00  0.00    +0.000 N 
BRANCH   29   28
ATOM     28  C21 UNL A   1      -2.993   1.078  -9.978  1.00  0.00    +0.000 C 
ATOM    119  H21 UNL A   1      -2.503   1.991 -10.249  1.00  0.00    +0.000 H 
ATOM    120  H22 UNL A   1      -3.917   1.274  -9.476  1.00  0.00    +0.000 H 
BRANCH   28   27
ATOM     27  C20 UNL A   1      -2.091   0.297  -9.028  1.00  0.00    +0.000 C 
ATOM    117  H19 UNL A   1      -1.951   0.880  -8.142  1.00  0.00    +0.000 H 
ATOM    118  H20 UNL A   1      -2.578  -0.636  -8.836  1.00  0.00    +0.000 H 
BRANCH   27   26
ATOM     26  C19 UNL A   1      -0.713  -0.034  -9.608  1.00  0.00    +0.000 C 
ATOM    115  H17 UNL A   1      -0.167  -0.590  -8.875  1.00  0.00    +0.000 H 
ATOM    116  H18 UNL A   1      -0.889  -0.583 -10.510  1.00  0.00    +0.000 H 
BRANCH   26   25
ATOM     25  C18 UNL A   1       0.129   1.188 -10.005  1.00  0.00    +0.000 C 
ATOM    114  H16 UNL A   1      -0.398   1.672 -10.800  1.00  0.00    +0.000 H 
ATOM    113  H15 UNL A   1       1.101   0.844 -10.290  1.00  0.00    +0.000 H 
BRANCH   25   24
ATOM    112  H14 UNL A   1      -0.679   2.560  -8.607  1.00  0.00    +0.000 H 
ATOM    111  H13 UNL A   1       0.890   3.043  -9.277  1.00  0.00    +0.000 H 
ATOM     24  C17 UNL A   1       0.299   2.237  -8.896  1.00  0.00    +0.000 C 
BRANCH   24   23
ATOM    109  H11 UNL A   1       0.723   2.284  -6.800  1.00  0.00    +0.000 H 
ATOM    110  H12 UNL A   1       0.660   0.673  -7.488  1.00  0.00    +0.000 H 
ATOM     23  C16 UNL A   1       0.984   1.681  -7.644  1.00  0.00    +0.000 C 
BRANCH   23   22
ATOM    108  H10 UNL A   1       2.752   0.929  -8.340  1.00  0.00    +0.000 H 
ATOM     22  N2  UNL A   1       2.422   1.693  -7.815  1.00  0.00    +0.000 N 
BRANCH   22   20
ATOM     20  C15 UNL A   1       3.429   2.536  -7.405  1.00  0.00    +0.000 C 
ATOM     21  O3  UNL A   1       4.562   2.239  -7.795  1.00  0.00    +0.000 O 
BRANCH   20   19
ATOM    136  H38 UNL A   1       5.179   5.512  -4.579  1.00  0.00    +0.000 H 
ATOM    106  H8  UNL A   1       1.052   5.777  -5.047  1.00  0.00    +0.000 H 
ATOM    107  H9  UNL A   1       1.186   4.093  -6.795  1.00  0.00    +0.000 H 
ATOM     16  C11 UNL A   1       3.110   5.740  -4.590  1.00  0.00    +0.000 C 
ATOM     17  C12 UNL A   1       1.959   5.340  -5.272  1.00  0.00    +0.000 C 
ATOM     18  C13 UNL A   1       2.026   4.353  -6.256  1.00  0.00    +0.000 C 
ATOM     19  C14 UNL A   1       3.239   3.727  -6.499  1.00  0.00    +0.000 C 
ATOM     95  N8  UNL A   1       4.386   4.155  -5.899  1.00  0.00    +0.000 N 
ATOM     96  C67 UNL A   1       4.302   5.159  -4.993  1.00  0.00    +0.000 C 
BRANCH   16   15
ATOM    104  H6  UNL A   1       1.781   7.138  -0.392  1.00  0.00    +0.000 H 
ATOM      9  C6  UNL A   1       2.409   6.317  -2.240  1.00  0.00    +0.000 C 
ATOM     10  C7  UNL A   1       2.244   7.339  -1.292  1.00  0.00    +0.000 C 
ATOM     11  C8  UNL A   1       2.704   8.623  -1.566  1.00  0.00    +0.000 C 
ATOM     12 Cl1  UNL A   1       2.468   9.893  -0.436  1.00  0.00    +0.000 Cl
ATOM     13  C9  UNL A   1       3.342   8.856  -2.772  1.00  0.00    +0.000 C 
ATOM     14  N1  UNL A   1       3.520   7.910  -3.723  1.00  0.00    +0.000 N 
ATOM     15  C10 UNL A   1       3.034   6.669  -3.461  1.00  0.00    +0.000 C 
ATOM    105  H7  UNL A   1       3.702   9.805  -2.957  1.00  0.00    +0.000 H 
BRANCH    9    8
ATOM     97  C68 UNL A   1       0.548   4.715  -1.731  1.00  0.00    +0.000 C 
ATOM     98  C69 UNL A   1       0.055   3.413  -1.592  1.00  0.00    +0.000 C 
ATOM      5  C2  UNL A   1       0.932   2.332  -1.683  1.00  0.00    +0.000 C 
ATOM    102  H4  UNL A   1       2.938   1.734  -1.970  1.00  0.00    +0.000 H 
ATOM      6  C3  UNL A   1       2.294   2.537  -1.899  1.00  0.00    +0.000 C 
ATOM      7  C4  UNL A   1       2.780   3.842  -2.020  1.00  0.00    +0.000 C 
ATOM    103  H5  UNL A   1       3.792   3.995  -2.149  1.00  0.00    +0.000 H 
ATOM    138  H40 UNL A   1      -0.950   3.254  -1.422  1.00  0.00    +0.000 H 
ATOM      8  C5  UNL A   1       1.913   4.951  -1.969  1.00  0.00    +0.000 C 
ATOM    137  H39 UNL A   1      -0.101   5.514  -1.659  1.00  0.00    +0.000 H 
BRANCH    5    2
ATOM      2  S1  UNL A   1       0.311   0.669  -1.589  1.00  0.00    +0.000 S 
ATOM      3  O1  UNL A   1       0.970  -0.088  -2.639  1.00  0.00    +0.000 O 
ATOM      4  O2  UNL A   1      -1.134   0.743  -1.525  1.00  0.00    +0.000 O 
BRANCH    2    1
ATOM      1  C1  UNL A   1       0.901   0.092  -0.019  1.00  0.00    +0.000 C 
ATOM     99  H1  UNL A   1       0.576  -0.915   0.136  1.00  0.00    +0.000 H 
ATOM    100  H2  UNL A   1       0.514   0.716   0.759  1.00  0.00    +0.000 H 
ATOM    101  H3  UNL A   1       1.971   0.127  -0.005  1.00  0.00    +0.000 H 
ENDBRANCH    2    1
ENDBRANCH    5    2
ENDBRANCH    9    8
ENDBRANCH   16   15
ENDBRANCH   20   19
ENDBRANCH   22   20
ENDBRANCH   23   22
ENDBRANCH   24   23
ENDBRANCH   25   24
ENDBRANCH   26   25
ENDBRANCH   27   26
ENDBRANCH   28   27
ENDBRANCH   29   28
ENDBRANCH   30   29
ENDBRANCH   32   30
ENDBRANCH   36   35
BRANCH   40   41
ATOM     41  C31 UNL A   1     -12.815   6.095 -12.252  1.00  0.00    +0.000 C 
ATOM     42  C32 UNL A   1     -13.122   5.453 -13.462  1.00  0.00    +0.000 C 
ATOM     43  F1  UNL A   1     -13.213   4.116 -13.513  1.00  0.00    +0.000 F 
ATOM     44  C33 UNL A   1     -13.309   6.182 -14.633  1.00  0.00    +0.000 C 
ATOM     45  F2  UNL A   1     -13.563   5.544 -15.784  1.00  0.00    +0.000 F 
ATOM     46  C34 UNL A   1     -13.229   7.566 -14.611  1.00  0.00    +0.000 C 
ATOM     47  F3  UNL A   1     -13.427   8.268 -15.736  1.00  0.00    +0.000 F 
ATOM     48  C35 UNL A   1     -12.940   8.223 -13.425  1.00  0.00    +0.000 C 
ATOM     49  F4  UNL A   1     -12.877   9.561 -13.399  1.00  0.00    +0.000 F 
ATOM     50  C36 UNL A   1     -12.720   7.494 -12.258  1.00  0.00    +0.000 C 
ATOM     51  F5  UNL A   1     -12.434   8.159 -11.128  1.00  0.00    +0.000 F 
ENDBRANCH   40   41
BRANCH   57   58
ATOM     65  C46 UNL A   1     -18.797   5.311  -6.003  1.00  0.00    +0.000 C 
ATOM     66  F9  UNL A   1     -19.976   4.964  -6.538  1.00  0.00    +0.000 F 
ATOM     67  C47 UNL A   1     -17.614   4.842  -6.565  1.00  0.00    +0.000 C 
ATOM     68  F10 UNL A   1     -17.685   4.032  -7.632  1.00  0.00    +0.000 F 
ATOM     58  C42 UNL A   1     -16.366   5.213  -6.040  1.00  0.00    +0.000 C 
ATOM     59  C43 UNL A   1     -16.351   6.069  -4.929  1.00  0.00    +0.000 C 
ATOM     60  F6  UNL A   1     -15.185   6.442  -4.379  1.00  0.00    +0.000 F 
ATOM     61  C44 UNL A   1     -17.537   6.507  -4.346  1.00  0.00    +0.000 C 
ATOM     62  F7  UNL A   1     -17.498   7.276  -3.249  1.00  0.00    +0.000 F 
ATOM     63  C45 UNL A   1     -18.758   6.134  -4.888  1.00  0.00    +0.000 C 
ATOM     64  F8  UNL A   1     -19.899   6.562  -4.329  1.00  0.00    +0.000 F 
ENDBRANCH   57   58
BRANCH   72   73
ATOM     73  C51 UNL A   1     -11.427   0.797  -3.887  1.00  0.00    +0.000 C 
ATOM     74  C52 UNL A   1     -12.329  -0.188  -3.460  1.00  0.00    +0.000 C 
ATOM     75  F11 UNL A   1     -13.400  -0.485  -4.210  1.00  0.00    +0.000 F 
ATOM     76  C53 UNL A   1     -12.169  -0.828  -2.233  1.00  0.00    +0.000 C 
ATOM     77  F12 UNL A   1     -13.086  -1.712  -1.818  1.00  0.00    +0.000 F 
ATOM     78  C54 UNL A   1     -11.081  -0.529  -1.428  1.00  0.00    +0.000 C 
ATOM     79  F13 UNL A   1     -10.932  -1.139  -0.244  1.00  0.00    +0.000 F 
ATOM     80  C55 UNL A   1     -10.155   0.415  -1.846  1.00  0.00    +0.000 C 
ATOM     81  F14 UNL A   1      -9.092   0.696  -1.079  1.00  0.00    +0.000 F 
ATOM     82  C56 UNL A   1     -10.334   1.082  -3.055  1.00  0.00    +0.000 C 
ATOM     83  F15 UNL A   1      -9.436   2.010  -3.418  1.00  0.00    +0.000 F 
ENDBRANCH   72   73
TORSDOF 19