ROOT
ATOM     21  C17 UNL A   1      12.903   0.728  -0.335  1.00  0.00    +0.000 C 
ATOM     22  C18 UNL A   1      12.966   1.877  -1.280  1.00  0.00    +0.000 C 
ATOM     23  N3  UNL A   1      12.606   1.900  -2.522  1.00  0.00    +0.000 N 
ATOM     24  C19 UNL A   1      12.863   3.192  -2.972  1.00  0.00    +0.000 C 
ATOM     25  C20 UNL A   1      13.011   3.463  -4.298  1.00  0.00    +0.000 C 
ATOM     37  C27 UNL A   1      12.426   2.428  -5.110  1.00  0.00    +0.000 C 
ATOM     38  C28 UNL A   1      11.144   1.963  -5.322  1.00  0.00    +0.000 C 
ATOM     39  C29 UNL A   1      11.285   0.555  -5.500  1.00  0.00    +0.000 C 
ATOM     40  C30 UNL A   1      12.645   0.251  -5.442  1.00  0.00    +0.000 C 
ATOM     41  N4  UNL A   1      13.260   1.463  -5.613  1.00  0.00    +0.000 N 
ATOM     42  C31 UNL A   1      13.361  -0.971  -5.169  1.00  0.00    +0.000 C 
ATOM     54  C38 UNL A   1      14.660  -1.036  -4.756  1.00  0.00    +0.000 C 
ATOM     55  N5  UNL A   1      15.139  -2.158  -4.098  1.00  0.00    +0.000 N 
ATOM     56  C39 UNL A   1      16.120  -1.714  -3.363  1.00  0.00    +0.000 C 
ATOM     57  C40 UNL A   1      16.390  -2.196  -1.985  1.00  0.00    +0.000 C 
ATOM     69  C47 UNL A   1      15.354  -1.776  -1.214  1.00  0.00    +0.000 C 
ATOM     70  C48 UNL A   1      14.891  -2.244   0.075  1.00  0.00    +0.000 C 
ATOM     71  C49 UNL A   1      13.847  -1.481   0.462  1.00  0.00    +0.000 C 
ATOM     72  C50 UNL A   1      13.671  -0.373  -0.478  1.00  0.00    +0.000 C 
ATOM     73  N6  UNL A   1      14.529  -0.674  -1.515  1.00  0.00    +0.000 N 
ATOM     74  C51 UNL A   1      16.658  -0.418  -3.743  1.00  0.00    +0.000 C 
ATOM     75  C52 UNL A   1      15.674  -0.007  -4.545  1.00  0.00    +0.000 C 
ATOM     76  C53 UNL A   1      13.163   3.978  -1.804  1.00  0.00    +0.000 C 
ATOM     77  C54 UNL A   1      13.319   3.197  -0.735  1.00  0.00    +0.000 C 
ATOM    117  H22 UNL A   1      10.272   2.514  -5.348  1.00  0.00    +0.000 H 
ATOM    118  H23 UNL A   1      10.517  -0.119  -5.645  1.00  0.00    +0.000 H 
ATOM    119  H24 UNL A   1      14.142   1.614  -6.023  1.00  0.00    +0.000 H 
ATOM    120  H25 UNL A   1      15.292  -3.031   0.609  1.00  0.00    +0.000 H 
ATOM    121  H26 UNL A   1      13.262  -1.652   1.295  1.00  0.00    +0.000 H 
ATOM    122  H27 UNL A   1      14.561  -0.177  -2.365  1.00  0.00    +0.000 H 
ATOM    123  H28 UNL A   1      17.540   0.046  -3.473  1.00  0.00    +0.000 H 
ATOM    124  H29 UNL A   1      15.634   0.933  -4.969  1.00  0.00    +0.000 H 
ATOM    125  H30 UNL A   1      13.245   5.007  -1.796  1.00  0.00    +0.000 H 
ATOM    126  H31 UNL A   1      13.610   3.451   0.222  1.00  0.00    +0.000 H 
ENDROOT
BRANCH   21   20
ATOM     78  C55 UNL A   1      12.403   0.945   2.093  1.00  0.00    +0.000 C 
ATOM     79  C56 UNL A   1      11.461   1.067   3.106  1.00  0.00    +0.000 C 
ATOM     17  C13 UNL A   1      10.088   1.189   2.815  1.00  0.00    +0.000 C 
ATOM     18  C14 UNL A   1       9.700   1.323   1.484  1.00  0.00    +0.000 C 
ATOM     19  C15 UNL A   1      10.632   1.168   0.465  1.00  0.00    +0.000 C 
ATOM    115  H20 UNL A   1       8.717   1.537   1.253  1.00  0.00    +0.000 H 
ATOM    116  H21 UNL A   1      10.334   1.237  -0.520  1.00  0.00    +0.000 H 
ATOM     20  C16 UNL A   1      11.973   0.919   0.773  1.00  0.00    +0.000 C 
ATOM    127  H32 UNL A   1      13.408   0.874   2.317  1.00  0.00    +0.000 H 
ATOM    128  H33 UNL A   1      11.773   1.067   4.089  1.00  0.00    +0.000 H 
BRANCH   17   15
ATOM     15  C12 UNL A   1       9.169   1.060   3.978  1.00  0.00    +0.000 C 
ATOM     16  O2  UNL A   1       9.656   0.965   5.107  1.00  0.00    +0.000 O 
BRANCH   15   14
ATOM    114  H19 UNL A   1       7.395   0.735   4.763  1.00  0.00    +0.000 H 
ATOM     14  N2  UNL A   1       7.809   0.953   3.897  1.00  0.00    +0.000 N 
BRANCH   14   13
ATOM    113  H18 UNL A   1       7.204   1.833   2.161  1.00  0.00    +0.000 H 
ATOM     13  C11 UNL A   1       6.835   1.087   2.833  1.00  0.00    +0.000 C 
ATOM    112  H17 UNL A   1       5.896   1.359   3.268  1.00  0.00    +0.000 H 
BRANCH   13   12
ATOM     12  C10 UNL A   1       6.638  -0.193   2.019  1.00  0.00    +0.000 C 
ATOM    110  H15 UNL A   1       5.898  -0.004   1.270  1.00  0.00    +0.000 H 
ATOM    111  H16 UNL A   1       7.591  -0.444   1.603  1.00  0.00    +0.000 H 
BRANCH   12   11
ATOM     11  C9  UNL A   1       6.186  -1.399   2.850  1.00  0.00    +0.000 C 
ATOM    108  H13 UNL A   1       6.040  -2.224   2.185  1.00  0.00    +0.000 H 
ATOM    109  H14 UNL A   1       6.954  -1.567   3.575  1.00  0.00    +0.000 H 
BRANCH   11   10
ATOM     10  C8  UNL A   1       4.889  -1.191   3.640  1.00  0.00    +0.000 C 
ATOM    107  H12 UNL A   1       5.070  -0.376   4.309  1.00  0.00    +0.000 H 
ATOM    106  H11 UNL A   1       4.655  -2.105   4.144  1.00  0.00    +0.000 H 
BRANCH   10    9
ATOM      9  C7  UNL A   1       3.677  -0.791   2.790  1.00  0.00    +0.000 C 
ATOM    105  H10 UNL A   1       3.944   0.094   2.253  1.00  0.00    +0.000 H 
ATOM    104  H9  UNL A   1       2.843  -0.630   3.442  1.00  0.00    +0.000 H 
BRANCH    9    8
ATOM    102  H7  UNL A   1       2.610  -1.416   1.053  1.00  0.00    +0.000 H 
ATOM    103  H8  UNL A   1       4.179  -2.186   1.269  1.00  0.00    +0.000 H 
ATOM      8  C6  UNL A   1       3.288  -1.849   1.757  1.00  0.00    +0.000 C 
BRANCH    8    7
ATOM    101  H6  UNL A   1       3.256  -3.625   2.833  1.00  0.00    +0.000 H 
ATOM      7  N1  UNL A   1       2.652  -2.991   2.383  1.00  0.00    +0.000 N 
BRANCH    7    5
ATOM      5  C5  UNL A   1       1.323  -3.300   2.429  1.00  0.00    +0.000 C 
ATOM      6  O1  UNL A   1       0.965  -4.247   3.133  1.00  0.00    +0.000 O 
BRANCH    5    4
ATOM    100  H5  UNL A   1      -0.616  -3.015   1.672  1.00  0.00    +0.000 H 
ATOM     99  H4  UNL A   1       0.685  -2.528   0.562  1.00  0.00    +0.000 H 
ATOM      4  C4  UNL A   1       0.331  -2.527   1.572  1.00  0.00    +0.000 C 
BRANCH    4    3
ATOM    129  H34 UNL A   1      -0.582  -2.426   4.476  1.00  0.00    +0.000 H 
ATOM      2  C2  UNL A   1       0.314   0.045   1.243  1.00  0.00    +0.000 C 
ATOM      3  C3  UNL A   1       0.139  -1.101   2.007  1.00  0.00    +0.000 C 
ATOM    132  H37 UNL A   1      -1.061   2.407   4.387  1.00  0.00    +0.000 H 
ATOM    130  H35 UNL A   1      -1.311  -1.239   6.459  1.00  0.00    +0.000 H 
ATOM    131  H36 UNL A   1      -1.578   1.156   6.402  1.00  0.00    +0.000 H 
ATOM     80  C57 UNL A   1      -0.301  -0.683   3.293  1.00  0.00    +0.000 C 
ATOM     81  C58 UNL A   1      -0.651  -1.397   4.462  1.00  0.00    +0.000 C 
ATOM     82  C59 UNL A   1      -1.091  -0.717   5.597  1.00  0.00    +0.000 C 
ATOM     83  C60 UNL A   1      -1.233   0.659   5.565  1.00  0.00    +0.000 C 
ATOM     84  C61 UNL A   1      -0.915   1.385   4.413  1.00  0.00    +0.000 C 
ATOM     85  C62 UNL A   1      -0.393   0.714   3.287  1.00  0.00    +0.000 C 
ATOM     86  N7  UNL A   1       0.122   1.169   2.062  1.00  0.00    +0.000 N 
BRANCH    2    1
ATOM      1  C1  UNL A   1       0.697   0.151  -0.202  1.00  0.00    +0.000 C 
ATOM     98  H3  UNL A   1      -0.056   0.696  -0.731  1.00  0.00    +0.000 H 
ATOM     97  H2  UNL A   1       1.633   0.661  -0.286  1.00  0.00    +0.000 H 
ATOM     96  H1  UNL A   1       0.786  -0.831  -0.619  1.00  0.00    +0.000 H 
ENDBRANCH    2    1
BRANCH   86   87
ATOM     87  C63 UNL A   1       0.420   2.514   1.686  1.00  0.00    +0.000 C 
ATOM     88  O3  UNL A   1       0.916   2.728   0.586  1.00  0.00    +0.000 O 
BRANCH   87   89
ATOM    133  H38 UNL A   1       1.627   3.283   3.993  1.00  0.00    +0.000 H 
ATOM    134  H39 UNL A   1       1.052   5.205   5.375  1.00  0.00    +0.000 H 
ATOM    135  H40 UNL A   1      -1.757   6.448   2.497  1.00  0.00    +0.000 H 
ATOM    136  H41 UNL A   1      -1.224   4.503   1.137  1.00  0.00    +0.000 H 
ATOM     89  C64 UNL A   1       0.182   3.713   2.507  1.00  0.00    +0.000 C 
ATOM     90  C65 UNL A   1       0.883   3.934   3.696  1.00  0.00    +0.000 C 
ATOM     91  C66 UNL A   1       0.565   5.048   4.479  1.00  0.00    +0.000 C 
ATOM     92  C67 UNL A   1      -0.412   5.947   4.046  1.00  0.00    +0.000 C 
ATOM     93 Cl1  UNL A   1      -0.834   7.290   5.035  1.00  0.00    +0.000 Cl
ATOM     94  C68 UNL A   1      -1.059   5.761   2.824  1.00  0.00    +0.000 C 
ATOM     95  C69 UNL A   1      -0.758   4.644   2.047  1.00  0.00    +0.000 C 
ENDBRANCH   87   89
ENDBRANCH   86   87
ENDBRANCH    4    3
ENDBRANCH    5    4
ENDBRANCH    7    5
ENDBRANCH    8    7
ENDBRANCH    9    8
ENDBRANCH   10    9
ENDBRANCH   11   10
ENDBRANCH   12   11
ENDBRANCH   13   12
ENDBRANCH   14   13
ENDBRANCH   15   14
ENDBRANCH   17   15
ENDBRANCH   21   20
BRANCH   25   26
ATOM     33  C25 UNL A   1      16.188   5.575  -4.776  1.00  0.00    +0.000 C 
ATOM     34  F4  UNL A   1      17.247   5.959  -4.049  1.00  0.00    +0.000 F 
ATOM     35  C26 UNL A   1      15.124   4.930  -4.147  1.00  0.00    +0.000 C 
ATOM     36  F5  UNL A   1      15.297   4.692  -2.843  1.00  0.00    +0.000 F 
ATOM     26  C21 UNL A   1      13.998   4.460  -4.857  1.00  0.00    +0.000 C 
ATOM     27  C22 UNL A   1      14.007   4.717  -6.244  1.00  0.00    +0.000 C 
ATOM     28  F1  UNL A   1      12.996   4.304  -7.024  1.00  0.00    +0.000 F 
ATOM     29  C23 UNL A   1      15.098   5.319  -6.878  1.00  0.00    +0.000 C 
ATOM     30  F2  UNL A   1      15.116   5.425  -8.214  1.00  0.00    +0.000 F 
ATOM     31  C24 UNL A   1      16.192   5.739  -6.144  1.00  0.00    +0.000 C 
ATOM     32  F3  UNL A   1      17.265   6.256  -6.756  1.00  0.00    +0.000 F 
ENDBRANCH   25   26
BRANCH   42   43
ATOM     43  C32 UNL A   1      12.547  -2.235  -5.115  1.00  0.00    +0.000 C 
ATOM     44  C33 UNL A   1      12.221  -2.904  -3.922  1.00  0.00    +0.000 C 
ATOM     45  F6  UNL A   1      12.679  -2.466  -2.741  1.00  0.00    +0.000 F 
ATOM     46  C34 UNL A   1      11.363  -4.004  -3.923  1.00  0.00    +0.000 C 
ATOM     47  F7  UNL A   1      11.068  -4.630  -2.774  1.00  0.00    +0.000 F 
ATOM     48  C35 UNL A   1      10.778  -4.427  -5.106  1.00  0.00    +0.000 C 
ATOM     49  F8  UNL A   1       9.913  -5.451  -5.101  1.00  0.00    +0.000 F 
ATOM     50  C36 UNL A   1      11.066  -3.767  -6.290  1.00  0.00    +0.000 C 
ATOM     51  F9  UNL A   1      10.464  -4.140  -7.428  1.00  0.00    +0.000 F 
ATOM     52  C37 UNL A   1      11.951  -2.693  -6.297  1.00  0.00    +0.000 C 
ATOM     53  F10 UNL A   1      12.185  -2.059  -7.456  1.00  0.00    +0.000 F 
ENDBRANCH   42   43
BRANCH   57   58
ATOM     65  C45 UNL A   1      19.672  -2.276  -0.085  1.00  0.00    +0.000 C 
ATOM     66  F14 UNL A   1      20.170  -1.766   1.050  1.00  0.00    +0.000 F 
ATOM     67  C46 UNL A   1      18.305  -2.173  -0.348  1.00  0.00    +0.000 C 
ATOM     68  F15 UNL A   1      17.556  -1.529   0.558  1.00  0.00    +0.000 F 
ATOM     58  C41 UNL A   1      17.744  -2.626  -1.558  1.00  0.00    +0.000 C 
ATOM     59  C42 UNL A   1      18.630  -3.226  -2.470  1.00  0.00    +0.000 C 
ATOM     60  F11 UNL A   1      18.186  -3.649  -3.663  1.00  0.00    +0.000 F 
ATOM     61  C43 UNL A   1      20.001  -3.326  -2.206  1.00  0.00    +0.000 C 
ATOM     62  F12 UNL A   1      20.825  -3.840  -3.131  1.00  0.00    +0.000 F 
ATOM     63  C44 UNL A   1      20.522  -2.837  -1.020  1.00  0.00    +0.000 C 
ATOM     64  F13 UNL A   1      21.844  -2.867  -0.797  1.00  0.00    +0.000 F 
ENDBRANCH   57   58
TORSDOF 19