ROOT
ATOM    130  H32 UNL A   1       3.928  -2.099  -3.841  1.00  0.00    +0.000 H 
ATOM    131  H33 UNL A   1       3.257  -3.741  -5.795  1.00  0.00    +0.000 H 
ATOM    132  H34 UNL A   1       4.225  -0.083  -7.432  1.00  0.00    +0.000 H 
ATOM    133  H35 UNL A   1      -0.079  -2.960  -5.495  1.00  0.00    +0.000 H 
ATOM    134  H36 UNL A   1       0.944  -0.875  -4.433  1.00  0.00    +0.000 H 
ATOM    135  H37 UNL A   1      -2.691   0.154  -6.150  1.00  0.00    +0.000 H 
ATOM    136  H38 UNL A   1      -0.719  -2.658 -10.701  1.00  0.00    +0.000 H 
ATOM    137  H39 UNL A   1       1.833  -2.864 -10.983  1.00  0.00    +0.000 H 
ATOM    138  H40 UNL A   1       3.793   3.679  -4.945  1.00  0.00    +0.000 H 
ATOM    139  H41 UNL A   1       1.254   4.078  -5.057  1.00  0.00    +0.000 H 
ATOM     36  C29 UNL A   1      -0.178   1.559  -5.588  1.00  0.00    +0.000 C 
ATOM     37  C30 UNL A   1       1.258   1.847  -5.417  1.00  0.00    +0.000 C 
ATOM     38  N6  UNL A   1       2.192   0.970  -5.576  1.00  0.00    +0.000 N 
ATOM     39  C31 UNL A   1       3.377   1.540  -5.183  1.00  0.00    +0.000 C 
ATOM     40  C32 UNL A   1       4.428   0.723  -4.890  1.00  0.00    +0.000 C 
ATOM     52  C39 UNL A   1       4.198  -0.633  -5.403  1.00  0.00    +0.000 C 
ATOM     53  C40 UNL A   1       3.897  -1.865  -4.846  1.00  0.00    +0.000 C 
ATOM     54  C41 UNL A   1       3.537  -2.754  -5.904  1.00  0.00    +0.000 C 
ATOM     55  C42 UNL A   1       3.630  -2.064  -7.099  1.00  0.00    +0.000 C 
ATOM     56  N7  UNL A   1       4.051  -0.792  -6.772  1.00  0.00    +0.000 N 
ATOM     57  C43 UNL A   1       3.327  -2.370  -8.486  1.00  0.00    +0.000 C 
ATOM     69  C50 UNL A   1       2.011  -2.451  -8.828  1.00  0.00    +0.000 C 
ATOM     70  N8  UNL A   1       1.004  -2.249  -7.925  1.00  0.00    +0.000 N 
ATOM     71  C51 UNL A   1      -0.138  -2.244  -8.554  1.00  0.00    +0.000 C 
ATOM     72  C52 UNL A   1      -1.452  -1.852  -7.921  1.00  0.00    +0.000 C 
ATOM     84  C59 UNL A   1      -1.385  -1.538  -6.596  1.00  0.00    +0.000 C 
ATOM     85  C60 UNL A   1      -0.362  -1.983  -5.672  1.00  0.00    +0.000 C 
ATOM     86  C61 UNL A   1       0.147  -0.890  -5.089  1.00  0.00    +0.000 C 
ATOM     87  C62 UNL A   1      -0.611   0.276  -5.536  1.00  0.00    +0.000 C 
ATOM     88  N9  UNL A   1      -1.798  -0.258  -6.104  1.00  0.00    +0.000 N 
ATOM     89  C63 UNL A   1       0.010  -2.552  -9.979  1.00  0.00    +0.000 C 
ATOM     90  C64 UNL A   1       1.344  -2.659 -10.098  1.00  0.00    +0.000 C 
ATOM     91  C65 UNL A   1       3.078   2.946  -5.072  1.00  0.00    +0.000 C 
ATOM     92  C66 UNL A   1       1.766   3.187  -5.154  1.00  0.00    +0.000 C 
ENDROOT
BRANCH   36   35
ATOM     33  C26 UNL A   1      -2.997   3.592  -6.927  1.00  0.00    +0.000 C 
ATOM     34  C27 UNL A   1      -1.796   2.893  -6.955  1.00  0.00    +0.000 C 
ATOM    129  H31 UNL A   1      -1.400   2.563  -7.849  1.00  0.00    +0.000 H 
ATOM     35  C28 UNL A   1      -1.137   2.648  -5.750  1.00  0.00    +0.000 C 
ATOM    140  H42 UNL A   1      -0.915   3.268  -3.736  1.00  0.00    +0.000 H 
ATOM    141  H43 UNL A   1      -2.899   4.684  -3.755  1.00  0.00    +0.000 H 
ATOM    128  H30 UNL A   1      -3.526   3.768  -7.795  1.00  0.00    +0.000 H 
ATOM     93  C67 UNL A   1      -1.503   3.334  -4.581  1.00  0.00    +0.000 C 
ATOM     94  C68 UNL A   1      -2.654   4.099  -4.569  1.00  0.00    +0.000 C 
ATOM     32  C25 UNL A   1      -3.471   4.050  -5.695  1.00  0.00    +0.000 C 
BRANCH   32   30
ATOM     30  C24 UNL A   1      -4.939   4.022  -5.491  1.00  0.00    +0.000 C 
ATOM     31  O2  UNL A   1      -5.653   4.823  -6.047  1.00  0.00    +0.000 O 
BRANCH   30   29
ATOM     29  N5  UNL A   1      -5.437   2.981  -4.705  1.00  0.00    +0.000 N 
ATOM    127  H29 UNL A   1      -6.417   2.913  -4.646  1.00  0.00    +0.000 H 
BRANCH   29   28
ATOM     28  C23 UNL A   1      -4.673   1.972  -3.953  1.00  0.00    +0.000 C 
ATOM    125  H27 UNL A   1      -4.146   1.364  -4.658  1.00  0.00    +0.000 H 
ATOM    126  H28 UNL A   1      -4.032   2.519  -3.293  1.00  0.00    +0.000 H 
BRANCH   28   27
ATOM     27  C22 UNL A   1      -5.506   1.050  -3.064  1.00  0.00    +0.000 C 
ATOM    124  H26 UNL A   1      -6.442   1.557  -2.961  1.00  0.00    +0.000 H 
ATOM    123  H25 UNL A   1      -4.954   0.899  -2.159  1.00  0.00    +0.000 H 
BRANCH   27   26
ATOM    121  H23 UNL A   1      -6.737  -0.662  -3.054  1.00  0.00    +0.000 H 
ATOM     26  C21 UNL A   1      -5.880  -0.331  -3.603  1.00  0.00    +0.000 C 
ATOM    122  H24 UNL A   1      -6.024  -0.173  -4.651  1.00  0.00    +0.000 H 
BRANCH   26   25
ATOM     25  C20 UNL A   1      -4.833  -1.454  -3.531  1.00  0.00    +0.000 C 
ATOM    119  H21 UNL A   1      -5.269  -2.291  -4.036  1.00  0.00    +0.000 H 
ATOM    120  H22 UNL A   1      -3.974  -0.960  -3.935  1.00  0.00    +0.000 H 
BRANCH   25   24
ATOM    117  H19 UNL A   1      -4.160  -3.070  -2.348  1.00  0.00    +0.000 H 
ATOM    118  H20 UNL A   1      -3.380  -1.417  -2.078  1.00  0.00    +0.000 H 
ATOM     24  C19 UNL A   1      -4.258  -2.013  -2.207  1.00  0.00    +0.000 C 
BRANCH   24   23
ATOM    115  H17 UNL A   1      -4.215  -1.611  -0.132  1.00  0.00    +0.000 H 
ATOM    116  H18 UNL A   1      -5.674  -1.043  -1.030  1.00  0.00    +0.000 H 
ATOM     23  C18 UNL A   1      -4.965  -1.827  -0.864  1.00  0.00    +0.000 C 
BRANCH   23   22
ATOM    114  H16 UNL A   1      -5.968  -3.663  -1.006  1.00  0.00    +0.000 H 
ATOM     22  N4  UNL A   1      -5.752  -2.946  -0.367  1.00  0.00    +0.000 N 
BRANCH   22   20
ATOM     20  C17 UNL A   1      -6.221  -3.087   0.920  1.00  0.00    +0.000 C 
ATOM     21  O1  UNL A   1      -7.389  -3.495   1.016  1.00  0.00    +0.000 O 
BRANCH   20   19
ATOM    110  H12 UNL A   1      -3.094  -0.714   3.188  1.00  0.00    +0.000 H 
ATOM    111  H13 UNL A   1      -3.333  -2.913   2.512  1.00  0.00    +0.000 H 
ATOM    112  H14 UNL A   1      -3.852  -2.117   1.135  1.00  0.00    +0.000 H 
ATOM     17  C15 UNL A   1      -4.058  -1.032   2.850  1.00  0.00    +0.000 C 
ATOM     18  N3  UNL A   1      -4.050  -2.304   2.118  1.00  0.00    +0.000 N 
ATOM     19  C16 UNL A   1      -5.371  -2.972   2.222  1.00  0.00    +0.000 C 
ATOM    142  H44 UNL A   1      -6.533  -3.210   4.026  1.00  0.00    +0.000 H 
ATOM    143  H45 UNL A   1      -7.079  -1.907   3.043  1.00  0.00    +0.000 H 
ATOM    113  H15 UNL A   1      -5.100  -3.988   2.422  1.00  0.00    +0.000 H 
ATOM     95  C69 UNL A   1      -6.203  -2.415   3.390  1.00  0.00    +0.000 C 
ATOM     96  S1  UNL A   1      -5.099  -1.302   4.293  1.00  0.00    +0.000 S 
BRANCH   17   16
ATOM      6  C6  UNL A   1      -3.765   0.815   0.978  1.00  0.00    +0.000 C 
ATOM      7  N1  UNL A   1      -4.559   1.714   0.350  1.00  0.00    +0.000 N 
ATOM      8  N2  UNL A   1      -5.821   1.380   0.725  1.00  0.00    +0.000 N 
ATOM    109  H11 UNL A   1      -6.651   0.186   2.294  1.00  0.00    +0.000 H 
ATOM     15  C13 UNL A   1      -5.826   0.484   1.750  1.00  0.00    +0.000 C 
ATOM     16  C14 UNL A   1      -4.531   0.047   1.932  1.00  0.00    +0.000 C 
BRANCH    6    5
ATOM     97  C70 UNL A   1      -1.529   1.776   0.347  1.00  0.00    +0.000 C 
ATOM      2  C2  UNL A   1       0.444   0.361   0.053  1.00  0.00    +0.000 C 
ATOM      3  C3  UNL A   1      -0.355  -0.755   0.283  1.00  0.00    +0.000 C 
ATOM      4  C4  UNL A   1      -1.716  -0.598   0.565  1.00  0.00    +0.000 C 
ATOM     98  C71 UNL A   1      -0.157   1.626   0.067  1.00  0.00    +0.000 C 
ATOM    102  H4  UNL A   1       0.057  -1.700   0.244  1.00  0.00    +0.000 H 
ATOM      5  C5  UNL A   1      -2.329   0.665   0.633  1.00  0.00    +0.000 C 
ATOM    103  H5  UNL A   1      -2.290  -1.440   0.730  1.00  0.00    +0.000 H 
ATOM    144  H46 UNL A   1      -1.950   2.718   0.342  1.00  0.00    +0.000 H 
ATOM    145  H47 UNL A   1       0.415   2.461  -0.132  1.00  0.00    +0.000 H 
BRANCH    2    1
ATOM      1  C1  UNL A   1       1.910   0.172  -0.203  1.00  0.00    +0.000 C 
ATOM     99  H1  UNL A   1       2.148  -0.871  -0.167  1.00  0.00    +0.000 H 
ATOM    100  H2  UNL A   1       2.473   0.693   0.543  1.00  0.00    +0.000 H 
ATOM    101  H3  UNL A   1       2.156   0.560  -1.170  1.00  0.00    +0.000 H 
ENDBRANCH    2    1
ENDBRANCH    6    5
BRANCH    8    9
ATOM    104  H6  UNL A   1      -7.654  -0.269  -0.196  1.00  0.00    +0.000 H 
ATOM      9  C7  UNL A   1      -6.972   1.732  -0.019  1.00  0.00    +0.000 C 
ATOM     10  C8  UNL A   1      -7.833   0.711  -0.467  1.00  0.00    +0.000 C 
ATOM     11  C9  UNL A   1      -8.925   1.021  -1.275  1.00  0.00    +0.000 C 
ATOM    108  H10 UNL A   1      -6.615   3.814   0.004  1.00  0.00    +0.000 H 
ATOM     13  C11 UNL A   1      -8.398   3.371  -1.052  1.00  0.00    +0.000 C 
ATOM     14  C12 UNL A   1      -7.248   3.064  -0.315  1.00  0.00    +0.000 C 
ATOM    105  H7  UNL A   1      -9.515   0.268  -1.664  1.00  0.00    +0.000 H 
ATOM    107  H9  UNL A   1      -8.644   4.357  -1.226  1.00  0.00    +0.000 H 
ATOM     12  C10 UNL A   1      -9.216   2.353  -1.554  1.00  0.00    +0.000 C 
ATOM    106  H8  UNL A   1     -10.037   2.591  -2.132  1.00  0.00    +0.000 H 
ENDBRANCH    8    9
ENDBRANCH   17   16
ENDBRANCH   20   19
ENDBRANCH   22   20
ENDBRANCH   23   22
ENDBRANCH   24   23
ENDBRANCH   25   24
ENDBRANCH   26   25
ENDBRANCH   27   26
ENDBRANCH   28   27
ENDBRANCH   29   28
ENDBRANCH   30   29
ENDBRANCH   32   30
ENDBRANCH   36   35
BRANCH   40   41
ATOM     41  C33 UNL A   1       5.614   1.080  -4.007  1.00  0.00    +0.000 C 
ATOM     42  C34 UNL A   1       6.553   0.084  -3.650  1.00  0.00    +0.000 C 
ATOM     43  F1  UNL A   1       6.499  -1.149  -4.173  1.00  0.00    +0.000 F 
ATOM     44  C35 UNL A   1       7.576   0.304  -2.719  1.00  0.00    +0.000 C 
ATOM     45  F2  UNL A   1       8.394  -0.703  -2.381  1.00  0.00    +0.000 F 
ATOM     46  C36 UNL A   1       7.737   1.539  -2.130  1.00  0.00    +0.000 C 
ATOM     47  F3  UNL A   1       8.705   1.750  -1.229  1.00  0.00    +0.000 F 
ATOM     48  C37 UNL A   1       6.877   2.554  -2.476  1.00  0.00    +0.000 C 
ATOM     49  F4  UNL A   1       7.014   3.768  -1.923  1.00  0.00    +0.000 F 
ATOM     50  C38 UNL A   1       5.835   2.325  -3.380  1.00  0.00    +0.000 C 
ATOM     51  F5  UNL A   1       5.044   3.381  -3.567  1.00  0.00    +0.000 F 
ENDBRANCH   40   41
BRANCH   57   58
ATOM     65  C48 UNL A   1       6.630  -1.908 -10.334  1.00  0.00    +0.000 C 
ATOM     66  F9  UNL A   1       7.654  -1.042 -10.332  1.00  0.00    +0.000 F 
ATOM     67  C49 UNL A   1       5.513  -1.660  -9.539  1.00  0.00    +0.000 C 
ATOM     68  F10 UNL A   1       5.496  -0.509  -8.850  1.00  0.00    +0.000 F 
ATOM     58  C44 UNL A   1       4.435  -2.563  -9.471  1.00  0.00    +0.000 C 
ATOM     59  C45 UNL A   1       4.519  -3.707 -10.280  1.00  0.00    +0.000 C 
ATOM     60  F6  UNL A   1       3.541  -4.625 -10.265  1.00  0.00    +0.000 F 
ATOM     61  C46 UNL A   1       5.619  -3.931 -11.109  1.00  0.00    +0.000 C 
ATOM     62  F7  UNL A   1       5.653  -5.019 -11.891  1.00  0.00    +0.000 F 
ATOM     63  C47 UNL A   1       6.681  -3.042 -11.122  1.00  0.00    +0.000 C 
ATOM     64  F8  UNL A   1       7.750  -3.276 -11.896  1.00  0.00    +0.000 F 
ENDBRANCH   57   58
BRANCH   72   73
ATOM     73  C53 UNL A   1      -2.566  -1.165  -8.617  1.00  0.00    +0.000 C 
ATOM     74  C54 UNL A   1      -3.885  -1.475  -8.233  1.00  0.00    +0.000 C 
ATOM     75  F11 UNL A   1      -4.135  -2.597  -7.539  1.00  0.00    +0.000 F 
ATOM     76  C55 UNL A   1      -4.929  -0.583  -8.456  1.00  0.00    +0.000 C 
ATOM     77  F12 UNL A   1      -6.154  -0.856  -7.984  1.00  0.00    +0.000 F 
ATOM     78  C56 UNL A   1      -4.684   0.618  -9.100  1.00  0.00    +0.000 C 
ATOM     79  F13 UNL A   1      -5.666   1.519  -9.237  1.00  0.00    +0.000 F 
ATOM     80  C57 UNL A   1      -3.409   0.901  -9.569  1.00  0.00    +0.000 C 
ATOM     81  F14 UNL A   1      -3.167   2.074 -10.171  1.00  0.00    +0.000 F 
ATOM     82  C58 UNL A   1      -2.357   0.015  -9.336  1.00  0.00    +0.000 C 
ATOM     83  F15 UNL A   1      -1.119   0.370  -9.711  1.00  0.00    +0.000 F 
ENDBRANCH   72   73
TORSDOF 19