ROOT
ATOM    136  H36 UNL A   1       0.202 -12.497   6.581  1.00  0.00    +0.000 H 
ATOM    137  H37 UNL A   1      -0.711 -13.543   4.309  1.00  0.00    +0.000 H 
ATOM    138  H38 UNL A   1      -2.637 -15.233   7.406  1.00  0.00    +0.000 H 
ATOM    139  H39 UNL A   1      -8.901 -10.701   4.355  1.00  0.00    +0.000 H 
ATOM    140  H40 UNL A   1      -7.224  -8.823   4.748  1.00  0.00    +0.000 H 
ATOM    141  H41 UNL A   1      -5.482 -12.342   6.110  1.00  0.00    +0.000 H 
ATOM    142  H42 UNL A   1      -7.090 -14.767   7.640  1.00  0.00    +0.000 H 
ATOM    143  H43 UNL A   1      -4.609 -15.414   7.394  1.00  0.00    +0.000 H 
ATOM    144  H44 UNL A   1      -2.954 -10.661  10.363  1.00  0.00    +0.000 H 
ATOM    145  H45 UNL A   1      -4.629  -9.082   9.223  1.00  0.00    +0.000 H 
ATOM     42  C30 UNL A   1      -5.012  -9.628   6.445  1.00  0.00    +0.000 C 
ATOM     43  C31 UNL A   1      -4.097 -10.326   7.403  1.00  0.00    +0.000 C 
ATOM     44  N9  UNL A   1      -3.264 -11.295   7.175  1.00  0.00    +0.000 N 
ATOM     45  C32 UNL A   1      -2.746 -11.663   8.418  1.00  0.00    +0.000 C 
ATOM     46  C33 UNL A   1      -2.053 -12.816   8.632  1.00  0.00    +0.000 C 
ATOM     58  C40 UNL A   1      -1.575 -13.410   7.419  1.00  0.00    +0.000 C 
ATOM     59  C41 UNL A   1      -0.657 -13.053   6.453  1.00  0.00    +0.000 C 
ATOM     60  C42 UNL A   1      -1.150 -13.616   5.240  1.00  0.00    +0.000 C 
ATOM     61  C43 UNL A   1      -2.337 -14.283   5.546  1.00  0.00    +0.000 C 
ATOM     62  N10 UNL A   1      -2.264 -14.475   6.901  1.00  0.00    +0.000 N 
ATOM     63  C44 UNL A   1      -3.510 -14.571   4.757  1.00  0.00    +0.000 C 
ATOM     75  C51 UNL A   1      -4.748 -14.810   5.278  1.00  0.00    +0.000 C 
ATOM     76  N11 UNL A   1      -5.893 -14.513   4.555  1.00  0.00    +0.000 N 
ATOM     77  C52 UNL A   1      -6.801 -14.258   5.457  1.00  0.00    +0.000 C 
ATOM     78  C53 UNL A   1      -7.913 -13.296   5.270  1.00  0.00    +0.000 C 
ATOM     90  C60 UNL A   1      -7.382 -12.052   5.234  1.00  0.00    +0.000 C 
ATOM     91  C61 UNL A   1      -7.971 -10.806   4.790  1.00  0.00    +0.000 C 
ATOM     92  C62 UNL A   1      -7.102  -9.806   5.039  1.00  0.00    +0.000 C 
ATOM     93  C63 UNL A   1      -5.957 -10.331   5.787  1.00  0.00    +0.000 C 
ATOM     94  N12 UNL A   1      -6.144 -11.694   5.776  1.00  0.00    +0.000 N 
ATOM     95  C64 UNL A   1      -6.490 -14.713   6.802  1.00  0.00    +0.000 C 
ATOM     96  C65 UNL A   1      -5.207 -15.040   6.641  1.00  0.00    +0.000 C 
ATOM     97  C66 UNL A   1      -3.235 -10.697   9.370  1.00  0.00    +0.000 C 
ATOM     98  C67 UNL A   1      -4.098  -9.858   8.798  1.00  0.00    +0.000 C 
ENDROOT
BRANCH   42   41
ATOM     99  C68 UNL A   1      -6.045  -7.386   6.812  1.00  0.00    +0.000 C 
ATOM    100  C69 UNL A   1      -5.994  -6.003   6.668  1.00  0.00    +0.000 C 
ATOM     38  C26 UNL A   1      -4.852  -5.369   6.146  1.00  0.00    +0.000 C 
ATOM     39  C27 UNL A   1      -3.739  -6.153   5.841  1.00  0.00    +0.000 C 
ATOM    134  H34 UNL A   1      -2.864  -5.701   5.532  1.00  0.00    +0.000 H 
ATOM     40  C28 UNL A   1      -3.796  -7.544   5.951  1.00  0.00    +0.000 C 
ATOM    135  H35 UNL A   1      -2.974  -8.114   5.699  1.00  0.00    +0.000 H 
ATOM     41  C29 UNL A   1      -4.963  -8.164   6.400  1.00  0.00    +0.000 C 
ATOM    146  H46 UNL A   1      -6.879  -7.834   7.221  1.00  0.00    +0.000 H 
ATOM    147  H47 UNL A   1      -6.807  -5.433   6.949  1.00  0.00    +0.000 H 
BRANCH   38   36
ATOM     36  C25 UNL A   1      -4.962  -3.893   5.967  1.00  0.00    +0.000 C 
ATOM     37  O3  UNL A   1      -5.877  -3.300   6.523  1.00  0.00    +0.000 O 
BRANCH   36   35
ATOM     35  N8  UNL A   1      -4.137  -3.140   5.174  1.00  0.00    +0.000 N 
ATOM    133  H33 UNL A   1      -4.434  -2.204   5.108  1.00  0.00    +0.000 H 
BRANCH   35   34
ATOM     34  C24 UNL A   1      -2.934  -3.390   4.411  1.00  0.00    +0.000 C 
ATOM    131  H31 UNL A   1      -2.460  -2.450   4.220  1.00  0.00    +0.000 H 
ATOM    132  H32 UNL A   1      -2.338  -4.054   5.001  1.00  0.00    +0.000 H 
BRANCH   34   33
ATOM     33  C23 UNL A   1      -3.153  -4.091   3.070  1.00  0.00    +0.000 C 
ATOM    130  H30 UNL A   1      -3.626  -5.022   3.302  1.00  0.00    +0.000 H 
ATOM    129  H29 UNL A   1      -2.200  -4.195   2.594  1.00  0.00    +0.000 H 
BRANCH   33   32
ATOM    128  H28 UNL A   1      -5.061  -3.422   2.547  1.00  0.00    +0.000 H 
ATOM    127  H27 UNL A   1      -4.019  -3.874   1.148  1.00  0.00    +0.000 H 
ATOM     32  C22 UNL A   1      -4.093  -3.376   2.092  1.00  0.00    +0.000 C 
BRANCH   32   31
ATOM    125  H25 UNL A   1      -4.524  -1.542   1.109  1.00  0.00    +0.000 H 
ATOM    126  H26 UNL A   1      -3.952  -1.407   2.803  1.00  0.00    +0.000 H 
ATOM     31  C21 UNL A   1      -3.832  -1.882   1.852  1.00  0.00    +0.000 C 
BRANCH   31   30
ATOM    123  H23 UNL A   1      -2.322  -0.459   1.388  1.00  0.00    +0.000 H 
ATOM    124  H24 UNL A   1      -1.741  -2.010   2.049  1.00  0.00    +0.000 H 
ATOM     30  C20 UNL A   1      -2.418  -1.525   1.379  1.00  0.00    +0.000 C 
BRANCH   30   29
ATOM    121  H21 UNL A   1      -1.163  -2.581   0.020  1.00  0.00    +0.000 H 
ATOM    122  H22 UNL A   1      -2.888  -2.633  -0.364  1.00  0.00    +0.000 H 
ATOM     29  C19 UNL A   1      -2.075  -2.024  -0.026  1.00  0.00    +0.000 C 
BRANCH   29   28
ATOM     28  N7  UNL A   1      -1.912  -0.939  -0.972  1.00  0.00    +0.000 N 
ATOM    120  H20 UNL A   1      -2.771  -0.558  -1.264  1.00  0.00    +0.000 H 
BRANCH   28   26
ATOM     26  C18 UNL A   1      -0.851  -0.330  -1.547  1.00  0.00    +0.000 C 
ATOM     27  O2  UNL A   1      -1.146   0.604  -2.314  1.00  0.00    +0.000 O 
BRANCH   26    2
ATOM      2  C1  UNL A   1       0.655  -0.615  -1.305  1.00  0.00    +0.000 C 
ATOM    104  H4  UNL A   1       1.039  -0.524  -2.300  1.00  0.00    +0.000 H 
BRANCH    2    1
ATOM      1  N1  UNL A   1       1.235   0.407  -0.412  1.00  0.00    +0.000 N 
ATOM    101  H1  UNL A   1       2.224   0.207  -0.263  1.00  0.00    +0.000 H 
ATOM    102  H2  UNL A   1       0.747   0.393   0.484  1.00  0.00    +0.000 H 
ATOM    103  H3  UNL A   1       1.135   1.328  -0.838  1.00  0.00    +0.000 H 
ENDBRANCH    2    1
BRANCH    2    3
ATOM    105  H5  UNL A   1       2.252  -1.951  -1.482  1.00  0.00    +0.000 H 
ATOM    106  H6  UNL A   1       0.520  -2.580  -1.767  1.00  0.00    +0.000 H 
ATOM      3  C2  UNL A   1       1.227  -2.027  -1.184  1.00  0.00    +0.000 C 
BRANCH    3    4
ATOM      4  C3  UNL A   1       1.234  -2.835   0.088  1.00  0.00    +0.000 C 
ATOM      5  C4  UNL A   1       1.409  -4.212   0.047  1.00  0.00    +0.000 C 
ATOM      6  N2  UNL A   1       1.163  -4.737   1.288  1.00  0.00    +0.000 N 
ATOM    107  H7  UNL A   1       1.681  -4.754  -0.788  1.00  0.00    +0.000 H 
ATOM     20  C12 UNL A   1       0.966  -3.712   2.191  1.00  0.00    +0.000 C 
ATOM     21  C13 UNL A   1       0.721  -3.761   3.577  1.00  0.00    +0.000 C 
ATOM    116  H16 UNL A   1       0.635  -4.666   4.066  1.00  0.00    +0.000 H 
ATOM     23  C15 UNL A   1       0.716  -1.349   3.612  1.00  0.00    +0.000 C 
ATOM     24  C16 UNL A   1       0.951  -1.312   2.231  1.00  0.00    +0.000 C 
ATOM     25  C17 UNL A   1       1.077  -2.504   1.482  1.00  0.00    +0.000 C 
ATOM    119  H19 UNL A   1       1.032  -0.401   1.753  1.00  0.00    +0.000 H 
ATOM    118  H18 UNL A   1       0.631  -0.466   4.140  1.00  0.00    +0.000 H 
ATOM     22  C14 UNL A   1       0.598  -2.560   4.274  1.00  0.00    +0.000 C 
ATOM    117  H17 UNL A   1       0.418  -2.574   5.290  1.00  0.00    +0.000 H 
BRANCH    6    7
ATOM      7  C5  UNL A   1       1.036  -6.121   1.552  1.00  0.00    +0.000 C 
ATOM      8  N3  UNL A   1      -0.192  -6.583   1.761  1.00  0.00    +0.000 N 
ATOM      9  C6  UNL A   1      -0.217  -7.902   1.860  1.00  0.00    +0.000 C 
ATOM     10 Cl1  UNL A   1      -1.759  -8.602   2.086  1.00  0.00    +0.000 Cl
ATOM     11  N4  UNL A   1       0.810  -8.737   1.845  1.00  0.00    +0.000 N 
ATOM     12  C7  UNL A   1       1.996  -8.153   1.754  1.00  0.00    +0.000 C 
ATOM     19  N6  UNL A   1       2.154  -6.852   1.536  1.00  0.00    +0.000 N 
BRANCH   12   13
ATOM    108  H8  UNL A   1       4.633  -8.977   3.437  1.00  0.00    +0.000 H 
ATOM    109  H9  UNL A   1       3.881  -7.400   3.183  1.00  0.00    +0.000 H 
ATOM     13  N5  UNL A   1       3.093  -8.933   2.047  1.00  0.00    +0.000 N 
ATOM     14  C8  UNL A   1       4.231  -8.296   2.716  1.00  0.00    +0.000 C 
ATOM     15  C9  UNL A   1       5.337  -7.914   1.728  1.00  0.00    +0.000 C 
ATOM     17  C10 UNL A   1       4.600  -9.511   0.162  1.00  0.00    +0.000 C 
ATOM     18  C11 UNL A   1       3.438  -9.965   1.065  1.00  0.00    +0.000 C 
ATOM    114  H14 UNL A   1       2.582 -10.166   0.455  1.00  0.00    +0.000 H 
ATOM    115  H15 UNL A   1       3.743 -10.845   1.591  1.00  0.00    +0.000 H 
ATOM    110  H10 UNL A   1       6.189  -7.565   2.274  1.00  0.00    +0.000 H 
ATOM    111  H11 UNL A   1       4.966  -7.146   1.082  1.00  0.00    +0.000 H 
ATOM     16  O1  UNL A   1       5.722  -9.041   0.926  1.00  0.00    +0.000 O 
ATOM    112  H12 UNL A   1       4.914 -10.338  -0.440  1.00  0.00    +0.000 H 
ATOM    113  H13 UNL A   1       4.251  -8.702  -0.445  1.00  0.00    +0.000 H 
ENDBRANCH   12   13
ENDBRANCH    6    7
ENDBRANCH    3    4
ENDBRANCH    2    3
ENDBRANCH   26    2
ENDBRANCH   28   26
ENDBRANCH   29   28
ENDBRANCH   30   29
ENDBRANCH   31   30
ENDBRANCH   32   31
ENDBRANCH   33   32
ENDBRANCH   34   33
ENDBRANCH   35   34
ENDBRANCH   36   35
ENDBRANCH   38   36
ENDBRANCH   42   41
BRANCH   46   47
ATOM     47  C34 UNL A   1      -1.998 -13.543   9.947  1.00  0.00    +0.000 C 
ATOM     48  C35 UNL A   1      -0.973 -14.472  10.212  1.00  0.00    +0.000 C 
ATOM     49  F1  UNL A   1       0.071 -14.592   9.379  1.00  0.00    +0.000 F 
ATOM     50  C36 UNL A   1      -1.032 -15.341  11.306  1.00  0.00    +0.000 C 
ATOM     51  F2  UNL A   1      -0.077 -16.266  11.475  1.00  0.00    +0.000 F 
ATOM     52  C37 UNL A   1      -2.097 -15.288  12.188  1.00  0.00    +0.000 C 
ATOM     53  F3  UNL A   1      -2.172 -16.143  13.216  1.00  0.00    +0.000 F 
ATOM     54  C38 UNL A   1      -3.109 -14.373  11.973  1.00  0.00    +0.000 C 
ATOM     55  F4  UNL A   1      -4.160 -14.326  12.804  1.00  0.00    +0.000 F 
ATOM     56  C39 UNL A   1      -3.075 -13.537  10.858  1.00  0.00    +0.000 C 
ATOM     57  F5  UNL A   1      -4.165 -12.788  10.642  1.00  0.00    +0.000 F 
ENDBRANCH   46   47
BRANCH   63   64
ATOM     65  C46 UNL A   1      -3.988 -13.136   2.696  1.00  0.00    +0.000 C 
ATOM     66  F6  UNL A   1      -4.684 -12.258   3.432  1.00  0.00    +0.000 F 
ATOM     67  C47 UNL A   1      -3.795 -12.852   1.346  1.00  0.00    +0.000 C 
ATOM     68  F7  UNL A   1      -4.359 -11.764   0.800  1.00  0.00    +0.000 F 
ATOM     69  C48 UNL A   1      -2.992 -13.674   0.572  1.00  0.00    +0.000 C 
ATOM     70  F8  UNL A   1      -2.769 -13.378  -0.717  1.00  0.00    +0.000 F 
ATOM     71  C49 UNL A   1      -2.394 -14.787   1.141  1.00  0.00    +0.000 C 
ATOM     72  F9  UNL A   1      -1.575 -15.555   0.408  1.00  0.00    +0.000 F 
ATOM     73  C50 UNL A   1      -2.617 -15.094   2.481  1.00  0.00    +0.000 C 
ATOM     74  F10 UNL A   1      -2.000 -16.163   3.009  1.00  0.00    +0.000 F 
ATOM     64  C45 UNL A   1      -3.422 -14.278   3.287  1.00  0.00    +0.000 C 
ENDBRANCH   63   64
BRANCH   78   79
ATOM     79  C54 UNL A   1      -9.333 -13.668   5.461  1.00  0.00    +0.000 C 
ATOM     80  C55 UNL A   1      -9.790 -14.957   5.150  1.00  0.00    +0.000 C 
ATOM     81  F11 UNL A   1      -8.997 -15.813   4.490  1.00  0.00    +0.000 F 
ATOM     82  C56 UNL A   1     -11.045 -15.409   5.572  1.00  0.00    +0.000 C 
ATOM     83  F12 UNL A   1     -11.423 -16.667   5.310  1.00  0.00    +0.000 F 
ATOM     84  C57 UNL A   1     -11.878 -14.581   6.306  1.00  0.00    +0.000 C 
ATOM     85  F13 UNL A   1     -13.056 -15.033   6.757  1.00  0.00    +0.000 F 
ATOM     86  C58 UNL A   1     -11.467 -13.297   6.607  1.00  0.00    +0.000 C 
ATOM     87  F14 UNL A   1     -12.250 -12.496   7.345  1.00  0.00    +0.000 F 
ATOM     88  C59 UNL A   1     -10.212 -12.849   6.198  1.00  0.00    +0.000 C 
ATOM     89  F15 UNL A   1      -9.836 -11.632   6.616  1.00  0.00    +0.000 F 
ENDBRANCH   78   79
TORSDOF 20