ROOT
ATOM    166  H62 UNL A   1       7.814  17.056   3.882  1.00  0.00    +0.000 H 
ATOM    167  H63 UNL A   1       7.112  18.145   6.144  1.00  0.00    +0.000 H 
ATOM    168  H64 UNL A   1       4.197  15.414   5.067  1.00  0.00    +0.000 H 
ATOM    169  H65 UNL A   1      -1.497  12.688   6.265  1.00  0.00    +0.000 H 
ATOM    170  H66 UNL A   1      -0.828  11.684   4.027  1.00  0.00    +0.000 H 
ATOM    171  H67 UNL A   1       2.176  14.310   5.188  1.00  0.00    +0.000 H 
ATOM    172  H68 UNL A   1       0.788  16.308   9.532  1.00  0.00    +0.000 H 
ATOM    173  H69 UNL A   1       2.866  17.788   9.333  1.00  0.00    +0.000 H 
ATOM     46  C41 UNL A   1       1.627  12.701   2.984  1.00  0.00    +0.000 C 
ATOM     47  C42 UNL A   1       2.975  13.297   2.672  1.00  0.00    +0.000 C 
ATOM     48  N3  UNL A   1       3.736  14.063   3.407  1.00  0.00    +0.000 N 
ATOM    175  H71 UNL A   1       3.153  12.425   0.582  1.00  0.00    +0.000 H 
ATOM     49  C43 UNL A   1       4.910  14.220   2.682  1.00  0.00    +0.000 C 
ATOM    174  H70 UNL A   1       5.584  13.197   0.853  1.00  0.00    +0.000 H 
ATOM     50  C44 UNL A   1       5.960  15.030   2.947  1.00  0.00    +0.000 C 
ATOM     62  C51 UNL A   1       6.001  15.906   4.082  1.00  0.00    +0.000 C 
ATOM     63  C52 UNL A   1       6.962  16.838   4.421  1.00  0.00    +0.000 C 
ATOM     64  C53 UNL A   1       6.575  17.433   5.625  1.00  0.00    +0.000 C 
ATOM     65  C54 UNL A   1       5.348  16.909   6.008  1.00  0.00    +0.000 C 
ATOM     66  N4  UNL A   1       5.014  15.964   5.056  1.00  0.00    +0.000 N 
ATOM     67  C55 UNL A   1       4.546  17.249   7.155  1.00  0.00    +0.000 C 
ATOM     79  C62 UNL A   1       3.355  16.691   7.488  1.00  0.00    +0.000 C 
ATOM     80  N5  UNL A   1       2.630  15.707   6.832  1.00  0.00    +0.000 N 
ATOM     81  C63 UNL A   1       1.557  15.500   7.559  1.00  0.00    +0.000 C 
ATOM     82  C64 UNL A   1       0.402  14.564   7.308  1.00  0.00    +0.000 C 
ATOM     94  C71 UNL A   1       0.405  13.838   6.175  1.00  0.00    +0.000 C 
ATOM     95  C72 UNL A   1      -0.634  12.907   5.743  1.00  0.00    +0.000 C 
ATOM     96  C73 UNL A   1      -0.285  12.383   4.556  1.00  0.00    +0.000 C 
ATOM     97  C74 UNL A   1       0.990  12.966   4.136  1.00  0.00    +0.000 C 
ATOM     98  N6  UNL A   1       1.337  13.794   5.169  1.00  0.00    +0.000 N 
ATOM     99  C75 UNL A   1       1.497  16.311   8.781  1.00  0.00    +0.000 C 
ATOM    100  C76 UNL A   1       2.592  17.050   8.666  1.00  0.00    +0.000 C 
ATOM    101  C77 UNL A   1       4.808  13.394   1.505  1.00  0.00    +0.000 C 
ATOM    102  C78 UNL A   1       3.579  12.924   1.378  1.00  0.00    +0.000 C 
ENDROOT
BRANCH   46   45
ATOM    164  H60 UNL A   1      -1.360  11.402  -0.298  1.00  0.00    +0.000 H 
ATOM    165  H61 UNL A   1      -0.658  12.884   1.505  1.00  0.00    +0.000 H 
ATOM    103  C79 UNL A   1       1.803  10.594   1.728  1.00  0.00    +0.000 C 
ATOM    104  C80 UNL A   1       1.479   9.834   0.626  1.00  0.00    +0.000 C 
ATOM     42  C37 UNL A   1       0.315  10.126  -0.096  1.00  0.00    +0.000 C 
ATOM     43  C38 UNL A   1      -0.491  11.215   0.227  1.00  0.00    +0.000 C 
ATOM     44  C39 UNL A   1      -0.099  12.047   1.273  1.00  0.00    +0.000 C 
ATOM     45  C40 UNL A   1       1.057  11.746   2.013  1.00  0.00    +0.000 C 
ATOM    176  H72 UNL A   1       2.588  10.319   2.338  1.00  0.00    +0.000 H 
ATOM    177  H73 UNL A   1       2.089   9.054   0.334  1.00  0.00    +0.000 H 
BRANCH   42   40
ATOM     41  O3  UNL A   1      -0.558   9.445  -2.185  1.00  0.00    +0.000 O 
ATOM     40  C36 UNL A   1      -0.123   9.137  -1.107  1.00  0.00    +0.000 C 
BRANCH   40   39
ATOM    163  H59 UNL A   1       0.404   7.154  -1.308  1.00  0.00    +0.000 H 
ATOM     39  N2  UNL A   1       0.020   7.824  -0.698  1.00  0.00    +0.000 N 
BRANCH   39   38
ATOM    161  H57 UNL A   1       0.408   6.963   1.147  1.00  0.00    +0.000 H 
ATOM    162  H58 UNL A   1      -0.692   8.303   1.198  1.00  0.00    +0.000 H 
ATOM     38  C35 UNL A   1      -0.400   7.442   0.634  1.00  0.00    +0.000 C 
BRANCH   38   37
ATOM     37  C34 UNL A   1      -1.557   6.485   0.492  1.00  0.00    +0.000 C 
ATOM    159  H55 UNL A   1      -2.174   6.569   1.362  1.00  0.00    +0.000 H 
ATOM    160  H56 UNL A   1      -2.077   6.753  -0.404  1.00  0.00    +0.000 H 
BRANCH   37   36
ATOM     36  C33 UNL A   1      -1.117   4.977   0.337  1.00  0.00    +0.000 C 
ATOM    157  H53 UNL A   1      -1.973   4.396   0.610  1.00  0.00    +0.000 H 
ATOM    158  H54 UNL A   1      -0.749   4.977  -0.668  1.00  0.00    +0.000 H 
BRANCH   36   35
ATOM     35  C32 UNL A   1       0.171   4.290   1.143  1.00  0.00    +0.000 C 
ATOM    156  H52 UNL A   1       0.571   5.219   1.493  1.00  0.00    +0.000 H 
ATOM    155  H51 UNL A   1       0.545   3.580   0.435  1.00  0.00    +0.000 H 
BRANCH   35   34
ATOM    153  H49 UNL A   1       1.405   3.132   2.712  1.00  0.00    +0.000 H 
ATOM     34  C31 UNL A   1       0.373   3.411   2.747  1.00  0.00    +0.000 C 
ATOM    154  H50 UNL A   1      -0.217   4.129   3.277  1.00  0.00    +0.000 H 
BRANCH   34   33
ATOM     33  C30 UNL A   1      -0.468   1.791   3.791  1.00  0.00    +0.000 C 
ATOM    151  H47 UNL A   1      -0.661   1.094   3.002  1.00  0.00    +0.000 H 
ATOM    152  H48 UNL A   1       0.242   1.851   4.589  1.00  0.00    +0.000 H 
BRANCH   33   32
ATOM    150  H46 UNL A   1      -2.509   1.749   4.319  1.00  0.00    +0.000 H 
ATOM     32  N1  UNL A   1      -1.639   1.538   4.728  1.00  0.00    +0.000 N 
BRANCH   32   30
ATOM     30  C29 UNL A   1      -1.753   1.087   6.003  1.00  0.00    +0.000 C 
ATOM     31  O2  UNL A   1      -2.917   0.944   6.401  1.00  0.00    +0.000 O 
BRANCH   30   29
ATOM    149  H45 UNL A   1      -0.462  -0.303   6.656  1.00  0.00    +0.000 H 
ATOM    148  H44 UNL A   1      -0.927   1.011   7.906  1.00  0.00    +0.000 H 
ATOM     29  C28 UNL A   1      -0.606   0.722   6.928  1.00  0.00    +0.000 C 
BRANCH   29   28
ATOM    146  H42 UNL A   1       1.323   1.049   7.735  1.00  0.00    +0.000 H 
ATOM    147  H43 UNL A   1       1.238   0.720   5.960  1.00  0.00    +0.000 H 
ATOM     28  C27 UNL A   1       0.833   1.239   6.804  1.00  0.00    +0.000 C 
BRANCH   28   27
ATOM      3  C3  UNL A   1       0.499   3.703   7.587  1.00  0.00    +0.000 C 
ATOM      4  C4  UNL A   1      -0.667   4.618   7.140  1.00  0.00    +0.000 C 
ATOM      6  C5  UNL A   1      -0.611   5.030   5.668  1.00  0.00    +0.000 C 
ATOM      7  C6  UNL A   1      -0.687   3.747   4.779  1.00  0.00    +0.000 C 
ATOM      8  C7  UNL A   1       1.017   2.960   4.912  1.00  0.00    +0.000 C 
ATOM      9  C8  UNL A   1       1.725   1.768   3.558  1.00  0.00    +0.000 C 
ATOM     10  C9  UNL A   1       0.654   1.391   1.981  1.00  0.00    +0.000 C 
ATOM     11  C10 UNL A   1      -1.158   2.137   1.805  1.00  0.00    +0.000 C 
ATOM    139  H35 UNL A   1      -3.591   3.555   4.034  1.00  0.00    +0.000 H 
ATOM    140  H36 UNL A   1      -3.574   4.067   2.325  1.00  0.00    +0.000 H 
ATOM     13  C12 UNL A   1      -2.471   1.077   2.076  1.00  0.00    +0.000 C 
ATOM    137  H33 UNL A   1      -4.094   1.488   3.439  1.00  0.00    +0.000 H 
ATOM    144  H40 UNL A   1       2.428   4.335   5.959  1.00  0.00    +0.000 H 
ATOM    145  H41 UNL A   1       3.231   3.057   5.744  1.00  0.00    +0.000 H 
ATOM    138  H34 UNL A   1      -4.316   2.119   1.787  1.00  0.00    +0.000 H 
ATOM     22  C21 UNL A   1      -3.640   1.981   2.605  1.00  0.00    +0.000 C 
ATOM     23  C22 UNL A   1      -3.199   3.379   3.054  1.00  0.00    +0.000 C 
ATOM     24  C23 UNL A   1      -1.667   3.579   3.103  1.00  0.00    +0.000 C 
ATOM     26  C25 UNL A   1       2.192   3.306   5.784  1.00  0.00    +0.000 C 
ATOM     27  C26 UNL A   1       1.019   2.695   6.484  1.00  0.00    +0.000 C 
ATOM    108  H4  UNL A   1       1.337   4.358   7.702  1.00  0.00    +0.000 H 
ATOM    109  H5  UNL A   1      -1.543   4.021   7.293  1.00  0.00    +0.000 H 
ATOM    111  H7  UNL A   1       0.305   5.547   5.475  1.00  0.00    +0.000 H 
ATOM    112  H8  UNL A   1      -1.433   5.677   5.441  1.00  0.00    +0.000 H 
ATOM    113  H9  UNL A   1      -1.500   3.176   5.176  1.00  0.00    +0.000 H 
ATOM    114  H10 UNL A   1       1.919   0.831   4.036  1.00  0.00    +0.000 H 
ATOM    115  H11 UNL A   1       2.573   2.293   3.172  1.00  0.00    +0.000 H 
ATOM    116  H12 UNL A   1       0.555   0.327   1.924  1.00  0.00    +0.000 H 
ATOM    117  H13 UNL A   1       1.194   1.883   1.199  1.00  0.00    +0.000 H 
ATOM    121  H17 UNL A   1      -2.515   0.566   1.137  1.00  0.00    +0.000 H 
BRANCH    3    2
ATOM      2  C2  UNL A   1       0.290   3.101   8.976  1.00  0.00    +0.000 C 
ATOM    107  H3  UNL A   1       1.142   2.791   9.469  1.00  0.00    +0.000 H 
BRANCH    2    1
ATOM      1  C1  UNL A   1      -0.868   2.928   9.633  1.00  0.00    +0.000 C 
ATOM    106  H2  UNL A   1      -1.757   3.216   9.197  1.00  0.00    +0.000 H 
ATOM    105  H1  UNL A   1      -0.869   2.505  10.575  1.00  0.00    +0.000 H 
ENDBRANCH    2    1
ENDBRANCH    3    2
BRANCH    4    5
ATOM      5  O1  UNL A   1      -0.705   5.824   7.914  1.00  0.00    +0.000 O 
ATOM    110  H6  UNL A   1       0.101   6.339   7.751  1.00  0.00    +0.000 H 
ENDBRANCH    4    5
BRANCH   11   12
ATOM     12  C11 UNL A   1      -1.282   2.119   0.220  1.00  0.00    +0.000 C 
ATOM    118  H14 UNL A   1      -0.915   1.187  -0.156  1.00  0.00    +0.000 H 
ATOM    119  H15 UNL A   1      -0.708   2.921  -0.192  1.00  0.00    +0.000 H 
ATOM    120  H16 UNL A   1      -2.309   2.235  -0.058  1.00  0.00    +0.000 H 
ENDBRANCH   11   12
BRANCH   13   14
ATOM    122  H18 UNL A   1      -2.344  -0.745   1.416  1.00  0.00    +0.000 H 
ATOM     14  C13 UNL A   1      -2.478  -0.524   2.454  1.00  0.00    +0.000 C 
BRANCH   14   15
ATOM    123  H19 UNL A   1      -3.662  -0.597   4.247  1.00  0.00    +0.000 H 
ATOM    124  H20 UNL A   1      -3.871  -1.981   3.201  1.00  0.00    +0.000 H 
ATOM    125  H21 UNL A   1      -4.601  -0.450   2.781  1.00  0.00    +0.000 H 
ATOM     15  C14 UNL A   1      -3.750  -0.918   3.230  1.00  0.00    +0.000 C 
ENDBRANCH   14   15
BRANCH   14   16
ATOM    126  H22 UNL A   1      -0.429  -1.187   2.315  1.00  0.00    +0.000 H 
ATOM    127  H23 UNL A   1      -1.695  -2.456   2.736  1.00  0.00    +0.000 H 
ATOM     16  C15 UNL A   1      -1.279  -1.483   2.893  1.00  0.00    +0.000 C 
BRANCH   16   17
ATOM     17  C16 UNL A   1      -0.796  -1.563   4.370  1.00  0.00    +0.000 C 
ATOM    129  H25 UNL A   1      -0.086  -0.767   4.456  1.00  0.00    +0.000 H 
ATOM    128  H24 UNL A   1      -1.666  -1.490   4.990  1.00  0.00    +0.000 H 
BRANCH   17   18
ATOM     18  C17 UNL A   1      -0.024  -2.802   4.822  1.00  0.00    +0.000 C 
ATOM    130  H26 UNL A   1      -0.408  -3.704   4.499  1.00  0.00    +0.000 H 
BRANCH   18   19
ATOM     19  C18 UNL A   1       1.095  -2.887   5.586  1.00  0.00    +0.000 C 
BRANCH   19   20
ATOM    133  H29 UNL A   1       2.585  -4.378   5.823  1.00  0.00    +0.000 H 
ATOM    131  H27 UNL A   1       0.948  -4.991   5.809  1.00  0.00    +0.000 H 
ATOM     20  C19 UNL A   1       1.582  -4.199   6.151  1.00  0.00    +0.000 C 
ATOM    132  H28 UNL A   1       1.558  -4.159   7.220  1.00  0.00    +0.000 H 
ENDBRANCH   19   20
BRANCH   19   21
ATOM     21  C20 UNL A   1       1.968  -1.758   6.050  1.00  0.00    +0.000 C 
ATOM    134  H30 UNL A   1       1.608  -0.838   5.641  1.00  0.00    +0.000 H 
ATOM    135  H31 UNL A   1       2.972  -1.926   5.722  1.00  0.00    +0.000 H 
ATOM    136  H32 UNL A   1       1.945  -1.706   7.119  1.00  0.00    +0.000 H 
ENDBRANCH   19   21
ENDBRANCH   18   19
ENDBRANCH   17   18
ENDBRANCH   16   17
ENDBRANCH   14   16
ENDBRANCH   13   14
BRANCH   24   25
ATOM     25  C24 UNL A   1      -1.623   5.159   3.020  1.00  0.00    +0.000 C 
ATOM    141  H37 UNL A   1      -0.606   5.489   3.042  1.00  0.00    +0.000 H 
ATOM    142  H38 UNL A   1      -2.151   5.575   3.853  1.00  0.00    +0.000 H 
ATOM    143  H39 UNL A   1      -2.083   5.481   2.109  1.00  0.00    +0.000 H 
ENDBRANCH   24   25
ENDBRANCH   28   27
ENDBRANCH   29   28
ENDBRANCH   30   29
ENDBRANCH   32   30
ENDBRANCH   33   32
ENDBRANCH   34   33
ENDBRANCH   35   34
ENDBRANCH   36   35
ENDBRANCH   37   36
ENDBRANCH   38   37
ENDBRANCH   39   38
ENDBRANCH   40   39
ENDBRANCH   42   40
ENDBRANCH   46   45
BRANCH   50   51
ATOM     51  C45 UNL A   1       7.110  15.016   1.982  1.00  0.00    +0.000 C 
ATOM     52  C46 UNL A   1       6.977  15.480   0.663  1.00  0.00    +0.000 C 
ATOM     53  F1  UNL A   1       5.797  15.947   0.227  1.00  0.00    +0.000 F 
ATOM     54  C47 UNL A   1       8.037  15.407  -0.236  1.00  0.00    +0.000 C 
ATOM     55  F2  UNL A   1       7.861  15.788  -1.509  1.00  0.00    +0.000 F 
ATOM     56  C48 UNL A   1       9.266  14.916   0.177  1.00  0.00    +0.000 C 
ATOM     57  F3  UNL A   1      10.287  14.848  -0.688  1.00  0.00    +0.000 F 
ATOM     58  C49 UNL A   1       9.432  14.485   1.485  1.00  0.00    +0.000 C 
ATOM     59  F4  UNL A   1      10.622  14.019   1.888  1.00  0.00    +0.000 F 
ATOM     60  C50 UNL A   1       8.362  14.520   2.376  1.00  0.00    +0.000 C 
ATOM     61  F5  UNL A   1       8.547  14.062   3.623  1.00  0.00    +0.000 F 
ENDBRANCH   50   51
BRANCH   67   68
ATOM     68  C56 UNL A   1       5.072  18.330   8.050  1.00  0.00    +0.000 C 
ATOM     69  C57 UNL A   1       5.595  18.042   9.318  1.00  0.00    +0.000 C 
ATOM     70  F6  UNL A   1       5.557  16.790   9.796  1.00  0.00    +0.000 F 
ATOM     71  C58 UNL A   1       6.136  19.050  10.109  1.00  0.00    +0.000 C 
ATOM     72  F7  UNL A   1       6.596  18.762  11.335  1.00  0.00    +0.000 F 
ATOM     73  C59 UNL A   1       6.196  20.352   9.634  1.00  0.00    +0.000 C 
ATOM     74  F8  UNL A   1       6.734  21.318  10.392  1.00  0.00    +0.000 F 
ATOM     75  C60 UNL A   1       5.697  20.655   8.377  1.00  0.00    +0.000 C 
ATOM     76  F9  UNL A   1       5.773  21.908   7.908  1.00  0.00    +0.000 F 
ATOM     77  C61 UNL A   1       5.125  19.657   7.596  1.00  0.00    +0.000 C 
ATOM     78  F10 UNL A   1       4.649  19.977   6.384  1.00  0.00    +0.000 F 
ENDBRANCH   67   68
BRANCH   82   83
ATOM     83  C65 UNL A   1      -0.745  14.477   8.249  1.00  0.00    +0.000 C 
ATOM     84  C66 UNL A   1      -1.623  15.558   8.416  1.00  0.00    +0.000 C 
ATOM     85  F11 UNL A   1      -1.423  16.694   7.733  1.00  0.00    +0.000 F 
ATOM     86  C67 UNL A   1      -2.686  15.492   9.315  1.00  0.00    +0.000 C 
ATOM     87  F12 UNL A   1      -3.480  16.557   9.489  1.00  0.00    +0.000 F 
ATOM     88  C68 UNL A   1      -2.913  14.333  10.041  1.00  0.00    +0.000 C 
ATOM     89  F13 UNL A   1      -3.936  14.269  10.904  1.00  0.00    +0.000 F 
ATOM     90  C69 UNL A   1      -2.072  13.242   9.876  1.00  0.00    +0.000 C 
ATOM     91  F14 UNL A   1      -2.297  12.115  10.564  1.00  0.00    +0.000 F 
ATOM     92  C70 UNL A   1      -0.992  13.317   8.998  1.00  0.00    +0.000 C 
ATOM     93  F15 UNL A   1      -0.189  12.251   8.868  1.00  0.00    +0.000 F 
ENDBRANCH   82   83
TORSDOF 30