ROOT
ATOM    129  H31 UNL A   1      16.837  -7.655  -5.046  1.00  0.00    +0.000 H 
ATOM    130  H32 UNL A   1      16.281   1.540  -1.042  1.00  0.00    +0.000 H 
ATOM    131  H33 UNL A   1      14.633   0.670   0.713  1.00  0.00    +0.000 H 
ATOM     30  C22 UNL A   1      13.812  -2.024   0.274  1.00  0.00    +0.000 C 
ATOM     31  C23 UNL A   1      14.867  -1.252  -0.469  1.00  0.00    +0.000 C 
ATOM     32  N3  UNL A   1      15.631  -1.634  -1.461  1.00  0.00    +0.000 N 
ATOM     33  C24 UNL A   1      16.390  -0.522  -1.803  1.00  0.00    +0.000 C 
ATOM     34  C25 UNL A   1      17.381  -0.426  -2.721  1.00  0.00    +0.000 C 
ATOM     46  C32 UNL A   1      17.828  -1.519  -3.544  1.00  0.00    +0.000 C 
ATOM     47  C33 UNL A   1      18.857  -1.538  -4.469  1.00  0.00    +0.000 C 
ATOM     48  C34 UNL A   1      18.883  -2.801  -5.068  1.00  0.00    +0.000 C 
ATOM     49  C35 UNL A   1      17.915  -3.591  -4.469  1.00  0.00    +0.000 C 
ATOM     50  N4  UNL A   1      17.269  -2.789  -3.541  1.00  0.00    +0.000 N 
ATOM     51  C36 UNL A   1      17.604  -4.976  -4.723  1.00  0.00    +0.000 C 
ATOM     63  C43 UNL A   1      16.634  -5.682  -4.092  1.00  0.00    +0.000 C 
ATOM     64  N5  UNL A   1      15.764  -5.270  -3.091  1.00  0.00    +0.000 N 
ATOM     65  C44 UNL A   1      15.013  -6.309  -2.816  1.00  0.00    +0.000 C 
ATOM     66  C45 UNL A   1      13.924  -6.451  -1.785  1.00  0.00    +0.000 C 
ATOM     78  C52 UNL A   1      13.635  -5.403  -0.989  1.00  0.00    +0.000 C 
ATOM     79  C53 UNL A   1      12.611  -5.386   0.051  1.00  0.00    +0.000 C 
ATOM     80  C54 UNL A   1      12.559  -4.160   0.594  1.00  0.00    +0.000 C 
ATOM     81  C55 UNL A   1      13.579  -3.315  -0.029  1.00  0.00    +0.000 C 
ATOM     82  N6  UNL A   1      14.176  -4.141  -0.949  1.00  0.00    +0.000 N 
ATOM     83  C56 UNL A   1      15.299  -7.490  -3.643  1.00  0.00    +0.000 C 
ATOM     84  C57 UNL A   1      16.324  -7.069  -4.369  1.00  0.00    +0.000 C 
ATOM     85  C58 UNL A   1      15.950   0.566  -0.959  1.00  0.00    +0.000 C 
ATOM     86  C59 UNL A   1      15.067   0.149  -0.065  1.00  0.00    +0.000 C 
ATOM    122  H24 UNL A   1      19.495  -0.755  -4.680  1.00  0.00    +0.000 H 
ATOM    123  H25 UNL A   1      19.516  -3.095  -5.828  1.00  0.00    +0.000 H 
ATOM    124  H26 UNL A   1      16.524  -3.078  -2.966  1.00  0.00    +0.000 H 
ATOM    125  H27 UNL A   1      12.022  -6.188   0.325  1.00  0.00    +0.000 H 
ATOM    126  H28 UNL A   1      11.904  -3.860   1.333  1.00  0.00    +0.000 H 
ATOM    127  H29 UNL A   1      14.922  -3.856  -1.525  1.00  0.00    +0.000 H 
ATOM    128  H30 UNL A   1      14.825  -8.406  -3.655  1.00  0.00    +0.000 H 
ENDROOT
BRANCH   30   29
ATOM    132  H34 UNL A   1      12.105   0.003  -0.082  1.00  0.00    +0.000 H 
ATOM    133  H35 UNL A   1      10.843   1.230   1.584  1.00  0.00    +0.000 H 
ATOM    120  H22 UNL A   1      12.192  -1.414   4.566  1.00  0.00    +0.000 H 
ATOM     87  C60 UNL A   1      12.148  -0.280   0.909  1.00  0.00    +0.000 C 
ATOM     88  C61 UNL A   1      11.384   0.395   1.856  1.00  0.00    +0.000 C 
ATOM    121  H23 UNL A   1      13.659  -2.477   2.948  1.00  0.00    +0.000 H 
ATOM     26  C18 UNL A   1      11.352  -0.062   3.176  1.00  0.00    +0.000 C 
ATOM     27  C19 UNL A   1      12.187  -1.105   3.581  1.00  0.00    +0.000 C 
ATOM     28  C20 UNL A   1      13.016  -1.729   2.646  1.00  0.00    +0.000 C 
ATOM     29  C21 UNL A   1      12.978  -1.343   1.296  1.00  0.00    +0.000 C 
BRANCH   26   24
ATOM     25  O6  UNL A   1      10.830   0.786   5.300  1.00  0.00    +0.000 O 
ATOM     24  C17 UNL A   1      10.437   0.547   4.163  1.00  0.00    +0.000 C 
BRANCH   24   23
ATOM    119  H21 UNL A   1       8.648   1.415   4.423  1.00  0.00    +0.000 H 
ATOM     23  N2  UNL A   1       9.143   0.831   3.803  1.00  0.00    +0.000 N 
BRANCH   23   22
ATOM    118  H20 UNL A   1       9.020  -0.302   2.097  1.00  0.00    +0.000 H 
ATOM    117  H19 UNL A   1       8.163   1.243   2.035  1.00  0.00    +0.000 H 
ATOM     22  C16 UNL A   1       8.403   0.389   2.633  1.00  0.00    +0.000 C 
BRANCH   22   21
ATOM    115  H17 UNL A   1       6.641  -0.657   2.101  1.00  0.00    +0.000 H 
ATOM    116  H18 UNL A   1       7.389  -1.135   3.651  1.00  0.00    +0.000 H 
ATOM     21  C15 UNL A   1       7.112  -0.329   3.005  1.00  0.00    +0.000 C 
BRANCH   21   20
ATOM    113  H15 UNL A   1       5.226  -0.064   3.939  1.00  0.00    +0.000 H 
ATOM    114  H16 UNL A   1       6.600   0.808   4.689  1.00  0.00    +0.000 H 
ATOM     20  C14 UNL A   1       6.107   0.524   3.783  1.00  0.00    +0.000 C 
BRANCH   20   19
ATOM     19  C13 UNL A   1       5.689   1.831   3.102  1.00  0.00    +0.000 C 
ATOM    111  H13 UNL A   1       4.919   2.281   3.692  1.00  0.00    +0.000 H 
ATOM    112  H14 UNL A   1       6.575   2.427   3.031  1.00  0.00    +0.000 H 
BRANCH   19   18
ATOM     18  C12 UNL A   1       5.164   1.679   1.674  1.00  0.00    +0.000 C 
ATOM    109  H11 UNL A   1       4.825   2.637   1.339  1.00  0.00    +0.000 H 
ATOM    110  H12 UNL A   1       5.974   1.296   1.090  1.00  0.00    +0.000 H 
BRANCH   18   17
ATOM     17  C11 UNL A   1       4.017   0.691   1.527  1.00  0.00    +0.000 C 
ATOM    107  H9  UNL A   1       3.825   0.545   0.484  1.00  0.00    +0.000 H 
ATOM    108  H10 UNL A   1       4.315  -0.216   2.011  1.00  0.00    +0.000 H 
BRANCH   17   16
ATOM    106  H8  UNL A   1       2.909   1.503   3.068  1.00  0.00    +0.000 H 
ATOM     16  N1  UNL A   1       2.796   1.136   2.161  1.00  0.00    +0.000 N 
BRANCH   16   14
ATOM     14  C10 UNL A   1       1.509   1.126   1.699  1.00  0.00    +0.000 C 
ATOM     15  O5  UNL A   1       0.624   1.333   2.530  1.00  0.00    +0.000 O 
BRANCH   14   13
ATOM      1  O1  UNL A   1      -1.853  -0.826  -0.132  1.00  0.00    +0.000 O 
ATOM      2  C1  UNL A   1      -0.700  -0.429  -0.138  1.00  0.00    +0.000 C 
ATOM      3  O2  UNL A   1       0.398  -1.217  -0.241  1.00  0.00    +0.000 O 
ATOM      4  C2  UNL A   1       1.592  -0.420  -0.328  1.00  0.00    +0.000 C 
ATOM     99  H1  UNL A   1       2.388  -0.814   0.270  1.00  0.00    +0.000 H 
ATOM    105  H7  UNL A   1       1.777   1.757  -0.255  1.00  0.00    +0.000 H 
ATOM     13  C9  UNL A   1       1.223   0.963   0.200  1.00  0.00    +0.000 C 
ATOM     89  C62 UNL A   1      -0.247   0.970  -0.059  1.00  0.00    +0.000 C 
BRANCH    4    5
ATOM    100  H2  UNL A   1       3.524   1.174  -1.454  1.00  0.00    +0.000 H 
ATOM      5  C3  UNL A   1       2.183  -0.439  -1.742  1.00  0.00    +0.000 C 
ATOM      6  C4  UNL A   1       3.221   0.445  -2.118  1.00  0.00    +0.000 C 
ATOM      7  C5  UNL A   1       3.850   0.360  -3.365  1.00  0.00    +0.000 C 
ATOM    104  H6  UNL A   1       1.024  -2.066  -2.442  1.00  0.00    +0.000 H 
ATOM    101  H3  UNL A   1       4.617   1.005  -3.610  1.00  0.00    +0.000 H 
ATOM     10  C7  UNL A   1       2.392  -1.466  -3.926  1.00  0.00    +0.000 C 
ATOM      8  C6  UNL A   1       3.428  -0.603  -4.266  1.00  0.00    +0.000 C 
ATOM     12  C8  UNL A   1       1.779  -1.403  -2.679  1.00  0.00    +0.000 C 
BRANCH    8    9
ATOM      9  O3  UNL A   1       4.004  -0.743  -5.496  1.00  0.00    +0.000 O 
ATOM    102  H4  UNL A   1       4.704  -0.176  -5.753  1.00  0.00    +0.000 H 
ENDBRANCH    8    9
BRANCH   10   11
ATOM     11  O4  UNL A   1       1.972  -2.405  -4.825  1.00  0.00    +0.000 O 
ATOM    103  H5  UNL A   1       2.377  -2.459  -5.669  1.00  0.00    +0.000 H 
ENDBRANCH   10   11
ENDBRANCH    4    5
BRANCH   89   90
ATOM     90  C63 UNL A   1      -1.120   1.973  -0.232  1.00  0.00    +0.000 C 
ATOM    134  H36 UNL A   1      -2.107   1.728  -0.411  1.00  0.00    +0.000 H 
BRANCH   90   91
ATOM     98  C69 UNL A   1      -1.327   4.202   0.809  1.00  0.00    +0.000 C 
ATOM    135  H37 UNL A   1       0.492   3.360  -1.883  1.00  0.00    +0.000 H 
ATOM    136  H38 UNL A   1       1.063   5.723  -1.784  1.00  0.00    +0.000 H 
ATOM    139  H41 UNL A   1      -1.972   3.800   1.508  1.00  0.00    +0.000 H 
ATOM     91  C64 UNL A   1      -0.766   3.391  -0.183  1.00  0.00    +0.000 C 
ATOM     92  C65 UNL A   1       0.095   3.954  -1.138  1.00  0.00    +0.000 C 
ATOM     93  C66 UNL A   1       0.419   5.313  -1.089  1.00  0.00    +0.000 C 
ATOM     94  C67 UNL A   1      -0.136   6.104  -0.091  1.00  0.00    +0.000 C 
ATOM     96  C68 UNL A   1      -1.006   5.551   0.845  1.00  0.00    +0.000 C 
BRANCH   94   95
ATOM    137  H39 UNL A   1       0.721   7.845  -0.604  1.00  0.00    +0.000 H 
ATOM     95  O7  UNL A   1       0.140   7.440   0.009  1.00  0.00    +0.000 O 
ENDBRANCH   94   95
BRANCH   96   97
ATOM     97  O8  UNL A   1      -1.559   6.342   1.811  1.00  0.00    +0.000 O 
ATOM    138  H40 UNL A   1      -1.350   7.255   1.846  1.00  0.00    +0.000 H 
ENDBRANCH   96   97
ENDBRANCH   90   91
ENDBRANCH   89   90
ENDBRANCH   14   13
ENDBRANCH   16   14
ENDBRANCH   17   16
ENDBRANCH   18   17
ENDBRANCH   19   18
ENDBRANCH   20   19
ENDBRANCH   21   20
ENDBRANCH   22   21
ENDBRANCH   23   22
ENDBRANCH   24   23
ENDBRANCH   26   24
ENDBRANCH   30   29
BRANCH   34   35
ATOM     35  C26 UNL A   1      18.048   0.910  -2.887  1.00  0.00    +0.000 C 
ATOM     36  C27 UNL A   1      18.858   1.461  -1.881  1.00  0.00    +0.000 C 
ATOM     37  F1  UNL A   1      19.021   0.817  -0.716  1.00  0.00    +0.000 F 
ATOM     38  C28 UNL A   1      19.470   2.701  -2.050  1.00  0.00    +0.000 C 
ATOM     39  F2  UNL A   1      20.190   3.232  -1.053  1.00  0.00    +0.000 F 
ATOM     40  C29 UNL A   1      19.320   3.394  -3.242  1.00  0.00    +0.000 C 
ATOM     41  F3  UNL A   1      19.916   4.583  -3.406  1.00  0.00    +0.000 F 
ATOM     42  C30 UNL A   1      18.547   2.857  -4.260  1.00  0.00    +0.000 C 
ATOM     43  F4  UNL A   1      18.413   3.518  -5.418  1.00  0.00    +0.000 F 
ATOM     44  C31 UNL A   1      17.904   1.635  -4.080  1.00  0.00    +0.000 C 
ATOM     45  F5  UNL A   1      17.146   1.154  -5.077  1.00  0.00    +0.000 F 
ENDBRANCH   34   35
BRANCH   51   52
ATOM     52  C37 UNL A   1      18.440  -5.701  -5.739  1.00  0.00    +0.000 C 
ATOM     53  C38 UNL A   1      17.920  -6.101  -6.978  1.00  0.00    +0.000 C 
ATOM     54  F6  UNL A   1      16.626  -5.894  -7.266  1.00  0.00    +0.000 F 
ATOM     55  C39 UNL A   1      18.720  -6.754  -7.913  1.00  0.00    +0.000 C 
ATOM     56  F7  UNL A   1      18.189  -7.173  -9.070  1.00  0.00    +0.000 F 
ATOM     57  C40 UNL A   1      20.061  -6.982  -7.644  1.00  0.00    +0.000 C 
ATOM     58  F8  UNL A   1      20.832  -7.599  -8.550  1.00  0.00    +0.000 F 
ATOM     59  C41 UNL A   1      20.602  -6.577  -6.434  1.00  0.00    +0.000 C 
ATOM     60  F9  UNL A   1      21.902  -6.779  -6.179  1.00  0.00    +0.000 F 
ATOM     61  C42 UNL A   1      19.797  -5.956  -5.483  1.00  0.00    +0.000 C 
ATOM     62  F10 UNL A   1      20.347  -5.586  -4.317  1.00  0.00    +0.000 F 
ENDBRANCH   51   52
BRANCH   66   67
ATOM     67  C46 UNL A   1      13.188  -7.733  -1.626  1.00  0.00    +0.000 C 
ATOM     68  C47 UNL A   1      13.838  -8.882  -1.151  1.00  0.00    +0.000 C 
ATOM     69  F11 UNL A   1      15.141  -8.833  -0.840  1.00  0.00    +0.000 F 
ATOM     70  C48 UNL A   1      13.164 -10.097  -1.039  1.00  0.00    +0.000 C 
ATOM     71  F12 UNL A   1      13.824 -11.190  -0.635  1.00  0.00    +0.000 F 
ATOM     72  C49 UNL A   1      11.819 -10.179  -1.364  1.00  0.00    +0.000 C 
ATOM     73  F13 UNL A   1      11.171 -11.347  -1.255  1.00  0.00    +0.000 F 
ATOM     74  C50 UNL A   1      11.149  -9.051  -1.812  1.00  0.00    +0.000 C 
ATOM     75  F14 UNL A   1       9.845  -9.121  -2.112  1.00  0.00    +0.000 F 
ATOM     76  C51 UNL A   1      11.830  -7.843  -1.956  1.00  0.00    +0.000 C 
ATOM     77  F15 UNL A   1      11.159  -6.774  -2.408  1.00  0.00    +0.000 F 
ENDBRANCH   66   67
TORSDOF 22