ROOT
ATOM    153  H43 UNL A   1      10.996   7.840 -10.834  1.00  0.00    +0.000 H 
ATOM    154  H44 UNL A   1      10.211  10.220  -9.951  1.00  0.00    +0.000 H 
ATOM    155  H45 UNL A   1       6.935   7.920 -10.680  1.00  0.00    +0.000 H 
ATOM    156  H46 UNL A   1       5.838   9.433  -3.026  1.00  0.00    +0.000 H 
ATOM    157  H47 UNL A   1       8.203   8.495  -3.107  1.00  0.00    +0.000 H 
ATOM    158  H48 UNL A   1       6.658   8.213  -6.952  1.00  0.00    +0.000 H 
ATOM    159  H49 UNL A   1       3.599   7.789  -7.866  1.00  0.00    +0.000 H 
ATOM    160  H50 UNL A   1       5.352   8.031  -9.742  1.00  0.00    +0.000 H 
ATOM    161  H51 UNL A   1       8.960   3.517  -8.388  1.00  0.00    +0.000 H 
ATOM    162  H52 UNL A   1       8.285   4.236  -5.998  1.00  0.00    +0.000 H 
ATOM     42  C29 UNL A   1       8.777   7.047  -5.553  1.00  0.00    +0.000 C 
ATOM     43  C30 UNL A   1       8.804   6.287  -6.826  1.00  0.00    +0.000 C 
ATOM     44  N8  UNL A   1       9.198   6.722  -7.976  1.00  0.00    +0.000 N 
ATOM     45  C31 UNL A   1       9.010   5.664  -8.858  1.00  0.00    +0.000 C 
ATOM     46  C32 UNL A   1       8.663   5.918 -10.150  1.00  0.00    +0.000 C 
ATOM     58  C39 UNL A   1       8.928   7.301 -10.475  1.00  0.00    +0.000 C 
ATOM     59  C40 UNL A   1      10.046   8.108 -10.532  1.00  0.00    +0.000 C 
ATOM     60  C41 UNL A   1       9.610   9.392 -10.084  1.00  0.00    +0.000 C 
ATOM     61  C42 UNL A   1       8.234   9.339  -9.856  1.00  0.00    +0.000 C 
ATOM     62  N9  UNL A   1       7.850   8.143 -10.394  1.00  0.00    +0.000 N 
ATOM     63  C43 UNL A   1       7.326  10.202  -9.134  1.00  0.00    +0.000 C 
ATOM     75  C50 UNL A   1       6.066   9.859  -8.729  1.00  0.00    +0.000 C 
ATOM     76  N10 UNL A   1       5.481  10.513  -7.656  1.00  0.00    +0.000 N 
ATOM     77  C51 UNL A   1       4.700   9.617  -7.118  1.00  0.00    +0.000 C 
ATOM     78  C52 UNL A   1       4.546   9.445  -5.655  1.00  0.00    +0.000 C 
ATOM     90  C59 UNL A   1       5.745   8.999  -5.194  1.00  0.00    +0.000 C 
ATOM     91  C60 UNL A   1       6.303   9.045  -3.862  1.00  0.00    +0.000 C 
ATOM     92  C61 UNL A   1       7.535   8.497  -3.894  1.00  0.00    +0.000 C 
ATOM     93  C62 UNL A   1       7.787   7.904  -5.212  1.00  0.00    +0.000 C 
ATOM     94  N11 UNL A   1       6.725   8.342  -5.978  1.00  0.00    +0.000 N 
ATOM     95  C63 UNL A   1       4.338   8.502  -7.973  1.00  0.00    +0.000 C 
ATOM     96  C64 UNL A   1       5.244   8.669  -8.939  1.00  0.00    +0.000 C 
ATOM     97  C65 UNL A   1       8.862   4.487  -8.047  1.00  0.00    +0.000 C 
ATOM     98  C66 UNL A   1       8.581   4.831  -6.788  1.00  0.00    +0.000 C 
ENDROOT
BRANCH   42   41
ATOM     99  C67 UNL A   1       9.390   6.052  -3.425  1.00  0.00    +0.000 C 
ATOM    164  H54 UNL A   1      10.056   5.366  -1.571  1.00  0.00    +0.000 H 
ATOM    100  C68 UNL A   1      10.331   5.602  -2.537  1.00  0.00    +0.000 C 
ATOM     38  C25 UNL A   1      11.659   5.462  -2.935  1.00  0.00    +0.000 C 
ATOM     39  C26 UNL A   1      12.095   5.981  -4.157  1.00  0.00    +0.000 C 
ATOM     40  C27 UNL A   1      11.166   6.592  -4.995  1.00  0.00    +0.000 C 
ATOM    163  H53 UNL A   1       8.385   5.977  -3.205  1.00  0.00    +0.000 H 
ATOM     41  C28 UNL A   1       9.810   6.609  -4.624  1.00  0.00    +0.000 C 
ATOM    151  H41 UNL A   1      13.087   5.913  -4.434  1.00  0.00    +0.000 H 
ATOM    152  H42 UNL A   1      11.469   7.028  -5.879  1.00  0.00    +0.000 H 
BRANCH   38   36
ATOM     36  C24 UNL A   1      12.588   4.757  -2.034  1.00  0.00    +0.000 C 
ATOM     37  O5  UNL A   1      13.763   5.098  -1.967  1.00  0.00    +0.000 O 
BRANCH   36   35
ATOM     35  N7  UNL A   1      12.114   3.717  -1.262  1.00  0.00    +0.000 N 
ATOM    150  H40 UNL A   1      12.597   3.545  -0.422  1.00  0.00    +0.000 H 
BRANCH   35   34
ATOM     34  C23 UNL A   1      10.978   2.839  -1.544  1.00  0.00    +0.000 C 
ATOM    148  H38 UNL A   1      10.080   3.421  -1.537  1.00  0.00    +0.000 H 
ATOM    149  H39 UNL A   1      11.136   2.388  -2.501  1.00  0.00    +0.000 H 
BRANCH   34   33
ATOM     33  C22 UNL A   1      10.852   1.728  -0.513  1.00  0.00    +0.000 C 
ATOM    146  H36 UNL A   1      10.006   1.125  -0.768  1.00  0.00    +0.000 H 
ATOM    147  H37 UNL A   1      11.768   1.175  -0.534  1.00  0.00    +0.000 H 
BRANCH   33   32
ATOM    145  H35 UNL A   1      11.471   2.929   1.087  1.00  0.00    +0.000 H 
ATOM    144  H34 UNL A   1      10.676   1.392   1.576  1.00  0.00    +0.000 H 
ATOM     32  C21 UNL A   1      10.668   2.240   0.923  1.00  0.00    +0.000 C 
BRANCH   32   31
ATOM    143  H33 UNL A   1       9.410   3.883   0.551  1.00  0.00    +0.000 H 
ATOM    142  H32 UNL A   1       9.368   3.291   2.237  1.00  0.00    +0.000 H 
ATOM     31  C20 UNL A   1       9.383   3.032   1.199  1.00  0.00    +0.000 C 
BRANCH   31   30
ATOM    140  H30 UNL A   1       7.267   2.949   1.051  1.00  0.00    +0.000 H 
ATOM    141  H31 UNL A   1       8.156   1.977  -0.146  1.00  0.00    +0.000 H 
ATOM     30  C19 UNL A   1       8.090   2.287   0.876  1.00  0.00    +0.000 C 
BRANCH   30   29
ATOM    138  H28 UNL A   1       7.313   0.315   1.141  1.00  0.00    +0.000 H 
ATOM    139  H29 UNL A   1       8.835   0.619   1.969  1.00  0.00    +0.000 H 
ATOM     29  C18 UNL A   1       7.877   1.021   1.713  1.00  0.00    +0.000 C 
BRANCH   29   28
ATOM    137  H27 UNL A   1       7.642   1.905   3.564  1.00  0.00    +0.000 H 
ATOM     28  N6  UNL A   1       7.162   1.317   2.936  1.00  0.00    +0.000 N 
BRANCH   28   26
ATOM     26  C17 UNL A   1       5.933   0.913   3.357  1.00  0.00    +0.000 C 
ATOM     27  O4  UNL A   1       5.537   1.303   4.456  1.00  0.00    +0.000 O 
BRANCH   26   25
ATOM     25  C16 UNL A   1       5.079  -0.005   2.510  1.00  0.00    +0.000 C 
ATOM    135  H25 UNL A   1       5.726  -0.698   2.014  1.00  0.00    +0.000 H 
ATOM    136  H26 UNL A   1       4.388  -0.472   3.180  1.00  0.00    +0.000 H 
BRANCH   25   24
ATOM    133  H23 UNL A   1       3.400   0.057   1.230  1.00  0.00    +0.000 H 
ATOM    134  H24 UNL A   1       3.984   1.642   1.878  1.00  0.00    +0.000 H 
ATOM     24  C15 UNL A   1       4.232   0.694   1.447  1.00  0.00    +0.000 C 
BRANCH   24   23
ATOM    131  H21 UNL A   1       4.165   1.449  -0.533  1.00  0.00    +0.000 H 
ATOM    132  H22 UNL A   1       5.694   1.721   0.348  1.00  0.00    +0.000 H 
ATOM     23  C14 UNL A   1       4.905   1.036   0.120  1.00  0.00    +0.000 C 
BRANCH   23   22
ATOM    129  H19 UNL A   1       6.516   0.148  -0.953  1.00  0.00    +0.000 H 
ATOM    130  H20 UNL A   1       5.627  -0.949   0.126  1.00  0.00    +0.000 H 
ATOM     22  C13 UNL A   1       5.556  -0.157  -0.589  1.00  0.00    +0.000 C 
BRANCH   22   21
ATOM     21  C12 UNL A   1       4.745  -0.682  -1.758  1.00  0.00    +0.000 C 
ATOM    127  H17 UNL A   1       5.200  -1.585  -2.108  1.00  0.00    +0.000 H 
ATOM    128  H18 UNL A   1       3.748  -0.841  -1.402  1.00  0.00    +0.000 H 
BRANCH   21   20
ATOM     20  C11 UNL A   1       4.653   0.296  -2.925  1.00  0.00    +0.000 C 
ATOM    125  H15 UNL A   1       4.130  -0.195  -3.719  1.00  0.00    +0.000 H 
ATOM    126  H16 UNL A   1       4.157   1.159  -2.532  1.00  0.00    +0.000 H 
BRANCH   20   19
ATOM     19  C10 UNL A   1       5.981   0.813  -3.491  1.00  0.00    +0.000 C 
ATOM    124  H14 UNL A   1       6.466   1.310  -2.677  1.00  0.00    +0.000 H 
ATOM    123  H13 UNL A   1       5.756   1.449  -4.322  1.00  0.00    +0.000 H 
BRANCH   19   18
ATOM    121  H11 UNL A   1       7.747   0.242  -4.517  1.00  0.00    +0.000 H 
ATOM     18  C9  UNL A   1       6.971  -0.254  -3.972  1.00  0.00    +0.000 C 
ATOM    122  H12 UNL A   1       7.307  -0.754  -3.087  1.00  0.00    +0.000 H 
BRANCH   18   17
ATOM     17  C8  UNL A   1       6.397  -1.349  -4.868  1.00  0.00    +0.000 C 
ATOM    119  H9  UNL A   1       7.218  -1.878  -5.305  1.00  0.00    +0.000 H 
ATOM    120  H10 UNL A   1       5.779  -1.948  -4.233  1.00  0.00    +0.000 H 
BRANCH   17   16
ATOM    117  H7  UNL A   1       4.941  -1.726  -6.343  1.00  0.00    +0.000 H 
ATOM    118  H8  UNL A   1       4.895  -0.100  -5.572  1.00  0.00    +0.000 H 
ATOM     16  C7  UNL A   1       5.494  -0.879  -5.995  1.00  0.00    +0.000 C 
BRANCH   16   15
ATOM    116  H6  UNL A   1       7.009   0.150  -6.956  1.00  0.00    +0.000 H 
ATOM     15  N5  UNL A   1       6.144  -0.284  -7.135  1.00  0.00    +0.000 N 
BRANCH   15   13
ATOM     13  C6  UNL A   1       5.719  -0.243  -8.422  1.00  0.00    +0.000 C 
ATOM     14  O3  UNL A   1       6.492   0.224  -9.265  1.00  0.00    +0.000 O 
BRANCH   13   12
ATOM    115  H5  UNL A   1       4.554  -1.054  -9.793  1.00  0.00    +0.000 H 
ATOM     12  N4  UNL A   1       4.563  -0.817  -8.838  1.00  0.00    +0.000 N 
BRANCH   12   11
ATOM    101  C69 UNL A   1       2.473  -2.114  -8.602  1.00  0.00    +0.000 C 
ATOM    102  C70 UNL A   1       1.554  -2.239  -7.577  1.00  0.00    +0.000 C 
ATOM    165  H55 UNL A   1       2.484  -2.629  -9.497  1.00  0.00    +0.000 H 
ATOM      9  N2  UNL A   1       2.025  -1.397  -6.578  1.00  0.00    +0.000 N 
ATOM     10  N3  UNL A   1       2.955  -0.543  -7.055  1.00  0.00    +0.000 N 
ATOM     11  C5  UNL A   1       3.398  -1.132  -8.169  1.00  0.00    +0.000 C 
BRANCH    9    8
ATOM      5  C1  UNL A   1       0.872  -1.458  -2.533  1.00  0.00    +0.000 C 
ATOM      6  C2  UNL A   1       1.085  -2.662  -3.208  1.00  0.00    +0.000 C 
ATOM      7  C3  UNL A   1       1.484  -2.639  -4.542  1.00  0.00    +0.000 C 
ATOM      8  C4  UNL A   1       1.689  -1.413  -5.196  1.00  0.00    +0.000 C 
ATOM    171  H61 UNL A   1       1.754   0.689  -4.959  1.00  0.00    +0.000 H 
ATOM    172  H62 UNL A   1       0.974   0.651  -2.650  1.00  0.00    +0.000 H 
ATOM    109  C77 UNL A   1       1.544  -0.209  -4.497  1.00  0.00    +0.000 C 
ATOM    110  C78 UNL A   1       1.113  -0.232  -3.164  1.00  0.00    +0.000 C 
ATOM    113  H3  UNL A   1       0.948  -3.562  -2.722  1.00  0.00    +0.000 H 
ATOM    114  H4  UNL A   1       1.629  -3.525  -5.052  1.00  0.00    +0.000 H 
BRANCH    5    2
ATOM      2  S1  UNL A   1       0.347  -1.545  -0.849  1.00  0.00    +0.000 S 
ATOM      3  O1  UNL A   1       1.120  -2.557  -0.178  1.00  0.00    +0.000 O 
ATOM      4  O2  UNL A   1      -1.100  -1.511  -0.822  1.00  0.00    +0.000 O 
BRANCH    2    1
ATOM      1  N1  UNL A   1       0.856  -0.095  -0.176  1.00  0.00    +0.000 N 
ATOM    111  H1  UNL A   1       0.589  -0.064   0.808  1.00  0.00    +0.000 H 
ATOM    112  H2  UNL A   1       0.419   0.682  -0.672  1.00  0.00    +0.000 H 
ENDBRANCH    2    1
ENDBRANCH    5    2
ENDBRANCH    9    8
BRANCH  102  103
ATOM    166  H56 UNL A   1      -0.830  -1.381  -6.776  1.00  0.00    +0.000 H 
ATOM    103  C71 UNL A   1       0.325  -3.021  -7.448  1.00  0.00    +0.000 C 
ATOM    104  C72 UNL A   1      -0.832  -2.399  -6.946  1.00  0.00    +0.000 C 
ATOM    105  C73 UNL A   1      -1.980  -3.138  -6.677  1.00  0.00    +0.000 C 
ATOM    170  H60 UNL A   1       1.125  -4.853  -8.128  1.00  0.00    +0.000 H 
ATOM    107  C75 UNL A   1      -0.865  -5.126  -7.472  1.00  0.00    +0.000 C 
ATOM    108  C76 UNL A   1       0.294  -4.388  -7.730  1.00  0.00    +0.000 C 
ATOM    167  H57 UNL A   1      -2.816  -2.675  -6.286  1.00  0.00    +0.000 H 
ATOM    169  H59 UNL A   1      -0.886  -6.137  -7.679  1.00  0.00    +0.000 H 
ATOM    106  C74 UNL A   1      -1.995  -4.504  -6.937  1.00  0.00    +0.000 C 
ATOM    168  H58 UNL A   1      -2.841  -5.058  -6.734  1.00  0.00    +0.000 H 
ENDBRANCH  102  103
ENDBRANCH   12   11
ENDBRANCH   13   12
ENDBRANCH   15   13
ENDBRANCH   16   15
ENDBRANCH   17   16
ENDBRANCH   18   17
ENDBRANCH   19   18
ENDBRANCH   20   19
ENDBRANCH   21   20
ENDBRANCH   22   21
ENDBRANCH   23   22
ENDBRANCH   24   23
ENDBRANCH   25   24
ENDBRANCH   26   25
ENDBRANCH   28   26
ENDBRANCH   29   28
ENDBRANCH   30   29
ENDBRANCH   31   30
ENDBRANCH   32   31
ENDBRANCH   33   32
ENDBRANCH   34   33
ENDBRANCH   35   34
ENDBRANCH   36   35
ENDBRANCH   38   36
ENDBRANCH   42   41
BRANCH   46   47
ATOM     47  C33 UNL A   1       7.653   5.100 -10.936  1.00  0.00    +0.000 C 
ATOM     48  C34 UNL A   1       7.395   5.462 -12.275  1.00  0.00    +0.000 C 
ATOM     49  F1  UNL A   1       8.202   6.319 -12.919  1.00  0.00    +0.000 F 
ATOM     50  C35 UNL A   1       6.244   5.043 -12.949  1.00  0.00    +0.000 C 
ATOM     51  F2  UNL A   1       5.972   5.532 -14.167  1.00  0.00    +0.000 F 
ATOM     52  C36 UNL A   1       5.341   4.195 -12.337  1.00  0.00    +0.000 C 
ATOM     53  F3  UNL A   1       4.204   3.849 -12.955  1.00  0.00    +0.000 F 
ATOM     54  C37 UNL A   1       5.592   3.756 -11.056  1.00  0.00    +0.000 C 
ATOM     55  F4  UNL A   1       4.706   2.966 -10.433  1.00  0.00    +0.000 F 
ATOM     56  C38 UNL A   1       6.711   4.215 -10.361  1.00  0.00    +0.000 C 
ATOM     57  F5  UNL A   1       6.751   3.856  -9.075  1.00  0.00    +0.000 F 
ENDBRANCH   46   47
BRANCH   63   64
ATOM     65  C45 UNL A   1       8.150  11.816  -7.295  1.00  0.00    +0.000 C 
ATOM     66  F6  UNL A   1       7.892  10.929  -6.325  1.00  0.00    +0.000 F 
ATOM     67  C46 UNL A   1       8.740  13.028  -6.932  1.00  0.00    +0.000 C 
ATOM     68  F7  UNL A   1       8.972  13.303  -5.639  1.00  0.00    +0.000 F 
ATOM     69  C47 UNL A   1       9.117  13.938  -7.906  1.00  0.00    +0.000 C 
ATOM     70  F8  UNL A   1       9.720  15.084  -7.562  1.00  0.00    +0.000 F 
ATOM     71  C48 UNL A   1       8.890  13.648  -9.241  1.00  0.00    +0.000 C 
ATOM     72  F9  UNL A   1       9.294  14.501 -10.192  1.00  0.00    +0.000 F 
ATOM     73  C49 UNL A   1       8.265  12.458  -9.603  1.00  0.00    +0.000 C 
ATOM     74  F10 UNL A   1       8.074  12.204 -10.907  1.00  0.00    +0.000 F 
ATOM     64  C44 UNL A   1       7.881  11.513  -8.642  1.00  0.00    +0.000 C 
ENDBRANCH   63   64
BRANCH   78   79
ATOM     79  C53 UNL A   1       3.215   9.461  -5.001  1.00  0.00    +0.000 C 
ATOM     80  C54 UNL A   1       2.143  10.190  -5.549  1.00  0.00    +0.000 C 
ATOM     81  F11 UNL A   1       2.363  11.083  -6.526  1.00  0.00    +0.000 F 
ATOM     82  C55 UNL A   1       0.818   9.958  -5.161  1.00  0.00    +0.000 C 
ATOM     83  F12 UNL A   1      -0.182  10.624  -5.757  1.00  0.00    +0.000 F 
ATOM     84  C56 UNL A   1       0.527   8.994  -4.211  1.00  0.00    +0.000 C 
ATOM     85  F13 UNL A   1      -0.745   8.720  -3.890  1.00  0.00    +0.000 F 
ATOM     86  C57 UNL A   1       1.560   8.284  -3.627  1.00  0.00    +0.000 C 
ATOM     87  F14 UNL A   1       1.288   7.320  -2.736  1.00  0.00    +0.000 F 
ATOM     88  C58 UNL A   1       2.883   8.514  -4.015  1.00  0.00    +0.000 C 
ATOM     89  F15 UNL A   1       3.825   7.723  -3.481  1.00  0.00    +0.000 F 
ENDBRANCH   78   79
TORSDOF 32