ROOT
ATOM     33  C26 UNL A   1       2.414  -1.424  12.661  1.00  0.00    +0.000 C 
ATOM     34  C27 UNL A   1       2.092  -2.677  13.425  1.00  0.00    +0.000 C 
ATOM     35  N4  UNL A   1       1.230  -2.858  14.395  1.00  0.00    +0.000 N 
ATOM     36  C28 UNL A   1       1.297  -4.207  14.712  1.00  0.00    +0.000 C 
ATOM     37  C29 UNL A   1       0.639  -4.880  15.687  1.00  0.00    +0.000 C 
ATOM     49  C36 UNL A   1      -0.286  -4.275  16.610  1.00  0.00    +0.000 C 
ATOM     50  C37 UNL A   1      -0.953  -4.861  17.672  1.00  0.00    +0.000 C 
ATOM     51  C38 UNL A   1      -1.776  -3.893  18.259  1.00  0.00    +0.000 C 
ATOM     52  C39 UNL A   1      -1.589  -2.695  17.590  1.00  0.00    +0.000 C 
ATOM     53  N5  UNL A   1      -0.675  -2.944  16.578  1.00  0.00    +0.000 N 
ATOM     54  C40 UNL A   1      -2.200  -1.417  17.850  1.00  0.00    +0.000 C 
ATOM     66  C47 UNL A   1      -1.952  -0.281  17.152  1.00  0.00    +0.000 C 
ATOM     67  N6  UNL A   1      -1.090  -0.086  16.082  1.00  0.00    +0.000 N 
ATOM     68  C48 UNL A   1      -1.208   1.175  15.749  1.00  0.00    +0.000 C 
ATOM     69  C49 UNL A   1      -0.490   1.946  14.675  1.00  0.00    +0.000 C 
ATOM     81  C56 UNL A   1       0.428   1.319  13.915  1.00  0.00    +0.000 C 
ATOM     82  C57 UNL A   1       1.201   1.937  12.841  1.00  0.00    +0.000 C 
ATOM     83  C58 UNL A   1       1.982   1.004  12.272  1.00  0.00    +0.000 C 
ATOM     84  C59 UNL A   1       1.790  -0.270  12.966  1.00  0.00    +0.000 C 
ATOM     85  N7  UNL A   1       0.855   0.014  13.930  1.00  0.00    +0.000 N 
ATOM     86  C60 UNL A   1      -2.186   1.919  16.556  1.00  0.00    +0.000 C 
ATOM     87  C61 UNL A   1      -2.581   0.995  17.421  1.00  0.00    +0.000 C 
ATOM     88  C62 UNL A   1       2.248  -4.809  13.803  1.00  0.00    +0.000 C 
ATOM     89  C63 UNL A   1       2.816  -3.894  13.030  1.00  0.00    +0.000 C 
ATOM    118  H27 UNL A   1      -0.859  -5.841  17.979  1.00  0.00    +0.000 H 
ATOM    119  H28 UNL A   1      -2.414  -4.047  19.055  1.00  0.00    +0.000 H 
ATOM    120  H29 UNL A   1      -0.350  -2.276  15.933  1.00  0.00    +0.000 H 
ATOM    121  H30 UNL A   1       1.155   2.930  12.564  1.00  0.00    +0.000 H 
ATOM    122  H31 UNL A   1       2.617   1.161  11.474  1.00  0.00    +0.000 H 
ATOM    123  H32 UNL A   1       0.523  -0.654  14.572  1.00  0.00    +0.000 H 
ATOM    124  H33 UNL A   1      -2.487   2.903  16.471  1.00  0.00    +0.000 H 
ATOM    125  H34 UNL A   1      -3.251   1.164  18.187  1.00  0.00    +0.000 H 
ATOM    126  H35 UNL A   1       2.458  -5.819  13.762  1.00  0.00    +0.000 H 
ATOM    127  H36 UNL A   1       3.568  -4.007  12.333  1.00  0.00    +0.000 H 
ENDROOT
BRANCH   33   32
ATOM    129  H38 UNL A   1       3.693  -2.825   8.465  1.00  0.00    +0.000 H 
ATOM    128  H37 UNL A   1       2.139  -2.702  10.322  1.00  0.00    +0.000 H 
ATOM    116  H25 UNL A   1       6.327  -0.245  10.492  1.00  0.00    +0.000 H 
ATOM    117  H26 UNL A   1       4.867  -0.285  12.432  1.00  0.00    +0.000 H 
ATOM     90  C64 UNL A   1       3.035  -2.193  10.367  1.00  0.00    +0.000 C 
ATOM     91  C65 UNL A   1       3.910  -2.232   9.282  1.00  0.00    +0.000 C 
ATOM     29  C22 UNL A   1       5.080  -1.468   9.303  1.00  0.00    +0.000 C 
ATOM     30  C23 UNL A   1       5.438  -0.769  10.460  1.00  0.00    +0.000 C 
ATOM     31  C24 UNL A   1       4.591  -0.781  11.570  1.00  0.00    +0.000 C 
ATOM     32  C25 UNL A   1       3.366  -1.465  11.521  1.00  0.00    +0.000 C 
BRANCH   29   27
ATOM     27  C21 UNL A   1       5.967  -1.389   8.120  1.00  0.00    +0.000 C 
ATOM     28  O2  UNL A   1       7.183  -1.478   8.268  1.00  0.00    +0.000 O 
BRANCH   27   26
ATOM     26  N3  UNL A   1       5.437  -1.189   6.870  1.00  0.00    +0.000 N 
ATOM    115  H24 UNL A   1       6.080  -1.247   6.127  1.00  0.00    +0.000 H 
BRANCH   26   25
ATOM     25  C20 UNL A   1       4.065  -0.903   6.481  1.00  0.00    +0.000 C 
ATOM    114  H23 UNL A   1       3.531  -0.624   7.366  1.00  0.00    +0.000 H 
ATOM    113  H22 UNL A   1       3.649  -1.778   6.026  1.00  0.00    +0.000 H 
BRANCH   25   24
ATOM    112  H21 UNL A   1       4.474   1.078   5.949  1.00  0.00    +0.000 H 
ATOM    111  H20 UNL A   1       2.919   0.447   5.321  1.00  0.00    +0.000 H 
ATOM     24  C19 UNL A   1       3.958   0.257   5.496  1.00  0.00    +0.000 C 
BRANCH   24   23
ATOM    109  H18 UNL A   1       4.445   0.890   3.532  1.00  0.00    +0.000 H 
ATOM    110  H19 UNL A   1       5.668  -0.132   4.351  1.00  0.00    +0.000 H 
ATOM     23  C18 UNL A   1       4.631   0.031   4.141  1.00  0.00    +0.000 C 
BRANCH   23   22
ATOM    107  H16 UNL A   1       4.684  -1.232   2.437  1.00  0.00    +0.000 H 
ATOM    108  H17 UNL A   1       4.363  -2.042   4.004  1.00  0.00    +0.000 H 
ATOM     22  C17 UNL A   1       4.159  -1.205   3.369  1.00  0.00    +0.000 C 
BRANCH   22   21
ATOM    105  H14 UNL A   1       2.458  -2.172   2.539  1.00  0.00    +0.000 H 
ATOM    106  H15 UNL A   1       2.157  -1.205   4.012  1.00  0.00    +0.000 H 
ATOM     21  C16 UNL A   1       2.656  -1.263   3.067  1.00  0.00    +0.000 C 
BRANCH   21   20
ATOM     20  C15 UNL A   1       2.124  -0.102   2.228  1.00  0.00    +0.000 C 
ATOM    103  H12 UNL A   1       1.077  -0.243   2.060  1.00  0.00    +0.000 H 
ATOM    104  H13 UNL A   1       2.302   0.809   2.762  1.00  0.00    +0.000 H 
BRANCH   20   19
ATOM     19  N2  UNL A   1       2.801  -0.022   0.951  1.00  0.00    +0.000 N 
ATOM    102  H11 UNL A   1       3.782   0.061   0.945  1.00  0.00    +0.000 H 
BRANCH   19    2
ATOM      1  O1  UNL A   1       0.923  -0.203  -0.359  1.00  0.00    +0.000 O 
ATOM      2  C1  UNL A   1       2.138  -0.058  -0.255  1.00  0.00    +0.000 C 
BRANCH    2    3
ATOM      3  C2  UNL A   1       3.035   0.081  -1.474  1.00  0.00    +0.000 C 
ATOM     92  H1  UNL A   1       2.420   0.122  -2.349  1.00  0.00    +0.000 H 
ATOM     93  H2  UNL A   1       3.691  -0.764  -1.491  1.00  0.00    +0.000 H 
BRANCH    3    4
ATOM     97  H6  UNL A   1       3.797   4.677  -1.478  1.00  0.00    +0.000 H 
ATOM      4  C3  UNL A   1       3.895   1.327  -1.427  1.00  0.00    +0.000 C 
ATOM      5  C4  UNL A   1       5.285   1.177  -1.262  1.00  0.00    +0.000 C 
ATOM      6  C5  UNL A   1       6.115   2.290  -1.171  1.00  0.00    +0.000 C 
ATOM      7  C6  UNL A   1       5.567   3.564  -1.244  1.00  0.00    +0.000 C 
ATOM      8  C7  UNL A   1       4.190   3.725  -1.417  1.00  0.00    +0.000 C 
ATOM      9  C8  UNL A   1       3.329   2.620  -1.512  1.00  0.00    +0.000 C 
ATOM     94  H3  UNL A   1       5.693   0.230  -1.209  1.00  0.00    +0.000 H 
ATOM     95  H4  UNL A   1       7.133   2.170  -1.051  1.00  0.00    +0.000 H 
ATOM     96  H5  UNL A   1       6.177   4.393  -1.169  1.00  0.00    +0.000 H 
BRANCH    9   10
ATOM     10  N1  UNL A   1       1.939   2.768  -1.757  1.00  0.00    +0.000 N 
ATOM     98  H7  UNL A   1       1.413   1.936  -1.764  1.00  0.00    +0.000 H 
BRANCH   10   11
ATOM     99  H8  UNL A   1      -1.196   5.848  -0.546  1.00  0.00    +0.000 H 
ATOM    100  H9  UNL A   1      -0.707   7.292  -2.434  1.00  0.00    +0.000 H 
ATOM    101  H10 UNL A   1       0.965   6.626  -4.058  1.00  0.00    +0.000 H 
ATOM     11  C9  UNL A   1       1.210   3.966  -1.996  1.00  0.00    +0.000 C 
ATOM     12  C10 UNL A   1       0.225   4.375  -1.072  1.00  0.00    +0.000 C 
ATOM     13 Cl1  UNL A   1      -0.150   3.401   0.311  1.00  0.00    +0.000 Cl
ATOM     14  C11 UNL A   1      -0.476   5.575  -1.232  1.00  0.00    +0.000 C 
ATOM     15  C12 UNL A   1      -0.201   6.400  -2.318  1.00  0.00    +0.000 C 
ATOM     16  C13 UNL A   1       0.763   6.017  -3.250  1.00  0.00    +0.000 C 
ATOM     17  C14 UNL A   1       1.459   4.811  -3.096  1.00  0.00    +0.000 C 
ATOM     18 Cl2  UNL A   1       2.566   4.382  -4.358  1.00  0.00    +0.000 Cl
ENDBRANCH   10   11
ENDBRANCH    9   10
ENDBRANCH    3    4
ENDBRANCH    2    3
ENDBRANCH   19    2
ENDBRANCH   20   19
ENDBRANCH   21   20
ENDBRANCH   22   21
ENDBRANCH   23   22
ENDBRANCH   24   23
ENDBRANCH   25   24
ENDBRANCH   26   25
ENDBRANCH   27   26
ENDBRANCH   29   27
ENDBRANCH   33   32
BRANCH   37   38
ATOM     38  C30 UNL A   1       0.900  -6.353  15.808  1.00  0.00    +0.000 C 
ATOM     39  C31 UNL A   1       2.125  -6.846  16.282  1.00  0.00    +0.000 C 
ATOM     40  F1  UNL A   1       3.115  -5.998  16.602  1.00  0.00    +0.000 F 
ATOM     41  C32 UNL A   1       2.352  -8.215  16.393  1.00  0.00    +0.000 C 
ATOM     42  F2  UNL A   1       3.547  -8.663  16.802  1.00  0.00    +0.000 F 
ATOM     43  C33 UNL A   1       1.350  -9.116  16.066  1.00  0.00    +0.000 C 
ATOM     44  F3  UNL A   1       1.569 -10.433  16.177  1.00  0.00    +0.000 F 
ATOM     45  C34 UNL A   1       0.123  -8.651  15.617  1.00  0.00    +0.000 C 
ATOM     46  F4  UNL A   1      -0.850  -9.520  15.312  1.00  0.00    +0.000 F 
ATOM     47  C35 UNL A   1      -0.098  -7.283  15.478  1.00  0.00    +0.000 C 
ATOM     48  F5  UNL A   1      -1.290  -6.865  15.026  1.00  0.00    +0.000 F 
ENDBRANCH   37   38
BRANCH   54   55
ATOM     65  F10 UNL A   1      -1.398  -1.535  20.573  1.00  0.00    +0.000 F 
ATOM     55  C41 UNL A   1      -3.166  -1.323  18.994  1.00  0.00    +0.000 C 
ATOM     56  C42 UNL A   1      -4.546  -1.190  18.782  1.00  0.00    +0.000 C 
ATOM     57  F6  UNL A   1      -5.030  -1.092  17.535  1.00  0.00    +0.000 F 
ATOM     58  C43 UNL A   1      -5.430  -1.120  19.855  1.00  0.00    +0.000 C 
ATOM     59  F7  UNL A   1      -6.740  -0.950  19.630  1.00  0.00    +0.000 F 
ATOM     60  C44 UNL A   1      -4.957  -1.212  21.155  1.00  0.00    +0.000 C 
ATOM     61  F8  UNL A   1      -5.811  -1.150  22.186  1.00  0.00    +0.000 F 
ATOM     62  C45 UNL A   1      -3.598  -1.359  21.387  1.00  0.00    +0.000 C 
ATOM     63  F9  UNL A   1      -3.140  -1.459  22.643  1.00  0.00    +0.000 F 
ATOM     64  C46 UNL A   1      -2.708  -1.403  20.318  1.00  0.00    +0.000 C 
ENDBRANCH   54   55
BRANCH   69   70
ATOM     70  C50 UNL A   1      -0.761   3.392  14.469  1.00  0.00    +0.000 C 
ATOM     71  C51 UNL A   1      -0.348   4.339  15.416  1.00  0.00    +0.000 C 
ATOM     72  F11 UNL A   1       0.281   3.940  16.532  1.00  0.00    +0.000 F 
ATOM     73  C52 UNL A   1      -0.616   5.695  15.241  1.00  0.00    +0.000 C 
ATOM     74  F12 UNL A   1      -0.247   6.575  16.182  1.00  0.00    +0.000 F 
ATOM     75  C53 UNL A   1      -1.276   6.132  14.103  1.00  0.00    +0.000 C 
ATOM     76  F13 UNL A   1      -1.530   7.437  13.933  1.00  0.00    +0.000 F 
ATOM     77  C54 UNL A   1      -1.679   5.215  13.145  1.00  0.00    +0.000 C 
ATOM     78  F14 UNL A   1      -2.307   5.635  12.038  1.00  0.00    +0.000 F 
ATOM     79  C55 UNL A   1      -1.435   3.856  13.331  1.00  0.00    +0.000 C 
ATOM     80  F15 UNL A   1      -1.847   2.989  12.394  1.00  0.00    +0.000 F 
ENDBRANCH   69   70
TORSDOF 18