ROOT
ATOM    149  H47 UNL A   1      -0.195  11.242  15.763  1.00  0.00    +0.000 H 
ATOM    150  H48 UNL A   1       1.283  10.037  17.542  1.00  0.00    +0.000 H 
ATOM    151  H49 UNL A   1      -0.700   7.153  15.328  1.00  0.00    +0.000 H 
ATOM    152  H50 UNL A   1      -2.014   1.001  14.208  1.00  0.00    +0.000 H 
ATOM    153  H51 UNL A   1      -3.451   2.179  12.474  1.00  0.00    +0.000 H 
ATOM    154  H52 UNL A   1      -1.445   5.094  14.656  1.00  0.00    +0.000 H 
ATOM    155  H53 UNL A   1       1.392   2.642  17.992  1.00  0.00    +0.000 H 
ATOM    156  H54 UNL A   1       2.034   4.935  18.931  1.00  0.00    +0.000 H 
ATOM    157  H55 UNL A   1      -3.392   9.495  11.819  1.00  0.00    +0.000 H 
ATOM    158  H56 UNL A   1      -4.446   7.246  11.198  1.00  0.00    +0.000 H 
ATOM     44  C33 UNL A   1      -3.295   5.026  12.563  1.00  0.00    +0.000 C 
ATOM     45  C34 UNL A   1      -3.002   6.484  12.773  1.00  0.00    +0.000 C 
ATOM     46  N6  UNL A   1      -2.174   7.051  13.614  1.00  0.00    +0.000 N 
ATOM     47  C35 UNL A   1      -2.263   8.415  13.370  1.00  0.00    +0.000 C 
ATOM     48  C36 UNL A   1      -1.655   9.432  14.026  1.00  0.00    +0.000 C 
ATOM     60  C43 UNL A   1      -0.760   9.256  15.138  1.00  0.00    +0.000 C 
ATOM     61  C44 UNL A   1      -0.114  10.221  15.890  1.00  0.00    +0.000 C 
ATOM     62  C45 UNL A   1       0.668   9.574  16.853  1.00  0.00    +0.000 C 
ATOM     63  C46 UNL A   1       0.479   8.208  16.726  1.00  0.00    +0.000 C 
ATOM     64  N7  UNL A   1      -0.390   8.026  15.663  1.00  0.00    +0.000 N 
ATOM     65  C47 UNL A   1       1.044   7.147  17.517  1.00  0.00    +0.000 C 
ATOM     77  C54 UNL A   1       0.833   5.823  17.314  1.00  0.00    +0.000 C 
ATOM     78  N8  UNL A   1       0.050   5.201  16.352  1.00  0.00    +0.000 N 
ATOM     79  C55 UNL A   1       0.182   3.913  16.558  1.00  0.00    +0.000 C 
ATOM     80  C56 UNL A   1      -0.468   2.764  15.835  1.00  0.00    +0.000 C 
ATOM     92  C63 UNL A   1      -1.344   3.023  14.847  1.00  0.00    +0.000 C 
ATOM     93  C64 UNL A   1      -2.075   2.023  14.075  1.00  0.00    +0.000 C 
ATOM     94  C65 UNL A   1      -2.841   2.646  13.164  1.00  0.00    +0.000 C 
ATOM     95  C66 UNL A   1      -2.672   4.093  13.306  1.00  0.00    +0.000 C 
ATOM     96  N9  UNL A   1      -1.764   4.223  14.327  1.00  0.00    +0.000 N 
ATOM     97  C67 UNL A   1       1.092   3.572  17.659  1.00  0.00    +0.000 C 
ATOM     98  C68 UNL A   1       1.427   4.771  18.113  1.00  0.00    +0.000 C 
ATOM     99  C69 UNL A   1      -3.181   8.589  12.266  1.00  0.00    +0.000 C 
ATOM    100  C70 UNL A   1      -3.717   7.433  11.905  1.00  0.00    +0.000 C 
ENDROOT
BRANCH   44   43
ATOM    101  C71 UNL A   1      -3.928   4.828  10.156  1.00  0.00    +0.000 C 
ATOM    102  C72 UNL A   1      -4.840   4.497   9.158  1.00  0.00    +0.000 C 
ATOM     40  C29 UNL A   1      -6.037   3.857   9.495  1.00  0.00    +0.000 C 
ATOM     41  C30 UNL A   1      -6.368   3.639  10.834  1.00  0.00    +0.000 C 
ATOM     42  C31 UNL A   1      -5.481   4.029  11.837  1.00  0.00    +0.000 C 
ATOM     43  C32 UNL A   1      -4.246   4.609  11.504  1.00  0.00    +0.000 C 
ATOM    147  H45 UNL A   1      -7.265   3.192  11.080  1.00  0.00    +0.000 H 
ATOM    148  H46 UNL A   1      -5.733   3.890  12.828  1.00  0.00    +0.000 H 
ATOM    159  H57 UNL A   1      -3.014   5.235   9.902  1.00  0.00    +0.000 H 
ATOM    160  H58 UNL A   1      -4.634   4.723   8.172  1.00  0.00    +0.000 H 
BRANCH   40   38
ATOM     38  C28 UNL A   1      -6.982   3.404   8.453  1.00  0.00    +0.000 C 
ATOM     39  O6  UNL A   1      -8.179   3.649   8.564  1.00  0.00    +0.000 O 
BRANCH   38   37
ATOM    146  H44 UNL A   1      -7.184   2.459   6.697  1.00  0.00    +0.000 H 
ATOM     37  N5  UNL A   1      -6.516   2.681   7.385  1.00  0.00    +0.000 N 
BRANCH   37   36
ATOM    145  H43 UNL A   1      -4.667   2.150   8.076  1.00  0.00    +0.000 H 
ATOM     36  C27 UNL A   1      -5.172   2.201   7.134  1.00  0.00    +0.000 C 
ATOM    144  H42 UNL A   1      -4.688   2.877   6.461  1.00  0.00    +0.000 H 
BRANCH   36   35
ATOM     35  C26 UNL A   1      -5.149   0.806   6.525  1.00  0.00    +0.000 C 
ATOM    142  H40 UNL A   1      -4.127   0.530   6.370  1.00  0.00    +0.000 H 
ATOM    143  H41 UNL A   1      -5.664   0.172   7.216  1.00  0.00    +0.000 H 
BRANCH   35   34
ATOM     34  C25 UNL A   1      -5.885   0.661   5.190  1.00  0.00    +0.000 C 
ATOM    140  H38 UNL A   1      -5.694  -0.322   4.815  1.00  0.00    +0.000 H 
ATOM    141  H39 UNL A   1      -6.915   0.853   5.404  1.00  0.00    +0.000 H 
BRANCH   34   33
ATOM     33  C24 UNL A   1      -5.491   1.665   4.101  1.00  0.00    +0.000 C 
ATOM    138  H36 UNL A   1      -5.951   1.355   3.186  1.00  0.00    +0.000 H 
ATOM    139  H37 UNL A   1      -5.823   2.620   4.449  1.00  0.00    +0.000 H 
BRANCH   33   32
ATOM    137  H35 UNL A   1      -3.563   2.199   4.750  1.00  0.00    +0.000 H 
ATOM    136  H34 UNL A   1      -3.851   2.458   3.008  1.00  0.00    +0.000 H 
ATOM     32  C23 UNL A   1      -3.988   1.810   3.848  1.00  0.00    +0.000 C 
BRANCH   32   31
ATOM    135  H33 UNL A   1      -3.593  -0.225   4.277  1.00  0.00    +0.000 H 
ATOM    134  H32 UNL A   1      -2.214   0.660   3.628  1.00  0.00    +0.000 H 
ATOM     31  C22 UNL A   1      -3.270   0.500   3.560  1.00  0.00    +0.000 C 
BRANCH   31   30
ATOM    133  H31 UNL A   1      -4.384   0.386   1.814  1.00  0.00    +0.000 H 
ATOM     30  N4  UNL A   1      -3.584   0.001   2.240  1.00  0.00    +0.000 N 
BRANCH   30   28
ATOM     28  C21 UNL A   1      -2.912  -0.933   1.512  1.00  0.00    +0.000 C 
ATOM     29  O5  UNL A   1      -3.498  -1.468   0.567  1.00  0.00    +0.000 O 
BRANCH   28    5
ATOM      5  C5  UNL A   1      -1.484  -1.365   1.896  1.00  0.00    +0.000 C 
ATOM    112  H10 UNL A   1      -1.160  -2.035   1.127  1.00  0.00    +0.000 H 
BRANCH    5    4
ATOM      4  C4  UNL A   1      -1.394  -2.219   3.166  1.00  0.00    +0.000 C 
ATOM    110  H8  UNL A   1      -0.405  -2.624   3.216  1.00  0.00    +0.000 H 
ATOM    111  H9  UNL A   1      -1.644  -1.561   3.971  1.00  0.00    +0.000 H 
BRANCH    4    2
ATOM      2  C2  UNL A   1      -2.394  -3.399   3.272  1.00  0.00    +0.000 C 
ATOM    106  H4  UNL A   1      -3.351  -2.937   3.394  1.00  0.00    +0.000 H 
BRANCH    2    1
ATOM      1  C1  UNL A   1      -2.511  -4.288   2.031  1.00  0.00    +0.000 C 
ATOM    105  H3  UNL A   1      -2.833  -3.698   1.198  1.00  0.00    +0.000 H 
ATOM    103  H1  UNL A   1      -3.224  -5.065   2.214  1.00  0.00    +0.000 H 
ATOM    104  H2  UNL A   1      -1.558  -4.723   1.812  1.00  0.00    +0.000 H 
ENDBRANCH    2    1
BRANCH    2    3
ATOM      3  C3  UNL A   1      -2.001  -4.287   4.457  1.00  0.00    +0.000 C 
ATOM    108  H6  UNL A   1      -2.725  -5.066   4.575  1.00  0.00    +0.000 H 
ATOM    109  H7  UNL A   1      -1.965  -3.696   5.349  1.00  0.00    +0.000 H 
ATOM    107  H5  UNL A   1      -1.039  -4.719   4.276  1.00  0.00    +0.000 H 
ENDBRANCH    2    3
ENDBRANCH    4    2
ENDBRANCH    5    4
BRANCH    5    6
ATOM    113  H11 UNL A   1      -0.807   0.500   2.529  1.00  0.00    +0.000 H 
ATOM      6  N1  UNL A   1      -0.572  -0.220   1.899  1.00  0.00    +0.000 N 
BRANCH    6    7
ATOM      7  C6  UNL A   1       0.552   0.002   1.163  1.00  0.00    +0.000 C 
ATOM      8  O1  UNL A   1       0.901   1.182   1.035  1.00  0.00    +0.000 O 
BRANCH    7    9
ATOM      9  C7  UNL A   1       1.356  -1.109   0.464  1.00  0.00    +0.000 C 
ATOM    114  H12 UNL A   1       2.388  -0.828   0.506  1.00  0.00    +0.000 H 
ATOM    115  H13 UNL A   1       0.928  -1.169  -0.515  1.00  0.00    +0.000 H 
BRANCH    9   10
ATOM     10  N2  UNL A   1       1.256  -2.455   0.983  1.00  0.00    +0.000 N 
ATOM    116  H14 UNL A   1       1.704  -2.570   1.853  1.00  0.00    +0.000 H 
BRANCH   10   11
ATOM     11  C8  UNL A   1       0.677  -3.591   0.526  1.00  0.00    +0.000 C 
ATOM     12  O2  UNL A   1       0.846  -4.581   1.252  1.00  0.00    +0.000 O 
BRANCH   11   13
ATOM    117  H15 UNL A   1      -0.808  -4.521  -0.678  1.00  0.00    +0.000 H 
ATOM     13  C9  UNL A   1      -0.083  -3.749  -0.831  1.00  0.00    +0.000 C 
BRANCH   13   14
ATOM    118  H16 UNL A   1      -1.866  -2.693  -0.791  1.00  0.00    +0.000 H 
ATOM     14  N3  UNL A   1      -0.965  -2.627  -1.181  1.00  0.00    +0.000 N 
BRANCH   14   15
ATOM     15  C10 UNL A   1      -0.775  -1.518  -1.936  1.00  0.00    +0.000 C 
ATOM     16  O3  UNL A   1      -1.431  -0.507  -1.726  1.00  0.00    +0.000 O 
BRANCH   15   17
ATOM     17  O4  UNL A   1       0.112  -1.678  -2.938  1.00  0.00    +0.000 O 
BRANCH   17   18
ATOM     18  C11 UNL A   1       0.100  -0.637  -3.926  1.00  0.00    +0.000 C 
ATOM    119  H17 UNL A   1       1.054  -0.620  -4.410  1.00  0.00    +0.000 H 
ATOM    120  H18 UNL A   1      -0.116   0.277  -3.412  1.00  0.00    +0.000 H 
BRANCH   18   19
ATOM     19  C12 UNL A   1      -0.973  -0.811  -4.988  1.00  0.00    +0.000 C 
ATOM     20  C13 UNL A   1      -0.719  -0.373  -6.296  1.00  0.00    +0.000 C 
ATOM     21  C14 UNL A   1      -1.710  -0.438  -7.280  1.00  0.00    +0.000 C 
ATOM     22  C15 UNL A   1      -2.974  -0.934  -6.971  1.00  0.00    +0.000 C 
ATOM     23  C16 UNL A   1      -3.247  -1.369  -5.681  1.00  0.00    +0.000 C 
ATOM     24  C17 UNL A   1      -2.256  -1.305  -4.700  1.00  0.00    +0.000 C 
ATOM    121  H19 UNL A   1       0.213   0.003  -6.535  1.00  0.00    +0.000 H 
ATOM    122  H20 UNL A   1      -1.504  -0.117  -8.239  1.00  0.00    +0.000 H 
ATOM    123  H21 UNL A   1      -3.705  -0.978  -7.699  1.00  0.00    +0.000 H 
ATOM    124  H22 UNL A   1      -4.182  -1.738  -5.447  1.00  0.00    +0.000 H 
ATOM    125  H23 UNL A   1      -2.471  -1.627  -3.743  1.00  0.00    +0.000 H 
ENDBRANCH   18   19
ENDBRANCH   17   18
ENDBRANCH   15   17
ENDBRANCH   14   15
ENDBRANCH   13   14
BRANCH   13   25
ATOM     25  C18 UNL A   1       0.807  -4.325  -1.955  1.00  0.00    +0.000 C 
ATOM    126  H24 UNL A   1       1.477  -3.540  -2.238  1.00  0.00    +0.000 H 
BRANCH   25   26
ATOM    129  H27 UNL A   1       2.240  -5.893  -2.269  1.00  0.00    +0.000 H 
ATOM     26  C19 UNL A   1       1.608  -5.549  -1.477  1.00  0.00    +0.000 C 
ATOM    127  H25 UNL A   1       0.932  -6.329  -1.196  1.00  0.00    +0.000 H 
ATOM    128  H26 UNL A   1       2.208  -5.276  -0.634  1.00  0.00    +0.000 H 
ENDBRANCH   25   26
BRANCH   25   27
ATOM    130  H28 UNL A   1      -0.704  -5.558  -2.849  1.00  0.00    +0.000 H 
ATOM     27  C20 UNL A   1      -0.043  -4.773  -3.154  1.00  0.00    +0.000 C 
ATOM    132  H30 UNL A   1      -0.615  -3.945  -3.515  1.00  0.00    +0.000 H 
ATOM    131  H29 UNL A   1       0.599  -5.130  -3.932  1.00  0.00    +0.000 H 
ENDBRANCH   25   27
ENDBRANCH   13   25
ENDBRANCH   11   13
ENDBRANCH   10   11
ENDBRANCH    9   10
ENDBRANCH    7    9
ENDBRANCH    6    7
ENDBRANCH    5    6
ENDBRANCH   28    5
ENDBRANCH   30   28
ENDBRANCH   31   30
ENDBRANCH   32   31
ENDBRANCH   33   32
ENDBRANCH   34   33
ENDBRANCH   35   34
ENDBRANCH   36   35
ENDBRANCH   37   36
ENDBRANCH   38   37
ENDBRANCH   40   38
ENDBRANCH   44   43
BRANCH   48   49
ATOM     49  C37 UNL A   1      -1.952  10.827  13.561  1.00  0.00    +0.000 C 
ATOM     50  C38 UNL A   1      -3.207  11.418  13.779  1.00  0.00    +0.000 C 
ATOM     51  F1  UNL A   1      -4.185  10.723  14.379  1.00  0.00    +0.000 F 
ATOM     52  C39 UNL A   1      -3.475  12.712  13.342  1.00  0.00    +0.000 C 
ATOM     53  F2  UNL A   1      -4.695  13.238  13.519  1.00  0.00    +0.000 F 
ATOM     54  C40 UNL A   1      -2.486  13.453  12.712  1.00  0.00    +0.000 C 
ATOM     55  F3  UNL A   1      -2.744  14.701  12.297  1.00  0.00    +0.000 F 
ATOM     56  C41 UNL A   1      -1.233  12.896  12.505  1.00  0.00    +0.000 C 
ATOM     57  F4  UNL A   1      -0.273  13.615  11.905  1.00  0.00    +0.000 F 
ATOM     58  C42 UNL A   1      -0.970  11.591  12.915  1.00  0.00    +0.000 C 
ATOM     59  F5  UNL A   1       0.247  11.075  12.685  1.00  0.00    +0.000 F 
ENDBRANCH   48   49
BRANCH   65   66
ATOM     66  C48 UNL A   1       1.921   7.529  18.673  1.00  0.00    +0.000 C 
ATOM     67  C49 UNL A   1       3.310   7.345  18.634  1.00  0.00    +0.000 C 
ATOM     68  F6  UNL A   1       3.886   6.773  17.566  1.00  0.00    +0.000 F 
ATOM     69  C50 UNL A   1       4.109   7.711  19.714  1.00  0.00    +0.000 C 
ATOM     70  F7  UNL A   1       5.429   7.483  19.676  1.00  0.00    +0.000 F 
ATOM     71  C51 UNL A   1       3.538   8.296  20.836  1.00  0.00    +0.000 C 
ATOM     72  F8  UNL A   1       4.309   8.650  21.873  1.00  0.00    +0.000 F 
ATOM     73  C52 UNL A   1       2.168   8.506  20.886  1.00  0.00    +0.000 C 
ATOM     74  F9  UNL A   1       1.618   9.080  21.964  1.00  0.00    +0.000 F 
ATOM     75  C53 UNL A   1       1.364   8.117  19.819  1.00  0.00    +0.000 C 
ATOM     76  F10 UNL A   1       0.040   8.319  19.900  1.00  0.00    +0.000 F 
ENDBRANCH   65   66
BRANCH   80   81
ATOM     81  C57 UNL A   1      -0.179   1.360  16.224  1.00  0.00    +0.000 C 
ATOM     82  C58 UNL A   1      -0.628   0.845  17.448  1.00  0.00    +0.000 C 
ATOM     83  F11 UNL A   1      -1.321   1.628  18.288  1.00  0.00    +0.000 F 
ATOM     84  C59 UNL A   1      -0.330  -0.460  17.833  1.00  0.00    +0.000 C 
ATOM     85  F12 UNL A   1      -0.731  -0.911  19.029  1.00  0.00    +0.000 F 
ATOM     86  C60 UNL A   1       0.397  -1.285  16.988  1.00  0.00    +0.000 C 
ATOM     87  F13 UNL A   1       0.685  -2.540  17.359  1.00  0.00    +0.000 F 
ATOM     88  C61 UNL A   1       0.834  -0.804  15.763  1.00  0.00    +0.000 C 
ATOM     89  F14 UNL A   1       1.525  -1.603  14.938  1.00  0.00    +0.000 F 
ATOM     90  C62 UNL A   1       0.558   0.509  15.388  1.00  0.00    +0.000 C 
ATOM     91  F15 UNL A   1       1.004   0.952  14.204  1.00  0.00    +0.000 F 
ENDBRANCH   80   81
TORSDOF 33