ROOT
ATOM     21  C17 UNL A   1      -2.675   4.681   8.383  1.00  0.00    +0.000 C 
ATOM     22  C18 UNL A   1      -1.899   5.880   7.910  1.00  0.00    +0.000 C 
ATOM     23  N3  UNL A   1      -2.334   7.080   7.612  1.00  0.00    +0.000 N 
ATOM     24  C19 UNL A   1      -1.213   7.811   7.244  1.00  0.00    +0.000 C 
ATOM     25  C20 UNL A   1      -1.146   9.096   6.819  1.00  0.00    +0.000 C 
ATOM     37  C27 UNL A   1      -2.285   9.963   6.667  1.00  0.00    +0.000 C 
ATOM     38  C28 UNL A   1      -2.316  11.279   6.235  1.00  0.00    +0.000 C 
ATOM     39  C29 UNL A   1      -3.641  11.723   6.276  1.00  0.00    +0.000 C 
ATOM     40  C30 UNL A   1      -4.442  10.672   6.693  1.00  0.00    +0.000 C 
ATOM     41  N4  UNL A   1      -3.596   9.601   6.936  1.00  0.00    +0.000 N 
ATOM     42  C31 UNL A   1      -5.872  10.648   6.861  1.00  0.00    +0.000 C 
ATOM     54  C38 UNL A   1      -6.592   9.569   7.250  1.00  0.00    +0.000 C 
ATOM     55  N5  UNL A   1      -6.145   8.295   7.571  1.00  0.00    +0.000 N 
ATOM     56  C39 UNL A   1      -7.212   7.614   7.909  1.00  0.00    +0.000 C 
ATOM     57  C40 UNL A   1      -7.321   6.181   8.343  1.00  0.00    +0.000 C 
ATOM     69  C47 UNL A   1      -6.199   5.449   8.484  1.00  0.00    +0.000 C 
ATOM     70  C48 UNL A   1      -6.152   4.052   8.903  1.00  0.00    +0.000 C 
ATOM     71  C49 UNL A   1      -4.872   3.657   8.962  1.00  0.00    +0.000 C 
ATOM     72  C50 UNL A   1      -4.012   4.757   8.526  1.00  0.00    +0.000 C 
ATOM     73  N6  UNL A   1      -4.883   5.790   8.293  1.00  0.00    +0.000 N 
ATOM     74  C51 UNL A   1      -8.462   8.384   7.850  1.00  0.00    +0.000 C 
ATOM     75  C52 UNL A   1      -8.031   9.561   7.414  1.00  0.00    +0.000 C 
ATOM     76  C53 UNL A   1      -0.072   6.932   7.380  1.00  0.00    +0.000 C 
ATOM     77  C54 UNL A   1      -0.446   5.715   7.748  1.00  0.00    +0.000 C 
ATOM    119  H22 UNL A   1      -1.500  11.836   5.935  1.00  0.00    +0.000 H 
ATOM    120  H23 UNL A   1      -3.967  12.672   6.037  1.00  0.00    +0.000 H 
ATOM    121  H24 UNL A   1      -3.884   8.714   7.252  1.00  0.00    +0.000 H 
ATOM    122  H25 UNL A   1      -6.972   3.464   9.120  1.00  0.00    +0.000 H 
ATOM    123  H26 UNL A   1      -4.547   2.726   9.266  1.00  0.00    +0.000 H 
ATOM    124  H27 UNL A   1      -4.593   6.690   8.017  1.00  0.00    +0.000 H 
ATOM    125  H28 UNL A   1      -9.422   8.088   8.085  1.00  0.00    +0.000 H 
ATOM    126  H29 UNL A   1      -8.644  10.368   7.217  1.00  0.00    +0.000 H 
ATOM    127  H30 UNL A   1       0.906   7.216   7.211  1.00  0.00    +0.000 H 
ATOM    128  H31 UNL A   1       0.131   4.871   7.886  1.00  0.00    +0.000 H 
ENDROOT
BRANCH   21   20
ATOM    129  H32 UNL A   1      -0.895   4.016  10.329  1.00  0.00    +0.000 H 
ATOM    130  H33 UNL A   1       0.336   1.936  10.578  1.00  0.00    +0.000 H 
ATOM     78  C55 UNL A   1      -1.065   3.236   9.676  1.00  0.00    +0.000 C 
ATOM     79  C56 UNL A   1      -0.370   2.033   9.831  1.00  0.00    +0.000 C 
ATOM     17  C13 UNL A   1      -0.634   0.962   8.972  1.00  0.00    +0.000 C 
ATOM     18  C14 UNL A   1      -1.645   1.064   8.014  1.00  0.00    +0.000 C 
ATOM     19  C15 UNL A   1      -2.280   2.284   7.810  1.00  0.00    +0.000 C 
ATOM     20  C16 UNL A   1      -1.993   3.386   8.634  1.00  0.00    +0.000 C 
ATOM    117  H20 UNL A   1      -1.919   0.238   7.460  1.00  0.00    +0.000 H 
ATOM    118  H21 UNL A   1      -2.969   2.382   7.047  1.00  0.00    +0.000 H 
BRANCH   17   15
ATOM     15  C12 UNL A   1       0.183  -0.266   9.079  1.00  0.00    +0.000 C 
ATOM     16  O2  UNL A   1       0.431  -0.741  10.182  1.00  0.00    +0.000 O 
BRANCH   15   14
ATOM    116  H19 UNL A   1       1.107  -1.730   8.065  1.00  0.00    +0.000 H 
ATOM     14  N2  UNL A   1       0.685  -0.849   7.939  1.00  0.00    +0.000 N 
BRANCH   14   13
ATOM    114  H17 UNL A   1       0.035  -0.966   5.984  1.00  0.00    +0.000 H 
ATOM    115  H18 UNL A   1       0.336   0.665   6.601  1.00  0.00    +0.000 H 
ATOM     13  C11 UNL A   1       0.679  -0.348   6.573  1.00  0.00    +0.000 C 
BRANCH   13   12
ATOM    113  H16 UNL A   1       2.719   0.122   6.650  1.00  0.00    +0.000 H 
ATOM     12  C10 UNL A   1       2.067  -0.349   5.944  1.00  0.00    +0.000 C 
ATOM    112  H15 UNL A   1       2.010   0.172   5.011  1.00  0.00    +0.000 H 
BRANCH   12   11
ATOM     11  C9  UNL A   1       2.649  -1.738   5.680  1.00  0.00    +0.000 C 
ATOM    110  H13 UNL A   1       3.623  -1.613   5.253  1.00  0.00    +0.000 H 
ATOM    111  H14 UNL A   1       2.657  -2.240   6.625  1.00  0.00    +0.000 H 
BRANCH   11   10
ATOM     10  C8  UNL A   1       1.828  -2.625   4.736  1.00  0.00    +0.000 C 
ATOM    108  H11 UNL A   1       2.393  -3.513   4.544  1.00  0.00    +0.000 H 
ATOM    109  H12 UNL A   1       0.899  -2.803   5.235  1.00  0.00    +0.000 H 
BRANCH   10    9
ATOM      9  C7  UNL A   1       1.466  -1.994   3.384  1.00  0.00    +0.000 C 
ATOM    106  H9  UNL A   1       0.925  -2.717   2.810  1.00  0.00    +0.000 H 
ATOM    107  H10 UNL A   1       0.887  -1.119   3.598  1.00  0.00    +0.000 H 
BRANCH    9    8
ATOM    105  H8  UNL A   1       3.308  -0.954   3.200  1.00  0.00    +0.000 H 
ATOM    104  H7  UNL A   1       2.328  -0.953   1.735  1.00  0.00    +0.000 H 
ATOM      8  C6  UNL A   1       2.672  -1.534   2.564  1.00  0.00    +0.000 C 
BRANCH    8    7
ATOM    103  H6  UNL A   1       4.070  -3.059   2.701  1.00  0.00    +0.000 H 
ATOM      7  N1  UNL A   1       3.436  -2.658   2.065  1.00  0.00    +0.000 N 
BRANCH    7    5
ATOM      5  C5  UNL A   1       3.393  -3.234   0.830  1.00  0.00    +0.000 C 
ATOM      6  O1  UNL A   1       3.994  -4.298   0.663  1.00  0.00    +0.000 O 
BRANCH    5    4
ATOM      4  C4  UNL A   1       2.672  -2.541  -0.324  1.00  0.00    +0.000 C 
ATOM    101  H4  UNL A   1       3.004  -1.524  -0.363  1.00  0.00    +0.000 H 
ATOM    102  H5  UNL A   1       2.911  -3.094  -1.208  1.00  0.00    +0.000 H 
BRANCH    4    3
ATOM      2  C2  UNL A   1       0.322  -1.492  -0.198  1.00  0.00    +0.000 C 
ATOM      3  C3  UNL A   1       1.181  -2.540  -0.214  1.00  0.00    +0.000 C 
ATOM    131  H34 UNL A   1       1.801  -5.340  -0.218  1.00  0.00    +0.000 H 
ATOM    133  H36 UNL A   1      -2.953  -4.227  -0.186  1.00  0.00    +0.000 H 
ATOM    132  H35 UNL A   1      -2.232  -6.554  -0.182  1.00  0.00    +0.000 H 
ATOM     80  C57 UNL A   1       0.380  -3.777  -0.165  1.00  0.00    +0.000 C 
ATOM     81  C58 UNL A   1       0.798  -5.102  -0.191  1.00  0.00    +0.000 C 
ATOM     82  C59 UNL A   1      -0.172  -6.100  -0.179  1.00  0.00    +0.000 C 
ATOM     83  F16 UNL A   1       0.206  -7.385  -0.187  1.00  0.00    +0.000 F 
ATOM     84  C60 UNL A   1      -1.532  -5.795  -0.176  1.00  0.00    +0.000 C 
ATOM     85  C61 UNL A   1      -1.948  -4.463  -0.164  1.00  0.00    +0.000 C 
ATOM     86  C62 UNL A   1      -0.990  -3.458  -0.121  1.00  0.00    +0.000 C 
ATOM     87  C63 UNL A   1      -1.059  -1.985  -0.061  1.00  0.00    +0.000 C 
BRANCH    2    1
ATOM      1  C1  UNL A   1       0.642  -0.038  -0.316  1.00  0.00    +0.000 C 
ATOM     98  H1  UNL A   1       1.701   0.088  -0.404  1.00  0.00    +0.000 H 
ATOM     99  H2  UNL A   1       0.294   0.476   0.556  1.00  0.00    +0.000 H 
ATOM    100  H3  UNL A   1       0.161   0.364  -1.183  1.00  0.00    +0.000 H 
ENDBRANCH    2    1
BRANCH   87   88
ATOM    134  H37 UNL A   1      -1.973  -0.174   0.160  1.00  0.00    +0.000 H 
ATOM     88  C64 UNL A   1      -2.133  -1.193   0.136  1.00  0.00    +0.000 C 
BRANCH   88   89
ATOM     97  C71 UNL A   1      -4.419  -1.536  -0.731  1.00  0.00    +0.000 C 
ATOM    135  H38 UNL A   1      -3.253  -2.363   2.297  1.00  0.00    +0.000 H 
ATOM    136  H39 UNL A   1      -5.378  -3.532   2.385  1.00  0.00    +0.000 H 
ATOM    141  H44 UNL A   1      -6.325  -2.087  -1.445  1.00  0.00    +0.000 H 
ATOM    142  H45 UNL A   1      -4.177  -0.968  -1.558  1.00  0.00    +0.000 H 
ATOM     89  C65 UNL A   1      -3.508  -1.663   0.320  1.00  0.00    +0.000 C 
ATOM     90  C66 UNL A   1      -3.885  -2.344   1.482  1.00  0.00    +0.000 C 
ATOM     91  C67 UNL A   1      -5.120  -3.000   1.539  1.00  0.00    +0.000 C 
ATOM     92  C68 UNL A   1      -6.007  -2.942   0.458  1.00  0.00    +0.000 C 
ATOM     96  C70 UNL A   1      -5.659  -2.177  -0.662  1.00  0.00    +0.000 C 
BRANCH   92   93
ATOM     93  S1  UNL A   1      -7.459  -4.027   0.423  1.00  0.00    +0.000 S 
BRANCH   93   94
ATOM    137  H40 UNL A   1      -7.756  -4.094   2.796  1.00  0.00    +0.000 H 
ATOM    138  H41 UNL A   1      -9.258  -3.746   1.974  1.00  0.00    +0.000 H 
ATOM    139  H42 UNL A   1      -8.054  -2.494   2.160  1.00  0.00    +0.000 H 
ATOM     94  C69 UNL A   1      -8.208  -3.540   1.999  1.00  0.00    +0.000 C 
ENDBRANCH   93   94
BRANCH   93   95
ATOM    140  H43 UNL A   1      -8.149  -3.096  -1.374  1.00  0.00    +0.000 H 
ATOM     95  O3  UNL A   1      -8.375  -3.018  -0.434  1.00  0.00    +0.000 O 
ENDBRANCH   93   95
ENDBRANCH   92   93
ENDBRANCH   88   89
ENDBRANCH   87   88
ENDBRANCH    4    3
ENDBRANCH    5    4
ENDBRANCH    7    5
ENDBRANCH    8    7
ENDBRANCH    9    8
ENDBRANCH   10    9
ENDBRANCH   11   10
ENDBRANCH   12   11
ENDBRANCH   13   12
ENDBRANCH   14   13
ENDBRANCH   15   14
ENDBRANCH   17   15
ENDBRANCH   21   20
BRANCH   25   26
ATOM     33  C25 UNL A   1       2.018  11.205   6.971  1.00  0.00    +0.000 C 
ATOM     34  F4  UNL A   1       2.553  12.146   7.761  1.00  0.00    +0.000 F 
ATOM     35  C26 UNL A   1       0.801  10.619   7.313  1.00  0.00    +0.000 C 
ATOM     36  F5  UNL A   1       0.192  11.010   8.443  1.00  0.00    +0.000 F 
ATOM     26  C21 UNL A   1       0.207   9.653   6.487  1.00  0.00    +0.000 C 
ATOM     27  C22 UNL A   1       0.883   9.285   5.315  1.00  0.00    +0.000 C 
ATOM     28  F1  UNL A   1       0.362   8.357   4.498  1.00  0.00    +0.000 F 
ATOM     29  C23 UNL A   1       2.111   9.855   4.988  1.00  0.00    +0.000 C 
ATOM     30  F2  UNL A   1       2.753   9.467   3.877  1.00  0.00    +0.000 F 
ATOM     31  C24 UNL A   1       2.673  10.820   5.811  1.00  0.00    +0.000 C 
ATOM     32  F3  UNL A   1       3.848  11.378   5.487  1.00  0.00    +0.000 F 
ENDBRANCH   25   26
BRANCH   42   43
ATOM     43  C32 UNL A   1      -6.626  11.911   6.571  1.00  0.00    +0.000 C 
ATOM     44  C33 UNL A   1      -7.145  12.704   7.604  1.00  0.00    +0.000 C 
ATOM     45  F6  UNL A   1      -7.036  12.306   8.880  1.00  0.00    +0.000 F 
ATOM     46  C34 UNL A   1      -7.802  13.899   7.324  1.00  0.00    +0.000 C 
ATOM     47  F7  UNL A   1      -8.319  14.626   8.324  1.00  0.00    +0.000 F 
ATOM     48  C35 UNL A   1      -7.928  14.334   6.013  1.00  0.00    +0.000 C 
ATOM     49  F8  UNL A   1      -8.551  15.491   5.747  1.00  0.00    +0.000 F 
ATOM     50  C36 UNL A   1      -7.414  13.569   4.978  1.00  0.00    +0.000 C 
ATOM     51  F9  UNL A   1      -7.525  13.994   3.711  1.00  0.00    +0.000 F 
ATOM     52  C37 UNL A   1      -6.777  12.362   5.251  1.00  0.00    +0.000 C 
ATOM     53  F10 UNL A   1      -6.292  11.640   4.230  1.00  0.00    +0.000 F 
ENDBRANCH   42   43
BRANCH   57   58
ATOM     65  C45 UNL A   1     -10.233   4.539  10.142  1.00  0.00    +0.000 C 
ATOM     66  F14 UNL A   1     -10.558   4.161  11.386  1.00  0.00    +0.000 F 
ATOM     67  C46 UNL A   1      -9.023   5.185   9.907  1.00  0.00    +0.000 C 
ATOM     68  F15 UNL A   1      -8.205   5.426  10.942  1.00  0.00    +0.000 F 
ATOM     58  C41 UNL A   1      -8.640   5.555   8.609  1.00  0.00    +0.000 C 
ATOM     59  C42 UNL A   1      -9.528   5.280   7.561  1.00  0.00    +0.000 C 
ATOM     60  F11 UNL A   1      -9.214   5.634   6.306  1.00  0.00    +0.000 F 
ATOM     61  C43 UNL A   1     -10.751   4.657   7.802  1.00  0.00    +0.000 C 
ATOM     62  F12 UNL A   1     -11.594   4.426   6.786  1.00  0.00    +0.000 F 
ATOM     63  C44 UNL A   1     -11.098   4.278   9.090  1.00  0.00    +0.000 C 
ATOM     64  F13 UNL A   1     -12.267   3.664   9.318  1.00  0.00    +0.000 F 
ENDBRANCH   57   58
TORSDOF 22