ROOT
ATOM    129  H30 UNL A   1      -2.960   3.140   5.648  1.00  0.00    +0.000 H 
ATOM    130  H31 UNL A   1       2.041   1.639  12.114  1.00  0.00    +0.000 H 
ATOM    131  H32 UNL A   1       2.939   0.560  10.007  1.00  0.00    +0.000 H 
ATOM    132  H33 UNL A   1      -0.213   2.992   8.897  1.00  0.00    +0.000 H 
ATOM    133  H34 UNL A   1       0.448   6.195  10.374  1.00  0.00    +0.000 H 
ATOM    134  H35 UNL A   1      -1.321   6.645   8.553  1.00  0.00    +0.000 H 
ATOM    135  H36 UNL A   1       0.744   1.546   3.078  1.00  0.00    +0.000 H 
ATOM    136  H37 UNL A   1       1.912   0.258   4.957  1.00  0.00    +0.000 H 
ATOM     29  C24 UNL A   1       1.784   1.478   7.558  1.00  0.00    +0.000 C 
ATOM     30  C25 UNL A   1       1.125   1.953   6.253  1.00  0.00    +0.000 C 
ATOM     31  N3  UNL A   1       0.409   3.011   5.986  1.00  0.00    +0.000 N 
ATOM     32  C26 UNL A   1       0.020   2.913   4.633  1.00  0.00    +0.000 C 
ATOM     33  C27 UNL A   1      -0.974   3.641   4.043  1.00  0.00    +0.000 C 
ATOM     45  C34 UNL A   1      -1.605   4.571   4.921  1.00  0.00    +0.000 C 
ATOM     46  C35 UNL A   1      -1.608   5.925   5.157  1.00  0.00    +0.000 C 
ATOM     47  C36 UNL A   1      -2.414   6.126   6.314  1.00  0.00    +0.000 C 
ATOM     48  C37 UNL A   1      -2.712   4.866   6.818  1.00  0.00    +0.000 C 
ATOM     49  N4  UNL A   1      -2.518   4.011   5.770  1.00  0.00    +0.000 N 
ATOM     50  C38 UNL A   1      -2.959   4.264   8.094  1.00  0.00    +0.000 C 
ATOM     62  C45 UNL A   1      -2.254   4.736   9.151  1.00  0.00    +0.000 C 
ATOM     63  N5  UNL A   1      -2.028   3.962  10.269  1.00  0.00    +0.000 N 
ATOM     64  C46 UNL A   1      -0.896   4.400  10.722  1.00  0.00    +0.000 C 
ATOM     65  C47 UNL A   1      -0.004   3.654  11.625  1.00  0.00    +0.000 C 
ATOM     77  C54 UNL A   1       0.645   2.761  10.817  1.00  0.00    +0.000 C 
ATOM     78  C55 UNL A   1       1.704   1.832  11.158  1.00  0.00    +0.000 C 
ATOM     79  C56 UNL A   1       2.181   1.260  10.034  1.00  0.00    +0.000 C 
ATOM     80  C57 UNL A   1       1.469   1.771   8.849  1.00  0.00    +0.000 C 
ATOM     81  N6  UNL A   1       0.511   2.576   9.419  1.00  0.00    +0.000 N 
ATOM     82  C58 UNL A   1      -0.383   5.635  10.129  1.00  0.00    +0.000 C 
ATOM     83  C59 UNL A   1      -1.296   5.828   9.182  1.00  0.00    +0.000 C 
ATOM     84  C60 UNL A   1       0.731   1.798   4.079  1.00  0.00    +0.000 C 
ATOM     85  C61 UNL A   1       1.372   1.133   5.038  1.00  0.00    +0.000 C 
ATOM    127  H28 UNL A   1      -1.122   6.650   4.607  1.00  0.00    +0.000 H 
ATOM    128  H29 UNL A   1      -2.719   7.032   6.703  1.00  0.00    +0.000 H 
ENDROOT
BRANCH   29   28
ATOM    137  H38 UNL A   1       2.025  -1.235   7.630  1.00  0.00    +0.000 H 
ATOM    138  H39 UNL A   1       3.975  -2.560   7.035  1.00  0.00    +0.000 H 
ATOM     86  C62 UNL A   1       2.905  -0.768   7.361  1.00  0.00    +0.000 C 
ATOM     87  C63 UNL A   1       4.024  -1.529   7.014  1.00  0.00    +0.000 C 
ATOM     25  C20 UNL A   1       5.212  -0.892   6.639  1.00  0.00    +0.000 C 
ATOM     26  C21 UNL A   1       5.292   0.508   6.660  1.00  0.00    +0.000 C 
ATOM     27  C22 UNL A   1       4.183   1.268   7.010  1.00  0.00    +0.000 C 
ATOM     28  C23 UNL A   1       2.982   0.631   7.342  1.00  0.00    +0.000 C 
ATOM    125  H26 UNL A   1       6.178   0.975   6.413  1.00  0.00    +0.000 H 
ATOM    126  H27 UNL A   1       4.245   2.298   7.026  1.00  0.00    +0.000 H 
BRANCH   25   23
ATOM     23  C19 UNL A   1       6.460  -1.625   6.318  1.00  0.00    +0.000 C 
ATOM     24  O3  UNL A   1       7.538  -1.135   6.609  1.00  0.00    +0.000 O 
BRANCH   23   22
ATOM    124  H25 UNL A   1       7.216  -3.425   5.868  1.00  0.00    +0.000 H 
ATOM     22  N2  UNL A   1       6.442  -2.844   5.689  1.00  0.00    +0.000 N 
BRANCH   22   21
ATOM    122  H23 UNL A   1       4.697  -3.904   5.374  1.00  0.00    +0.000 H 
ATOM    123  H24 UNL A   1       4.995  -2.595   4.242  1.00  0.00    +0.000 H 
ATOM     21  C18 UNL A   1       5.440  -3.395   4.797  1.00  0.00    +0.000 C 
BRANCH   21   20
ATOM    121  H22 UNL A   1       6.848  -3.842   3.307  1.00  0.00    +0.000 H 
ATOM     20  C17 UNL A   1       6.075  -4.383   3.813  1.00  0.00    +0.000 C 
ATOM    120  H21 UNL A   1       5.307  -4.740   3.159  1.00  0.00    +0.000 H 
BRANCH   20   19
ATOM     19  C16 UNL A   1       6.757  -5.601   4.459  1.00  0.00    +0.000 C 
ATOM    118  H19 UNL A   1       7.131  -6.223   3.673  1.00  0.00    +0.000 H 
ATOM    119  H20 UNL A   1       7.518  -5.203   5.098  1.00  0.00    +0.000 H 
BRANCH   19   18
ATOM     18  C15 UNL A   1       5.869  -6.463   5.358  1.00  0.00    +0.000 C 
ATOM    116  H17 UNL A   1       6.426  -7.329   5.647  1.00  0.00    +0.000 H 
ATOM    117  H18 UNL A   1       5.589  -5.849   6.188  1.00  0.00    +0.000 H 
BRANCH   18   17
ATOM     17  C14 UNL A   1       4.570  -6.929   4.707  1.00  0.00    +0.000 C 
ATOM    114  H15 UNL A   1       3.970  -7.394   5.460  1.00  0.00    +0.000 H 
ATOM    115  H16 UNL A   1       4.121  -6.056   4.282  1.00  0.00    +0.000 H 
BRANCH   17   16
ATOM    113  H14 UNL A   1       5.720  -7.805   3.144  1.00  0.00    +0.000 H 
ATOM    112  H13 UNL A   1       3.998  -7.724   2.811  1.00  0.00    +0.000 H 
ATOM     16  C13 UNL A   1       4.740  -7.921   3.557  1.00  0.00    +0.000 C 
BRANCH   16   15
ATOM    111  H12 UNL A   1       5.385  -9.678   4.457  1.00  0.00    +0.000 H 
ATOM     15  N1  UNL A   1       4.590  -9.284   4.030  1.00  0.00    +0.000 N 
BRANCH   15   13
ATOM     13  C12 UNL A   1       3.493 -10.090   3.961  1.00  0.00    +0.000 C 
ATOM     14  O2  UNL A   1       3.436 -11.070   4.705  1.00  0.00    +0.000 O 
BRANCH   13   12
ATOM     12  C11 UNL A   1       2.398  -9.815   2.948  1.00  0.00    +0.000 C 
ATOM    109  H10 UNL A   1       2.733  -9.047   2.282  1.00  0.00    +0.000 H 
ATOM    110  H11 UNL A   1       2.201 -10.731   2.431  1.00  0.00    +0.000 H 
BRANCH   12   11
ATOM     11  C10 UNL A   1       1.091  -9.362   3.598  1.00  0.00    +0.000 C 
ATOM    108  H9  UNL A   1       1.007  -9.875   4.533  1.00  0.00    +0.000 H 
ATOM    107  H8  UNL A   1       0.283  -9.597   2.936  1.00  0.00    +0.000 H 
BRANCH   11   10
ATOM      7  C6  UNL A   1       1.104  -5.663   3.476  1.00  0.00    +0.000 C 
ATOM      8  C7  UNL A   1       1.352  -5.862   4.827  1.00  0.00    +0.000 C 
ATOM      9  C8  UNL A   1       1.315  -7.246   5.087  1.00  0.00    +0.000 C 
ATOM     10  C9  UNL A   1       1.054  -7.885   3.892  1.00  0.00    +0.000 C 
ATOM    105  H6  UNL A   1       1.533  -5.121   5.522  1.00  0.00    +0.000 H 
ATOM    106  H7  UNL A   1       1.458  -7.699   6.003  1.00  0.00    +0.000 H 
ATOM     88  N7  UNL A   1       0.705  -6.902   2.967  1.00  0.00    +0.000 N 
BRANCH    7    6
ATOM     98  C72 UNL A   1       2.068  -3.829   2.093  1.00  0.00    +0.000 C 
ATOM      3  C2  UNL A   1       0.786  -1.827   1.622  1.00  0.00    +0.000 C 
ATOM      4  C3  UNL A   1      -0.284  -2.358   2.343  1.00  0.00    +0.000 C 
ATOM      5  C4  UNL A   1      -0.189  -3.625   2.922  1.00  0.00    +0.000 C 
ATOM     99  C73 UNL A   1       1.967  -2.561   1.503  1.00  0.00    +0.000 C 
ATOM    103  H4  UNL A   1      -1.152  -1.810   2.450  1.00  0.00    +0.000 H 
ATOM      6  C5  UNL A   1       0.987  -4.371   2.799  1.00  0.00    +0.000 C 
ATOM    104  H5  UNL A   1      -0.991  -4.013   3.442  1.00  0.00    +0.000 H 
ATOM    146  H47 UNL A   1       2.944  -4.367   2.005  1.00  0.00    +0.000 H 
ATOM    147  H48 UNL A   1       2.767  -2.170   0.981  1.00  0.00    +0.000 H 
BRANCH    3    2
ATOM      2  O1  UNL A   1       0.591  -0.566   1.130  1.00  0.00    +0.000 O 
BRANCH    2    1
ATOM      1  C1  UNL A   1       1.246  -0.287  -0.102  1.00  0.00    +0.000 C 
ATOM    100  H1  UNL A   1       1.032   0.718  -0.401  1.00  0.00    +0.000 H 
ATOM    101  H2  UNL A   1       0.897  -0.965  -0.854  1.00  0.00    +0.000 H 
ATOM    102  H3  UNL A   1       2.302  -0.405   0.021  1.00  0.00    +0.000 H 
ENDBRANCH    2    1
ENDBRANCH    3    2
ENDBRANCH    7    6
BRANCH   88   89
ATOM     97  C71 UNL A   1       0.091  -6.550   0.613  1.00  0.00    +0.000 C 
ATOM    139  H40 UNL A   1      -1.582  -8.124   3.057  1.00  0.00    +0.000 H 
ATOM    140  H41 UNL A   1      -3.275  -8.254   1.329  1.00  0.00    +0.000 H 
ATOM    144  H45 UNL A   1      -0.682  -6.276  -1.330  1.00  0.00    +0.000 H 
ATOM    145  H46 UNL A   1       0.993  -6.085   0.422  1.00  0.00    +0.000 H 
ATOM     89  C64 UNL A   1      -0.175  -7.087   1.870  1.00  0.00    +0.000 C 
ATOM     90  C65 UNL A   1      -1.399  -7.716   2.127  1.00  0.00    +0.000 C 
ATOM     91  C66 UNL A   1      -2.373  -7.795   1.131  1.00  0.00    +0.000 C 
ATOM     92  C67 UNL A   1      -2.128  -7.252  -0.133  1.00  0.00    +0.000 C 
ATOM     96  C70 UNL A   1      -0.882  -6.650  -0.389  1.00  0.00    +0.000 C 
BRANCH   92   93
ATOM     93  C68 UNL A   1      -3.144  -7.265  -1.230  1.00  0.00    +0.000 C 
ATOM     95  O4  UNL A   1      -2.811  -6.902  -2.358  1.00  0.00    +0.000 O 
BRANCH   93   94
ATOM    143  H44 UNL A   1      -5.230  -6.878  -1.184  1.00  0.00    +0.000 H 
ATOM    141  H42 UNL A   1      -4.673  -7.971   0.060  1.00  0.00    +0.000 H 
ATOM     94  C69 UNL A   1      -4.569  -7.691  -0.967  1.00  0.00    +0.000 C 
ATOM    142  H43 UNL A   1      -4.812  -8.526  -1.591  1.00  0.00    +0.000 H 
ENDBRANCH   93   94
ENDBRANCH   92   93
ENDBRANCH   88   89
ENDBRANCH   11   10
ENDBRANCH   12   11
ENDBRANCH   13   12
ENDBRANCH   15   13
ENDBRANCH   16   15
ENDBRANCH   17   16
ENDBRANCH   18   17
ENDBRANCH   19   18
ENDBRANCH   20   19
ENDBRANCH   21   20
ENDBRANCH   22   21
ENDBRANCH   23   22
ENDBRANCH   25   23
ENDBRANCH   29   28
BRANCH   33   34
ATOM     34  C28 UNL A   1      -1.720   3.350   2.757  1.00  0.00    +0.000 C 
ATOM     35  C29 UNL A   1      -2.393   4.412   2.108  1.00  0.00    +0.000 C 
ATOM     36  F1  UNL A   1      -2.061   5.688   2.361  1.00  0.00    +0.000 F 
ATOM     37  C30 UNL A   1      -3.475   4.193   1.255  1.00  0.00    +0.000 C 
ATOM     38  F2  UNL A   1      -4.175   5.234   0.783  1.00  0.00    +0.000 F 
ATOM     39  C31 UNL A   1      -3.867   2.904   0.952  1.00  0.00    +0.000 C 
ATOM     40  F3  UNL A   1      -4.942   2.689   0.181  1.00  0.00    +0.000 F 
ATOM     41  C32 UNL A   1      -3.164   1.837   1.484  1.00  0.00    +0.000 C 
ATOM     42  F4  UNL A   1      -3.541   0.583   1.194  1.00  0.00    +0.000 F 
ATOM     43  C33 UNL A   1      -2.123   2.053   2.392  1.00  0.00    +0.000 C 
ATOM     44  F5  UNL A   1      -1.607   0.973   2.992  1.00  0.00    +0.000 F 
ENDBRANCH   33   34
BRANCH   50   51
ATOM     51  C39 UNL A   1      -3.481   2.864   8.299  1.00  0.00    +0.000 C 
ATOM     52  C40 UNL A   1      -4.663   2.618   8.997  1.00  0.00    +0.000 C 
ATOM     53  F6  UNL A   1      -5.422   3.641   9.415  1.00  0.00    +0.000 F 
ATOM     54  C41 UNL A   1      -5.075   1.310   9.271  1.00  0.00    +0.000 C 
ATOM     55  F7  UNL A   1      -6.215   1.097   9.940  1.00  0.00    +0.000 F 
ATOM     56  C42 UNL A   1      -4.318   0.222   8.852  1.00  0.00    +0.000 C 
ATOM     57  F8  UNL A   1      -4.727  -1.030   9.102  1.00  0.00    +0.000 F 
ATOM     58  C43 UNL A   1      -3.143   0.436   8.164  1.00  0.00    +0.000 C 
ATOM     59  F9  UNL A   1      -2.408  -0.599   7.729  1.00  0.00    +0.000 F 
ATOM     60  C44 UNL A   1      -2.729   1.737   7.907  1.00  0.00    +0.000 C 
ATOM     61  F10 UNL A   1      -1.587   1.890   7.235  1.00  0.00    +0.000 F 
ENDBRANCH   50   51
BRANCH   65   66
ATOM     66  C48 UNL A   1       0.070   4.107  13.060  1.00  0.00    +0.000 C 
ATOM     67  C49 UNL A   1       0.695   3.415  14.106  1.00  0.00    +0.000 C 
ATOM     68  F11 UNL A   1       1.177   2.181  13.930  1.00  0.00    +0.000 F 
ATOM     69  C50 UNL A   1       0.819   3.961  15.397  1.00  0.00    +0.000 C 
ATOM     70  F12 UNL A   1       1.460   3.270  16.351  1.00  0.00    +0.000 F 
ATOM     71  C51 UNL A   1       0.293   5.204  15.701  1.00  0.00    +0.000 C 
ATOM     72  F13 UNL A   1       0.441   5.732  16.923  1.00  0.00    +0.000 F 
ATOM     73  C52 UNL A   1      -0.398   5.886  14.728  1.00  0.00    +0.000 C 
ATOM     74  F14 UNL A   1      -0.941   7.082  14.999  1.00  0.00    +0.000 F 
ATOM     75  C53 UNL A   1      -0.522   5.342  13.448  1.00  0.00    +0.000 C 
ATOM     76  F15 UNL A   1      -1.241   6.075  12.587  1.00  0.00    +0.000 F 
ENDBRANCH   65   66
TORSDOF 23