ROOT
ATOM    129  H34 UNL A   1       7.366  19.535  -0.638  1.00  0.00    +0.000 H 
ATOM    130  H35 UNL A   1       4.389  21.096   1.808  1.00  0.00    +0.000 H 
ATOM    131  H36 UNL A   1       6.089  25.571   3.334  1.00  0.00    +0.000 H 
ATOM    132  H37 UNL A   1       3.901  25.804   4.642  1.00  0.00    +0.000 H 
ATOM    133  H38 UNL A   1       0.648  17.020   0.973  1.00  0.00    +0.000 H 
ATOM    134  H39 UNL A   1       2.926  16.644  -0.138  1.00  0.00    +0.000 H 
ATOM     37  C29 UNL A   1       4.755  18.806   0.232  1.00  0.00    +0.000 C 
ATOM     38  C30 UNL A   1       3.369  18.664   0.790  1.00  0.00    +0.000 C 
ATOM     39  N3  UNL A   1       2.707  19.487   1.565  1.00  0.00    +0.000 N 
ATOM     40  C31 UNL A   1       1.466  18.902   1.774  1.00  0.00    +0.000 C 
ATOM     41  C32 UNL A   1       0.436  19.362   2.524  1.00  0.00    +0.000 C 
ATOM     53  C39 UNL A   1       0.464  20.588   3.280  1.00  0.00    +0.000 C 
ATOM     54  C40 UNL A   1      -0.506  21.103   4.124  1.00  0.00    +0.000 C 
ATOM     55  C41 UNL A   1      -0.065  22.344   4.595  1.00  0.00    +0.000 C 
ATOM     56  C42 UNL A   1       1.198  22.583   4.080  1.00  0.00    +0.000 C 
ATOM     57  N4  UNL A   1       1.512  21.496   3.278  1.00  0.00    +0.000 N 
ATOM     58  C43 UNL A   1       2.053  23.721   4.297  1.00  0.00    +0.000 C 
ATOM     70  C50 UNL A   1       3.308  23.857   3.804  1.00  0.00    +0.000 C 
ATOM     71  N5  UNL A   1       4.026  22.987   2.998  1.00  0.00    +0.000 N 
ATOM     72  C51 UNL A   1       5.171  23.579   2.763  1.00  0.00    +0.000 C 
ATOM     73  C52 UNL A   1       6.338  23.093   1.952  1.00  0.00    +0.000 C 
ATOM     85  C59 UNL A   1       6.256  21.896   1.345  1.00  0.00    +0.000 C 
ATOM     86  C60 UNL A   1       7.301  21.301   0.521  1.00  0.00    +0.000 C 
ATOM     87  C61 UNL A   1       6.847  20.148   0.011  1.00  0.00    +0.000 C 
ATOM     88  C62 UNL A   1       5.497  19.893   0.521  1.00  0.00    +0.000 C 
ATOM     89  N6  UNL A   1       5.232  20.981   1.312  1.00  0.00    +0.000 N 
ATOM     90  C63 UNL A   1       5.306  24.901   3.388  1.00  0.00    +0.000 C 
ATOM     91  C64 UNL A   1       4.158  25.006   4.041  1.00  0.00    +0.000 C 
ATOM     92  C65 UNL A   1       1.456  17.659   1.030  1.00  0.00    +0.000 C 
ATOM     93  C66 UNL A   1       2.622  17.449   0.431  1.00  0.00    +0.000 C 
ATOM    125  H30 UNL A   1      -1.401  20.648   4.365  1.00  0.00    +0.000 H 
ATOM    126  H31 UNL A   1      -0.592  22.975   5.219  1.00  0.00    +0.000 H 
ATOM    127  H32 UNL A   1       2.355  21.385   2.781  1.00  0.00    +0.000 H 
ATOM    128  H33 UNL A   1       8.237  21.703   0.356  1.00  0.00    +0.000 H 
ENDROOT
BRANCH   37   36
ATOM     33  C25 UNL A   1       6.648  15.922  -2.307  1.00  0.00    +0.000 C 
ATOM     34  C26 UNL A   1       7.154  16.185  -1.032  1.00  0.00    +0.000 C 
ATOM     35  C27 UNL A   1       6.477  17.053  -0.181  1.00  0.00    +0.000 C 
ATOM     36  C28 UNL A   1       5.353  17.762  -0.637  1.00  0.00    +0.000 C 
ATOM    135  H40 UNL A   1       4.075  18.074  -2.294  1.00  0.00    +0.000 H 
ATOM    136  H41 UNL A   1       5.164  16.437  -3.721  1.00  0.00    +0.000 H 
ATOM    123  H28 UNL A   1       8.030  15.736  -0.721  1.00  0.00    +0.000 H 
ATOM    124  H29 UNL A   1       6.802  17.176   0.790  1.00  0.00    +0.000 H 
ATOM     94  C67 UNL A   1       4.888  17.545  -1.942  1.00  0.00    +0.000 C 
ATOM     95  C68 UNL A   1       5.524  16.613  -2.770  1.00  0.00    +0.000 C 
BRANCH   33    2
ATOM      1  O1  UNL A   1       7.456  15.206  -4.388  1.00  0.00    +0.000 O 
ATOM      2  C1  UNL A   1       7.310  14.943  -3.202  1.00  0.00    +0.000 C 
BRANCH    2    3
ATOM      3  N1  UNL A   1       7.744  13.739  -2.699  1.00  0.00    +0.000 N 
ATOM     96  H1  UNL A   1       8.309  13.206  -3.303  1.00  0.00    +0.000 H 
BRANCH    3    4
ATOM     97  H2  UNL A   1       6.812  13.780  -0.861  1.00  0.00    +0.000 H 
ATOM     98  H3  UNL A   1       8.422  13.046  -0.894  1.00  0.00    +0.000 H 
ATOM      4  C2  UNL A   1       7.484  13.145  -1.399  1.00  0.00    +0.000 C 
BRANCH    4    5
ATOM     99  H4  UNL A   1       6.027  11.819  -2.164  1.00  0.00    +0.000 H 
ATOM    100  H5  UNL A   1       6.607  11.473  -0.506  1.00  0.00    +0.000 H 
ATOM      5  C3  UNL A   1       6.867  11.759  -1.504  1.00  0.00    +0.000 C 
BRANCH    5    6
ATOM    102  H7  UNL A   1       7.257   9.754  -1.935  1.00  0.00    +0.000 H 
ATOM    101  H6  UNL A   1       8.071  10.923  -3.031  1.00  0.00    +0.000 H 
ATOM      6  C4  UNL A   1       7.803  10.669  -2.027  1.00  0.00    +0.000 C 
BRANCH    6    7
ATOM    103  H8  UNL A   1       9.723  11.309  -1.401  1.00  0.00    +0.000 H 
ATOM      7  C5  UNL A   1       9.098  10.456  -1.236  1.00  0.00    +0.000 C 
ATOM    104  H9  UNL A   1       9.499   9.532  -1.597  1.00  0.00    +0.000 H 
BRANCH    7    8
ATOM    105  H10 UNL A   1       8.683  11.215   0.702  1.00  0.00    +0.000 H 
ATOM    106  H11 UNL A   1       9.903   9.900   0.616  1.00  0.00    +0.000 H 
ATOM      8  C6  UNL A   1       8.957  10.270   0.281  1.00  0.00    +0.000 C 
BRANCH    8    9
ATOM      9  C7  UNL A   1       7.925   9.239   0.733  1.00  0.00    +0.000 C 
ATOM    107  H12 UNL A   1       6.954   9.574   0.434  1.00  0.00    +0.000 H 
ATOM    108  H13 UNL A   1       8.007   9.151   1.797  1.00  0.00    +0.000 H 
BRANCH    9   10
ATOM     10  N2  UNL A   1       8.154   7.928   0.172  1.00  0.00    +0.000 N 
ATOM    109  H14 UNL A   1       8.031   7.851  -0.802  1.00  0.00    +0.000 H 
BRANCH   10   11
ATOM     11  C8  UNL A   1       8.519   6.782   0.815  1.00  0.00    +0.000 C 
ATOM     12  O2  UNL A   1       8.494   5.735   0.165  1.00  0.00    +0.000 O 
BRANCH   11   13
ATOM     13  C9  UNL A   1       8.915   6.841   2.308  1.00  0.00    +0.000 C 
ATOM     14  C10 UNL A   1       9.399   5.494   2.829  1.00  0.00    +0.000 C 
ATOM    110  H15 UNL A   1       8.023   7.119   2.831  1.00  0.00    +0.000 H 
ATOM    111  H16 UNL A   1       9.530   4.809   2.018  1.00  0.00    +0.000 H 
ATOM     15  C11 UNL A   1      10.737   5.755   3.523  1.00  0.00    +0.000 C 
ATOM    112  H17 UNL A   1       8.690   5.061   3.503  1.00  0.00    +0.000 H 
ATOM    118  H23 UNL A   1      11.632   7.607   3.834  1.00  0.00    +0.000 H 
ATOM     24  C18 UNL A   1      11.136   7.162   2.997  1.00  0.00    +0.000 C 
ATOM     32  O4  UNL A   1       9.931   7.814   2.552  1.00  0.00    +0.000 O 
BRANCH   15   16
ATOM    113  H18 UNL A   1      11.826   4.910   2.087  1.00  0.00    +0.000 H 
ATOM     16  O3  UNL A   1      11.684   4.779   3.038  1.00  0.00    +0.000 O 
ENDBRANCH   15   16
BRANCH   15   17
ATOM     17  C12 UNL A   1      10.588   5.458   5.030  1.00  0.00    +0.000 C 
ATOM     18  C13 UNL A   1      10.454   4.079   5.366  1.00  0.00    +0.000 C 
ATOM     19  C14 UNL A   1      10.354   3.622   6.681  1.00  0.00    +0.000 C 
ATOM    114  H19 UNL A   1      10.429   3.386   4.601  1.00  0.00    +0.000 H 
ATOM     21  C16 UNL A   1      10.492   5.888   7.438  1.00  0.00    +0.000 C 
ATOM     22  C17 UNL A   1      10.549   6.358   6.111  1.00  0.00    +0.000 C 
ATOM     23 Cl1  UNL A   1      10.472   8.077   5.978  1.00  0.00    +0.000 Cl
ATOM    115  H20 UNL A   1      10.248   2.614   6.874  1.00  0.00    +0.000 H 
ATOM     20  C15 UNL A   1      10.400   4.529   7.724  1.00  0.00    +0.000 C 
ATOM    117  H22 UNL A   1      10.518   6.566   8.215  1.00  0.00    +0.000 H 
ATOM    116  H21 UNL A   1      10.366   4.203   8.703  1.00  0.00    +0.000 H 
ENDBRANCH   15   17
BRANCH   24   25
ATOM    122  H27 UNL A   1      15.134   8.734   1.140  1.00  0.00    +0.000 H 
ATOM    121  H26 UNL A   1      14.633   7.827  -1.052  1.00  0.00    +0.000 H 
ATOM    119  H24 UNL A   1      11.095   6.156   0.463  1.00  0.00    +0.000 H 
ATOM    120  H25 UNL A   1      12.623   6.512  -1.374  1.00  0.00    +0.000 H 
ATOM     25  C19 UNL A   1      12.176   7.286   1.883  1.00  0.00    +0.000 C 
ATOM     26  C20 UNL A   1      11.942   6.726   0.614  1.00  0.00    +0.000 C 
ATOM     27  C21 UNL A   1      12.829   6.922  -0.449  1.00  0.00    +0.000 C 
ATOM     28  C22 UNL A   1      13.986   7.667  -0.264  1.00  0.00    +0.000 C 
ATOM     29  C23 UNL A   1      14.266   8.197   0.992  1.00  0.00    +0.000 C 
ATOM     30  C24 UNL A   1      13.376   8.006   2.058  1.00  0.00    +0.000 C 
ATOM     31 Cl2  UNL A   1      13.853   8.686   3.578  1.00  0.00    +0.000 Cl
ENDBRANCH   24   25
ENDBRANCH   11   13
ENDBRANCH   10   11
ENDBRANCH    9   10
ENDBRANCH    8    9
ENDBRANCH    7    8
ENDBRANCH    6    7
ENDBRANCH    5    6
ENDBRANCH    4    5
ENDBRANCH    3    4
ENDBRANCH    2    3
ENDBRANCH   33    2
ENDBRANCH   37   36
BRANCH   41   42
ATOM     42  C33 UNL A   1      -0.825  18.550   2.569  1.00  0.00    +0.000 C 
ATOM     43  C34 UNL A   1      -0.912  17.367   3.316  1.00  0.00    +0.000 C 
ATOM     44  F1  UNL A   1       0.174  16.877   3.933  1.00  0.00    +0.000 F 
ATOM     45  C35 UNL A   1      -2.116  16.676   3.425  1.00  0.00    +0.000 C 
ATOM     46  F2  UNL A   1      -2.173  15.537   4.130  1.00  0.00    +0.000 F 
ATOM     47  C36 UNL A   1      -3.259  17.165   2.808  1.00  0.00    +0.000 C 
ATOM     48  F3  UNL A   1      -4.422  16.509   2.931  1.00  0.00    +0.000 F 
ATOM     49  C37 UNL A   1      -3.196  18.334   2.066  1.00  0.00    +0.000 C 
ATOM     50  F4  UNL A   1      -4.302  18.815   1.480  1.00  0.00    +0.000 F 
ATOM     51  C38 UNL A   1      -1.989  19.015   1.938  1.00  0.00    +0.000 C 
ATOM     52  F5  UNL A   1      -1.960  20.147   1.217  1.00  0.00    +0.000 F 
ENDBRANCH   41   42
BRANCH   58   59
ATOM     65  F8  UNL A   1       0.088  27.924   7.515  1.00  0.00    +0.000 F 
ATOM     66  C48 UNL A   1       0.889  25.710   7.322  1.00  0.00    +0.000 C 
ATOM     67  F9  UNL A   1       0.744  25.529   8.642  1.00  0.00    +0.000 F 
ATOM     68  C49 UNL A   1       1.390  24.680   6.531  1.00  0.00    +0.000 C 
ATOM     69  F10 UNL A   1       1.729  23.521   7.116  1.00  0.00    +0.000 F 
ATOM     59  C44 UNL A   1       1.534  24.841   5.146  1.00  0.00    +0.000 C 
ATOM     60  C45 UNL A   1       1.161  26.071   4.582  1.00  0.00    +0.000 C 
ATOM     61  F6  UNL A   1       1.300  26.279   3.264  1.00  0.00    +0.000 F 
ATOM     62  C46 UNL A   1       0.688  27.108   5.380  1.00  0.00    +0.000 C 
ATOM     63  F7  UNL A   1       0.385  28.291   4.828  1.00  0.00    +0.000 F 
ATOM     64  C47 UNL A   1       0.546  26.925   6.748  1.00  0.00    +0.000 C 
ENDBRANCH   58   59
BRANCH   73   74
ATOM     74  C53 UNL A   1       7.562  23.920   1.797  1.00  0.00    +0.000 C 
ATOM     75  C54 UNL A   1       8.418  24.155   2.880  1.00  0.00    +0.000 C 
ATOM     76  F11 UNL A   1       8.128  23.645   4.086  1.00  0.00    +0.000 F 
ATOM     77  C55 UNL A   1       9.555  24.949   2.737  1.00  0.00    +0.000 C 
ATOM     78  F12 UNL A   1      10.332  25.197   3.800  1.00  0.00    +0.000 F 
ATOM     79  C56 UNL A   1       9.873  25.495   1.503  1.00  0.00    +0.000 C 
ATOM     80  F13 UNL A   1      10.968  26.255   1.366  1.00  0.00    +0.000 F 
ATOM     81  C57 UNL A   1       9.050  25.259   0.412  1.00  0.00    +0.000 C 
ATOM     82  F14 UNL A   1       9.362  25.771  -0.786  1.00  0.00    +0.000 F 
ATOM     83  C58 UNL A   1       7.898  24.492   0.561  1.00  0.00    +0.000 C 
ATOM     84  F15 UNL A   1       7.112  24.292  -0.508  1.00  0.00    +0.000 F 
ENDBRANCH   73   74
TORSDOF 18