ROOT
ATOM    129  H36 UNL A   1      -4.835  -3.377  -8.846  1.00  0.00    +0.000 H 
ATOM    130  H37 UNL A   1      -2.426  -4.226  -9.017  1.00  0.00    +0.000 H 
ATOM     29  C25 UNL A   1      -2.092  -6.913  -8.133  1.00  0.00    +0.000 C 
ATOM     30  C26 UNL A   1      -3.377  -6.147  -8.278  1.00  0.00    +0.000 C 
ATOM     31  N3  UNL A   1      -4.605  -6.535  -8.040  1.00  0.00    +0.000 N 
ATOM     32  C27 UNL A   1      -5.407  -5.431  -8.296  1.00  0.00    +0.000 C 
ATOM     33  C28 UNL A   1      -6.757  -5.338  -8.251  1.00  0.00    +0.000 C 
ATOM     45  C35 UNL A   1      -7.635  -6.428  -7.913  1.00  0.00    +0.000 C 
ATOM     46  C36 UNL A   1      -9.019  -6.446  -7.884  1.00  0.00    +0.000 C 
ATOM     47  C37 UNL A   1      -9.431  -7.717  -7.467  1.00  0.00    +0.000 C 
ATOM     48  C38 UNL A   1      -8.306  -8.502  -7.276  1.00  0.00    +0.000 C 
ATOM     49  N4  UNL A   1      -7.210  -7.696  -7.546  1.00  0.00    +0.000 N 
ATOM     50  C39 UNL A   1      -8.233  -9.883  -6.876  1.00  0.00    +0.000 C 
ATOM     62  C46 UNL A   1      -7.086 -10.585  -6.709  1.00  0.00    +0.000 C 
ATOM     63  N5  UNL A   1      -5.774 -10.168  -6.886  1.00  0.00    +0.000 N 
ATOM     64  C47 UNL A   1      -5.024 -11.203  -6.594  1.00  0.00    +0.000 C 
ATOM     65  C48 UNL A   1      -3.527 -11.334  -6.639  1.00  0.00    +0.000 C 
ATOM     77  C55 UNL A   1      -2.785 -10.284  -7.041  1.00  0.00    +0.000 C 
ATOM     78  C56 UNL A   1      -1.329 -10.263  -7.138  1.00  0.00    +0.000 C 
ATOM     79  C57 UNL A   1      -0.934  -9.040  -7.527  1.00  0.00    +0.000 C 
ATOM     80  C58 UNL A   1      -2.114  -8.201  -7.739  1.00  0.00    +0.000 C 
ATOM     81  N6  UNL A   1      -3.168  -9.025  -7.435  1.00  0.00    +0.000 N 
ATOM     82  C59 UNL A   1      -5.780 -12.389  -6.167  1.00  0.00    +0.000 C 
ATOM     83  C60 UNL A   1      -7.031 -11.971  -6.293  1.00  0.00    +0.000 C 
ATOM     84  C61 UNL A   1      -4.524  -4.343  -8.661  1.00  0.00    +0.000 C 
ATOM     85  C62 UNL A   1      -3.265  -4.751  -8.726  1.00  0.00    +0.000 C 
ATOM    121  H28 UNL A   1      -9.639  -5.659  -8.128  1.00  0.00    +0.000 H 
ATOM    122  H29 UNL A   1     -10.408  -8.018  -7.326  1.00  0.00    +0.000 H 
ATOM    123  H30 UNL A   1      -6.270  -7.982  -7.487  1.00  0.00    +0.000 H 
ATOM    124  H31 UNL A   1      -0.704 -11.060  -6.941  1.00  0.00    +0.000 H 
ATOM    125  H32 UNL A   1       0.045  -8.740  -7.656  1.00  0.00    +0.000 H 
ATOM    126  H33 UNL A   1      -4.109  -8.742  -7.493  1.00  0.00    +0.000 H 
ATOM    127  H34 UNL A   1      -5.428 -13.307  -5.852  1.00  0.00    +0.000 H 
ATOM    128  H35 UNL A   1      -7.861 -12.559  -6.118  1.00  0.00    +0.000 H 
ENDROOT
BRANCH   29   28
ATOM    131  H38 UNL A   1      -0.985  -4.939  -6.701  1.00  0.00    +0.000 H 
ATOM    132  H39 UNL A   1       1.085  -3.747  -7.108  1.00  0.00    +0.000 H 
ATOM    120  H27 UNL A   1      -0.265  -7.326 -10.097  1.00  0.00    +0.000 H 
ATOM     86  C63 UNL A   1      -0.385  -5.208  -7.496  1.00  0.00    +0.000 C 
ATOM     87  C64 UNL A   1       0.825  -4.547  -7.704  1.00  0.00    +0.000 C 
ATOM    119  H26 UNL A   1       1.899  -6.263 -10.380  1.00  0.00    +0.000 H 
ATOM     25  C21 UNL A   1       1.685  -4.970  -8.722  1.00  0.00    +0.000 C 
ATOM     26  C22 UNL A   1       1.281  -5.978  -9.604  1.00  0.00    +0.000 C 
ATOM     27  C23 UNL A   1       0.041  -6.598  -9.432  1.00  0.00    +0.000 C 
ATOM     28  C24 UNL A   1      -0.790  -6.236  -8.360  1.00  0.00    +0.000 C 
BRANCH   25   23
ATOM     23  C20 UNL A   1       3.005  -4.330  -8.925  1.00  0.00    +0.000 C 
ATOM     24  O2  UNL A   1       3.396  -4.093 -10.062  1.00  0.00    +0.000 O 
BRANCH   23   22
ATOM    118  H25 UNL A   1       4.506  -3.349  -8.032  1.00  0.00    +0.000 H 
ATOM     22  N2  UNL A   1       3.790  -4.000  -7.847  1.00  0.00    +0.000 N 
BRANCH   22   21
ATOM    117  H24 UNL A   1       2.864  -5.109  -6.387  1.00  0.00    +0.000 H 
ATOM    116  H23 UNL A   1       3.639  -3.626  -5.822  1.00  0.00    +0.000 H 
ATOM     21  C19 UNL A   1       3.719  -4.471  -6.473  1.00  0.00    +0.000 C 
BRANCH   21   20
ATOM    114  H21 UNL A   1       4.795  -5.668  -5.095  1.00  0.00    +0.000 H 
ATOM    115  H22 UNL A   1       5.059  -6.045  -6.823  1.00  0.00    +0.000 H 
ATOM     20  C18 UNL A   1       4.952  -5.282  -6.080  1.00  0.00    +0.000 C 
BRANCH   20   19
ATOM    113  H20 UNL A   1       6.377  -4.109  -7.071  1.00  0.00    +0.000 H 
ATOM     19  C17 UNL A   1       6.268  -4.496  -6.079  1.00  0.00    +0.000 C 
ATOM    112  H19 UNL A   1       7.050  -5.165  -5.786  1.00  0.00    +0.000 H 
BRANCH   19   18
ATOM     18  C16 UNL A   1       6.315  -3.277  -5.148  1.00  0.00    +0.000 C 
ATOM    110  H17 UNL A   1       7.307  -2.877  -5.178  1.00  0.00    +0.000 H 
ATOM    111  H18 UNL A   1       5.568  -2.601  -5.508  1.00  0.00    +0.000 H 
BRANCH   18   17
ATOM     17  C15 UNL A   1       5.962  -3.557  -3.683  1.00  0.00    +0.000 C 
ATOM    108  H15 UNL A   1       5.951  -2.626  -3.156  1.00  0.00    +0.000 H 
ATOM    109  H16 UNL A   1       5.009  -4.043  -3.682  1.00  0.00    +0.000 H 
BRANCH   17   16
ATOM    106  H13 UNL A   1       6.419  -5.017  -2.199  1.00  0.00    +0.000 H 
ATOM    107  H14 UNL A   1       7.328  -5.179  -3.704  1.00  0.00    +0.000 H 
ATOM     16  C14 UNL A   1       6.940  -4.498  -2.976  1.00  0.00    +0.000 C 
BRANCH   16   15
ATOM    105  H12 UNL A   1       8.793  -3.600  -3.020  1.00  0.00    +0.000 H 
ATOM     15  N1  UNL A   1       8.057  -3.784  -2.393  1.00  0.00    +0.000 N 
BRANCH   15   13
ATOM     13  C13 UNL A   1       8.267  -3.321  -1.129  1.00  0.00    +0.000 C 
ATOM     14  O1  UNL A   1       9.229  -2.557  -0.977  1.00  0.00    +0.000 O 
BRANCH   13   11
ATOM     11  C11 UNL A   1       7.404  -3.714   0.079  1.00  0.00    +0.000 C 
ATOM    101  H8  UNL A   1       7.936  -3.364   0.939  1.00  0.00    +0.000 H 
BRANCH   11   10
ATOM     99  H6  UNL A   1       2.900  -3.051  -0.893  1.00  0.00    +0.000 H 
ATOM    100  H7  UNL A   1       4.905  -4.382  -0.861  1.00  0.00    +0.000 H 
ATOM    133  H40 UNL A   1       6.881  -1.335   1.233  1.00  0.00    +0.000 H 
ATOM    134  H41 UNL A   1       4.823  -0.074   1.346  1.00  0.00    +0.000 H 
ATOM      7  C7  UNL A   1       3.668  -1.439   0.226  1.00  0.00    +0.000 C 
ATOM      8  C8  UNL A   1       3.739  -2.686  -0.415  1.00  0.00    +0.000 C 
ATOM      9  C9  UNL A   1       4.910  -3.447  -0.424  1.00  0.00    +0.000 C 
ATOM     10  C10 UNL A   1       6.085  -2.962   0.150  1.00  0.00    +0.000 C 
ATOM     88  C65 UNL A   1       6.030  -1.715   0.791  1.00  0.00    +0.000 C 
ATOM     89  C66 UNL A   1       4.838  -0.976   0.844  1.00  0.00    +0.000 C 
BRANCH    7    6
ATOM     97  H4  UNL A   1      -1.765  -2.012   0.267  1.00  0.00    +0.000 H 
ATOM      2  C2  UNL A   1      -2.185   0.091   0.065  1.00  0.00    +0.000 C 
ATOM      3  C3  UNL A   1      -1.414  -1.044   0.194  1.00  0.00    +0.000 C 
ATOM      4  C4  UNL A   1      -0.052  -0.646   0.209  1.00  0.00    +0.000 C 
ATOM      5  C5  UNL A   1       1.165  -1.346   0.301  1.00  0.00    +0.000 C 
ATOM     98  H5  UNL A   1       1.153  -2.371   0.423  1.00  0.00    +0.000 H 
ATOM      6  C6  UNL A   1       2.402  -0.671   0.230  1.00  0.00    +0.000 C 
ATOM    136  H43 UNL A   1       1.181   2.489  -0.002  1.00  0.00    +0.000 H 
ATOM    137  H44 UNL A   1      -1.609   2.106  -0.052  1.00  0.00    +0.000 H 
ATOM    135  H42 UNL A   1       3.273   1.242   0.085  1.00  0.00    +0.000 H 
ATOM     90  C67 UNL A   1       2.377   0.730   0.122  1.00  0.00    +0.000 C 
ATOM     91  C68 UNL A   1       1.178   1.459   0.062  1.00  0.00    +0.000 C 
ATOM     92  C69 UNL A   1      -0.020   0.739   0.092  1.00  0.00    +0.000 C 
ATOM     93  N7  UNL A   1      -1.327   1.165   0.021  1.00  0.00    +0.000 N 
BRANCH    2    1
ATOM      1  C1  UNL A   1      -3.656   0.252  -0.018  1.00  0.00    +0.000 C 
ATOM     94  H1  UNL A   1      -4.124  -0.709   0.036  1.00  0.00    +0.000 H 
ATOM     95  H2  UNL A   1      -3.912   0.722  -0.944  1.00  0.00    +0.000 H 
ATOM     96  H3  UNL A   1      -3.995   0.859   0.795  1.00  0.00    +0.000 H 
ENDBRANCH    2    1
ENDBRANCH    7    6
ENDBRANCH   11   10
BRANCH   11   12
ATOM     12  C12 UNL A   1       7.329  -5.221   0.332  1.00  0.00    +0.000 C 
ATOM    102  H9  UNL A   1       6.809  -5.693  -0.475  1.00  0.00    +0.000 H 
ATOM    103  H10 UNL A   1       6.806  -5.404   1.248  1.00  0.00    +0.000 H 
ATOM    104  H11 UNL A   1       8.319  -5.622   0.401  1.00  0.00    +0.000 H 
ENDBRANCH   11   12
ENDBRANCH   13   11
ENDBRANCH   15   13
ENDBRANCH   16   15
ENDBRANCH   17   16
ENDBRANCH   18   17
ENDBRANCH   19   18
ENDBRANCH   20   19
ENDBRANCH   21   20
ENDBRANCH   22   21
ENDBRANCH   23   22
ENDBRANCH   25   23
ENDBRANCH   29   28
BRANCH   33   34
ATOM     34  C29 UNL A   1      -7.371  -4.009  -8.584  1.00  0.00    +0.000 C 
ATOM     35  C30 UNL A   1      -7.375  -3.513  -9.896  1.00  0.00    +0.000 C 
ATOM     36  F1  UNL A   1      -6.785  -4.205 -10.881  1.00  0.00    +0.000 F 
ATOM     37  C31 UNL A   1      -7.954  -2.282 -10.194  1.00  0.00    +0.000 C 
ATOM     38  F2  UNL A   1      -7.905  -1.806 -11.446  1.00  0.00    +0.000 F 
ATOM     39  C32 UNL A   1      -8.568  -1.541  -9.196  1.00  0.00    +0.000 C 
ATOM     40  F3  UNL A   1      -9.129  -0.359  -9.485  1.00  0.00    +0.000 F 
ATOM     41  C33 UNL A   1      -8.594  -2.022  -7.895  1.00  0.00    +0.000 C 
ATOM     42  F4  UNL A   1      -9.197  -1.313  -6.932  1.00  0.00    +0.000 F 
ATOM     43  C34 UNL A   1      -7.992  -3.240  -7.588  1.00  0.00    +0.000 C 
ATOM     44  F5  UNL A   1      -8.021  -3.672  -6.319  1.00  0.00    +0.000 F 
ENDBRANCH   33   34
BRANCH   50   51
ATOM     51  C40 UNL A   1      -9.523 -10.612  -6.646  1.00  0.00    +0.000 C 
ATOM     52  C41 UNL A   1      -9.959 -10.945  -5.355  1.00  0.00    +0.000 C 
ATOM     53  F6  UNL A   1      -9.194 -10.660  -4.290  1.00  0.00    +0.000 F 
ATOM     54  C42 UNL A   1     -11.167 -11.609  -5.159  1.00  0.00    +0.000 C 
ATOM     55  F7  UNL A   1     -11.544 -11.957  -3.921  1.00  0.00    +0.000 F 
ATOM     56  C43 UNL A   1     -11.974 -11.922  -6.242  1.00  0.00    +0.000 C 
ATOM     57  F8  UNL A   1     -13.139 -12.556  -6.050  1.00  0.00    +0.000 F 
ATOM     58  C44 UNL A   1     -11.570 -11.586  -7.526  1.00  0.00    +0.000 C 
ATOM     59  F9  UNL A   1     -12.354 -11.879  -8.573  1.00  0.00    +0.000 F 
ATOM     60  C45 UNL A   1     -10.351 -10.947  -7.728  1.00  0.00    +0.000 C 
ATOM     61  F10 UNL A   1      -9.980 -10.645  -8.982  1.00  0.00    +0.000 F 
ENDBRANCH   50   51
BRANCH   65   66
ATOM     66  C49 UNL A   1      -2.865 -12.614  -6.277  1.00  0.00    +0.000 C 
ATOM     67  C50 UNL A   1      -2.985 -13.740  -7.103  1.00  0.00    +0.000 C 
ATOM     68  F11 UNL A   1      -3.717 -13.672  -8.225  1.00  0.00    +0.000 F 
ATOM     69  C51 UNL A   1      -2.389 -14.951  -6.759  1.00  0.00    +0.000 C 
ATOM     70  F12 UNL A   1      -2.555 -16.024  -7.544  1.00  0.00    +0.000 F 
ATOM     71  C52 UNL A   1      -1.638 -15.051  -5.598  1.00  0.00    +0.000 C 
ATOM     72  F13 UNL A   1      -1.062 -16.216  -5.268  1.00  0.00    +0.000 F 
ATOM     73  C53 UNL A   1      -1.491 -13.945  -4.774  1.00  0.00    +0.000 C 
ATOM     74  F14 UNL A   1      -0.755 -14.035  -3.657  1.00  0.00    +0.000 F 
ATOM     75  C54 UNL A   1      -2.108 -12.740  -5.104  1.00  0.00    +0.000 C 
ATOM     76  F15 UNL A   1      -1.960 -11.690  -4.283  1.00  0.00    +0.000 F 
ENDBRANCH   65   66
TORSDOF 19