ROOT
ATOM     19  C15 UNL A   1      13.261   0.501   1.783  1.00  0.00    +0.000 C 
ATOM     20  C16 UNL A   1      13.793  -0.455   2.813  1.00  0.00    +0.000 C 
ATOM     21  N3  UNL A   1      14.492  -0.207   3.893  1.00  0.00    +0.000 N 
ATOM     22  C17 UNL A   1      14.675  -1.435   4.515  1.00  0.00    +0.000 C 
ATOM     23  C18 UNL A   1      15.383  -1.718   5.635  1.00  0.00    +0.000 C 
ATOM     35  C25 UNL A   1      16.112  -0.741   6.399  1.00  0.00    +0.000 C 
ATOM     36  C26 UNL A   1      16.923  -0.937   7.503  1.00  0.00    +0.000 C 
ATOM     37  C27 UNL A   1      17.387   0.311   7.933  1.00  0.00    +0.000 C 
ATOM     38  C28 UNL A   1      16.902   1.280   7.069  1.00  0.00    +0.000 C 
ATOM     39  N4  UNL A   1      16.119   0.621   6.135  1.00  0.00    +0.000 N 
ATOM     40  C29 UNL A   1      17.136   2.701   7.091  1.00  0.00    +0.000 C 
ATOM     52  C36 UNL A   1      16.622   3.589   6.204  1.00  0.00    +0.000 C 
ATOM     53  N5  UNL A   1      15.803   3.353   5.108  1.00  0.00    +0.000 N 
ATOM     54  C37 UNL A   1      15.572   4.526   4.572  1.00  0.00    +0.000 C 
ATOM     55  C38 UNL A   1      14.779   4.870   3.341  1.00  0.00    +0.000 C 
ATOM     67  C45 UNL A   1      14.191   3.882   2.640  1.00  0.00    +0.000 C 
ATOM     68  C46 UNL A   1      13.408   4.055   1.420  1.00  0.00    +0.000 C 
ATOM     69  C47 UNL A   1      12.975   2.855   1.003  1.00  0.00    +0.000 C 
ATOM     70  C48 UNL A   1      13.476   1.824   1.912  1.00  0.00    +0.000 C 
ATOM     71  N6  UNL A   1      14.172   2.527   2.863  1.00  0.00    +0.000 N 
ATOM     72  C49 UNL A   1      16.194   5.647   5.290  1.00  0.00    +0.000 C 
ATOM     73  C50 UNL A   1      16.856   5.017   6.250  1.00  0.00    +0.000 C 
ATOM     74  C51 UNL A   1      13.974  -2.420   3.721  1.00  0.00    +0.000 C 
ATOM     75  C52 UNL A   1      13.474  -1.879   2.621  1.00  0.00    +0.000 C 
ATOM    112  H21 UNL A   1      17.147  -1.847   7.936  1.00  0.00    +0.000 H 
ATOM    113  H22 UNL A   1      17.988   0.482   8.755  1.00  0.00    +0.000 H 
ATOM    114  H23 UNL A   1      15.637   1.055   5.394  1.00  0.00    +0.000 H 
ATOM    115  H24 UNL A   1      13.218   4.956   0.953  1.00  0.00    +0.000 H 
ATOM    116  H25 UNL A   1      12.383   2.686   0.174  1.00  0.00    +0.000 H 
ATOM    117  H26 UNL A   1      14.616   2.101   3.632  1.00  0.00    +0.000 H 
ATOM    118  H27 UNL A   1      16.131   6.659   5.098  1.00  0.00    +0.000 H 
ATOM    119  H28 UNL A   1      17.462   5.485   6.942  1.00  0.00    +0.000 H 
ATOM    120  H29 UNL A   1      13.877  -3.415   3.979  1.00  0.00    +0.000 H 
ATOM    121  H30 UNL A   1      12.988  -2.336   1.834  1.00  0.00    +0.000 H 
ENDROOT
BRANCH   19   18
ATOM     76  C53 UNL A   1      11.200  -0.595   0.895  1.00  0.00    +0.000 C 
ATOM     77  C54 UNL A   1      10.457  -1.132  -0.153  1.00  0.00    +0.000 C 
ATOM    110  H19 UNL A   1      12.492  -0.330  -2.698  1.00  0.00    +0.000 H 
ATOM     15  C11 UNL A   1      10.905  -0.993  -1.470  1.00  0.00    +0.000 C 
ATOM     16  C12 UNL A   1      12.149  -0.409  -1.728  1.00  0.00    +0.000 C 
ATOM     17  C13 UNL A   1      12.925   0.068  -0.670  1.00  0.00    +0.000 C 
ATOM    111  H20 UNL A   1      13.854   0.476  -0.859  1.00  0.00    +0.000 H 
ATOM     18  C14 UNL A   1      12.449  -0.005   0.648  1.00  0.00    +0.000 C 
ATOM    122  H31 UNL A   1      10.830  -0.630   1.858  1.00  0.00    +0.000 H 
ATOM    123  H32 UNL A   1       9.576  -1.633   0.042  1.00  0.00    +0.000 H 
BRANCH   15   13
ATOM     13  C10 UNL A   1      10.104  -1.491  -2.609  1.00  0.00    +0.000 C 
ATOM     14  O2  UNL A   1      10.661  -2.071  -3.538  1.00  0.00    +0.000 O 
BRANCH   13   12
ATOM     12  N2  UNL A   1       8.748  -1.296  -2.636  1.00  0.00    +0.000 N 
ATOM    109  H18 UNL A   1       8.260  -1.809  -3.321  1.00  0.00    +0.000 H 
BRANCH   12   11
ATOM     11  C9  UNL A   1       7.928  -0.439  -1.797  1.00  0.00    +0.000 C 
ATOM    108  H17 UNL A   1       8.582   0.188  -1.228  1.00  0.00    +0.000 H 
ATOM    107  H16 UNL A   1       7.326  -1.054  -1.161  1.00  0.00    +0.000 H 
BRANCH   11   10
ATOM    105  H14 UNL A   1       6.502   1.120  -1.946  1.00  0.00    +0.000 H 
ATOM     10  C8  UNL A   1       7.012   0.462  -2.618  1.00  0.00    +0.000 C 
ATOM    106  H15 UNL A   1       7.640   0.977  -3.315  1.00  0.00    +0.000 H 
BRANCH   10    9
ATOM      9  C7  UNL A   1       5.962  -0.279  -3.448  1.00  0.00    +0.000 C 
ATOM    103  H12 UNL A   1       5.367   0.449  -3.959  1.00  0.00    +0.000 H 
ATOM    104  H13 UNL A   1       6.504  -0.925  -4.107  1.00  0.00    +0.000 H 
BRANCH    9    8
ATOM    101  H10 UNL A   1       4.278  -1.565  -3.316  1.00  0.00    +0.000 H 
ATOM    102  H11 UNL A   1       5.635  -1.942  -2.211  1.00  0.00    +0.000 H 
ATOM      8  C6  UNL A   1       5.020  -1.182  -2.646  1.00  0.00    +0.000 C 
BRANCH    8    7
ATOM     99  H8  UNL A   1       3.637  -1.210  -1.028  1.00  0.00    +0.000 H 
ATOM    100  H9  UNL A   1       5.055  -0.154  -0.806  1.00  0.00    +0.000 H 
ATOM      7  C5  UNL A   1       4.297  -0.498  -1.478  1.00  0.00    +0.000 C 
BRANCH    7    6
ATOM     97  H6  UNL A   1       3.088   1.195  -1.003  1.00  0.00    +0.000 H 
ATOM     98  H7  UNL A   1       4.114   1.405  -2.414  1.00  0.00    +0.000 H 
ATOM      6  C4  UNL A   1       3.478   0.728  -1.883  1.00  0.00    +0.000 C 
BRANCH    6    5
ATOM      5  N1  UNL A   1       2.380   0.352  -2.746  1.00  0.00    +0.000 N 
ATOM     96  H5  UNL A   1       2.621   0.210  -3.690  1.00  0.00    +0.000 H 
BRANCH    5    3
ATOM      3  C3  UNL A   1       1.060   0.162  -2.452  1.00  0.00    +0.000 C 
ATOM      4  O1  UNL A   1       0.358  -0.307  -3.350  1.00  0.00    +0.000 O 
BRANCH    3    2
ATOM      2  C2  UNL A   1       0.514   0.601  -1.084  1.00  0.00    +0.000 C 
ATOM     95  H4  UNL A   1       0.933   1.571  -0.916  1.00  0.00    +0.000 H 
BRANCH    2    1
ATOM      1  C1  UNL A   1       0.974  -0.286   0.076  1.00  0.00    +0.000 C 
ATOM     92  H1  UNL A   1       2.042  -0.358   0.068  1.00  0.00    +0.000 H 
ATOM     93  H2  UNL A   1       0.551  -1.263  -0.032  1.00  0.00    +0.000 H 
ATOM     94  H3  UNL A   1       0.652   0.141   1.002  1.00  0.00    +0.000 H 
ENDBRANCH    2    1
BRANCH    2   78
ATOM    136  H45 UNL A   1      -3.792  -1.145  -1.246  1.00  0.00    +0.000 H 
ATOM     78  C55 UNL A   1      -1.001   0.714  -1.089  1.00  0.00    +0.000 C 
ATOM     79  C56 UNL A   1      -1.613   1.966  -0.989  1.00  0.00    +0.000 C 
ATOM     80  C57 UNL A   1      -3.010   2.074  -0.973  1.00  0.00    +0.000 C 
ATOM     81  C58 UNL A   1      -3.840   0.957  -1.099  1.00  0.00    +0.000 C 
ATOM     89  C64 UNL A   1      -3.214  -0.292  -1.183  1.00  0.00    +0.000 C 
ATOM     90  C65 UNL A   1      -1.825  -0.408  -1.183  1.00  0.00    +0.000 C 
ATOM     91  F16 UNL A   1      -1.290  -1.636  -1.253  1.00  0.00    +0.000 F 
ATOM    124  H33 UNL A   1      -1.033   2.817  -0.927  1.00  0.00    +0.000 H 
ATOM    125  H34 UNL A   1      -3.438   3.007  -0.865  1.00  0.00    +0.000 H 
BRANCH   81   82
ATOM     82  N7  UNL A   1      -5.221   0.991  -1.033  1.00  0.00    +0.000 N 
ATOM    126  H35 UNL A   1      -5.670   0.115  -1.003  1.00  0.00    +0.000 H 
BRANCH   82   83
ATOM    129  H38 UNL A   1      -6.752   2.829   0.952  1.00  0.00    +0.000 H 
ATOM    130  H39 UNL A   1      -4.976   4.869  -0.226  1.00  0.00    +0.000 H 
ATOM    131  H40 UNL A   1      -6.561   5.097   0.400  1.00  0.00    +0.000 H 
ATOM    132  H41 UNL A   1      -6.174   5.251  -2.224  1.00  0.00    +0.000 H 
ATOM    133  H42 UNL A   1      -7.583   4.453  -1.690  1.00  0.00    +0.000 H 
ATOM    134  H43 UNL A   1      -4.938   3.192  -2.546  1.00  0.00    +0.000 H 
ATOM     83  C59 UNL A   1      -6.097   2.158  -1.003  1.00  0.00    +0.000 C 
ATOM     84  C60 UNL A   1      -5.961   3.017   0.257  1.00  0.00    +0.000 C 
ATOM     85  C61 UNL A   1      -5.968   4.468  -0.231  1.00  0.00    +0.000 C 
ATOM     86  C62 UNL A   1      -6.514   4.414  -1.651  1.00  0.00    +0.000 C 
ATOM     87  C63 UNL A   1      -5.947   3.112  -2.198  1.00  0.00    +0.000 C 
ATOM    127  H36 UNL A   1      -7.059   1.690  -1.033  1.00  0.00    +0.000 H 
ATOM    128  H37 UNL A   1      -5.043   2.798   0.762  1.00  0.00    +0.000 H 
BRANCH   87   88
ATOM    135  H44 UNL A   1      -7.616   2.571  -3.092  1.00  0.00    +0.000 H 
ATOM     88  O3  UNL A   1      -6.681   2.669  -3.330  1.00  0.00    +0.000 O 
ENDBRANCH   87   88
ENDBRANCH   82   83
ENDBRANCH   81   82
ENDBRANCH    2   78
ENDBRANCH    3    2
ENDBRANCH    5    3
ENDBRANCH    6    5
ENDBRANCH    7    6
ENDBRANCH    8    7
ENDBRANCH    9    8
ENDBRANCH   10    9
ENDBRANCH   11   10
ENDBRANCH   12   11
ENDBRANCH   13   12
ENDBRANCH   15   13
ENDBRANCH   19   18
BRANCH   23   24
ATOM     33  C24 UNL A   1      14.745  -3.514   7.285  1.00  0.00    +0.000 C 
ATOM     34  F5  UNL A   1      14.081  -2.598   8.005  1.00  0.00    +0.000 F 
ATOM     24  C19 UNL A   1      15.401  -3.145   6.101  1.00  0.00    +0.000 C 
ATOM     25  C20 UNL A   1      16.084  -4.145   5.391  1.00  0.00    +0.000 C 
ATOM     26  F1  UNL A   1      16.717  -3.847   4.246  1.00  0.00    +0.000 F 
ATOM     27  C21 UNL A   1      16.081  -5.466   5.831  1.00  0.00    +0.000 C 
ATOM     28  F2  UNL A   1      16.694  -6.412   5.107  1.00  0.00    +0.000 F 
ATOM     29  C22 UNL A   1      15.429  -5.807   7.006  1.00  0.00    +0.000 C 
ATOM     30  F3  UNL A   1      15.429  -7.078   7.429  1.00  0.00    +0.000 F 
ATOM     31  C23 UNL A   1      14.769  -4.831   7.737  1.00  0.00    +0.000 C 
ATOM     32  F4  UNL A   1      14.149  -5.157   8.880  1.00  0.00    +0.000 F 
ENDBRANCH   23   24
BRANCH   40   41
ATOM     41  C30 UNL A   1      18.037   3.245   8.161  1.00  0.00    +0.000 C 
ATOM     42  C31 UNL A   1      17.538   3.999   9.232  1.00  0.00    +0.000 C 
ATOM     43  F6  UNL A   1      16.230   4.292   9.301  1.00  0.00    +0.000 F 
ATOM     44  C32 UNL A   1      18.389   4.492  10.217  1.00  0.00    +0.000 C 
ATOM     45  F7  UNL A   1      17.898   5.252  11.206  1.00  0.00    +0.000 F 
ATOM     46  C33 UNL A   1      19.747   4.212  10.169  1.00  0.00    +0.000 C 
ATOM     47  F8  UNL A   1      20.564   4.684  11.120  1.00  0.00    +0.000 F 
ATOM     48  C34 UNL A   1      20.259   3.451   9.129  1.00  0.00    +0.000 C 
ATOM     49  F9  UNL A   1      21.568   3.169   9.086  1.00  0.00    +0.000 F 
ATOM     50  C35 UNL A   1      19.415   2.981   8.127  1.00  0.00    +0.000 C 
ATOM     51  F10 UNL A   1      19.941   2.259   7.126  1.00  0.00    +0.000 F 
ENDBRANCH   40   41
BRANCH   55   56
ATOM     65  C44 UNL A   1      13.474   6.987   2.934  1.00  0.00    +0.000 C 
ATOM     66  F15 UNL A   1      12.373   6.401   3.426  1.00  0.00    +0.000 F 
ATOM     56  C39 UNL A   1      14.679   6.275   2.868  1.00  0.00    +0.000 C 
ATOM     57  C40 UNL A   1      15.800   6.932   2.342  1.00  0.00    +0.000 C 
ATOM     58  F11 UNL A   1      16.980   6.297   2.278  1.00  0.00    +0.000 F 
ATOM     59  C41 UNL A   1      15.723   8.257   1.917  1.00  0.00    +0.000 C 
ATOM     60  F12 UNL A   1      16.820   8.875   1.457  1.00  0.00    +0.000 F 
ATOM     61  C42 UNL A   1      14.519   8.940   1.983  1.00  0.00    +0.000 C 
ATOM     62  F13 UNL A   1      14.444  10.212   1.572  1.00  0.00    +0.000 F 
ATOM     63  C43 UNL A   1      13.393   8.304   2.485  1.00  0.00    +0.000 C 
ATOM     64  F14 UNL A   1      12.224   8.957   2.539  1.00  0.00    +0.000 F 
ENDBRANCH   55   56
TORSDOF 20