ROOT
ATOM    129  H35 UNL A   1       2.848   7.392  -8.721  1.00  0.00    +0.000 H 
ATOM    130  H36 UNL A   1       0.616  10.675  -9.953  1.00  0.00    +0.000 H 
ATOM    131  H37 UNL A   1      -2.504   8.977 -13.502  1.00  0.00    +0.000 H 
ATOM    132  H38 UNL A   1      -3.432  11.360 -13.628  1.00  0.00    +0.000 H 
ATOM    133  H39 UNL A   1       2.425  14.175  -5.967  1.00  0.00    +0.000 H 
ATOM    134  H40 UNL A   1       3.697  11.959  -6.146  1.00  0.00    +0.000 H 
ATOM     36  C30 UNL A   1       2.533  10.131  -7.988  1.00  0.00    +0.000 C 
ATOM     37  C31 UNL A   1       2.148  11.561  -7.755  1.00  0.00    +0.000 C 
ATOM     38  N4  UNL A   1       1.212  12.272  -8.330  1.00  0.00    +0.000 N 
ATOM     39  C32 UNL A   1       1.235  13.505  -7.694  1.00  0.00    +0.000 C 
ATOM     40  C33 UNL A   1       0.497  14.607  -7.968  1.00  0.00    +0.000 C 
ATOM     52  C40 UNL A   1      -0.479  14.680  -9.023  1.00  0.00    +0.000 C 
ATOM     53  C41 UNL A   1      -1.228  15.768  -9.434  1.00  0.00    +0.000 C 
ATOM     54  C42 UNL A   1      -2.069  15.350 -10.473  1.00  0.00    +0.000 C 
ATOM     55  C43 UNL A   1      -1.816  14.012 -10.733  1.00  0.00    +0.000 C 
ATOM     56  N5  UNL A   1      -0.841  13.614  -9.835  1.00  0.00    +0.000 N 
ATOM     57  C44 UNL A   1      -2.420  13.162 -11.727  1.00  0.00    +0.000 C 
ATOM     69  C51 UNL A   1      -2.100  11.863 -11.948  1.00  0.00    +0.000 C 
ATOM     70  N6  UNL A   1      -1.167  11.072 -11.294  1.00  0.00    +0.000 N 
ATOM     71  C52 UNL A   1      -1.240   9.890 -11.857  1.00  0.00    +0.000 C 
ATOM     72  C53 UNL A   1      -0.452   8.648 -11.550  1.00  0.00    +0.000 C 
ATOM     84  C60 UNL A   1       0.527   8.707 -10.629  1.00  0.00    +0.000 C 
ATOM     85  C61 UNL A   1       1.366   7.587 -10.216  1.00  0.00    +0.000 C 
ATOM     86  C62 UNL A   1       2.169   7.989  -9.219  1.00  0.00    +0.000 C 
ATOM     87  C63 UNL A   1       1.928   9.408  -8.950  1.00  0.00    +0.000 C 
ATOM     88  N7  UNL A   1       0.963   9.759  -9.860  1.00  0.00    +0.000 N 
ATOM     89  C64 UNL A   1      -2.240   9.793 -12.928  1.00  0.00    +0.000 C 
ATOM     90  C65 UNL A   1      -2.715  11.031 -12.963  1.00  0.00    +0.000 C 
ATOM     91  C66 UNL A   1       2.239  13.428  -6.655  1.00  0.00    +0.000 C 
ATOM     92  C67 UNL A   1       2.887  12.274  -6.702  1.00  0.00    +0.000 C 
ATOM    125  H31 UNL A   1      -1.176  16.721  -9.044  1.00  0.00    +0.000 H 
ATOM    126  H32 UNL A   1      -2.760  15.940 -10.963  1.00  0.00    +0.000 H 
ATOM    127  H33 UNL A   1      -0.460  12.707  -9.780  1.00  0.00    +0.000 H 
ATOM    128  H34 UNL A   1       1.344   6.639 -10.624  1.00  0.00    +0.000 H 
ENDROOT
BRANCH   36   35
ATOM     33  C27 UNL A   1       5.487   8.167  -6.659  1.00  0.00    +0.000 C 
ATOM     34  C28 UNL A   1       4.704   8.942  -7.515  1.00  0.00    +0.000 C 
ATOM     35  C29 UNL A   1       3.480   9.462  -7.066  1.00  0.00    +0.000 C 
ATOM    135  H41 UNL A   1       2.229   9.718  -5.378  1.00  0.00    +0.000 H 
ATOM    136  H42 UNL A   1       3.709   8.568  -3.841  1.00  0.00    +0.000 H 
ATOM    123  H29 UNL A   1       6.371   7.752  -6.994  1.00  0.00    +0.000 H 
ATOM    124  H30 UNL A   1       5.024   9.132  -8.477  1.00  0.00    +0.000 H 
ATOM     93  C68 UNL A   1       3.113   9.309  -5.720  1.00  0.00    +0.000 C 
ATOM     94  C69 UNL A   1       3.933   8.609  -4.847  1.00  0.00    +0.000 C 
ATOM     32  C26 UNL A   1       5.065   7.960  -5.344  1.00  0.00    +0.000 C 
BRANCH   32   30
ATOM     30  C25 UNL A   1       5.785   6.979  -4.508  1.00  0.00    +0.000 C 
ATOM     31  O3  UNL A   1       7.004   7.011  -4.441  1.00  0.00    +0.000 O 
BRANCH   30   29
ATOM    122  H28 UNL A   1       5.586   5.414  -3.274  1.00  0.00    +0.000 H 
ATOM     29  N3  UNL A   1       5.058   6.013  -3.850  1.00  0.00    +0.000 N 
BRANCH   29   28
ATOM    121  H27 UNL A   1       3.229   6.224  -4.747  1.00  0.00    +0.000 H 
ATOM     28  C24 UNL A   1       3.625   5.742  -3.878  1.00  0.00    +0.000 C 
ATOM    120  H26 UNL A   1       3.192   6.117  -2.974  1.00  0.00    +0.000 H 
BRANCH   28   27
ATOM     27  C23 UNL A   1       3.289   4.258  -3.994  1.00  0.00    +0.000 C 
ATOM    118  H24 UNL A   1       2.224   4.153  -3.979  1.00  0.00    +0.000 H 
ATOM    119  H25 UNL A   1       3.728   3.916  -4.909  1.00  0.00    +0.000 H 
BRANCH   27   26
ATOM     26  C22 UNL A   1       3.869   3.393  -2.883  1.00  0.00    +0.000 C 
ATOM    116  H22 UNL A   1       3.642   2.371  -3.107  1.00  0.00    +0.000 H 
ATOM    117  H23 UNL A   1       4.918   3.606  -2.862  1.00  0.00    +0.000 H 
BRANCH   26   25
ATOM     25  C21 UNL A   1       3.353   3.692  -1.477  1.00  0.00    +0.000 C 
ATOM    114  H20 UNL A   1       3.991   3.198  -0.775  1.00  0.00    +0.000 H 
ATOM    115  H21 UNL A   1       3.359   4.757  -1.372  1.00  0.00    +0.000 H 
BRANCH   25   24
ATOM    113  H19 UNL A   1       1.300   3.755  -1.925  1.00  0.00    +0.000 H 
ATOM    112  H18 UNL A   1       1.669   3.466  -0.202  1.00  0.00    +0.000 H 
ATOM     24  C20 UNL A   1       1.914   3.237  -1.218  1.00  0.00    +0.000 C 
BRANCH   24   23
ATOM    111  H17 UNL A   1       1.805   1.533  -2.483  1.00  0.00    +0.000 H 
ATOM    110  H16 UNL A   1       0.674   1.503  -1.133  1.00  0.00    +0.000 H 
ATOM     23  C19 UNL A   1       1.669   1.743  -1.443  1.00  0.00    +0.000 C 
BRANCH   23   22
ATOM    109  H15 UNL A   1       3.563   1.153  -0.742  1.00  0.00    +0.000 H 
ATOM     22  N2  UNL A   1       2.605   0.933  -0.689  1.00  0.00    +0.000 N 
BRANCH   22    2
ATOM      1  O1  UNL A   1       1.059  -0.494   0.223  1.00  0.00    +0.000 O 
ATOM      2  C1  UNL A   1       2.221  -0.124   0.094  1.00  0.00    +0.000 C 
BRANCH    2    3
ATOM      3  C2  UNL A   1       3.362  -0.804   0.820  1.00  0.00    +0.000 C 
ATOM     95  H1  UNL A   1       2.961  -1.385   1.624  1.00  0.00    +0.000 H 
ATOM     96  H2  UNL A   1       4.022  -0.042   1.180  1.00  0.00    +0.000 H 
BRANCH    3    4
ATOM     97  H3  UNL A   1       3.488  -2.142  -0.806  1.00  0.00    +0.000 H 
ATOM     98  H4  UNL A   1       4.626  -2.435   0.555  1.00  0.00    +0.000 H 
ATOM      4  C3  UNL A   1       4.164  -1.719  -0.092  1.00  0.00    +0.000 C 
BRANCH    4    5
ATOM      5  C4  UNL A   1       5.285  -1.083  -0.849  1.00  0.00    +0.000 C 
ATOM      6  N1  UNL A   1       6.155  -1.697  -1.629  1.00  0.00    +0.000 N 
ATOM      7  C5  UNL A   1       6.973  -0.690  -2.070  1.00  0.00    +0.000 C 
ATOM     14  C12 UNL A   1       6.538   0.527  -1.579  1.00  0.00    +0.000 C 
ATOM     21  O2  UNL A   1       5.458   0.281  -0.767  1.00  0.00    +0.000 O 
BRANCH    7    8
ATOM     99  H5  UNL A   1       9.506   0.158  -1.819  1.00  0.00    +0.000 H 
ATOM    100  H6  UNL A   1      11.180   0.294  -3.569  1.00  0.00    +0.000 H 
ATOM    101  H7  UNL A   1      10.729  -0.667  -5.750  1.00  0.00    +0.000 H 
ATOM    102  H8  UNL A   1       8.642  -1.834  -6.155  1.00  0.00    +0.000 H 
ATOM    103  H9  UNL A   1       6.954  -1.953  -4.415  1.00  0.00    +0.000 H 
ATOM      8  C6  UNL A   1       8.069  -0.847  -3.003  1.00  0.00    +0.000 C 
ATOM      9  C7  UNL A   1       9.310  -0.240  -2.751  1.00  0.00    +0.000 C 
ATOM     10  C8  UNL A   1      10.278  -0.172  -3.752  1.00  0.00    +0.000 C 
ATOM     11  C9  UNL A   1      10.023  -0.736  -5.000  1.00  0.00    +0.000 C 
ATOM     12  C10 UNL A   1       8.815  -1.393  -5.238  1.00  0.00    +0.000 C 
ATOM     13  C11 UNL A   1       7.841  -1.457  -4.240  1.00  0.00    +0.000 C 
ENDBRANCH    7    8
BRANCH   14   15
ATOM    104  H10 UNL A   1       6.813   2.529   0.214  1.00  0.00    +0.000 H 
ATOM    105  H11 UNL A   1       7.659   4.767  -0.192  1.00  0.00    +0.000 H 
ATOM    106  H12 UNL A   1       8.300   5.447  -2.429  1.00  0.00    +0.000 H 
ATOM    107  H13 UNL A   1       8.029   3.911  -4.287  1.00  0.00    +0.000 H 
ATOM    108  H14 UNL A   1       7.163   1.686  -3.892  1.00  0.00    +0.000 H 
ATOM     15  C13 UNL A   1       6.943   1.908  -1.800  1.00  0.00    +0.000 C 
ATOM     16  C14 UNL A   1       7.076   2.813  -0.742  1.00  0.00    +0.000 C 
ATOM     17  C15 UNL A   1       7.564   4.104  -0.977  1.00  0.00    +0.000 C 
ATOM     18  C16 UNL A   1       7.924   4.500  -2.266  1.00  0.00    +0.000 C 
ATOM     19  C17 UNL A   1       7.775   3.618  -3.330  1.00  0.00    +0.000 C 
ATOM     20  C18 UNL A   1       7.282   2.335  -3.098  1.00  0.00    +0.000 C 
ENDBRANCH   14   15
ENDBRANCH    4    5
ENDBRANCH    3    4
ENDBRANCH    2    3
ENDBRANCH   22    2
ENDBRANCH   23   22
ENDBRANCH   24   23
ENDBRANCH   25   24
ENDBRANCH   26   25
ENDBRANCH   27   26
ENDBRANCH   28   27
ENDBRANCH   29   28
ENDBRANCH   30   29
ENDBRANCH   32   30
ENDBRANCH   36   35
BRANCH   40   41
ATOM     41  C34 UNL A   1       0.728  15.817  -7.112  1.00  0.00    +0.000 C 
ATOM     42  C35 UNL A   1       1.924  16.549  -7.183  1.00  0.00    +0.000 C 
ATOM     43  F1  UNL A   1       2.900  16.167  -8.020  1.00  0.00    +0.000 F 
ATOM     44  C36 UNL A   1       2.143  17.646  -6.354  1.00  0.00    +0.000 C 
ATOM     45  F2  UNL A   1       3.318  18.291  -6.396  1.00  0.00    +0.000 F 
ATOM     46  C37 UNL A   1       1.159  18.056  -5.468  1.00  0.00    +0.000 C 
ATOM     47  F3  UNL A   1       1.374  19.110  -4.668  1.00  0.00    +0.000 F 
ATOM     48  C38 UNL A   1      -0.042  17.367  -5.403  1.00  0.00    +0.000 C 
ATOM     49  F4  UNL A   1      -0.998  17.769  -4.553  1.00  0.00    +0.000 F 
ATOM     50  C39 UNL A   1      -0.254  16.251  -6.209  1.00  0.00    +0.000 C 
ATOM     51  F5  UNL A   1      -1.416  15.590  -6.103  1.00  0.00    +0.000 F 
ENDBRANCH   40   41
BRANCH   57   58
ATOM     65  C49 UNL A   1      -4.123  15.288 -14.380  1.00  0.00    +0.000 C 
ATOM     66  F9  UNL A   1      -3.780  16.189 -15.310  1.00  0.00    +0.000 F 
ATOM     67  C50 UNL A   1      -3.141  14.689 -13.598  1.00  0.00    +0.000 C 
ATOM     68  F10 UNL A   1      -1.858  15.023 -13.802  1.00  0.00    +0.000 F 
ATOM     58  C45 UNL A   1      -3.480  13.760 -12.603  1.00  0.00    +0.000 C 
ATOM     59  C46 UNL A   1      -4.835  13.446 -12.426  1.00  0.00    +0.000 C 
ATOM     60  F6  UNL A   1      -5.205  12.550 -11.498  1.00  0.00    +0.000 F 
ATOM     61  C47 UNL A   1      -5.813  14.030 -13.226  1.00  0.00    +0.000 C 
ATOM     62  F7  UNL A   1      -7.099  13.689 -13.065  1.00  0.00    +0.000 F 
ATOM     63  C48 UNL A   1      -5.457  14.955 -14.197  1.00  0.00    +0.000 C 
ATOM     64  F8  UNL A   1      -6.401  15.522 -14.961  1.00  0.00    +0.000 F 
ENDBRANCH   57   58
BRANCH   72   73
ATOM     73  C54 UNL A   1      -0.715   7.371 -12.259  1.00  0.00    +0.000 C 
ATOM     74  C55 UNL A   1      -0.329   7.201 -13.595  1.00  0.00    +0.000 C 
ATOM     75  F11 UNL A   1       0.238   8.217 -14.262  1.00  0.00    +0.000 F 
ATOM     76  C56 UNL A   1      -0.544   5.995 -14.259  1.00  0.00    +0.000 C 
ATOM     77  F12 UNL A   1      -0.190   5.867 -15.544  1.00  0.00    +0.000 F 
ATOM     78  C57 UNL A   1      -1.129   4.929 -13.592  1.00  0.00    +0.000 C 
ATOM     79  F13 UNL A   1      -1.325   3.765 -14.226  1.00  0.00    +0.000 F 
ATOM     80  C58 UNL A   1      -1.514   5.072 -12.267  1.00  0.00    +0.000 C 
ATOM     81  F14 UNL A   1      -2.065   4.039 -11.615  1.00  0.00    +0.000 F 
ATOM     82  C59 UNL A   1      -1.319   6.285 -11.609  1.00  0.00    +0.000 C 
ATOM     83  F15 UNL A   1      -1.698   6.395 -10.328  1.00  0.00    +0.000 F 
ENDBRANCH   72   73
TORSDOF 19