ROOT
ATOM     33  C23 UNL A   1       2.928  -2.595  -5.165  1.00  0.00    +0.000 C 
ATOM     34  C24 UNL A   1       3.546  -1.284  -5.558  1.00  0.00    +0.000 C 
ATOM     35  N5  UNL A   1       2.965  -0.140  -5.819  1.00  0.00    +0.000 N 
ATOM     36  C25 UNL A   1       3.994   0.755  -6.080  1.00  0.00    +0.000 C 
ATOM     37  C26 UNL A   1       3.908   2.055  -6.453  1.00  0.00    +0.000 C 
ATOM     49  C33 UNL A   1       2.668   2.757  -6.662  1.00  0.00    +0.000 C 
ATOM     50  C34 UNL A   1       2.475   4.046  -7.127  1.00  0.00    +0.000 C 
ATOM     51  C35 UNL A   1       1.103   4.321  -7.096  1.00  0.00    +0.000 C 
ATOM     52  C36 UNL A   1       0.437   3.187  -6.660  1.00  0.00    +0.000 C 
ATOM     53  N6  UNL A   1       1.409   2.232  -6.407  1.00  0.00    +0.000 N 
ATOM     54  C37 UNL A   1      -0.979   2.989  -6.482  1.00  0.00    +0.000 C 
ATOM     66  C44 UNL A   1      -1.559   1.819  -6.115  1.00  0.00    +0.000 C 
ATOM     67  N7  UNL A   1      -0.958   0.604  -5.818  1.00  0.00    +0.000 N 
ATOM     68  C45 UNL A   1      -1.934  -0.212  -5.501  1.00  0.00    +0.000 C 
ATOM     69  C46 UNL A   1      -1.864  -1.660  -5.100  1.00  0.00    +0.000 C 
ATOM     81  C53 UNL A   1      -0.667  -2.276  -5.059  1.00  0.00    +0.000 C 
ATOM     82  C54 UNL A   1      -0.448  -3.669  -4.681  1.00  0.00    +0.000 C 
ATOM     83  C55 UNL A   1       0.871  -3.916  -4.669  1.00  0.00    +0.000 C 
ATOM     84  C56 UNL A   1       1.589  -2.710  -5.082  1.00  0.00    +0.000 C 
ATOM     85  N8  UNL A   1       0.593  -1.795  -5.320  1.00  0.00    +0.000 N 
ATOM     86  C57 UNL A   1      -3.269   0.401  -5.548  1.00  0.00    +0.000 C 
ATOM     87  C58 UNL A   1      -2.986   1.629  -5.959  1.00  0.00    +0.000 C 
ATOM     88  C59 UNL A   1       5.236   0.035  -5.896  1.00  0.00    +0.000 C 
ATOM     89  C60 UNL A   1       5.014  -1.245  -5.637  1.00  0.00    +0.000 C 
ATOM    119  H25 UNL A   1       3.214   4.692  -7.444  1.00  0.00    +0.000 H 
ATOM    120  H26 UNL A   1       0.662   5.218  -7.353  1.00  0.00    +0.000 H 
ATOM    121  H27 UNL A   1       1.233   1.315  -6.094  1.00  0.00    +0.000 H 
ATOM    122  H28 UNL A   1      -1.188  -4.353  -4.458  1.00  0.00    +0.000 H 
ATOM    123  H29 UNL A   1       1.309  -4.814  -4.409  1.00  0.00    +0.000 H 
ATOM    124  H30 UNL A   1       0.765  -0.882  -5.646  1.00  0.00    +0.000 H 
ATOM    125  H31 UNL A   1      -4.185  -0.016  -5.320  1.00  0.00    +0.000 H 
ATOM    126  H32 UNL A   1      -3.694   2.357  -6.144  1.00  0.00    +0.000 H 
ATOM    127  H33 UNL A   1       6.173   0.463  -5.960  1.00  0.00    +0.000 H 
ATOM    128  H34 UNL A   1       5.693  -2.014  -5.521  1.00  0.00    +0.000 H 
ENDROOT
BRANCH   33   32
ATOM    129  H35 UNL A   1       4.583  -2.789  -3.068  1.00  0.00    +0.000 H 
ATOM    130  H36 UNL A   1       5.993  -4.649  -2.412  1.00  0.00    +0.000 H 
ATOM    117  H23 UNL A   1       4.516  -6.913  -5.634  1.00  0.00    +0.000 H 
ATOM    118  H24 UNL A   1       3.270  -4.982  -6.415  1.00  0.00    +0.000 H 
ATOM     90  C61 UNL A   1       4.578  -3.659  -3.623  1.00  0.00    +0.000 C 
ATOM     91  C62 UNL A   1       5.358  -4.741  -3.220  1.00  0.00    +0.000 C 
ATOM     29  C19 UNL A   1       5.279  -5.952  -3.914  1.00  0.00    +0.000 C 
ATOM     30  C20 UNL A   1       4.530  -6.035  -5.091  1.00  0.00    +0.000 C 
ATOM     31  C21 UNL A   1       3.800  -4.929  -5.532  1.00  0.00    +0.000 C 
ATOM     32  C22 UNL A   1       3.786  -3.744  -4.778  1.00  0.00    +0.000 C 
BRANCH   29   27
ATOM     27  C18 UNL A   1       5.989  -7.160  -3.437  1.00  0.00    +0.000 C 
ATOM     28  O5  UNL A   1       6.589  -7.867  -4.241  1.00  0.00    +0.000 O 
BRANCH   27   26
ATOM     26  N4  UNL A   1       5.956  -7.506  -2.109  1.00  0.00    +0.000 N 
ATOM    116  H22 UNL A   1       6.563  -8.239  -1.853  1.00  0.00    +0.000 H 
BRANCH   26   25
ATOM     25  C17 UNL A   1       5.163  -6.955  -1.023  1.00  0.00    +0.000 C 
ATOM    114  H20 UNL A   1       5.825  -6.524  -0.302  1.00  0.00    +0.000 H 
ATOM    115  H21 UNL A   1       4.504  -6.226  -1.446  1.00  0.00    +0.000 H 
BRANCH   25   24
ATOM    113  H19 UNL A   1       3.713  -8.453  -1.100  1.00  0.00    +0.000 H 
ATOM    112  H18 UNL A   1       3.727  -7.506   0.427  1.00  0.00    +0.000 H 
ATOM     24  C16 UNL A   1       4.301  -8.003  -0.327  1.00  0.00    +0.000 C 
BRANCH   24   23
ATOM    111  H17 UNL A   1       5.542  -9.674  -0.457  1.00  0.00    +0.000 H 
ATOM    110  H16 UNL A   1       4.338  -9.742   0.880  1.00  0.00    +0.000 H 
ATOM     23  C15 UNL A   1       5.053  -9.156   0.341  1.00  0.00    +0.000 C 
BRANCH   23   22
ATOM    108  H14 UNL A   1       6.500  -9.668   1.798  1.00  0.00    +0.000 H 
ATOM    109  H15 UNL A   1       6.910  -8.286   0.718  1.00  0.00    +0.000 H 
ATOM     22  C14 UNL A   1       6.168  -8.772   1.316  1.00  0.00    +0.000 C 
BRANCH   22   21
ATOM    106  H12 UNL A   1       6.654  -7.675   3.056  1.00  0.00    +0.000 H 
ATOM    107  H13 UNL A   1       5.546  -6.869   1.884  1.00  0.00    +0.000 H 
ATOM     21  C13 UNL A   1       5.808  -7.765   2.407  1.00  0.00    +0.000 C 
BRANCH   21   20
ATOM    105  H11 UNL A   1       3.779  -8.258   2.601  1.00  0.00    +0.000 H 
ATOM     20  C12 UNL A   1       4.597  -8.091   3.271  1.00  0.00    +0.000 C 
ATOM    104  H10 UNL A   1       4.430  -7.270   3.937  1.00  0.00    +0.000 H 
BRANCH   20   19
ATOM     19  N3  UNL A   1       4.734  -9.300   4.066  1.00  0.00    +0.000 N 
ATOM    103  H9  UNL A   1       5.192 -10.042   3.609  1.00  0.00    +0.000 H 
BRANCH   19   17
ATOM     17  C11 UNL A   1       4.329  -9.581   5.352  1.00  0.00    +0.000 C 
ATOM     18  O4  UNL A   1       4.584 -10.688   5.831  1.00  0.00    +0.000 O 
BRANCH   17   16
ATOM    131  H37 UNL A   1       2.529  -7.618   4.747  1.00  0.00    +0.000 H 
ATOM    100  H6  UNL A   1       2.418  -5.736   8.505  1.00  0.00    +0.000 H 
ATOM    101  H7  UNL A   1       3.610  -7.631   9.464  1.00  0.00    +0.000 H 
ATOM     11  C6  UNL A   1       2.461  -6.501   6.536  1.00  0.00    +0.000 C 
ATOM     12  C7  UNL A   1       2.734  -6.512   7.903  1.00  0.00    +0.000 C 
ATOM     13  C8  UNL A   1       3.442  -7.586   8.447  1.00  0.00    +0.000 C 
ATOM     14  C9  UNL A   1       3.922  -8.600   7.614  1.00  0.00    +0.000 C 
ATOM     16  C10 UNL A   1       3.677  -8.575   6.232  1.00  0.00    +0.000 C 
ATOM     92  C63 UNL A   1       2.852  -7.571   5.725  1.00  0.00    +0.000 C 
BRANCH   11   10
ATOM     10  C5  UNL A   1       1.904  -5.288   5.900  1.00  0.00    +0.000 C 
ATOM     99  H5  UNL A   1       1.428  -4.574   6.474  1.00  0.00    +0.000 H 
BRANCH   10    9
ATOM      9  N2  UNL A   1       2.015  -5.123   4.620  1.00  0.00    +0.000 N 
BRANCH    9    8
ATOM     97  H3  UNL A   1       0.153  -2.876   1.175  1.00  0.00    +0.000 H 
ATOM     98  H4  UNL A   1       0.755  -4.902   2.368  1.00  0.00    +0.000 H 
ATOM    132  H38 UNL A   1       2.422  -2.602   5.462  1.00  0.00    +0.000 H 
ATOM    133  H39 UNL A   1       1.809  -0.568   4.286  1.00  0.00    +0.000 H 
ATOM      6  C2  UNL A   1       0.630  -2.817   2.088  1.00  0.00    +0.000 C 
ATOM      5  C1  UNL A   1       0.938  -1.574   2.643  1.00  0.00    +0.000 C 
ATOM      7  C3  UNL A   1       0.974  -3.982   2.781  1.00  0.00    +0.000 C 
ATOM      8  C4  UNL A   1       1.612  -3.920   4.025  1.00  0.00    +0.000 C 
ATOM     93  C64 UNL A   1       1.929  -2.663   4.558  1.00  0.00    +0.000 C 
ATOM     94  C65 UNL A   1       1.586  -1.490   3.878  1.00  0.00    +0.000 C 
BRANCH    5    2
ATOM      2  S1  UNL A   1       0.496  -0.097   1.776  1.00  0.00    +0.000 S 
ATOM      3  O1  UNL A   1       1.107   1.036   2.425  1.00  0.00    +0.000 O 
ATOM      4  O2  UNL A   1      -0.915  -0.154   1.466  1.00  0.00    +0.000 O 
BRANCH    2    1
ATOM      1  N1  UNL A   1       1.310  -0.266   0.315  1.00  0.00    +0.000 N 
ATOM     95  H1  UNL A   1       1.123   0.545  -0.274  1.00  0.00    +0.000 H 
ATOM     96  H2  UNL A   1       0.989  -1.111  -0.157  1.00  0.00    +0.000 H 
ENDBRANCH    2    1
ENDBRANCH    5    2
ENDBRANCH    9    8
ENDBRANCH   10    9
ENDBRANCH   11   10
BRANCH   14   15
ATOM    102  H8  UNL A   1       4.787  -9.565   9.150  1.00  0.00    +0.000 H 
ATOM     15  O3  UNL A   1       4.649  -9.589   8.224  1.00  0.00    +0.000 O 
ENDBRANCH   14   15
ENDBRANCH   17   16
ENDBRANCH   19   17
ENDBRANCH   20   19
ENDBRANCH   21   20
ENDBRANCH   22   21
ENDBRANCH   23   22
ENDBRANCH   24   23
ENDBRANCH   25   24
ENDBRANCH   26   25
ENDBRANCH   27   26
ENDBRANCH   29   27
ENDBRANCH   33   32
BRANCH   37   38
ATOM     38  C27 UNL A   1       5.192   2.808  -6.650  1.00  0.00    +0.000 C 
ATOM     39  C28 UNL A   1       6.057   2.533  -7.719  1.00  0.00    +0.000 C 
ATOM     40  F1  UNL A   1       5.770   1.547  -8.583  1.00  0.00    +0.000 F 
ATOM     41  C29 UNL A   1       7.246   3.241  -7.881  1.00  0.00    +0.000 C 
ATOM     42  F2  UNL A   1       8.083   2.922  -8.878  1.00  0.00    +0.000 F 
ATOM     43  C30 UNL A   1       7.573   4.263  -7.003  1.00  0.00    +0.000 C 
ATOM     44  F3  UNL A   1       8.715   4.946  -7.162  1.00  0.00    +0.000 F 
ATOM     45  C31 UNL A   1       6.720   4.571  -5.954  1.00  0.00    +0.000 C 
ATOM     46  F4  UNL A   1       7.027   5.567  -5.112  1.00  0.00    +0.000 F 
ATOM     47  C32 UNL A   1       5.546   3.844  -5.771  1.00  0.00    +0.000 C 
ATOM     48  F5  UNL A   1       4.752   4.154  -4.735  1.00  0.00    +0.000 F 
ENDBRANCH   37   38
BRANCH   54   55
ATOM     65  F10 UNL A   1      -1.480   4.054  -9.076  1.00  0.00    +0.000 F 
ATOM     55  C38 UNL A   1      -1.886   4.158  -6.733  1.00  0.00    +0.000 C 
ATOM     56  C39 UNL A   1      -2.528   4.823  -5.678  1.00  0.00    +0.000 C 
ATOM     57  F6  UNL A   1      -2.391   4.380  -4.419  1.00  0.00    +0.000 F 
ATOM     58  C40 UNL A   1      -3.340   5.928  -5.917  1.00  0.00    +0.000 C 
ATOM     59  F7  UNL A   1      -3.976   6.523  -4.897  1.00  0.00    +0.000 F 
ATOM     60  C41 UNL A   1      -3.501   6.408  -7.208  1.00  0.00    +0.000 C 
ATOM     61  F8  UNL A   1      -4.273   7.480  -7.434  1.00  0.00    +0.000 F 
ATOM     62  C42 UNL A   1      -2.865   5.774  -8.264  1.00  0.00    +0.000 C 
ATOM     63  F9  UNL A   1      -3.008   6.245  -9.511  1.00  0.00    +0.000 F 
ATOM     64  C43 UNL A   1      -2.076   4.651  -8.033  1.00  0.00    +0.000 C 
ENDBRANCH   54   55
BRANCH   69   70
ATOM     70  C47 UNL A   1      -3.093  -2.419  -4.749  1.00  0.00    +0.000 C 
ATOM     71  C48 UNL A   1      -4.033  -2.763  -5.729  1.00  0.00    +0.000 C 
ATOM     72  F11 UNL A   1      -3.849  -2.372  -6.999  1.00  0.00    +0.000 F 
ATOM     73  C49 UNL A   1      -5.179  -3.486  -5.404  1.00  0.00    +0.000 C 
ATOM     74  F12 UNL A   1      -6.078  -3.773  -6.355  1.00  0.00    +0.000 F 
ATOM     75  C50 UNL A   1      -5.394  -3.900  -4.099  1.00  0.00    +0.000 C 
ATOM     76  F13 UNL A   1      -6.490  -4.607  -3.790  1.00  0.00    +0.000 F 
ATOM     77  C51 UNL A   1      -4.472  -3.580  -3.113  1.00  0.00    +0.000 C 
ATOM     78  F14 UNL A   1      -4.666  -3.996  -1.854  1.00  0.00    +0.000 F 
ATOM     79  C52 UNL A   1      -3.340  -2.834  -3.432  1.00  0.00    +0.000 C 
ATOM     80  F15 UNL A   1      -2.465  -2.537  -2.459  1.00  0.00    +0.000 F 
ENDBRANCH   69   70
TORSDOF 21