ROOT
ATOM     33  C22 UNL A   1       3.452  -3.420  -4.520  1.00  0.00    +0.000 C 
ATOM     34  C23 UNL A   1       3.964  -2.141  -5.119  1.00  0.00    +0.000 C 
ATOM     35  N6  UNL A   1       3.292  -1.148  -5.644  1.00  0.00    +0.000 N 
ATOM     36  C24 UNL A   1       4.241  -0.205  -6.018  1.00  0.00    +0.000 C 
ATOM     37  C25 UNL A   1       4.052   0.974  -6.659  1.00  0.00    +0.000 C 
ATOM     49  C32 UNL A   1       2.767   1.475  -7.077  1.00  0.00    +0.000 C 
ATOM     50  C33 UNL A   1       2.481   2.626  -7.790  1.00  0.00    +0.000 C 
ATOM     51  C34 UNL A   1       1.091   2.738  -7.902  1.00  0.00    +0.000 C 
ATOM     52  C35 UNL A   1       0.512   1.627  -7.311  1.00  0.00    +0.000 C 
ATOM     53  N7  UNL A   1       1.553   0.858  -6.812  1.00  0.00    +0.000 N 
ATOM     54  C36 UNL A   1      -0.885   1.292  -7.206  1.00  0.00    +0.000 C 
ATOM     66  C43 UNL A   1      -1.369   0.156  -6.645  1.00  0.00    +0.000 C 
ATOM     67  N8  UNL A   1      -0.674  -0.893  -6.059  1.00  0.00    +0.000 N 
ATOM     68  C44 UNL A   1      -1.584  -1.742  -5.648  1.00  0.00    +0.000 C 
ATOM     69  C45 UNL A   1      -1.403  -3.067  -4.960  1.00  0.00    +0.000 C 
ATOM     81  C52 UNL A   1      -0.157  -3.509  -4.703  1.00  0.00    +0.000 C 
ATOM     82  C53 UNL A   1       0.172  -4.768  -4.044  1.00  0.00    +0.000 C 
ATOM     83  C54 UNL A   1       1.503  -4.849  -3.894  1.00  0.00    +0.000 C 
ATOM     84  C55 UNL A   1       2.127  -3.665  -4.488  1.00  0.00    +0.000 C 
ATOM     85  N9  UNL A   1       1.065  -2.931  -4.954  1.00  0.00    +0.000 N 
ATOM     86  C56 UNL A   1      -2.966  -1.314  -5.907  1.00  0.00    +0.000 C 
ATOM     87  C57 UNL A   1      -2.776  -0.172  -6.554  1.00  0.00    +0.000 C 
ATOM     88  C58 UNL A   1       5.531  -0.721  -5.612  1.00  0.00    +0.000 C 
ATOM     89  C59 UNL A   1       5.421  -1.941  -5.104  1.00  0.00    +0.000 C 
ATOM    118  H24 UNL A   1       3.174   3.288  -8.173  1.00  0.00    +0.000 H 
ATOM    119  H25 UNL A   1       0.583   3.517  -8.350  1.00  0.00    +0.000 H 
ATOM    120  H26 UNL A   1       1.445   0.001  -6.339  1.00  0.00    +0.000 H 
ATOM    121  H27 UNL A   1      -0.509  -5.482  -3.742  1.00  0.00    +0.000 H 
ATOM    122  H28 UNL A   1       2.007  -5.623  -3.433  1.00  0.00    +0.000 H 
ATOM    123  H29 UNL A   1       1.168  -2.072  -5.424  1.00  0.00    +0.000 H 
ATOM    124  H30 UNL A   1      -3.851  -1.780  -5.653  1.00  0.00    +0.000 H 
ATOM    125  H31 UNL A   1      -3.536   0.409  -6.942  1.00  0.00    +0.000 H 
ATOM    126  H32 UNL A   1       6.420  -0.206  -5.705  1.00  0.00    +0.000 H 
ATOM    127  H33 UNL A   1       6.163  -2.581  -4.782  1.00  0.00    +0.000 H 
ENDROOT
BRANCH   33   32
ATOM    129  H35 UNL A   1       6.438  -4.677  -1.244  1.00  0.00    +0.000 H 
ATOM    128  H34 UNL A   1       4.979  -3.078  -2.337  1.00  0.00    +0.000 H 
ATOM    116  H22 UNL A   1       5.388  -7.592  -4.087  1.00  0.00    +0.000 H 
ATOM    117  H23 UNL A   1       4.101  -5.934  -5.305  1.00  0.00    +0.000 H 
ATOM     90  C60 UNL A   1       5.071  -4.034  -2.716  1.00  0.00    +0.000 C 
ATOM     91  C61 UNL A   1       5.879  -4.963  -2.063  1.00  0.00    +0.000 C 
ATOM     29  C18 UNL A   1       5.931  -6.283  -2.519  1.00  0.00    +0.000 C 
ATOM     30  C19 UNL A   1       5.298  -6.634  -3.716  1.00  0.00    +0.000 C 
ATOM     31  C20 UNL A   1       4.543  -5.684  -4.407  1.00  0.00    +0.000 C 
ATOM     32  C21 UNL A   1       4.382  -4.389  -3.886  1.00  0.00    +0.000 C 
BRANCH   29   27
ATOM     27  C17 UNL A   1       6.651  -7.333  -1.764  1.00  0.00    +0.000 C 
ATOM     28  O5  UNL A   1       7.355  -8.138  -2.367  1.00  0.00    +0.000 O 
BRANCH   27   26
ATOM     26  N5  UNL A   1       6.513  -7.427  -0.401  1.00  0.00    +0.000 N 
ATOM    115  H21 UNL A   1       7.141  -8.045   0.040  1.00  0.00    +0.000 H 
BRANCH   26   25
ATOM     25  C16 UNL A   1       5.583  -6.754   0.489  1.00  0.00    +0.000 C 
ATOM    114  H20 UNL A   1       4.943  -6.145  -0.115  1.00  0.00    +0.000 H 
ATOM    113  H19 UNL A   1       6.143  -6.170   1.190  1.00  0.00    +0.000 H 
BRANCH   25   24
ATOM    112  H18 UNL A   1       4.215  -8.329   0.524  1.00  0.00    +0.000 H 
ATOM    111  H17 UNL A   1       4.023  -7.147   1.862  1.00  0.00    +0.000 H 
ATOM     24  C15 UNL A   1       4.696  -7.725   1.264  1.00  0.00    +0.000 C 
BRANCH   24   23
ATOM    109  H15 UNL A   1       4.682  -9.244   2.739  1.00  0.00    +0.000 H 
ATOM    110  H16 UNL A   1       6.026  -9.309   1.543  1.00  0.00    +0.000 H 
ATOM     23  C14 UNL A   1       5.424  -8.704   2.188  1.00  0.00    +0.000 C 
BRANCH   23   22
ATOM    107  H13 UNL A   1       6.721  -8.875   3.853  1.00  0.00    +0.000 H 
ATOM    108  H14 UNL A   1       7.179  -7.657   2.609  1.00  0.00    +0.000 H 
ATOM     22  C13 UNL A   1       6.399  -8.093   3.198  1.00  0.00    +0.000 C 
BRANCH   22   21
ATOM    105  H11 UNL A   1       6.623  -6.695   4.769  1.00  0.00    +0.000 H 
ATOM    106  H12 UNL A   1       5.606  -6.175   3.376  1.00  0.00    +0.000 H 
ATOM     21  C12 UNL A   1       5.862  -6.954   4.063  1.00  0.00    +0.000 C 
BRANCH   21   20
ATOM     20  C11 UNL A   1       4.584  -7.235   4.845  1.00  0.00    +0.000 C 
ATOM    103  H9  UNL A   1       4.275  -6.327   5.319  1.00  0.00    +0.000 H 
ATOM    104  H10 UNL A   1       3.867  -7.601   4.139  1.00  0.00    +0.000 H 
BRANCH   20   19
ATOM     19  N4  UNL A   1       4.719  -8.259   5.868  1.00  0.00    +0.000 N 
ATOM    102  H8  UNL A   1       5.260  -9.037   5.602  1.00  0.00    +0.000 H 
BRANCH   19   17
ATOM     17  C10 UNL A   1       4.215  -8.320   7.149  1.00  0.00    +0.000 C 
ATOM     18  O4  UNL A   1       4.510  -9.281   7.864  1.00  0.00    +0.000 O 
BRANCH   17   16
ATOM    130  H36 UNL A   1       2.287  -6.763   6.024  1.00  0.00    +0.000 H 
ATOM     99  H5  UNL A   1       1.742  -4.108   9.225  1.00  0.00    +0.000 H 
ATOM    100  H6  UNL A   1       2.977  -5.623  10.665  1.00  0.00    +0.000 H 
ATOM     11  C5  UNL A   1       1.996  -5.255   7.472  1.00  0.00    +0.000 C 
ATOM     12  C6  UNL A   1       2.164  -4.962   8.829  1.00  0.00    +0.000 C 
ATOM     13  C7  UNL A   1       2.900  -5.818   9.655  1.00  0.00    +0.000 C 
ATOM     14  C8  UNL A   1       3.531  -6.935   9.109  1.00  0.00    +0.000 C 
ATOM     16  C9  UNL A   1       3.403  -7.229   7.746  1.00  0.00    +0.000 C 
ATOM     92  C62 UNL A   1       2.536  -6.451   6.976  1.00  0.00    +0.000 C 
BRANCH   11   10
ATOM     10  N3  UNL A   1       1.359  -4.312   6.628  1.00  0.00    +0.000 N 
BRANCH   10    9
ATOM      9  N2  UNL A   1       1.938  -4.278   5.516  1.00  0.00    +0.000 N 
BRANCH    9    8
ATOM     97  H3  UNL A   1       0.387  -2.708   1.558  1.00  0.00    +0.000 H 
ATOM     98  H4  UNL A   1       0.935  -4.498   3.106  1.00  0.00    +0.000 H 
ATOM    131  H37 UNL A   1       2.000  -1.663   6.023  1.00  0.00    +0.000 H 
ATOM    132  H38 UNL A   1       1.469   0.133   4.478  1.00  0.00    +0.000 H 
ATOM      5  C1  UNL A   1       0.893  -1.157   2.905  1.00  0.00    +0.000 C 
ATOM      6  C2  UNL A   1       0.732  -2.486   2.505  1.00  0.00    +0.000 C 
ATOM      7  C3  UNL A   1       1.044  -3.515   3.401  1.00  0.00    +0.000 C 
ATOM      8  C4  UNL A   1       1.502  -3.227   4.694  1.00  0.00    +0.000 C 
ATOM     93  C63 UNL A   1       1.658  -1.887   5.076  1.00  0.00    +0.000 C 
ATOM     94  C64 UNL A   1       1.354  -0.851   4.188  1.00  0.00    +0.000 C 
BRANCH    5    2
ATOM      2  S1  UNL A   1       0.529   0.153   1.772  1.00  0.00    +0.000 S 
ATOM      3  O1  UNL A   1       1.200   1.353   2.209  1.00  0.00    +0.000 O 
ATOM      4  O2  UNL A   1      -0.882   0.109   1.464  1.00  0.00    +0.000 O 
BRANCH    2    1
ATOM      1  N1  UNL A   1       1.335  -0.315   0.371  1.00  0.00    +0.000 N 
ATOM     95  H1  UNL A   1       1.187   0.385  -0.356  1.00  0.00    +0.000 H 
ATOM     96  H2  UNL A   1       0.975  -1.215   0.056  1.00  0.00    +0.000 H 
ENDBRANCH    2    1
ENDBRANCH    5    2
ENDBRANCH    9    8
ENDBRANCH   10    9
ENDBRANCH   11   10
BRANCH   14   15
ATOM    101  H7  UNL A   1       4.329  -7.463  10.876  1.00  0.00    +0.000 H 
ATOM     15  O3  UNL A   1       4.273  -7.699   9.971  1.00  0.00    +0.000 O 
ENDBRANCH   14   15
ENDBRANCH   17   16
ENDBRANCH   19   17
ENDBRANCH   20   19
ENDBRANCH   21   20
ENDBRANCH   22   21
ENDBRANCH   23   22
ENDBRANCH   24   23
ENDBRANCH   25   24
ENDBRANCH   26   25
ENDBRANCH   27   26
ENDBRANCH   29   27
ENDBRANCH   33   32
BRANCH   37   38
ATOM     38  C26 UNL A   1       5.263   1.816  -6.946  1.00  0.00    +0.000 C 
ATOM     39  C27 UNL A   1       6.219   1.432  -7.898  1.00  0.00    +0.000 C 
ATOM     40  F1  UNL A   1       6.102   0.260  -8.539  1.00  0.00    +0.000 F 
ATOM     41  C28 UNL A   1       7.321   2.239  -8.172  1.00  0.00    +0.000 C 
ATOM     42  F2  UNL A   1       8.246   1.830  -9.053  1.00  0.00    +0.000 F 
ATOM     43  C29 UNL A   1       7.470   3.458  -7.529  1.00  0.00    +0.000 C 
ATOM     44  F3  UNL A   1       8.525   4.238  -7.803  1.00  0.00    +0.000 F 
ATOM     45  C30 UNL A   1       6.527   3.867  -6.598  1.00  0.00    +0.000 C 
ATOM     46  F4  UNL A   1       6.660   5.051  -5.986  1.00  0.00    +0.000 F 
ATOM     47  C31 UNL A   1       5.441   3.048  -6.299  1.00  0.00    +0.000 C 
ATOM     48  F5  UNL A   1       4.553   3.466  -5.384  1.00  0.00    +0.000 F 
ENDBRANCH   37   38
BRANCH   54   55
ATOM     65  F10 UNL A   1      -1.189   1.761  -9.997  1.00  0.00    +0.000 F 
ATOM     55  C37 UNL A   1      -1.885   2.257  -7.776  1.00  0.00    +0.000 C 
ATOM     56  C38 UNL A   1      -2.727   3.015  -6.948  1.00  0.00    +0.000 C 
ATOM     57  F6  UNL A   1      -2.691   2.851  -5.617  1.00  0.00    +0.000 F 
ATOM     58  C39 UNL A   1      -3.642   3.915  -7.489  1.00  0.00    +0.000 C 
ATOM     59  F7  UNL A   1      -4.472   4.590  -6.682  1.00  0.00    +0.000 F 
ATOM     60  C40 UNL A   1      -3.706   4.103  -8.861  1.00  0.00    +0.000 C 
ATOM     61  F8  UNL A   1      -4.581   4.976  -9.380  1.00  0.00    +0.000 F 
ATOM     62  C41 UNL A   1      -2.868   3.380  -9.697  1.00  0.00    +0.000 C 
ATOM     63  F9  UNL A   1      -2.918   3.571 -11.023  1.00  0.00    +0.000 F 
ATOM     64  C42 UNL A   1      -1.976   2.455  -9.162  1.00  0.00    +0.000 C 
ENDBRANCH   54   55
BRANCH   69   70
ATOM     70  C46 UNL A   1      -2.577  -3.890  -4.566  1.00  0.00    +0.000 C 
ATOM     71  C47 UNL A   1      -3.400  -4.484  -5.534  1.00  0.00    +0.000 C 
ATOM     72  F11 UNL A   1      -3.140  -4.300  -6.836  1.00  0.00    +0.000 F 
ATOM     73  C48 UNL A   1      -4.516  -5.233  -5.168  1.00  0.00    +0.000 C 
ATOM     74  F12 UNL A   1      -5.312  -5.749  -6.114  1.00  0.00    +0.000 F 
ATOM     75  C49 UNL A   1      -4.812  -5.432  -3.828  1.00  0.00    +0.000 C 
ATOM     76  F13 UNL A   1      -5.882  -6.159  -3.476  1.00  0.00    +0.000 F 
ATOM     77  C50 UNL A   1      -4.001  -4.872  -2.853  1.00  0.00    +0.000 C 
ATOM     78  F14 UNL A   1      -4.271  -5.078  -1.556  1.00  0.00    +0.000 F 
ATOM     79  C51 UNL A   1      -2.904  -4.096  -3.217  1.00  0.00    +0.000 C 
ATOM     80  F15 UNL A   1      -2.144  -3.556  -2.252  1.00  0.00    +0.000 F 
ENDBRANCH   69   70
TORSDOF 21