ROOT
ATOM    129  H26 UNL A   1      14.280   4.292  -0.615  1.00  0.00    +0.000 H 
ATOM    130  H27 UNL A   1      15.050   7.712  -4.220  1.00  0.00    +0.000 H 
ATOM    131  H28 UNL A   1      16.438   9.016  -2.509  1.00  0.00    +0.000 H 
ATOM    132  H29 UNL A   1      14.239   2.235   4.570  1.00  0.00    +0.000 H 
ATOM    133  H30 UNL A   1      13.242   0.697   2.783  1.00  0.00    +0.000 H 
ATOM     19  C15 UNL A   1      13.127   1.876   0.193  1.00  0.00    +0.000 C 
ATOM     20  C16 UNL A   1      13.759   2.444   1.432  1.00  0.00    +0.000 C 
ATOM     21  N3  UNL A   1      14.387   3.581   1.596  1.00  0.00    +0.000 N 
ATOM     22  C17 UNL A   1      14.727   3.634   2.941  1.00  0.00    +0.000 C 
ATOM     23  C18 UNL A   1      15.436   4.583   3.596  1.00  0.00    +0.000 C 
ATOM     35  C25 UNL A   1      15.992   5.756   2.973  1.00  0.00    +0.000 C 
ATOM     36  C26 UNL A   1      16.782   6.742   3.537  1.00  0.00    +0.000 C 
ATOM     37  C27 UNL A   1      17.053   7.701   2.555  1.00  0.00    +0.000 C 
ATOM     38  C28 UNL A   1      16.465   7.292   1.369  1.00  0.00    +0.000 C 
ATOM     39  N4  UNL A   1      15.815   6.099   1.640  1.00  0.00    +0.000 N 
ATOM     40  C29 UNL A   1      16.491   7.940   0.083  1.00  0.00    +0.000 C 
ATOM     52  C36 UNL A   1      15.900   7.466  -1.040  1.00  0.00    +0.000 C 
ATOM     53  N5  UNL A   1      15.168   6.300  -1.214  1.00  0.00    +0.000 N 
ATOM     54  C37 UNL A   1      14.799   6.291  -2.471  1.00  0.00    +0.000 C 
ATOM     55  C38 UNL A   1      14.005   5.255  -3.220  1.00  0.00    +0.000 C 
ATOM     67  C45 UNL A   1      13.598   4.144  -2.577  1.00  0.00    +0.000 C 
ATOM     68  C46 UNL A   1      12.831   3.054  -3.171  1.00  0.00    +0.000 C 
ATOM     69  C47 UNL A   1      12.572   2.135  -2.227  1.00  0.00    +0.000 C 
ATOM     70  C48 UNL A   1      13.184   2.558  -0.967  1.00  0.00    +0.000 C 
ATOM     71  N6  UNL A   1      13.776   3.759  -1.271  1.00  0.00    +0.000 N 
ATOM     72  C49 UNL A   1      15.236   7.468  -3.235  1.00  0.00    +0.000 C 
ATOM     73  C50 UNL A   1      15.934   8.134  -2.325  1.00  0.00    +0.000 C 
ATOM     74  C51 UNL A   1      14.195   2.438   3.559  1.00  0.00    +0.000 C 
ATOM     75  C52 UNL A   1      13.645   1.638   2.658  1.00  0.00    +0.000 C 
ATOM    124  H21 UNL A   1      17.115   6.765   4.513  1.00  0.00    +0.000 H 
ATOM    125  H22 UNL A   1      17.598   8.567   2.691  1.00  0.00    +0.000 H 
ATOM    126  H23 UNL A   1      15.303   5.572   0.985  1.00  0.00    +0.000 H 
ATOM    127  H24 UNL A   1      12.535   2.999  -4.159  1.00  0.00    +0.000 H 
ATOM    128  H25 UNL A   1      12.028   1.270  -2.368  1.00  0.00    +0.000 H 
ENDROOT
BRANCH   19   18
ATOM    134  H31 UNL A   1      10.847   1.362   1.500  1.00  0.00    +0.000 H 
ATOM    135  H32 UNL A   1       9.650  -0.737   1.690  1.00  0.00    +0.000 H 
ATOM     76  C53 UNL A   1      11.193   0.525   1.005  1.00  0.00    +0.000 C 
ATOM     77  C54 UNL A   1      10.481  -0.669   1.082  1.00  0.00    +0.000 C 
ATOM     15  C11 UNL A   1      10.895  -1.776   0.335  1.00  0.00    +0.000 C 
ATOM     16  C12 UNL A   1      12.087  -1.726  -0.392  1.00  0.00    +0.000 C 
ATOM     17  C13 UNL A   1      12.835  -0.547  -0.417  1.00  0.00    +0.000 C 
ATOM     18  C14 UNL A   1      12.378   0.597   0.256  1.00  0.00    +0.000 C 
ATOM    122  H19 UNL A   1      12.414  -2.558  -0.908  1.00  0.00    +0.000 H 
ATOM    123  H20 UNL A   1      13.728  -0.516  -0.934  1.00  0.00    +0.000 H 
BRANCH   15   13
ATOM     13  C10 UNL A   1      10.092  -3.018   0.304  1.00  0.00    +0.000 C 
ATOM     14  O2  UNL A   1      10.649  -4.106   0.409  1.00  0.00    +0.000 O 
BRANCH   13   12
ATOM    121  H18 UNL A   1       8.242  -3.789   0.290  1.00  0.00    +0.000 H 
ATOM     12  N2  UNL A   1       8.731  -2.949   0.137  1.00  0.00    +0.000 N 
BRANCH   12   11
ATOM     11  C9  UNL A   1       7.912  -1.807  -0.235  1.00  0.00    +0.000 C 
ATOM    119  H16 UNL A   1       7.288  -1.547   0.594  1.00  0.00    +0.000 H 
ATOM    120  H17 UNL A   1       8.571  -1.004  -0.496  1.00  0.00    +0.000 H 
BRANCH   11   10
ATOM     10  C8  UNL A   1       7.029  -2.095  -1.444  1.00  0.00    +0.000 C 
ATOM    117  H14 UNL A   1       6.548  -1.183  -1.729  1.00  0.00    +0.000 H 
ATOM    118  H15 UNL A   1       7.674  -2.488  -2.201  1.00  0.00    +0.000 H 
BRANCH   10    9
ATOM      9  C7  UNL A   1       5.947  -3.151  -1.211  1.00  0.00    +0.000 C 
ATOM    115  H12 UNL A   1       5.374  -3.242  -2.111  1.00  0.00    +0.000 H 
ATOM    116  H13 UNL A   1       6.461  -4.049  -0.941  1.00  0.00    +0.000 H 
BRANCH    9    8
ATOM    113  H10 UNL A   1       4.223  -3.604  -0.064  1.00  0.00    +0.000 H 
ATOM    114  H11 UNL A   1       5.577  -2.839   0.826  1.00  0.00    +0.000 H 
ATOM      8  C6  UNL A   1       4.981  -2.850  -0.063  1.00  0.00    +0.000 C 
BRANCH    8    7
ATOM    111  H8  UNL A   1       3.595  -1.424   0.689  1.00  0.00    +0.000 H 
ATOM      7  C5  UNL A   1       4.288  -1.482  -0.124  1.00  0.00    +0.000 C 
ATOM    112  H9  UNL A   1       5.066  -0.749  -0.071  1.00  0.00    +0.000 H 
BRANCH    7    6
ATOM    110  H7  UNL A   1       4.213  -1.256  -2.240  1.00  0.00    +0.000 H 
ATOM    109  H6  UNL A   1       3.083  -0.227  -1.365  1.00  0.00    +0.000 H 
ATOM      6  C4  UNL A   1       3.523  -1.200  -1.423  1.00  0.00    +0.000 C 
BRANCH    6    5
ATOM    108  H5  UNL A   1       2.682  -2.929  -2.246  1.00  0.00    +0.000 H 
ATOM      5  N1  UNL A   1       2.477  -2.179  -1.643  1.00  0.00    +0.000 N 
BRANCH    5    3
ATOM      3  C3  UNL A   1       1.228  -2.149  -1.082  1.00  0.00    +0.000 C 
ATOM      4  O1  UNL A   1       0.779  -3.227  -0.693  1.00  0.00    +0.000 O 
BRANCH    3    2
ATOM      2  C2  UNL A   1       0.496  -0.801  -0.962  1.00  0.00    +0.000 C 
ATOM    107  H4  UNL A   1       0.891  -0.205  -1.758  1.00  0.00    +0.000 H 
BRANCH    2    1
ATOM      1  C1  UNL A   1       0.777  -0.205   0.424  1.00  0.00    +0.000 C 
ATOM    106  H3  UNL A   1       0.401   0.795   0.465  1.00  0.00    +0.000 H 
ATOM    105  H2  UNL A   1       0.295  -0.799   1.172  1.00  0.00    +0.000 H 
ATOM    104  H1  UNL A   1       1.833  -0.197   0.601  1.00  0.00    +0.000 H 
ENDBRANCH    2    1
BRANCH    2   78
ATOM    101  C75 UNL A   1      -3.172  -1.916  -1.352  1.00  0.00    +0.000 C 
ATOM    102  F16 UNL A   1      -3.850  -3.075  -1.385  1.00  0.00    +0.000 F 
ATOM    103  C76 UNL A   1      -1.781  -1.979  -1.302  1.00  0.00    +0.000 C 
ATOM    136  H33 UNL A   1      -1.156   1.295  -1.314  1.00  0.00    +0.000 H 
ATOM    137  H34 UNL A   1      -3.570   1.391  -1.377  1.00  0.00    +0.000 H 
ATOM     78  C55 UNL A   1      -1.014  -0.813  -1.214  1.00  0.00    +0.000 C 
ATOM     79  C56 UNL A   1      -1.698   0.417  -1.290  1.00  0.00    +0.000 C 
ATOM     80  C57 UNL A   1      -3.098   0.474  -1.333  1.00  0.00    +0.000 C 
ATOM     81  C58 UNL A   1      -3.862  -0.699  -1.316  1.00  0.00    +0.000 C 
ATOM    154  H51 UNL A   1      -1.311  -2.897  -1.330  1.00  0.00    +0.000 H 
BRANCH   81   82
ATOM    100  C74 UNL A   1      -5.899  -1.375  -0.074  1.00  0.00    +0.000 C 
ATOM    138  H35 UNL A   1      -5.761   0.611  -2.769  1.00  0.00    +0.000 H 
ATOM    139  H36 UNL A   1      -8.157   0.637  -2.401  1.00  0.00    +0.000 H 
ATOM    140  H37 UNL A   1      -9.120  -0.599  -0.545  1.00  0.00    +0.000 H 
ATOM     82  C59 UNL A   1      -5.321  -0.663  -1.142  1.00  0.00    +0.000 C 
ATOM     83  C60 UNL A   1      -6.163   0.076  -1.984  1.00  0.00    +0.000 C 
ATOM     84  C61 UNL A   1      -7.546   0.096  -1.769  1.00  0.00    +0.000 C 
ATOM     85  C62 UNL A   1      -8.101  -0.613  -0.703  1.00  0.00    +0.000 C 
ATOM     86  C63 UNL A   1      -7.271  -1.340   0.148  1.00  0.00    +0.000 C 
ATOM    153  H50 UNL A   1      -5.296  -1.931   0.552  1.00  0.00    +0.000 H 
BRANCH   86   87
ATOM     87  O3  UNL A   1      -7.919  -2.066   1.175  1.00  0.00    +0.000 O 
BRANCH   87   88
ATOM     89  O4  UNL A   1      -6.115  -2.445   2.616  1.00  0.00    +0.000 O 
ATOM     88  C64 UNL A   1      -7.282  -2.600   2.296  1.00  0.00    +0.000 C 
BRANCH   88   90
ATOM     90  N7  UNL A   1      -8.119  -3.353   3.080  1.00  0.00    +0.000 N 
ATOM    141  H38 UNL A   1      -7.712  -3.988   3.713  1.00  0.00    +0.000 H 
BRANCH   90   91
ATOM     91  C65 UNL A   1      -9.560  -3.272   3.036  1.00  0.00    +0.000 C 
ATOM    142  H39 UNL A   1      -9.857  -3.152   2.016  1.00  0.00    +0.000 H 
ATOM    143  H40 UNL A   1      -9.838  -2.443   3.653  1.00  0.00    +0.000 H 
BRANCH   91   92
ATOM    145  H42 UNL A   1     -11.232  -4.122   3.915  1.00  0.00    +0.000 H 
ATOM     92  C66 UNL A   1     -10.279  -4.497   3.603  1.00  0.00    +0.000 C 
ATOM    144  H41 UNL A   1     -10.297  -5.239   2.831  1.00  0.00    +0.000 H 
BRANCH   92   93
ATOM    146  H43 UNL A   1      -8.657  -5.296   4.685  1.00  0.00    +0.000 H 
ATOM    147  H44 UNL A   1     -10.307  -6.041   4.964  1.00  0.00    +0.000 H 
ATOM     93  C67 UNL A   1      -9.704  -5.163   4.860  1.00  0.00    +0.000 C 
BRANCH   93   94
ATOM     97  C71 UNL A   1      -9.956  -3.402   8.807  1.00  0.00    +0.000 C 
ATOM     98  C72 UNL A   1      -9.713  -4.760   8.637  1.00  0.00    +0.000 C 
ATOM     99  C73 UNL A   1      -9.648  -5.299   7.350  1.00  0.00    +0.000 C 
ATOM    148  H45 UNL A   1     -10.233  -2.522   5.586  1.00  0.00    +0.000 H 
ATOM    149  H46 UNL A   1     -10.319  -1.582   7.816  1.00  0.00    +0.000 H 
ATOM    150  H47 UNL A   1      -9.999  -2.998   9.756  1.00  0.00    +0.000 H 
ATOM    151  H48 UNL A   1      -9.582  -5.369   9.459  1.00  0.00    +0.000 H 
ATOM    152  H49 UNL A   1      -9.457  -6.306   7.233  1.00  0.00    +0.000 H 
ATOM     94  C68 UNL A   1      -9.837  -4.496   6.210  1.00  0.00    +0.000 C 
ATOM     95  C69 UNL A   1     -10.087  -3.135   6.404  1.00  0.00    +0.000 C 
ATOM     96  C70 UNL A   1     -10.141  -2.591   7.692  1.00  0.00    +0.000 C 
ENDBRANCH   93   94
ENDBRANCH   92   93
ENDBRANCH   91   92
ENDBRANCH   90   91
ENDBRANCH   88   90
ENDBRANCH   87   88
ENDBRANCH   86   87
ENDBRANCH   81   82
ENDBRANCH    2   78
ENDBRANCH    3    2
ENDBRANCH    5    3
ENDBRANCH    6    5
ENDBRANCH    7    6
ENDBRANCH    8    7
ENDBRANCH    9    8
ENDBRANCH   10    9
ENDBRANCH   11   10
ENDBRANCH   12   11
ENDBRANCH   13   12
ENDBRANCH   15   13
ENDBRANCH   19   18
BRANCH   23   24
ATOM     33  C24 UNL A   1      15.018   5.223   5.998  1.00  0.00    +0.000 C 
ATOM     34  F5  UNL A   1      14.184   6.189   5.583  1.00  0.00    +0.000 F 
ATOM     24  C19 UNL A   1      15.656   4.390   5.067  1.00  0.00    +0.000 C 
ATOM     25  C20 UNL A   1      16.521   3.400   5.557  1.00  0.00    +0.000 C 
ATOM     26  F1  UNL A   1      17.145   2.570   4.708  1.00  0.00    +0.000 F 
ATOM     27  C21 UNL A   1      16.717   3.232   6.925  1.00  0.00    +0.000 C 
ATOM     28  F2  UNL A   1      17.511   2.249   7.371  1.00  0.00    +0.000 F 
ATOM     29  C22 UNL A   1      16.081   4.072   7.827  1.00  0.00    +0.000 C 
ATOM     30  F3  UNL A   1      16.274   3.912   9.144  1.00  0.00    +0.000 F 
ATOM     31  C23 UNL A   1      15.238   5.071   7.365  1.00  0.00    +0.000 C 
ATOM     32  F4  UNL A   1      14.630   5.889   8.235  1.00  0.00    +0.000 F 
ENDBRANCH   23   24
BRANCH   40   41
ATOM     41  C30 UNL A   1      17.247   9.231  -0.033  1.00  0.00    +0.000 C 
ATOM     42  C31 UNL A   1      16.584  10.460  -0.157  1.00  0.00    +0.000 C 
ATOM     43  F6  UNL A   1      15.245  10.500  -0.228  1.00  0.00    +0.000 F 
ATOM     44  C32 UNL A   1      17.299  11.651  -0.245  1.00  0.00    +0.000 C 
ATOM     45  F7  UNL A   1      16.647  12.811  -0.405  1.00  0.00    +0.000 F 
ATOM     46  C33 UNL A   1      18.684  11.639  -0.181  1.00  0.00    +0.000 C 
ATOM     47  F8  UNL A   1      19.370  12.787  -0.260  1.00  0.00    +0.000 F 
ATOM     48  C34 UNL A   1      19.359  10.435  -0.042  1.00  0.00    +0.000 C 
ATOM     49  F9  UNL A   1      20.698  10.423   0.030  1.00  0.00    +0.000 F 
ATOM     50  C35 UNL A   1      18.649   9.240   0.020  1.00  0.00    +0.000 C 
ATOM     51  F10 UNL A   1      19.329   8.090   0.143  1.00  0.00    +0.000 F 
ENDBRANCH   40   41
BRANCH   55   56
ATOM     65  C44 UNL A   1      12.389   5.698  -5.099  1.00  0.00    +0.000 C 
ATOM     66  F15 UNL A   1      11.389   5.801  -4.211  1.00  0.00    +0.000 F 
ATOM     56  C39 UNL A   1      13.693   5.431  -4.661  1.00  0.00    +0.000 C 
ATOM     57  C40 UNL A   1      14.701   5.328  -5.630  1.00  0.00    +0.000 C 
ATOM     58  F11 UNL A   1      15.967   5.094  -5.255  1.00  0.00    +0.000 F 
ATOM     59  C41 UNL A   1      14.418   5.501  -6.982  1.00  0.00    +0.000 C 
ATOM     60  F12 UNL A   1      15.407   5.436  -7.885  1.00  0.00    +0.000 F 
ATOM     61  C42 UNL A   1      13.119   5.755  -7.395  1.00  0.00    +0.000 C 
ATOM     62  F13 UNL A   1      12.847   5.917  -8.696  1.00  0.00    +0.000 F 
ATOM     63  C43 UNL A   1      12.103   5.847  -6.455  1.00  0.00    +0.000 C 
ATOM     64  F14 UNL A   1      10.844   6.080  -6.850  1.00  0.00    +0.000 F 
ENDBRANCH   55   56
TORSDOF 25