ROOT
ATOM     19  C15 UNL A   1      12.814   2.094  -0.637  1.00  0.00    +0.000 C 
ATOM     20  C16 UNL A   1      13.401   3.091   0.321  1.00  0.00    +0.000 C 
ATOM     21  N3  UNL A   1      13.893   4.280   0.084  1.00  0.00    +0.000 N 
ATOM     22  C17 UNL A   1      14.231   4.801   1.326  1.00  0.00    +0.000 C 
ATOM     23  C18 UNL A   1      14.818   5.987   1.612  1.00  0.00    +0.000 C 
ATOM     35  C25 UNL A   1      15.229   6.945   0.621  1.00  0.00    +0.000 C 
ATOM     36  C26 UNL A   1      15.887   8.149   0.804  1.00  0.00    +0.000 C 
ATOM     37  C27 UNL A   1      16.052   8.751  -0.448  1.00  0.00    +0.000 C 
ATOM     38  C28 UNL A   1      15.534   7.903  -1.414  1.00  0.00    +0.000 C 
ATOM     39  N4  UNL A   1      15.026   6.803  -0.744  1.00  0.00    +0.000 N 
ATOM     40  C29 UNL A   1      15.505   8.083  -2.843  1.00  0.00    +0.000 C 
ATOM     52  C36 UNL A   1      14.968   7.209  -3.729  1.00  0.00    +0.000 C 
ATOM     53  N5  UNL A   1      14.363   5.983  -3.486  1.00  0.00    +0.000 N 
ATOM     54  C37 UNL A   1      14.010   5.517  -4.659  1.00  0.00    +0.000 C 
ATOM     55  C38 UNL A   1      13.338   4.214  -4.998  1.00  0.00    +0.000 C 
ATOM     67  C45 UNL A   1      13.079   3.330  -4.016  1.00  0.00    +0.000 C 
ATOM     68  C46 UNL A   1      12.427   2.035  -4.190  1.00  0.00    +0.000 C 
ATOM     69  C47 UNL A   1      12.260   1.463  -2.987  1.00  0.00    +0.000 C 
ATOM     70  C48 UNL A   1      12.829   2.336  -1.960  1.00  0.00    +0.000 C 
ATOM     71  N6  UNL A   1      13.322   3.405  -2.666  1.00  0.00    +0.000 N 
ATOM     72  C49 UNL A   1      14.323   6.413  -5.781  1.00  0.00    +0.000 C 
ATOM     73  C50 UNL A   1      14.935   7.415  -5.162  1.00  0.00    +0.000 C 
ATOM     74  C51 UNL A   1      13.853   3.815   2.316  1.00  0.00    +0.000 C 
ATOM     75  C52 UNL A   1      13.403   2.710   1.742  1.00  0.00    +0.000 C 
ATOM    111  H21 UNL A   1      16.202   8.536   1.707  1.00  0.00    +0.000 H 
ATOM    112  H22 UNL A   1      16.485   9.671  -0.623  1.00  0.00    +0.000 H 
ATOM    113  H23 UNL A   1      14.585   6.033  -1.172  1.00  0.00    +0.000 H 
ATOM    114  H24 UNL A   1      12.140   1.626  -5.093  1.00  0.00    +0.000 H 
ATOM    115  H25 UNL A   1      11.804   0.553  -2.814  1.00  0.00    +0.000 H 
ATOM    116  H26 UNL A   1      13.803   4.154  -2.245  1.00  0.00    +0.000 H 
ATOM    117  H27 UNL A   1      14.121   6.295  -6.786  1.00  0.00    +0.000 H 
ATOM    118  H28 UNL A   1      15.336   8.236  -5.641  1.00  0.00    +0.000 H 
ATOM    119  H29 UNL A   1      13.924   3.956   3.336  1.00  0.00    +0.000 H 
ATOM    120  H30 UNL A   1      13.126   1.816   2.177  1.00  0.00    +0.000 H 
ENDROOT
BRANCH   19   18
ATOM     76  C53 UNL A   1      10.965   1.050   0.659  1.00  0.00    +0.000 C 
ATOM    109  H19 UNL A   1      12.317  -2.468  -0.017  1.00  0.00    +0.000 H 
ATOM     77  C54 UNL A   1      10.323  -0.057   1.204  1.00  0.00    +0.000 C 
ATOM     15  C11 UNL A   1      10.786  -1.343   0.908  1.00  0.00    +0.000 C 
ATOM     16  C12 UNL A   1      11.956  -1.518   0.165  1.00  0.00    +0.000 C 
ATOM     17  C13 UNL A   1      12.636  -0.403  -0.330  1.00  0.00    +0.000 C 
ATOM    110  H20 UNL A   1      13.512  -0.528  -0.860  1.00  0.00    +0.000 H 
ATOM     18  C14 UNL A   1      12.130   0.888  -0.108  1.00  0.00    +0.000 C 
ATOM    121  H31 UNL A   1      10.584   1.995   0.819  1.00  0.00    +0.000 H 
ATOM    122  H32 UNL A   1       9.508   0.070   1.825  1.00  0.00    +0.000 H 
BRANCH   15   13
ATOM     13  C10 UNL A   1      10.045  -2.533   1.375  1.00  0.00    +0.000 C 
ATOM     14  O2  UNL A   1      10.650  -3.465   1.896  1.00  0.00    +0.000 O 
BRANCH   13   12
ATOM    108  H18 UNL A   1       8.227  -3.331   1.668  1.00  0.00    +0.000 H 
ATOM     12  N2  UNL A   1       8.684  -2.593   1.203  1.00  0.00    +0.000 N 
BRANCH   12   11
ATOM    106  H16 UNL A   1       7.220  -1.142   1.099  1.00  0.00    +0.000 H 
ATOM     11  C9  UNL A   1       7.828  -1.711   0.426  1.00  0.00    +0.000 C 
ATOM    107  H17 UNL A   1       8.459  -1.078  -0.162  1.00  0.00    +0.000 H 
BRANCH   11   10
ATOM    105  H15 UNL A   1       7.549  -3.153  -1.068  1.00  0.00    +0.000 H 
ATOM     10  C8  UNL A   1       6.919  -2.478  -0.527  1.00  0.00    +0.000 C 
ATOM    104  H14 UNL A   1       6.423  -1.769  -1.157  1.00  0.00    +0.000 H 
BRANCH   10    9
ATOM      9  C7  UNL A   1       5.852  -3.335   0.156  1.00  0.00    +0.000 C 
ATOM    102  H12 UNL A   1       5.266  -3.804  -0.606  1.00  0.00    +0.000 H 
ATOM    103  H13 UNL A   1       6.379  -4.030   0.775  1.00  0.00    +0.000 H 
BRANCH    9    8
ATOM    100  H10 UNL A   1       4.154  -3.255   1.425  1.00  0.00    +0.000 H 
ATOM    101  H11 UNL A   1       5.512  -2.174   1.867  1.00  0.00    +0.000 H 
ATOM      8  C6  UNL A   1       4.903  -2.571   1.082  1.00  0.00    +0.000 C 
BRANCH    8    7
ATOM     98  H8  UNL A   1       3.561  -0.924   1.190  1.00  0.00    +0.000 H 
ATOM     99  H9  UNL A   1       4.959  -0.710   0.100  1.00  0.00    +0.000 H 
ATOM      7  C5  UNL A   1       4.190  -1.369   0.448  1.00  0.00    +0.000 C 
BRANCH    7    6
ATOM     97  H7  UNL A   1       3.931  -2.222  -1.490  1.00  0.00    +0.000 H 
ATOM      6  C4  UNL A   1       3.325  -1.710  -0.772  1.00  0.00    +0.000 C 
ATOM     96  H6  UNL A   1       2.937  -0.805  -1.191  1.00  0.00    +0.000 H 
BRANCH    6    5
ATOM      5  N1  UNL A   1       2.221  -2.572  -0.396  1.00  0.00    +0.000 N 
ATOM     95  H5  UNL A   1       2.383  -3.541  -0.459  1.00  0.00    +0.000 H 
BRANCH    5    3
ATOM      3  C3  UNL A   1       0.979  -2.193   0.037  1.00  0.00    +0.000 C 
ATOM      4  O1  UNL A   1       0.415  -2.943   0.836  1.00  0.00    +0.000 O 
BRANCH    3    2
ATOM      2  C2  UNL A   1       0.343  -0.901  -0.515  1.00  0.00    +0.000 C 
ATOM     94  H4  UNL A   1       0.667  -0.771  -1.526  1.00  0.00    +0.000 H 
BRANCH    2    1
ATOM      1  C1  UNL A   1       0.826   0.283   0.333  1.00  0.00    +0.000 C 
ATOM     91  H1  UNL A   1       1.895   0.279   0.376  1.00  0.00    +0.000 H 
ATOM     92  H2  UNL A   1       0.430   0.198   1.323  1.00  0.00    +0.000 H 
ATOM     93  H3  UNL A   1       0.491   1.198  -0.108  1.00  0.00    +0.000 H 
ENDBRANCH    2    1
BRANCH    2   78
ATOM    129  H39 UNL A   1      -1.294  -3.031  -1.044  1.00  0.00    +0.000 H 
ATOM     78  C55 UNL A   1      -1.190  -0.965  -0.624  1.00  0.00    +0.000 C 
ATOM     79  C56 UNL A   1      -1.983   0.190  -0.521  1.00  0.00    +0.000 C 
ATOM     80  C57 UNL A   1      -3.380   0.120  -0.571  1.00  0.00    +0.000 C 
ATOM     81  C58 UNL A   1      -4.027  -1.107  -0.746  1.00  0.00    +0.000 C 
ATOM     89  C64 UNL A   1      -3.249  -2.253  -0.934  1.00  0.00    +0.000 C 
ATOM     90  C65 UNL A   1      -1.851  -2.177  -0.885  1.00  0.00    +0.000 C 
ATOM    123  H33 UNL A   1      -1.527   1.109  -0.406  1.00  0.00    +0.000 H 
ATOM    124  H34 UNL A   1      -3.938   0.983  -0.477  1.00  0.00    +0.000 H 
ATOM    128  H38 UNL A   1      -3.708  -3.161  -1.109  1.00  0.00    +0.000 H 
BRANCH   81   82
ATOM     82  C59 UNL A   1      -5.525  -1.126  -0.775  1.00  0.00    +0.000 C 
ATOM     83  O3  UNL A   1      -6.113  -0.049  -0.865  1.00  0.00    +0.000 O 
BRANCH   82   84
ATOM     84  C60 UNL A   1      -6.223  -2.397  -0.708  1.00  0.00    +0.000 C 
ATOM     85  C61 UNL A   1      -6.124  -3.412   0.226  1.00  0.00    +0.000 C 
ATOM     86  C62 UNL A   1      -6.969  -4.517  -0.089  1.00  0.00    +0.000 C 
ATOM     87  C63 UNL A   1      -7.694  -4.300  -1.240  1.00  0.00    +0.000 C 
ATOM     88  S1  UNL A   1      -7.375  -2.764  -1.920  1.00  0.00    +0.000 S 
ATOM    125  H35 UNL A   1      -5.510  -3.374   1.054  1.00  0.00    +0.000 H 
ATOM    126  H36 UNL A   1      -7.030  -5.377   0.478  1.00  0.00    +0.000 H 
ATOM    127  H37 UNL A   1      -8.352  -4.984  -1.644  1.00  0.00    +0.000 H 
ENDBRANCH   82   84
ENDBRANCH   81   82
ENDBRANCH    2   78
ENDBRANCH    3    2
ENDBRANCH    5    3
ENDBRANCH    6    5
ENDBRANCH    7    6
ENDBRANCH    8    7
ENDBRANCH    9    8
ENDBRANCH   10    9
ENDBRANCH   11   10
ENDBRANCH   12   11
ENDBRANCH   13   12
ENDBRANCH   15   13
ENDBRANCH   19   18
BRANCH   23   24
ATOM     33  C24 UNL A   1      14.299   7.323   3.684  1.00  0.00    +0.000 C 
ATOM     34  F5  UNL A   1      13.374   8.008   2.994  1.00  0.00    +0.000 F 
ATOM     24  C19 UNL A   1      15.043   6.312   3.060  1.00  0.00    +0.000 C 
ATOM     25  C20 UNL A   1      16.001   5.632   3.828  1.00  0.00    +0.000 C 
ATOM     26  F1  UNL A   1      16.729   4.647   3.280  1.00  0.00    +0.000 F 
ATOM     27  C21 UNL A   1      16.178   5.927   5.177  1.00  0.00    +0.000 C 
ATOM     28  F2  UNL A   1      17.058   5.225   5.904  1.00  0.00    +0.000 F 
ATOM     29  C22 UNL A   1      15.432   6.932   5.773  1.00  0.00    +0.000 C 
ATOM     30  F3  UNL A   1      15.603   7.215   7.072  1.00  0.00    +0.000 F 
ATOM     31  C23 UNL A   1      14.500   7.637   5.026  1.00  0.00    +0.000 C 
ATOM     32  F4  UNL A   1      13.785   8.615   5.599  1.00  0.00    +0.000 F 
ENDBRANCH   23   24
BRANCH   40   41
ATOM     41  C30 UNL A   1      16.142   9.322  -3.397  1.00  0.00    +0.000 C 
ATOM     42  C31 UNL A   1      15.374  10.390  -3.882  1.00  0.00    +0.000 C 
ATOM     43  F6  UNL A   1      14.036  10.294  -3.926  1.00  0.00    +0.000 F 
ATOM     44  C32 UNL A   1      15.982  11.551  -4.350  1.00  0.00    +0.000 C 
ATOM     45  F7  UNL A   1      15.232  12.548  -4.840  1.00  0.00    +0.000 F 
ATOM     46  C33 UNL A   1      17.363  11.677  -4.317  1.00  0.00    +0.000 C 
ATOM     47  F8  UNL A   1      17.946  12.800  -4.758  1.00  0.00    +0.000 F 
ATOM     48  C34 UNL A   1      18.141  10.636  -3.833  1.00  0.00    +0.000 C 
ATOM     49  F9  UNL A   1      19.475  10.760  -3.790  1.00  0.00    +0.000 F 
ATOM     50  C35 UNL A   1      17.538   9.464  -3.386  1.00  0.00    +0.000 C 
ATOM     51  F10 UNL A   1      18.314   8.472  -2.927  1.00  0.00    +0.000 F 
ENDBRANCH   40   41
BRANCH   55   56
ATOM     65  C44 UNL A   1      11.658   3.852  -6.838  1.00  0.00    +0.000 C 
ATOM     66  F15 UNL A   1      10.666   4.155  -5.988  1.00  0.00    +0.000 F 
ATOM     56  C39 UNL A   1      12.989   3.876  -6.401  1.00  0.00    +0.000 C 
ATOM     57  C40 UNL A   1      13.989   3.545  -7.326  1.00  0.00    +0.000 C 
ATOM     58  F11 UNL A   1      15.277   3.572  -6.957  1.00  0.00    +0.000 F 
ATOM     59  C41 UNL A   1      13.670   3.214  -8.641  1.00  0.00    +0.000 C 
ATOM     60  F12 UNL A   1      14.646   2.931  -9.514  1.00  0.00    +0.000 F 
ATOM     61  C42 UNL A   1      12.345   3.184  -9.049  1.00  0.00    +0.000 C 
ATOM     62  F13 UNL A   1      12.037   2.856 -10.311  1.00  0.00    +0.000 F 
ATOM     63  C43 UNL A   1      11.338   3.499  -8.148  1.00  0.00    +0.000 C 
ATOM     64  F14 UNL A   1      10.056   3.458  -8.535  1.00  0.00    +0.000 F 
ENDBRANCH   55   56
TORSDOF 19