ROOT
ATOM     21  C17 UNL A   1      -1.746   4.111   7.747  1.00  0.00    +0.000 C 
ATOM     22  C18 UNL A   1      -2.203   5.497   7.521  1.00  0.00    +0.000 C 
ATOM     23  N3  UNL A   1      -3.417   5.900   7.713  1.00  0.00    +0.000 N 
ATOM     24  C19 UNL A   1      -3.523   7.169   7.191  1.00  0.00    +0.000 C 
ATOM     25  C20 UNL A   1      -4.755   7.713   6.967  1.00  0.00    +0.000 C 
ATOM     37  C27 UNL A   1      -5.825   6.803   7.358  1.00  0.00    +0.000 C 
ATOM     38  C28 UNL A   1      -6.585   5.903   6.628  1.00  0.00    +0.000 C 
ATOM     39  C29 UNL A   1      -7.232   5.034   7.535  1.00  0.00    +0.000 C 
ATOM     40  C30 UNL A   1      -6.874   5.410   8.817  1.00  0.00    +0.000 C 
ATOM     41  N4  UNL A   1      -6.039   6.505   8.699  1.00  0.00    +0.000 N 
ATOM     42  C31 UNL A   1      -7.232   4.868  10.116  1.00  0.00    +0.000 C 
ATOM     54  C38 UNL A   1      -6.721   3.633  10.385  1.00  0.00    +0.000 C 
ATOM     55  N5  UNL A   1      -5.715   3.090   9.631  1.00  0.00    +0.000 N 
ATOM     56  C39 UNL A   1      -5.367   1.945  10.146  1.00  0.00    +0.000 C 
ATOM     57  C40 UNL A   1      -4.215   1.118   9.640  1.00  0.00    +0.000 C 
ATOM     69  C47 UNL A   1      -3.829   1.412   8.366  1.00  0.00    +0.000 C 
ATOM     70  C48 UNL A   1      -4.644   2.100   7.380  1.00  0.00    +0.000 C 
ATOM     71  C49 UNL A   1      -3.931   3.149   6.945  1.00  0.00    +0.000 C 
ATOM     72  C50 UNL A   1      -2.600   3.083   7.541  1.00  0.00    +0.000 C 
ATOM     73  N6  UNL A   1      -2.484   1.759   8.045  1.00  0.00    +0.000 N 
ATOM     74  C51 UNL A   1      -6.171   1.581  11.309  1.00  0.00    +0.000 C 
ATOM     75  C52 UNL A   1      -6.991   2.641  11.408  1.00  0.00    +0.000 C 
ATOM     76  C53 UNL A   1      -2.168   7.552   6.858  1.00  0.00    +0.000 C 
ATOM     77  C54 UNL A   1      -1.305   6.554   7.076  1.00  0.00    +0.000 C 
ATOM    117  H22 UNL A   1      -6.665   5.872   5.600  1.00  0.00    +0.000 H 
ATOM    118  H23 UNL A   1      -7.860   4.255   7.285  1.00  0.00    +0.000 H 
ATOM    119  H24 UNL A   1      -5.652   7.002   9.455  1.00  0.00    +0.000 H 
ATOM    120  H25 UNL A   1      -5.592   1.832   7.073  1.00  0.00    +0.000 H 
ATOM    121  H26 UNL A   1      -4.266   3.880   6.298  1.00  0.00    +0.000 H 
ATOM    122  H27 UNL A   1      -1.671   1.214   8.148  1.00  0.00    +0.000 H 
ATOM    123  H28 UNL A   1      -6.123   0.735  11.899  1.00  0.00    +0.000 H 
ATOM    124  H29 UNL A   1      -7.726   2.738  12.126  1.00  0.00    +0.000 H 
ATOM    125  H30 UNL A   1      -1.900   8.481   6.497  1.00  0.00    +0.000 H 
ATOM    126  H31 UNL A   1      -0.280   6.536   6.959  1.00  0.00    +0.000 H 
ENDROOT
BRANCH   21   20
ATOM     78  C55 UNL A   1       0.577   3.743   7.118  1.00  0.00    +0.000 C 
ATOM     79  C56 UNL A   1       1.820   3.194   7.371  1.00  0.00    +0.000 C 
ATOM     17  C13 UNL A   1       2.062   2.611   8.614  1.00  0.00    +0.000 C 
ATOM     18  C14 UNL A   1       1.194   2.843   9.686  1.00  0.00    +0.000 C 
ATOM     19  C15 UNL A   1      -0.030   3.468   9.450  1.00  0.00    +0.000 C 
ATOM    115  H20 UNL A   1       1.456   2.555  10.642  1.00  0.00    +0.000 H 
ATOM    116  H21 UNL A   1      -0.673   3.670  10.232  1.00  0.00    +0.000 H 
ATOM     20  C16 UNL A   1      -0.373   3.817   8.142  1.00  0.00    +0.000 C 
ATOM    127  H32 UNL A   1       0.350   4.098   6.176  1.00  0.00    +0.000 H 
ATOM    128  H33 UNL A   1       2.558   3.214   6.651  1.00  0.00    +0.000 H 
BRANCH   17   15
ATOM     15  C12 UNL A   1       3.127   1.595   8.791  1.00  0.00    +0.000 C 
ATOM     16  O2  UNL A   1       3.821   1.604   9.792  1.00  0.00    +0.000 O 
BRANCH   15   14
ATOM    114  H19 UNL A   1       3.855  -0.153   8.104  1.00  0.00    +0.000 H 
ATOM     14  N2  UNL A   1       3.247   0.580   7.857  1.00  0.00    +0.000 N 
BRANCH   14   13
ATOM    113  H18 UNL A   1       3.024   1.191   5.920  1.00  0.00    +0.000 H 
ATOM     13  C11 UNL A   1       2.598   0.446   6.559  1.00  0.00    +0.000 C 
ATOM    112  H17 UNL A   1       1.544   0.576   6.694  1.00  0.00    +0.000 H 
BRANCH   13   12
ATOM     12  C10 UNL A   1       2.834  -0.901   5.888  1.00  0.00    +0.000 C 
ATOM    110  H15 UNL A   1       3.081  -0.725   4.862  1.00  0.00    +0.000 H 
ATOM    111  H16 UNL A   1       3.623  -1.379   6.431  1.00  0.00    +0.000 H 
BRANCH   12   11
ATOM     11  C9  UNL A   1       1.631  -1.850   5.936  1.00  0.00    +0.000 C 
ATOM    108  H13 UNL A   1       1.959  -2.808   5.590  1.00  0.00    +0.000 H 
ATOM    109  H14 UNL A   1       1.298  -1.833   6.953  1.00  0.00    +0.000 H 
BRANCH   11   10
ATOM     10  C8  UNL A   1       0.403  -1.447   5.100  1.00  0.00    +0.000 C 
ATOM    107  H12 UNL A   1      -0.012  -0.597   5.601  1.00  0.00    +0.000 H 
ATOM    106  H11 UNL A   1      -0.246  -2.296   5.048  1.00  0.00    +0.000 H 
BRANCH   10    9
ATOM      9  C7  UNL A   1       0.672  -0.978   3.664  1.00  0.00    +0.000 C 
ATOM    105  H10 UNL A   1       1.221  -0.063   3.747  1.00  0.00    +0.000 H 
ATOM    104  H9  UNL A   1      -0.271  -0.866   3.170  1.00  0.00    +0.000 H 
BRANCH    9    8
ATOM    102  H7  UNL A   1       1.920  -1.375   1.987  1.00  0.00    +0.000 H 
ATOM    103  H8  UNL A   1       2.323  -2.281   3.454  1.00  0.00    +0.000 H 
ATOM      8  C6  UNL A   1       1.537  -1.918   2.825  1.00  0.00    +0.000 C 
BRANCH    8    7
ATOM    101  H6  UNL A   1       0.444  -3.666   3.029  1.00  0.00    +0.000 H 
ATOM      7  N1  UNL A   1       0.803  -3.065   2.337  1.00  0.00    +0.000 N 
BRANCH    7    5
ATOM      5  C5  UNL A   1       0.541  -3.429   1.046  1.00  0.00    +0.000 C 
ATOM      6  O1  UNL A   1      -0.046  -4.495   0.849  1.00  0.00    +0.000 O 
BRANCH    5    4
ATOM    100  H5  UNL A   1       0.718  -3.061  -1.014  1.00  0.00    +0.000 H 
ATOM     99  H4  UNL A   1       2.051  -2.401  -0.032  1.00  0.00    +0.000 H 
ATOM      4  C4  UNL A   1       0.995  -2.550  -0.115  1.00  0.00    +0.000 C 
BRANCH    4    3
ATOM    129  H34 UNL A   1      -1.594  -2.069  -0.115  1.00  0.00    +0.000 H 
ATOM      2  C2  UNL A   1       1.034   0.039  -0.240  1.00  0.00    +0.000 C 
ATOM      3  C3  UNL A   1       0.324  -1.187  -0.163  1.00  0.00    +0.000 C 
ATOM    135  H40 UNL A   1      -1.625   2.111  -0.182  1.00  0.00    +0.000 H 
ATOM     80  C57 UNL A   1      -1.086  -1.171  -0.142  1.00  0.00    +0.000 C 
ATOM     81  C58 UNL A   1      -1.817   0.019  -0.158  1.00  0.00    +0.000 C 
ATOM     88  C65 UNL A   1      -1.102   1.221  -0.191  1.00  0.00    +0.000 C 
ATOM     89  C66 UNL A   1       0.308   1.261  -0.234  1.00  0.00    +0.000 C 
BRANCH    2    1
ATOM      1  C1  UNL A   1       2.541   0.050  -0.388  1.00  0.00    +0.000 C 
ATOM     98  H3  UNL A   1       2.804   0.509  -1.317  1.00  0.00    +0.000 H 
ATOM     97  H2  UNL A   1       2.974   0.603   0.419  1.00  0.00    +0.000 H 
ATOM     96  H1  UNL A   1       2.908  -0.955  -0.370  1.00  0.00    +0.000 H 
ENDBRANCH    2    1
BRANCH   81   82
ATOM    130  H35 UNL A   1      -3.488  -1.157   1.603  1.00  0.00    +0.000 H 
ATOM    131  H36 UNL A   1      -5.908  -1.229   1.571  1.00  0.00    +0.000 H 
ATOM    132  H37 UNL A   1      -7.135  -0.124  -0.205  1.00  0.00    +0.000 H 
ATOM    133  H38 UNL A   1      -5.935   1.068  -1.943  1.00  0.00    +0.000 H 
ATOM    134  H39 UNL A   1      -3.516   1.151  -1.911  1.00  0.00    +0.000 H 
ATOM     82  C59 UNL A   1      -3.288  -0.001  -0.154  1.00  0.00    +0.000 C 
ATOM     83  C60 UNL A   1      -4.002  -0.682   0.845  1.00  0.00    +0.000 C 
ATOM     84  C61 UNL A   1      -5.399  -0.725   0.829  1.00  0.00    +0.000 C 
ATOM     85  C62 UNL A   1      -6.104  -0.089  -0.190  1.00  0.00    +0.000 C 
ATOM     86  C63 UNL A   1      -5.414   0.595  -1.188  1.00  0.00    +0.000 C 
ATOM     87  C64 UNL A   1      -4.018   0.640  -1.169  1.00  0.00    +0.000 C 
ENDBRANCH   81   82
BRANCH   89   90
ATOM    136  H41 UNL A   1       0.273   3.137   1.686  1.00  0.00    +0.000 H 
ATOM    137  H42 UNL A   1       1.343   5.308   1.715  1.00  0.00    +0.000 H 
ATOM    138  H43 UNL A   1       2.675   6.031  -0.179  1.00  0.00    +0.000 H 
ATOM    139  H44 UNL A   1       2.901   4.592  -2.118  1.00  0.00    +0.000 H 
ATOM    140  H45 UNL A   1       1.798   2.437  -2.171  1.00  0.00    +0.000 H 
ATOM     90  C67 UNL A   1       0.958   2.587  -0.237  1.00  0.00    +0.000 C 
ATOM     91  C68 UNL A   1       0.831   3.441   0.873  1.00  0.00    +0.000 C 
ATOM     92  C69 UNL A   1       1.449   4.693   0.893  1.00  0.00    +0.000 C 
ATOM     93  C70 UNL A   1       2.209   5.110  -0.197  1.00  0.00    +0.000 C 
ATOM     94  C71 UNL A   1       2.339   4.283  -1.310  1.00  0.00    +0.000 C 
ATOM     95  C72 UNL A   1       1.709   3.036  -1.335  1.00  0.00    +0.000 C 
ENDBRANCH   89   90
ENDBRANCH    4    3
ENDBRANCH    5    4
ENDBRANCH    7    5
ENDBRANCH    8    7
ENDBRANCH    9    8
ENDBRANCH   10    9
ENDBRANCH   11   10
ENDBRANCH   12   11
ENDBRANCH   13   12
ENDBRANCH   14   13
ENDBRANCH   15   14
ENDBRANCH   17   15
ENDBRANCH   21   20
BRANCH   25   26
ATOM     33  C25 UNL A   1      -4.171  10.973   4.992  1.00  0.00    +0.000 C 
ATOM     34  F4  UNL A   1      -3.209  11.898   4.862  1.00  0.00    +0.000 F 
ATOM     35  C26 UNL A   1      -4.065   9.995   5.988  1.00  0.00    +0.000 C 
ATOM     36  F5  UNL A   1      -3.066  10.139   6.870  1.00  0.00    +0.000 F 
ATOM     26  C21 UNL A   1      -4.976   8.930   6.094  1.00  0.00    +0.000 C 
ATOM     27  C22 UNL A   1      -6.114   9.040   5.265  1.00  0.00    +0.000 C 
ATOM     28  F1  UNL A   1      -7.132   8.175   5.349  1.00  0.00    +0.000 F 
ATOM     29  C23 UNL A   1      -6.250  10.047   4.306  1.00  0.00    +0.000 C 
ATOM     30  F2  UNL A   1      -7.344  10.085   3.531  1.00  0.00    +0.000 F 
ATOM     31  C24 UNL A   1      -5.255  10.987   4.138  1.00  0.00    +0.000 C 
ATOM     32  F3  UNL A   1      -5.354  11.915   3.176  1.00  0.00    +0.000 F 
ENDBRANCH   25   26
BRANCH   42   43
ATOM     43  C32 UNL A   1      -8.187   5.626  10.995  1.00  0.00    +0.000 C 
ATOM     44  C33 UNL A   1      -8.170   5.558  12.397  1.00  0.00    +0.000 C 
ATOM     45  F6  UNL A   1      -7.289   4.781  13.043  1.00  0.00    +0.000 F 
ATOM     46  C34 UNL A   1      -9.027   6.333  13.183  1.00  0.00    +0.000 C 
ATOM     47  F7  UNL A   1      -9.002   6.204  14.517  1.00  0.00    +0.000 F 
ATOM     48  C35 UNL A   1      -9.883   7.248  12.597  1.00  0.00    +0.000 C 
ATOM     49  F8  UNL A   1     -10.675   8.016  13.356  1.00  0.00    +0.000 F 
ATOM     50  C36 UNL A   1      -9.897   7.378  11.223  1.00  0.00    +0.000 C 
ATOM     51  F9  UNL A   1     -10.686   8.293  10.644  1.00  0.00    +0.000 F 
ATOM     52  C37 UNL A   1      -9.078   6.570  10.435  1.00  0.00    +0.000 C 
ATOM     53  F10 UNL A   1      -9.163   6.747   9.108  1.00  0.00    +0.000 F 
ENDBRANCH   42   43
BRANCH   57   58
ATOM     65  C45 UNL A   1      -1.207   1.052  11.919  1.00  0.00    +0.000 C 
ATOM     66  F14 UNL A   1      -0.551   1.891  12.733  1.00  0.00    +0.000 F 
ATOM     67  C46 UNL A   1      -2.463   1.408  11.423  1.00  0.00    +0.000 C 
ATOM     68  F15 UNL A   1      -2.978   2.596  11.772  1.00  0.00    +0.000 F 
ATOM     58  C41 UNL A   1      -3.124   0.593  10.498  1.00  0.00    +0.000 C 
ATOM     59  C42 UNL A   1      -2.521  -0.631  10.158  1.00  0.00    +0.000 C 
ATOM     60  F11 UNL A   1      -3.115  -1.450   9.275  1.00  0.00    +0.000 F 
ATOM     61  C43 UNL A   1      -1.263  -0.979  10.646  1.00  0.00    +0.000 C 
ATOM     62  F12 UNL A   1      -0.674  -2.110  10.232  1.00  0.00    +0.000 F 
ATOM     63  C44 UNL A   1      -0.597  -0.125  11.508  1.00  0.00    +0.000 C 
ATOM     64  F13 UNL A   1       0.644  -0.418  11.919  1.00  0.00    +0.000 F 
ENDBRANCH   57   58
TORSDOF 19