ROOT
ATOM     28  C19 UNL A   1      -3.222 -12.859  15.694  1.00  0.00    +0.000 C 
ATOM     29  C20 UNL A   1      -4.649 -13.334  15.676  1.00  0.00    +0.000 C 
ATOM     30  N5  UNL A   1      -5.628 -13.044  16.496  1.00  0.00    +0.000 N 
ATOM     31  C21 UNL A   1      -6.744 -13.709  16.005  1.00  0.00    +0.000 C 
ATOM     32  C22 UNL A   1      -7.990 -13.773  16.532  1.00  0.00    +0.000 C 
ATOM     44  C29 UNL A   1      -8.384 -13.134  17.761  1.00  0.00    +0.000 C 
ATOM     45  C30 UNL A   1      -9.601 -13.202  18.417  1.00  0.00    +0.000 C 
ATOM     46  C31 UNL A   1      -9.537 -12.378  19.545  1.00  0.00    +0.000 C 
ATOM     47  C32 UNL A   1      -8.263 -11.838  19.622  1.00  0.00    +0.000 C 
ATOM     48  N6  UNL A   1      -7.568 -12.307  18.518  1.00  0.00    +0.000 N 
ATOM     49  C33 UNL A   1      -7.720 -10.960  20.626  1.00  0.00    +0.000 C 
ATOM     61  C40 UNL A   1      -6.452 -10.481  20.633  1.00  0.00    +0.000 C 
ATOM     62  N7  UNL A   1      -5.426 -10.709  19.726  1.00  0.00    +0.000 N 
ATOM     63  C41 UNL A   1      -4.403 -10.012  20.155  1.00  0.00    +0.000 C 
ATOM     64  C42 UNL A   1      -3.016  -9.908  19.581  1.00  0.00    +0.000 C 
ATOM     76  C49 UNL A   1      -2.703 -10.625  18.485  1.00  0.00    +0.000 C 
ATOM     77  C50 UNL A   1      -1.399 -10.642  17.829  1.00  0.00    +0.000 C 
ATOM     78  C51 UNL A   1      -1.463 -11.436  16.749  1.00  0.00    +0.000 C 
ATOM     79  C52 UNL A   1      -2.806 -12.011  16.655  1.00  0.00    +0.000 C 
ATOM     80  N8  UNL A   1      -3.472 -11.477  17.729  1.00  0.00    +0.000 N 
ATOM     81  C53 UNL A   1      -4.674  -9.239  21.375  1.00  0.00    +0.000 C 
ATOM     82  C54 UNL A   1      -5.921  -9.595  21.648  1.00  0.00    +0.000 C 
ATOM     83  C55 UNL A   1      -6.335 -14.378  14.788  1.00  0.00    +0.000 C 
ATOM     84  C56 UNL A   1      -5.035 -14.231  14.576  1.00  0.00    +0.000 C 
ATOM    117  H22 UNL A   1     -10.415 -13.764  18.124  1.00  0.00    +0.000 H 
ATOM    118  H23 UNL A   1     -10.308 -12.202  20.209  1.00  0.00    +0.000 H 
ATOM    119  H24 UNL A   1      -6.633 -12.085  18.303  1.00  0.00    +0.000 H 
ATOM    120  H25 UNL A   1      -0.563 -10.127  18.145  1.00  0.00    +0.000 H 
ATOM    121  H26 UNL A   1      -0.689 -11.613  16.090  1.00  0.00    +0.000 H 
ATOM    122  H27 UNL A   1      -4.411 -11.684  17.939  1.00  0.00    +0.000 H 
ATOM    123  H28 UNL A   1      -4.056  -8.590  21.886  1.00  0.00    +0.000 H 
ATOM    124  H29 UNL A   1      -6.447  -9.281  22.478  1.00  0.00    +0.000 H 
ATOM    125  H30 UNL A   1      -6.973 -14.901  14.168  1.00  0.00    +0.000 H 
ATOM    126  H31 UNL A   1      -4.447 -14.640  13.833  1.00  0.00    +0.000 H 
ENDROOT
BRANCH   28   27
ATOM    115  H20 UNL A   1       0.585 -14.973  14.150  1.00  0.00    +0.000 H 
ATOM    116  H21 UNL A   1      -1.017 -14.414  15.884  1.00  0.00    +0.000 H 
ATOM     85  C57 UNL A   1      -2.494 -12.865  13.300  1.00  0.00    +0.000 C 
ATOM     86  C58 UNL A   1      -1.617 -13.258  12.290  1.00  0.00    +0.000 C 
ATOM     24  C15 UNL A   1      -0.463 -13.980  12.608  1.00  0.00    +0.000 C 
ATOM     25  C16 UNL A   1      -0.248 -14.409  13.921  1.00  0.00    +0.000 C 
ATOM     26  C17 UNL A   1      -1.162 -14.073  14.921  1.00  0.00    +0.000 C 
ATOM     27  C18 UNL A   1      -2.278 -13.274  14.625  1.00  0.00    +0.000 C 
ATOM    127  H32 UNL A   1      -3.306 -12.270  13.072  1.00  0.00    +0.000 H 
ATOM    128  H33 UNL A   1      -1.821 -13.017  11.307  1.00  0.00    +0.000 H 
BRANCH   24   22
ATOM     22  C14 UNL A   1       0.535 -14.337  11.575  1.00  0.00    +0.000 C 
ATOM     23  O4  UNL A   1       1.040 -15.456  11.579  1.00  0.00    +0.000 O 
BRANCH   22   21
ATOM    114  H19 UNL A   1       1.438 -13.786   9.877  1.00  0.00    +0.000 H 
ATOM     21  N4  UNL A   1       0.910 -13.422  10.624  1.00  0.00    +0.000 N 
BRANCH   21   20
ATOM    113  H18 UNL A   1       0.180 -11.708  11.477  1.00  0.00    +0.000 H 
ATOM     20  C13 UNL A   1       0.644 -11.997  10.557  1.00  0.00    +0.000 C 
ATOM    112  H17 UNL A   1       0.006 -11.806   9.720  1.00  0.00    +0.000 H 
BRANCH   20   19
ATOM     19  C12 UNL A   1       1.919 -11.174  10.400  1.00  0.00    +0.000 C 
ATOM    110  H15 UNL A   1       1.646 -10.139  10.394  1.00  0.00    +0.000 H 
ATOM    111  H16 UNL A   1       2.549 -11.445  11.221  1.00  0.00    +0.000 H 
BRANCH   19   18
ATOM     18  C11 UNL A   1       2.729 -11.457   9.132  1.00  0.00    +0.000 C 
ATOM    108  H13 UNL A   1       3.545 -10.766   9.102  1.00  0.00    +0.000 H 
ATOM    109  H14 UNL A   1       3.031 -12.482   9.202  1.00  0.00    +0.000 H 
BRANCH   18   17
ATOM     17  C10 UNL A   1       1.960 -11.337   7.813  1.00  0.00    +0.000 C 
ATOM    106  H11 UNL A   1       2.665 -11.416   7.012  1.00  0.00    +0.000 H 
ATOM    107  H12 UNL A   1       1.232 -12.120   7.824  1.00  0.00    +0.000 H 
BRANCH   17   16
ATOM    105  H10 UNL A   1       0.497  -9.973   8.449  1.00  0.00    +0.000 H 
ATOM    104  H9  UNL A   1       0.689 -10.076   6.674  1.00  0.00    +0.000 H 
ATOM     16  C9  UNL A   1       1.178 -10.036   7.625  1.00  0.00    +0.000 C 
BRANCH   16   15
ATOM    103  H8  UNL A   1       2.701  -8.838   8.495  1.00  0.00    +0.000 H 
ATOM    102  H7  UNL A   1       1.377  -7.920   7.788  1.00  0.00    +0.000 H 
ATOM     15  C8  UNL A   1       2.023  -8.765   7.670  1.00  0.00    +0.000 C 
BRANCH   15   14
ATOM    101  H6  UNL A   1       3.326  -9.404   6.232  1.00  0.00    +0.000 H 
ATOM     14  N3  UNL A   1       2.793  -8.607   6.454  1.00  0.00    +0.000 N 
BRANCH   14   12
ATOM     12  C7  UNL A   1       2.945  -7.594   5.541  1.00  0.00    +0.000 C 
ATOM     13  O3  UNL A   1       3.607  -7.835   4.534  1.00  0.00    +0.000 O 
BRANCH   12   11
ATOM    129  H34 UNL A   1       1.865  -5.981   7.775  1.00  0.00    +0.000 H 
ATOM    130  H35 UNL A   1       0.530  -6.357   6.809  1.00  0.00    +0.000 H 
ATOM    131  H36 UNL A   1       0.279  -4.044   6.260  1.00  0.00    +0.000 H 
ATOM      9  N1  UNL A   1       2.220  -4.059   5.417  1.00  0.00    +0.000 N 
ATOM     10  N2  UNL A   1       2.726  -5.231   4.914  1.00  0.00    +0.000 N 
ATOM     11  C6  UNL A   1       2.391  -6.188   5.725  1.00  0.00    +0.000 C 
ATOM     87  C59 UNL A   1       1.446  -5.804   6.806  1.00  0.00    +0.000 C 
ATOM     88  C60 UNL A   1       1.280  -4.308   6.530  1.00  0.00    +0.000 C 
BRANCH    9    8
ATOM     99  H4  UNL A   1       0.232  -2.682   1.529  1.00  0.00    +0.000 H 
ATOM    100  H5  UNL A   1       1.056  -4.414   3.021  1.00  0.00    +0.000 H 
ATOM      5  C2  UNL A   1       0.898  -1.082   2.740  1.00  0.00    +0.000 C 
ATOM      6  C3  UNL A   1       0.709  -2.426   2.408  1.00  0.00    +0.000 C 
ATOM      7  C4  UNL A   1       1.174  -3.421   3.275  1.00  0.00    +0.000 C 
ATOM    136  H41 UNL A   1       1.681   0.266   4.165  1.00  0.00    +0.000 H 
ATOM    135  H40 UNL A   1       2.465  -1.468   5.664  1.00  0.00    +0.000 H 
ATOM      8  C5  UNL A   1       1.798  -3.087   4.487  1.00  0.00    +0.000 C 
ATOM     94  C65 UNL A   1       1.986  -1.730   4.788  1.00  0.00    +0.000 C 
ATOM     95  C66 UNL A   1       1.539  -0.728   3.927  1.00  0.00    +0.000 C 
BRANCH    5    2
ATOM      2  S1  UNL A   1       0.292   0.189   1.658  1.00  0.00    +0.000 S 
ATOM      3  O1  UNL A   1       0.766   1.464   2.168  1.00  0.00    +0.000 O 
ATOM      4  O2  UNL A   1      -1.124  -0.057   1.475  1.00  0.00    +0.000 O 
BRANCH    2    1
ATOM      1  C1  UNL A   1       1.119  -0.102   0.118  1.00  0.00    +0.000 C 
ATOM     98  H3  UNL A   1       2.177  -0.032   0.262  1.00  0.00    +0.000 H 
ATOM     97  H2  UNL A   1       0.872  -1.080  -0.240  1.00  0.00    +0.000 H 
ATOM     96  H1  UNL A   1       0.807   0.629  -0.599  1.00  0.00    +0.000 H 
ENDBRANCH    2    1
ENDBRANCH    5    2
ENDBRANCH    9    8
BRANCH   88   89
ATOM    132  H37 UNL A   1       0.147  -1.781   7.347  1.00  0.00    +0.000 H 
ATOM    133  H38 UNL A   1       0.852  -0.716   9.579  1.00  0.00    +0.000 H 
ATOM    134  H39 UNL A   1       2.463  -2.187  10.863  1.00  0.00    +0.000 H 
ATOM     89  C61 UNL A   1       1.454  -3.421   7.755  1.00  0.00    +0.000 C 
ATOM     90  C62 UNL A   1       0.823  -2.211   7.997  1.00  0.00    +0.000 C 
ATOM     91  C63 UNL A   1       1.205  -1.623   9.237  1.00  0.00    +0.000 C 
ATOM     92  C64 UNL A   1       2.100  -2.410   9.923  1.00  0.00    +0.000 C 
ATOM     93  S2  UNL A   1       2.541  -3.796   9.034  1.00  0.00    +0.000 S 
ENDBRANCH   88   89
ENDBRANCH   12   11
ENDBRANCH   14   12
ENDBRANCH   15   14
ENDBRANCH   16   15
ENDBRANCH   17   16
ENDBRANCH   18   17
ENDBRANCH   19   18
ENDBRANCH   20   19
ENDBRANCH   21   20
ENDBRANCH   22   21
ENDBRANCH   24   22
ENDBRANCH   28   27
BRANCH   32   33
ATOM     33  C23 UNL A   1      -9.024 -14.566  15.787  1.00  0.00    +0.000 C 
ATOM     34  C24 UNL A   1      -8.973 -15.967  15.722  1.00  0.00    +0.000 C 
ATOM     35  F1  UNL A   1      -7.950 -16.632  16.280  1.00  0.00    +0.000 F 
ATOM     36  C25 UNL A   1      -9.957 -16.690  15.053  1.00  0.00    +0.000 C 
ATOM     37  F2  UNL A   1      -9.864 -18.024  14.967  1.00  0.00    +0.000 F 
ATOM     38  C26 UNL A   1     -11.028 -16.032  14.467  1.00  0.00    +0.000 C 
ATOM     39  F3  UNL A   1     -11.980 -16.730  13.834  1.00  0.00    +0.000 F 
ATOM     40  C27 UNL A   1     -11.109 -14.649  14.534  1.00  0.00    +0.000 C 
ATOM     41  F4  UNL A   1     -12.150 -14.012  13.980  1.00  0.00    +0.000 F 
ATOM     42  C28 UNL A   1     -10.111 -13.921  15.177  1.00  0.00    +0.000 C 
ATOM     43  F5  UNL A   1     -10.212 -12.584  15.215  1.00  0.00    +0.000 F 
ENDBRANCH   32   33
BRANCH   49   50
ATOM     50  C34 UNL A   1      -8.611 -10.561  21.765  1.00  0.00    +0.000 C 
ATOM     51  C35 UNL A   1      -9.107  -9.255  21.889  1.00  0.00    +0.000 C 
ATOM     52  F6  UNL A   1      -8.754  -8.311  21.003  1.00  0.00    +0.000 F 
ATOM     53  C36 UNL A   1      -9.935  -8.902  22.951  1.00  0.00    +0.000 C 
ATOM     54  F7  UNL A   1     -10.355  -7.636  23.079  1.00  0.00    +0.000 F 
ATOM     55  C37 UNL A   1     -10.313  -9.854  23.887  1.00  0.00    +0.000 C 
ATOM     56  F8  UNL A   1     -11.114  -9.513  24.906  1.00  0.00    +0.000 F 
ATOM     57  C38 UNL A   1      -9.852 -11.157  23.771  1.00  0.00    +0.000 C 
ATOM     58  F9  UNL A   1     -10.227 -12.081  24.666  1.00  0.00    +0.000 F 
ATOM     59  C39 UNL A   1      -8.999 -11.505  22.728  1.00  0.00    +0.000 C 
ATOM     60  F10 UNL A   1      -8.559 -12.770  22.651  1.00  0.00    +0.000 F 
ENDBRANCH   49   50
BRANCH   64   65
ATOM     65  C43 UNL A   1      -1.991  -9.042  20.220  1.00  0.00    +0.000 C 
ATOM     66  C44 UNL A   1      -1.458  -9.361  21.477  1.00  0.00    +0.000 C 
ATOM     67  F11 UNL A   1      -1.882 -10.456  22.124  1.00  0.00    +0.000 F 
ATOM     68  C45 UNL A   1      -0.523  -8.533  22.094  1.00  0.00    +0.000 C 
ATOM     69  F12 UNL A   1      -0.069  -8.835  23.317  1.00  0.00    +0.000 F 
ATOM     70  C46 UNL A   1      -0.078  -7.387  21.452  1.00  0.00    +0.000 C 
ATOM     71  F13 UNL A   1       0.823  -6.591  22.045  1.00  0.00    +0.000 F 
ATOM     72  C47 UNL A   1      -0.573  -7.063  20.198  1.00  0.00    +0.000 C 
ATOM     73  F14 UNL A   1      -0.134  -5.965  19.568  1.00  0.00    +0.000 F 
ATOM     74  C48 UNL A   1      -1.530  -7.875  19.593  1.00  0.00    +0.000 C 
ATOM     75  F15 UNL A   1      -2.003  -7.528  18.387  1.00  0.00    +0.000 F 
ENDBRANCH   64   65
TORSDOF 19