ROOT
ATOM    129  H31 UNL A   1       5.198  -9.308  -6.360  1.00  0.00    +0.000 H 
ATOM    130  H32 UNL A   1       3.437  -7.786  -7.381  1.00  0.00    +0.000 H 
ATOM    131  H33 UNL A   1       1.627 -11.429  -6.521  1.00  0.00    +0.000 H 
ATOM    132  H34 UNL A   1       5.224 -14.272  -4.423  1.00  0.00    +0.000 H 
ATOM    133  H35 UNL A   1       3.467 -16.123  -4.196  1.00  0.00    +0.000 H 
ATOM    134  H36 UNL A   1      -3.485 -10.110  -8.253  1.00  0.00    +0.000 H 
ATOM    135  H37 UNL A   1      -1.711  -8.304  -8.646  1.00  0.00    +0.000 H 
ATOM     40  C27 UNL A   1       0.857  -8.977  -7.616  1.00  0.00    +0.000 C 
ATOM     41  C28 UNL A   1      -0.382  -9.823  -7.611  1.00  0.00    +0.000 C 
ATOM     42  N5  UNL A   1      -0.552 -11.035  -7.146  1.00  0.00    +0.000 N 
ATOM     43  C29 UNL A   1      -1.890 -11.336  -7.355  1.00  0.00    +0.000 C 
ATOM     44  C30 UNL A   1      -2.559 -12.471  -7.044  1.00  0.00    +0.000 C 
ATOM     56  C37 UNL A   1      -1.970 -13.638  -6.444  1.00  0.00    +0.000 C 
ATOM     57  C38 UNL A   1      -2.571 -14.845  -6.126  1.00  0.00    +0.000 C 
ATOM     58  C39 UNL A   1      -1.601 -15.683  -5.562  1.00  0.00    +0.000 C 
ATOM     59  C40 UNL A   1      -0.397 -15.000  -5.540  1.00  0.00    +0.000 C 
ATOM     60  N6  UNL A   1      -0.637 -13.748  -6.081  1.00  0.00    +0.000 N 
ATOM     61  C41 UNL A   1       0.883 -15.450  -5.063  1.00  0.00    +0.000 C 
ATOM     73  C48 UNL A   1       2.018 -14.713  -5.070  1.00  0.00    +0.000 C 
ATOM     74  N7  UNL A   1       2.205 -13.414  -5.517  1.00  0.00    +0.000 N 
ATOM     75  C49 UNL A   1       3.468 -13.141  -5.307  1.00  0.00    +0.000 C 
ATOM     76  C50 UNL A   1       4.221 -11.877  -5.599  1.00  0.00    +0.000 C 
ATOM     88  C57 UNL A   1       3.595 -10.841  -6.186  1.00  0.00    +0.000 C 
ATOM     89  C58 UNL A   1       4.209  -9.558  -6.518  1.00  0.00    +0.000 C 
ATOM     90  C59 UNL A   1       3.280  -8.755  -7.063  1.00  0.00    +0.000 C 
ATOM     91  C60 UNL A   1       2.010  -9.476  -7.132  1.00  0.00    +0.000 C 
ATOM     92  N8  UNL A   1       2.293 -10.709  -6.599  1.00  0.00    +0.000 N 
ATOM     93  C61 UNL A   1       4.229 -14.240  -4.694  1.00  0.00    +0.000 C 
ATOM     94  C62 UNL A   1       3.299 -15.180  -4.582  1.00  0.00    +0.000 C 
ATOM     95  C63 UNL A   1      -2.489 -10.180  -7.992  1.00  0.00    +0.000 C 
ATOM     96  C64 UNL A   1      -1.591  -9.225  -8.195  1.00  0.00    +0.000 C 
ATOM    126  H28 UNL A   1      -3.563 -15.085  -6.278  1.00  0.00    +0.000 H 
ATOM    127  H29 UNL A   1      -1.757 -16.645  -5.221  1.00  0.00    +0.000 H 
ATOM    128  H30 UNL A   1       0.038 -13.040  -6.191  1.00  0.00    +0.000 H 
ENDROOT
BRANCH   40   39
ATOM     97  C65 UNL A   1       0.240  -6.566  -7.344  1.00  0.00    +0.000 C 
ATOM     98  C66 UNL A   1       0.214  -5.248  -7.809  1.00  0.00    +0.000 C 
ATOM     36  C23 UNL A   1       0.809  -4.928  -9.034  1.00  0.00    +0.000 C 
ATOM     37  C24 UNL A   1       1.360  -5.941  -9.826  1.00  0.00    +0.000 C 
ATOM     38  C25 UNL A   1       1.364  -7.263  -9.373  1.00  0.00    +0.000 C 
ATOM     39  C26 UNL A   1       0.818  -7.583  -8.121  1.00  0.00    +0.000 C 
ATOM    136  H38 UNL A   1      -0.168  -6.794  -6.424  1.00  0.00    +0.000 H 
ATOM    137  H39 UNL A   1      -0.244  -4.512  -7.249  1.00  0.00    +0.000 H 
ATOM    124  H26 UNL A   1       1.765  -5.712 -10.747  1.00  0.00    +0.000 H 
ATOM    125  H27 UNL A   1       1.770  -8.007  -9.962  1.00  0.00    +0.000 H 
BRANCH   36   34
ATOM     34  C22 UNL A   1       0.814  -3.546  -9.567  1.00  0.00    +0.000 C 
ATOM     35  O6  UNL A   1       0.488  -3.356 -10.736  1.00  0.00    +0.000 O 
BRANCH   34   33
ATOM     33  N4  UNL A   1       1.200  -2.484  -8.788  1.00  0.00    +0.000 N 
ATOM    123  H25 UNL A   1       1.097  -1.601  -9.211  1.00  0.00    +0.000 H 
BRANCH   33   32
ATOM    121  H23 UNL A   1       0.996  -2.041  -6.787  1.00  0.00    +0.000 H 
ATOM    122  H24 UNL A   1       1.982  -3.462  -7.170  1.00  0.00    +0.000 H 
ATOM     32  C21 UNL A   1       1.735  -2.457  -7.439  1.00  0.00    +0.000 C 
BRANCH   32   31
ATOM    119  H21 UNL A   1       3.350  -1.684  -6.311  1.00  0.00    +0.000 H 
ATOM     31  C20 UNL A   1       3.013  -1.622  -7.324  1.00  0.00    +0.000 C 
ATOM    120  H22 UNL A   1       3.685  -2.037  -8.046  1.00  0.00    +0.000 H 
BRANCH   31   30
ATOM    118  H20 UNL A   1       2.744  -0.109  -8.745  1.00  0.00    +0.000 H 
ATOM    117  H19 UNL A   1       3.798   0.350  -7.361  1.00  0.00    +0.000 H 
ATOM     30  C19 UNL A   1       2.901  -0.133  -7.687  1.00  0.00    +0.000 C 
BRANCH   30   29
ATOM    115  H17 UNL A   1       1.803   1.656  -7.365  1.00  0.00    +0.000 H 
ATOM    116  H18 UNL A   1       0.833   0.158  -7.462  1.00  0.00    +0.000 H 
ATOM     29  C18 UNL A   1       1.717   0.627  -7.083  1.00  0.00    +0.000 C 
BRANCH   29   28
ATOM    113  H15 UNL A   1       0.597   0.700  -5.282  1.00  0.00    +0.000 H 
ATOM    114  H16 UNL A   1       2.006  -0.399  -5.274  1.00  0.00    +0.000 H 
ATOM     28  C17 UNL A   1       1.621   0.558  -5.558  1.00  0.00    +0.000 C 
BRANCH   28   27
ATOM     27  C16 UNL A   1       2.465   1.603  -4.812  1.00  0.00    +0.000 C 
ATOM    111  H13 UNL A   1       3.057   1.118  -4.064  1.00  0.00    +0.000 H 
ATOM    112  H14 UNL A   1       3.111   2.104  -5.502  1.00  0.00    +0.000 H 
BRANCH   27   26
ATOM     26  N3  UNL A   1       1.577   2.569  -4.181  1.00  0.00    +0.000 N 
ATOM    110  H12 UNL A   1       1.230   3.261  -4.789  1.00  0.00    +0.000 H 
BRANCH   26   24
ATOM     25  O5  UNL A   1       0.125   3.329  -2.643  1.00  0.00    +0.000 O 
ATOM     24  C15 UNL A   1       1.142   2.682  -2.888  1.00  0.00    +0.000 C 
BRANCH   24   23
ATOM    103  H5  UNL A   1       3.115  -0.309   0.114  1.00  0.00    +0.000 H 
ATOM      8  C3  UNL A   1       2.161   0.918  -1.324  1.00  0.00    +0.000 C 
ATOM      9  C4  UNL A   1       2.871   0.662  -0.138  1.00  0.00    +0.000 C 
ATOM     10  C5  UNL A   1       3.247   1.713   0.704  1.00  0.00    +0.000 C 
ATOM    104  H6  UNL A   1       3.748   1.511   1.583  1.00  0.00    +0.000 H 
ATOM     11  C6  UNL A   1       2.947   3.036   0.362  1.00  0.00    +0.000 C 
ATOM    109  H11 UNL A   1       2.197   4.258  -1.181  1.00  0.00    +0.000 H 
ATOM     22  C13 UNL A   1       2.349   3.282  -0.882  1.00  0.00    +0.000 C 
ATOM     23  C14 UNL A   1       1.948   2.233  -1.736  1.00  0.00    +0.000 C 
BRANCH    8    5
ATOM      5  S1  UNL A   1       1.409  -0.455  -2.138  1.00  0.00    +0.000 S 
ATOM      6  O2  UNL A   1       2.471  -1.156  -2.827  1.00  0.00    +0.000 O 
ATOM      7  O3  UNL A   1       0.210  -0.034  -2.818  1.00  0.00    +0.000 O 
BRANCH    5    4
ATOM      4  N1  UNL A   1       0.937  -1.453  -0.900  1.00  0.00    +0.000 N 
ATOM    102  H4  UNL A   1       1.537  -2.208  -0.702  1.00  0.00    +0.000 H 
BRANCH    4    2
ATOM      2  C2  UNL A   1      -0.210  -1.354  -0.101  1.00  0.00    +0.000 C 
ATOM      3  O1  UNL A   1      -0.602  -2.359   0.478  1.00  0.00    +0.000 O 
BRANCH    2    1
ATOM      1  C1  UNL A   1      -0.822  -0.004   0.144  1.00  0.00    +0.000 C 
ATOM     99  H1  UNL A   1      -1.683  -0.111   0.770  1.00  0.00    +0.000 H 
ATOM    100  H2  UNL A   1      -1.111   0.431  -0.789  1.00  0.00    +0.000 H 
ATOM    101  H3  UNL A   1      -0.107   0.629   0.627  1.00  0.00    +0.000 H 
ENDBRANCH    2    1
ENDBRANCH    4    2
ENDBRANCH    5    4
ENDBRANCH    8    5
BRANCH   11   12
ATOM    105  H7  UNL A   1       1.129   4.987   1.091  1.00  0.00    +0.000 H 
ATOM    106  H8  UNL A   1       1.333   6.633   2.759  1.00  0.00    +0.000 H 
ATOM    108  H10 UNL A   1       5.030   3.635   1.845  1.00  0.00    +0.000 H 
ATOM     12  C7  UNL A   1       3.099   4.138   1.344  1.00  0.00    +0.000 C 
ATOM     13  C8  UNL A   1       2.007   5.059   1.629  1.00  0.00    +0.000 C 
ATOM     14  C9  UNL A   1       2.123   5.996   2.575  1.00  0.00    +0.000 C 
ATOM     15  N2  UNL A   1       3.284   6.123   3.310  1.00  0.00    +0.000 N 
ATOM     19  C11 UNL A   1       4.380   5.299   3.114  1.00  0.00    +0.000 C 
ATOM     20  O4  UNL A   1       5.430   5.342   3.747  1.00  0.00    +0.000 O 
ATOM     21  C12 UNL A   1       4.238   4.265   2.047  1.00  0.00    +0.000 C 
BRANCH   15   16
ATOM     17  F1  UNL A   1       3.508   6.494   5.572  1.00  0.00    +0.000 F 
ATOM     18  F2  UNL A   1       4.434   7.923   4.189  1.00  0.00    +0.000 F 
ATOM    107  H9  UNL A   1       2.468   7.668   4.340  1.00  0.00    +0.000 H 
ATOM     16  C10 UNL A   1       3.374   7.099   4.367  1.00  0.00    +0.000 C 
ENDBRANCH   15   16
ENDBRANCH   11   12
ENDBRANCH   24   23
ENDBRANCH   26   24
ENDBRANCH   27   26
ENDBRANCH   28   27
ENDBRANCH   29   28
ENDBRANCH   30   29
ENDBRANCH   31   30
ENDBRANCH   32   31
ENDBRANCH   33   32
ENDBRANCH   34   33
ENDBRANCH   36   34
ENDBRANCH   40   39
BRANCH   44   45
ATOM     45  C31 UNL A   1      -4.024 -12.502  -7.340  1.00  0.00    +0.000 C 
ATOM     46  C32 UNL A   1      -4.500 -12.822  -8.618  1.00  0.00    +0.000 C 
ATOM     47  F3  UNL A   1      -3.640 -13.063  -9.618  1.00  0.00    +0.000 F 
ATOM     48  C33 UNL A   1      -5.868 -12.875  -8.874  1.00  0.00    +0.000 C 
ATOM     49  F4  UNL A   1      -6.306 -13.165 -10.107  1.00  0.00    +0.000 F 
ATOM     50  C34 UNL A   1      -6.777 -12.623  -7.857  1.00  0.00    +0.000 C 
ATOM     51  F5  UNL A   1      -8.093 -12.676  -8.105  1.00  0.00    +0.000 F 
ATOM     52  C35 UNL A   1      -6.323 -12.310  -6.584  1.00  0.00    +0.000 C 
ATOM     53  F6  UNL A   1      -7.202 -12.066  -5.601  1.00  0.00    +0.000 F 
ATOM     54  C36 UNL A   1      -4.957 -12.246  -6.326  1.00  0.00    +0.000 C 
ATOM     55  F7  UNL A   1      -4.543 -11.935  -5.089  1.00  0.00    +0.000 F 
ENDBRANCH   44   45
BRANCH   61   62
ATOM     65  C44 UNL A   1       0.943 -18.381  -2.644  1.00  0.00    +0.000 C 
ATOM     66  F9  UNL A   1       0.868 -18.595  -1.323  1.00  0.00    +0.000 F 
ATOM     67  C45 UNL A   1       1.093 -19.454  -3.512  1.00  0.00    +0.000 C 
ATOM     68  F10 UNL A   1       1.155 -20.703  -3.029  1.00  0.00    +0.000 F 
ATOM     69  C46 UNL A   1       1.187 -19.232  -4.878  1.00  0.00    +0.000 C 
ATOM     70  F11 UNL A   1       1.336 -20.267  -5.715  1.00  0.00    +0.000 F 
ATOM     71  C47 UNL A   1       1.132 -17.935  -5.380  1.00  0.00    +0.000 C 
ATOM     72  F12 UNL A   1       1.234 -17.744  -6.703  1.00  0.00    +0.000 F 
ATOM     62  C42 UNL A   1       0.977 -16.840  -4.519  1.00  0.00    +0.000 C 
ATOM     63  C43 UNL A   1       0.881 -17.084  -3.142  1.00  0.00    +0.000 C 
ATOM     64  F8  UNL A   1       0.747 -16.062  -2.284  1.00  0.00    +0.000 F 
ENDBRANCH   61   62
BRANCH   76   77
ATOM     77  C51 UNL A   1       5.656 -11.760  -5.257  1.00  0.00    +0.000 C 
ATOM     78  C52 UNL A   1       6.638 -12.300  -6.097  1.00  0.00    +0.000 C 
ATOM     79  F13 UNL A   1       6.279 -12.960  -7.207  1.00  0.00    +0.000 F 
ATOM     80  C53 UNL A   1       7.989 -12.181  -5.785  1.00  0.00    +0.000 C 
ATOM     81  F14 UNL A   1       8.912 -12.720  -6.594  1.00  0.00    +0.000 F 
ATOM     82  C54 UNL A   1       8.381 -11.513  -4.634  1.00  0.00    +0.000 C 
ATOM     83  F15 UNL A   1       9.682 -11.397  -4.335  1.00  0.00    +0.000 F 
ATOM     84  C55 UNL A   1       7.423 -10.969  -3.790  1.00  0.00    +0.000 C 
ATOM     85  F16 UNL A   1       7.799 -10.322  -2.679  1.00  0.00    +0.000 F 
ATOM     86  C56 UNL A   1       6.071 -11.095  -4.096  1.00  0.00    +0.000 C 
ATOM     87  F17 UNL A   1       5.161 -10.567  -3.264  1.00  0.00    +0.000 F 
ENDBRANCH   76   77
TORSDOF 21