ROOT
ATOM    129  H33 UNL A   1       0.247  -6.762   9.041  1.00  0.00    +0.000 H 
ATOM     25  C20 UNL A   1       2.746  -5.406   8.861  1.00  0.00    +0.000 C 
ATOM     26  C21 UNL A   1       1.565  -5.045   9.718  1.00  0.00    +0.000 C 
ATOM     27  N3  UNL A   1       1.424  -4.051  10.559  1.00  0.00    +0.000 N 
ATOM     28  C22 UNL A   1       0.130  -4.153  11.051  1.00  0.00    +0.000 C 
ATOM     29  C23 UNL A   1      -0.478  -3.392  11.992  1.00  0.00    +0.000 C 
ATOM     41  C30 UNL A   1       0.151  -2.294  12.679  1.00  0.00    +0.000 C 
ATOM     42  C31 UNL A   1      -0.359  -1.505  13.696  1.00  0.00    +0.000 C 
ATOM     43  C32 UNL A   1       0.597  -0.536  14.019  1.00  0.00    +0.000 C 
ATOM     44  C33 UNL A   1       1.719  -0.748  13.235  1.00  0.00    +0.000 C 
ATOM     45  N4  UNL A   1       1.431  -1.828  12.415  1.00  0.00    +0.000 N 
ATOM     46  C34 UNL A   1       2.962  -0.021  13.232  1.00  0.00    +0.000 C 
ATOM     58  C41 UNL A   1       4.027  -0.305  12.442  1.00  0.00    +0.000 C 
ATOM     59  N5  UNL A   1       4.168  -1.312  11.496  1.00  0.00    +0.000 N 
ATOM     60  C42 UNL A   1       5.367  -1.164  10.989  1.00  0.00    +0.000 C 
ATOM     61  C43 UNL A   1       6.063  -1.989   9.942  1.00  0.00    +0.000 C 
ATOM     73  C50 UNL A   1       5.432  -3.057   9.418  1.00  0.00    +0.000 C 
ATOM     74  C51 UNL A   1       5.982  -3.953   8.405  1.00  0.00    +0.000 C 
ATOM     75  C52 UNL A   1       5.061  -4.878   8.092  1.00  0.00    +0.000 C 
ATOM     76  C53 UNL A   1       3.867  -4.660   8.909  1.00  0.00    +0.000 C 
ATOM     77  N6  UNL A   1       4.179  -3.561   9.669  1.00  0.00    +0.000 N 
ATOM     78  C54 UNL A   1       6.117  -0.028  11.542  1.00  0.00    +0.000 C 
ATOM     79  C55 UNL A   1       5.270   0.437  12.450  1.00  0.00    +0.000 C 
ATOM     80  C56 UNL A   1      -0.490  -5.276  10.381  1.00  0.00    +0.000 C 
ATOM     81  C57 UNL A   1       0.375  -5.901   9.595  1.00  0.00    +0.000 C 
ATOM    120  H24 UNL A   1      -1.285  -1.614  14.139  1.00  0.00    +0.000 H 
ATOM    121  H25 UNL A   1       0.484   0.211  14.723  1.00  0.00    +0.000 H 
ATOM    122  H26 UNL A   1       2.043  -2.208  11.745  1.00  0.00    +0.000 H 
ATOM    123  H27 UNL A   1       6.927  -3.885   7.995  1.00  0.00    +0.000 H 
ATOM    124  H28 UNL A   1       5.178  -5.624   7.388  1.00  0.00    +0.000 H 
ATOM    125  H29 UNL A   1       3.564  -3.171  10.331  1.00  0.00    +0.000 H 
ATOM    126  H30 UNL A   1       7.056   0.318  11.290  1.00  0.00    +0.000 H 
ATOM    127  H31 UNL A   1       5.471   1.228  13.082  1.00  0.00    +0.000 H 
ATOM    128  H32 UNL A   1      -1.477  -5.553  10.499  1.00  0.00    +0.000 H 
ENDROOT
BRANCH   25   24
ATOM    130  H34 UNL A   1       1.194  -5.635   6.687  1.00  0.00    +0.000 H 
ATOM    131  H35 UNL A   1       0.989  -7.508   5.162  1.00  0.00    +0.000 H 
ATOM     82  C58 UNL A   1       1.780  -6.474   6.820  1.00  0.00    +0.000 C 
ATOM     83  C59 UNL A   1       1.689  -7.532   5.919  1.00  0.00    +0.000 C 
ATOM     21  C16 UNL A   1       2.549  -8.628   6.041  1.00  0.00    +0.000 C 
ATOM     22  C17 UNL A   1       3.413  -8.720   7.137  1.00  0.00    +0.000 C 
ATOM    118  H22 UNL A   1       4.017  -9.549   7.251  1.00  0.00    +0.000 H 
ATOM     23  C18 UNL A   1       3.457  -7.688   8.076  1.00  0.00    +0.000 C 
ATOM    119  H23 UNL A   1       4.076  -7.767   8.898  1.00  0.00    +0.000 H 
ATOM     24  C19 UNL A   1       2.662  -6.542   7.909  1.00  0.00    +0.000 C 
BRANCH   21   19
ATOM     19  C15 UNL A   1       2.546  -9.720   5.043  1.00  0.00    +0.000 C 
ATOM     20  O3  UNL A   1       2.611 -10.886   5.420  1.00  0.00    +0.000 O 
BRANCH   19   18
ATOM     18  N2  UNL A   1       2.484  -9.432   3.703  1.00  0.00    +0.000 N 
ATOM    117  H21 UNL A   1       2.298 -10.201   3.117  1.00  0.00    +0.000 H 
BRANCH   18   17
ATOM     17  C14 UNL A   1       2.653  -8.158   3.021  1.00  0.00    +0.000 C 
ATOM    115  H19 UNL A   1       1.727  -7.893   2.554  1.00  0.00    +0.000 H 
ATOM    116  H20 UNL A   1       2.944  -7.432   3.751  1.00  0.00    +0.000 H 
BRANCH   17   16
ATOM    113  H17 UNL A   1       3.872  -7.227   1.561  1.00  0.00    +0.000 H 
ATOM    114  H18 UNL A   1       4.617  -8.594   2.438  1.00  0.00    +0.000 H 
ATOM     16  C13 UNL A   1       3.742  -8.213   1.954  1.00  0.00    +0.000 C 
BRANCH   16   15
ATOM    111  H15 UNL A   1       4.283  -9.116   0.112  1.00  0.00    +0.000 H 
ATOM     15  C12 UNL A   1       3.452  -9.158   0.785  1.00  0.00    +0.000 C 
ATOM    112  H16 UNL A   1       3.299 -10.125   1.218  1.00  0.00    +0.000 H 
BRANCH   15   14
ATOM    110  H14 UNL A   1       1.368  -8.958   0.674  1.00  0.00    +0.000 H 
ATOM    109  H13 UNL A   1       2.139  -9.518  -0.843  1.00  0.00    +0.000 H 
ATOM     14  C11 UNL A   1       2.181  -8.845  -0.012  1.00  0.00    +0.000 C 
BRANCH   14   13
ATOM    107  H11 UNL A   1       1.173  -7.333  -1.120  1.00  0.00    +0.000 H 
ATOM    108  H12 UNL A   1       2.099  -6.761   0.291  1.00  0.00    +0.000 H 
ATOM     13  C10 UNL A   1       2.078  -7.414  -0.556  1.00  0.00    +0.000 C 
BRANCH   13   12
ATOM    105  H9  UNL A   1       3.171  -5.954  -1.654  1.00  0.00    +0.000 H 
ATOM    106  H10 UNL A   1       4.153  -7.240  -0.948  1.00  0.00    +0.000 H 
ATOM     12  C9  UNL A   1       3.242  -7.003  -1.456  1.00  0.00    +0.000 C 
BRANCH   12   11
ATOM     11  N1  UNL A   1       3.233  -7.717  -2.714  1.00  0.00    +0.000 N 
ATOM    104  H8  UNL A   1       3.405  -8.684  -2.645  1.00  0.00    +0.000 H 
BRANCH   11    9
ATOM      9  C8  UNL A   1       3.023  -7.255  -3.981  1.00  0.00    +0.000 C 
ATOM     10  O2  UNL A   1       3.310  -8.024  -4.904  1.00  0.00    +0.000 O 
BRANCH    9    8
ATOM    102  H6  UNL A   1       3.420  -5.181  -3.998  1.00  0.00    +0.000 H 
ATOM    103  H7  UNL A   1       2.325  -5.793  -5.288  1.00  0.00    +0.000 H 
ATOM      8  C7  UNL A   1       2.599  -5.818  -4.254  1.00  0.00    +0.000 C 
BRANCH    8    7
ATOM      3  C2  UNL A   1       0.713  -2.272  -0.675  1.00  0.00    +0.000 C 
ATOM    100  H4  UNL A   1       2.740  -1.717  -0.796  1.00  0.00    +0.000 H 
ATOM      4  C3  UNL A   1       2.019  -2.365  -1.149  1.00  0.00    +0.000 C 
ATOM      5  C4  UNL A   1       2.359  -3.333  -2.102  1.00  0.00    +0.000 C 
ATOM    101  H5  UNL A   1       3.326  -3.391  -2.457  1.00  0.00    +0.000 H 
ATOM      6  C5  UNL A   1       1.377  -4.229  -2.576  1.00  0.00    +0.000 C 
ATOM      7  C6  UNL A   1       1.386  -5.325  -3.506  1.00  0.00    +0.000 C 
ATOM    138  H42 UNL A   1      -1.609  -5.284  -2.462  1.00  0.00    +0.000 H 
ATOM    139  H43 UNL A   1      -1.229  -3.131  -0.724  1.00  0.00    +0.000 H 
ATOM     84  C60 UNL A   1       0.070  -5.779  -3.621  1.00  0.00    +0.000 C 
ATOM     94  N8  UNL A   1      -0.665  -5.097  -2.674  1.00  0.00    +0.000 N 
ATOM     95  C68 UNL A   1       0.089  -4.125  -2.065  1.00  0.00    +0.000 C 
ATOM     96  C69 UNL A   1      -0.270  -3.170  -1.104  1.00  0.00    +0.000 C 
BRANCH    3    2
ATOM      2  O1  UNL A   1       0.312  -1.356   0.262  1.00  0.00    +0.000 O 
BRANCH    2    1
ATOM      1  C1  UNL A   1       0.827  -0.044   0.039  1.00  0.00    +0.000 C 
ATOM     98  H2  UNL A   1       0.496   0.311  -0.915  1.00  0.00    +0.000 H 
ATOM     99  H3  UNL A   1       1.896  -0.072   0.058  1.00  0.00    +0.000 H 
ATOM     97  H1  UNL A   1       0.473   0.613   0.805  1.00  0.00    +0.000 H 
ENDBRANCH    2    1
ENDBRANCH    3    2
BRANCH   84   85
ATOM     85  C61 UNL A   1      -0.458  -6.791  -4.532  1.00  0.00    +0.000 C 
ATOM     86  O4  UNL A   1       0.235  -7.380  -5.356  1.00  0.00    +0.000 O 
BRANCH   85   87
ATOM    132  H36 UNL A   1      -2.526  -5.164  -5.120  1.00  0.00    +0.000 H 
ATOM    136  H40 UNL A   1      -5.550  -8.046  -4.560  1.00  0.00    +0.000 H 
ATOM    137  H41 UNL A   1      -3.848  -9.638  -3.993  1.00  0.00    +0.000 H 
ATOM     87  C62 UNL A   1      -1.915  -7.097  -4.516  1.00  0.00    +0.000 C 
ATOM     88  C63 UNL A   1      -2.837  -6.115  -4.868  1.00  0.00    +0.000 C 
ATOM     89  C64 UNL A   1      -4.193  -6.450  -4.870  1.00  0.00    +0.000 C 
ATOM     91  C66 UNL A   1      -4.558  -7.761  -4.550  1.00  0.00    +0.000 C 
ATOM     92  C67 UNL A   1      -3.566  -8.671  -4.218  1.00  0.00    +0.000 C 
ATOM     93  N7  UNL A   1      -2.255  -8.365  -4.174  1.00  0.00    +0.000 N 
BRANCH   89   90
ATOM     90  C65 UNL A   1      -5.244  -5.446  -5.237  1.00  0.00    +0.000 C 
ATOM    133  H37 UNL A   1      -4.781  -4.505  -5.449  1.00  0.00    +0.000 H 
ATOM    134  H38 UNL A   1      -5.928  -5.332  -4.423  1.00  0.00    +0.000 H 
ATOM    135  H39 UNL A   1      -5.774  -5.785  -6.103  1.00  0.00    +0.000 H 
ENDBRANCH   89   90
ENDBRANCH   85   87
ENDBRANCH   84   85
ENDBRANCH    8    7
ENDBRANCH    9    8
ENDBRANCH   11    9
ENDBRANCH   12   11
ENDBRANCH   13   12
ENDBRANCH   14   13
ENDBRANCH   15   14
ENDBRANCH   16   15
ENDBRANCH   17   16
ENDBRANCH   18   17
ENDBRANCH   19   18
ENDBRANCH   21   19
ENDBRANCH   25   24
BRANCH   29   30
ATOM     33  C26 UNL A   1      -3.550  -5.182  13.376  1.00  0.00    +0.000 C 
ATOM     34  F2  UNL A   1      -3.845  -6.323  14.015  1.00  0.00    +0.000 F 
ATOM     35  C27 UNL A   1      -4.564  -4.303  13.025  1.00  0.00    +0.000 C 
ATOM     36  F3  UNL A   1      -5.835  -4.584  13.342  1.00  0.00    +0.000 F 
ATOM     37  C28 UNL A   1      -4.260  -3.137  12.340  1.00  0.00    +0.000 C 
ATOM     38  F4  UNL A   1      -5.237  -2.281  12.011  1.00  0.00    +0.000 F 
ATOM     39  C29 UNL A   1      -2.942  -2.855  11.990  1.00  0.00    +0.000 C 
ATOM     40  F5  UNL A   1      -2.682  -1.725  11.314  1.00  0.00    +0.000 F 
ATOM     30  C24 UNL A   1      -1.899  -3.725  12.341  1.00  0.00    +0.000 C 
ATOM     31  C25 UNL A   1      -2.228  -4.889  13.053  1.00  0.00    +0.000 C 
ATOM     32  F1  UNL A   1      -1.269  -5.760  13.403  1.00  0.00    +0.000 F 
ENDBRANCH   29   30
BRANCH   46   47
ATOM     47  C35 UNL A   1       3.105   1.127  14.187  1.00  0.00    +0.000 C 
ATOM     48  C36 UNL A   1       3.104   2.457  13.742  1.00  0.00    +0.000 C 
ATOM     49  F6  UNL A   1       3.022   2.730  12.431  1.00  0.00    +0.000 F 
ATOM     50  C37 UNL A   1       3.228   3.512  14.642  1.00  0.00    +0.000 C 
ATOM     51  F7  UNL A   1       3.270   4.773  14.191  1.00  0.00    +0.000 F 
ATOM     52  C38 UNL A   1       3.321   3.259  16.003  1.00  0.00    +0.000 C 
ATOM     53  F8  UNL A   1       3.434   4.277  16.868  1.00  0.00    +0.000 F 
ATOM     54  C39 UNL A   1       3.306   1.952  16.466  1.00  0.00    +0.000 C 
ATOM     55  F9  UNL A   1       3.384   1.707  17.781  1.00  0.00    +0.000 F 
ATOM     56  C40 UNL A   1       3.211   0.894  15.567  1.00  0.00    +0.000 C 
ATOM     57  F10 UNL A   1       3.211  -0.360  16.044  1.00  0.00    +0.000 F 
ENDBRANCH   46   47
BRANCH   61   62
ATOM     65  C46 UNL A   1       9.828  -1.515   9.966  1.00  0.00    +0.000 C 
ATOM     66  F12 UNL A   1      10.847  -1.663  10.823  1.00  0.00    +0.000 F 
ATOM     67  C47 UNL A   1      10.059  -1.022   8.690  1.00  0.00    +0.000 C 
ATOM     68  F13 UNL A   1      11.305  -0.710   8.307  1.00  0.00    +0.000 F 
ATOM     69  C48 UNL A   1       8.997  -0.845   7.816  1.00  0.00    +0.000 C 
ATOM     70  F14 UNL A   1       9.219  -0.381   6.579  1.00  0.00    +0.000 F 
ATOM     71  C49 UNL A   1       7.699  -1.148   8.222  1.00  0.00    +0.000 C 
ATOM     72  F15 UNL A   1       6.690  -0.955   7.361  1.00  0.00    +0.000 F 
ATOM     62  C44 UNL A   1       7.442  -1.656   9.503  1.00  0.00    +0.000 C 
ATOM     63  C45 UNL A   1       8.533  -1.843  10.364  1.00  0.00    +0.000 C 
ATOM     64  F11 UNL A   1       8.334  -2.307  11.606  1.00  0.00    +0.000 F 
ENDBRANCH   61   62
TORSDOF 21