ROOT
ATOM    134  H36 UNL A   1      10.516  -2.079  -2.378  1.00  0.00    +0.000 H 
ATOM    135  H37 UNL A   1      10.962  -4.700  -2.206  1.00  0.00    +0.000 H 
ATOM    136  H38 UNL A   1      14.479  -2.766  -2.407  1.00  0.00    +0.000 H 
ATOM    137  H39 UNL A   1      14.696  -5.576   5.419  1.00  0.00    +0.000 H 
ATOM    138  H40 UNL A   1      12.495  -4.293   5.486  1.00  0.00    +0.000 H 
ATOM    139  H41 UNL A   1      14.236  -3.572   1.783  1.00  0.00    +0.000 H 
ATOM    140  H42 UNL A   1      17.334  -3.296   1.090  1.00  0.00    +0.000 H 
ATOM    141  H43 UNL A   1      15.874  -3.122  -1.026  1.00  0.00    +0.000 H 
ATOM    142  H44 UNL A   1      12.770   1.357   0.846  1.00  0.00    +0.000 H 
ATOM    143  H45 UNL A   1      12.644   0.382   3.222  1.00  0.00    +0.000 H 
ATOM     40  C34 UNL A   1      12.201  -2.443   3.258  1.00  0.00    +0.000 C 
ATOM     41  C35 UNL A   1      12.400  -1.558   2.073  1.00  0.00    +0.000 C 
ATOM     42  N5  UNL A   1      12.333  -1.873   0.817  1.00  0.00    +0.000 N 
ATOM     43  C36 UNL A   1      12.643  -0.710   0.113  1.00  0.00    +0.000 C 
ATOM     44  C37 UNL A   1      13.015  -0.731  -1.197  1.00  0.00    +0.000 C 
ATOM     56  C44 UNL A   1      12.615  -1.946  -1.850  1.00  0.00    +0.000 C 
ATOM     57  C45 UNL A   1      11.407  -2.545  -2.144  1.00  0.00    +0.000 C 
ATOM     58  C46 UNL A   1      11.653  -3.947  -2.058  1.00  0.00    +0.000 C 
ATOM     59  C47 UNL A   1      13.000  -4.112  -1.735  1.00  0.00    +0.000 C 
ATOM     60  N6  UNL A   1      13.565  -2.910  -2.071  1.00  0.00    +0.000 N 
ATOM     61  C48 UNL A   1      13.715  -5.170  -1.065  1.00  0.00    +0.000 C 
ATOM     73  C55 UNL A   1      14.899  -5.002  -0.409  1.00  0.00    +0.000 C 
ATOM     74  N7  UNL A   1      15.262  -5.846   0.629  1.00  0.00    +0.000 N 
ATOM     75  C56 UNL A   1      16.041  -5.127   1.388  1.00  0.00    +0.000 C 
ATOM     76  C57 UNL A   1      16.103  -5.255   2.865  1.00  0.00    +0.000 C 
ATOM     88  C64 UNL A   1      14.934  -4.788   3.363  1.00  0.00    +0.000 C 
ATOM     89  C65 UNL A   1      14.322  -4.985   4.661  1.00  0.00    +0.000 C 
ATOM     90  C66 UNL A   1      13.180  -4.266   4.715  1.00  0.00    +0.000 C 
ATOM     91  C67 UNL A   1      13.066  -3.445   3.511  1.00  0.00    +0.000 C 
ATOM     92  N8  UNL A   1      14.099  -3.874   2.710  1.00  0.00    +0.000 N 
ATOM     93  C68 UNL A   1      16.580  -3.926   0.773  1.00  0.00    +0.000 C 
ATOM     94  C69 UNL A   1      15.819  -3.874  -0.322  1.00  0.00    +0.000 C 
ATOM     95  C70 UNL A   1      12.683   0.356   1.082  1.00  0.00    +0.000 C 
ATOM     96  C71 UNL A   1      12.593  -0.123   2.323  1.00  0.00    +0.000 C 
ENDROOT
BRANCH   40   39
ATOM     97  C72 UNL A   1      11.163  -1.822   5.459  1.00  0.00    +0.000 C 
ATOM     98  C73 UNL A   1      10.007  -1.585   6.200  1.00  0.00    +0.000 C 
ATOM     36  C30 UNL A   1       8.735  -1.603   5.596  1.00  0.00    +0.000 C 
ATOM     37  C31 UNL A   1       8.666  -1.770   4.215  1.00  0.00    +0.000 C 
ATOM    132  H34 UNL A   1       7.756  -1.684   3.734  1.00  0.00    +0.000 H 
ATOM     38  C32 UNL A   1       9.808  -2.053   3.478  1.00  0.00    +0.000 C 
ATOM    133  H35 UNL A   1       9.736  -2.217   2.462  1.00  0.00    +0.000 H 
ATOM     39  C33 UNL A   1      11.055  -2.116   4.104  1.00  0.00    +0.000 C 
ATOM    144  H46 UNL A   1      12.090  -1.779   5.911  1.00  0.00    +0.000 H 
ATOM    145  H47 UNL A   1      10.084  -1.394   7.211  1.00  0.00    +0.000 H 
BRANCH   36   34
ATOM     34  C29 UNL A   1       7.563  -1.504   6.511  1.00  0.00    +0.000 C 
ATOM     35  O2  UNL A   1       7.768  -1.293   7.710  1.00  0.00    +0.000 O 
BRANCH   34   33
ATOM     33  N4  UNL A   1       6.259  -1.690   6.140  1.00  0.00    +0.000 N 
ATOM    131  H33 UNL A   1       5.644  -1.708   6.909  1.00  0.00    +0.000 H 
BRANCH   33   32
ATOM    129  H31 UNL A   1       4.549  -1.610   5.004  1.00  0.00    +0.000 H 
ATOM    130  H32 UNL A   1       6.072  -1.232   4.164  1.00  0.00    +0.000 H 
ATOM     32  C28 UNL A   1       5.579  -1.865   4.872  1.00  0.00    +0.000 C 
BRANCH   32   31
ATOM    127  H29 UNL A   1       5.177  -3.308   3.365  1.00  0.00    +0.000 H 
ATOM     31  C27 UNL A   1       5.656  -3.292   4.321  1.00  0.00    +0.000 C 
ATOM    128  H30 UNL A   1       6.695  -3.545   4.272  1.00  0.00    +0.000 H 
BRANCH   31   30
ATOM    126  H28 UNL A   1       5.496  -4.311   6.149  1.00  0.00    +0.000 H 
ATOM    125  H27 UNL A   1       5.080  -5.297   4.716  1.00  0.00    +0.000 H 
ATOM     30  C26 UNL A   1       4.991  -4.350   5.207  1.00  0.00    +0.000 C 
BRANCH   30   29
ATOM    123  H25 UNL A   1       3.144  -4.931   6.079  1.00  0.00    +0.000 H 
ATOM    124  H26 UNL A   1       3.455  -3.173   6.026  1.00  0.00    +0.000 H 
ATOM     29  C25 UNL A   1       3.510  -4.106   5.504  1.00  0.00    +0.000 C 
BRANCH   29   28
ATOM    121  H23 UNL A   1       1.637  -3.691   4.581  1.00  0.00    +0.000 H 
ATOM    122  H24 UNL A   1       3.075  -3.210   3.646  1.00  0.00    +0.000 H 
ATOM     28  C24 UNL A   1       2.623  -3.959   4.261  1.00  0.00    +0.000 C 
BRANCH   28   27
ATOM     27  C23 UNL A   1       2.523  -5.225   3.413  1.00  0.00    +0.000 C 
ATOM    119  H21 UNL A   1       2.064  -4.982   2.478  1.00  0.00    +0.000 H 
ATOM    120  H22 UNL A   1       3.511  -5.607   3.264  1.00  0.00    +0.000 H 
BRANCH   27   26
ATOM     26  N3  UNL A   1       1.734  -6.246   4.075  1.00  0.00    +0.000 N 
ATOM    118  H20 UNL A   1       2.211  -6.769   4.760  1.00  0.00    +0.000 H 
BRANCH   26   24
ATOM     25  O1  UNL A   1      -0.073  -7.403   4.664  1.00  0.00    +0.000 O 
ATOM     24  C22 UNL A   1       0.425  -6.586   3.885  1.00  0.00    +0.000 C 
BRANCH   24   23
ATOM    116  H18 UNL A   1       0.234  -6.154   1.824  1.00  0.00    +0.000 H 
ATOM    117  H19 UNL A   1      -1.273  -6.604   2.661  1.00  0.00    +0.000 H 
ATOM     23  C21 UNL A   1      -0.362  -6.044   2.706  1.00  0.00    +0.000 C 
BRANCH   23   22
ATOM      2  C2  UNL A   1       0.394  -1.256   0.694  1.00  0.00    +0.000 C 
ATOM      3  C3  UNL A   1       0.772  -2.486   0.155  1.00  0.00    +0.000 C 
ATOM      4  C4  UNL A   1       0.409  -3.689   0.767  1.00  0.00    +0.000 C 
ATOM      5  C5  UNL A   1      -0.332  -3.639   1.961  1.00  0.00    +0.000 C 
ATOM      6  C6  UNL A   1      -0.761  -2.425   2.501  1.00  0.00    +0.000 C 
ATOM      7  C7  UNL A   1      -0.388  -1.222   1.859  1.00  0.00    +0.000 C 
ATOM    102  H4  UNL A   1       1.330  -2.508  -0.713  1.00  0.00    +0.000 H 
ATOM    104  H6  UNL A   1      -0.692  -0.316   2.248  1.00  0.00    +0.000 H 
ATOM    103  H5  UNL A   1       0.680  -4.594   0.352  1.00  0.00    +0.000 H 
ATOM      8  C8  UNL A   1      -1.526  -2.728   3.665  1.00  0.00    +0.000 C 
ATOM     20  C19 UNL A   1      -1.548  -4.108   3.819  1.00  0.00    +0.000 C 
ATOM     22  N2  UNL A   1      -0.738  -4.640   2.832  1.00  0.00    +0.000 N 
BRANCH    2    1
ATOM      1  C1  UNL A   1       0.836   0.013   0.026  1.00  0.00    +0.000 C 
ATOM     99  H1  UNL A   1       1.418  -0.224  -0.840  1.00  0.00    +0.000 H 
ATOM    100  H2  UNL A   1       1.427   0.588   0.707  1.00  0.00    +0.000 H 
ATOM    101  H3  UNL A   1      -0.024   0.580  -0.267  1.00  0.00    +0.000 H 
ENDBRANCH    2    1
BRANCH    8    9
ATOM      9  C9  UNL A   1      -2.196  -1.819   4.587  1.00  0.00    +0.000 C 
ATOM     10  C10 UNL A   1      -3.416  -1.274   4.196  1.00  0.00    +0.000 C 
ATOM     11  C11 UNL A   1      -4.069  -0.458   5.091  1.00  0.00    +0.000 C 
ATOM    105  H7  UNL A   1      -3.817  -1.476   3.267  1.00  0.00    +0.000 H 
ATOM     13  C12 UNL A   1      -2.412  -0.672   6.713  1.00  0.00    +0.000 C 
ATOM    106  H8  UNL A   1      -4.973  -0.049   4.806  1.00  0.00    +0.000 H 
ATOM     12  N1  UNL A   1      -3.597  -0.160   6.320  1.00  0.00    +0.000 N 
ATOM     14  C13 UNL A   1      -1.905  -0.385   7.991  1.00  0.00    +0.000 C 
ATOM    112  H14 UNL A   1       0.148  -2.603   5.689  1.00  0.00    +0.000 H 
ATOM     18  C17 UNL A   1      -0.408  -1.998   6.313  1.00  0.00    +0.000 C 
ATOM     19  C18 UNL A   1      -1.655  -1.509   5.862  1.00  0.00    +0.000 C 
ATOM     17  C16 UNL A   1       0.091  -1.690   7.571  1.00  0.00    +0.000 C 
ATOM    111  H13 UNL A   1       1.008  -2.054   7.875  1.00  0.00    +0.000 H 
ATOM     16  C15 UNL A   1      -0.660  -0.887   8.411  1.00  0.00    +0.000 C 
ATOM    110  H12 UNL A   1      -0.304  -0.654   9.352  1.00  0.00    +0.000 H 
BRANCH   14   15
ATOM    107  H9  UNL A   1      -3.593   0.779   8.526  1.00  0.00    +0.000 H 
ATOM    108  H10 UNL A   1      -2.088   1.327   9.226  1.00  0.00    +0.000 H 
ATOM    109  H11 UNL A   1      -2.875  -0.102   9.853  1.00  0.00    +0.000 H 
ATOM     15  C14 UNL A   1      -2.671   0.466   8.970  1.00  0.00    +0.000 C 
ENDBRANCH   14   15
ENDBRANCH    8    9
BRANCH   20   21
ATOM    113  H15 UNL A   1      -2.804  -4.283   5.503  1.00  0.00    +0.000 H 
ATOM    114  H16 UNL A   1      -1.513  -5.459   5.437  1.00  0.00    +0.000 H 
ATOM    115  H17 UNL A   1      -2.900  -5.623   4.386  1.00  0.00    +0.000 H 
ATOM     21  C20 UNL A   1      -2.240  -4.926   4.860  1.00  0.00    +0.000 C 
ENDBRANCH   20   21
ENDBRANCH   23   22
ENDBRANCH   24   23
ENDBRANCH   26   24
ENDBRANCH   27   26
ENDBRANCH   28   27
ENDBRANCH   29   28
ENDBRANCH   30   29
ENDBRANCH   31   30
ENDBRANCH   32   31
ENDBRANCH   33   32
ENDBRANCH   34   33
ENDBRANCH   36   34
ENDBRANCH   40   39
BRANCH   44   45
ATOM     45  C38 UNL A   1      14.014   0.218  -1.814  1.00  0.00    +0.000 C 
ATOM     46  C39 UNL A   1      14.198   0.225  -3.212  1.00  0.00    +0.000 C 
ATOM     47  F1  UNL A   1      13.337  -0.413  -4.019  1.00  0.00    +0.000 F 
ATOM     48  C40 UNL A   1      15.320   0.809  -3.807  1.00  0.00    +0.000 C 
ATOM     49  F2  UNL A   1      15.514   0.686  -5.127  1.00  0.00    +0.000 F 
ATOM     50  C41 UNL A   1      16.267   1.456  -3.034  1.00  0.00    +0.000 C 
ATOM     51  F3  UNL A   1      17.371   1.965  -3.595  1.00  0.00    +0.000 F 
ATOM     52  C42 UNL A   1      16.089   1.527  -1.669  1.00  0.00    +0.000 C 
ATOM     53  F4  UNL A   1      17.006   2.133  -0.901  1.00  0.00    +0.000 F 
ATOM     54  C43 UNL A   1      14.998   0.899  -1.067  1.00  0.00    +0.000 C 
ATOM     55  F5  UNL A   1      15.004   0.892   0.271  1.00  0.00    +0.000 F 
ENDBRANCH   44   45
BRANCH   61   62
ATOM     65  C51 UNL A   1      11.670  -7.981   0.548  1.00  0.00    +0.000 C 
ATOM     66  F7  UNL A   1      11.186  -8.327   1.751  1.00  0.00    +0.000 F 
ATOM     67  C52 UNL A   1      11.366  -8.750  -0.564  1.00  0.00    +0.000 C 
ATOM     68  F8  UNL A   1      10.582  -9.831  -0.440  1.00  0.00    +0.000 F 
ATOM     69  C53 UNL A   1      11.845  -8.379  -1.810  1.00  0.00    +0.000 C 
ATOM     70  F9  UNL A   1      11.509  -9.089  -2.895  1.00  0.00    +0.000 F 
ATOM     71  C54 UNL A   1      12.649  -7.250  -1.943  1.00  0.00    +0.000 C 
ATOM     72  F10 UNL A   1      13.073  -6.902  -3.168  1.00  0.00    +0.000 F 
ATOM     62  C49 UNL A   1      12.968  -6.452  -0.836  1.00  0.00    +0.000 C 
ATOM     63  C50 UNL A   1      12.442  -6.829   0.411  1.00  0.00    +0.000 C 
ATOM     64  F6  UNL A   1      12.620  -6.056   1.492  1.00  0.00    +0.000 F 
ENDBRANCH   61   62
BRANCH   76   77
ATOM     77  C58 UNL A   1      17.375  -5.481   3.588  1.00  0.00    +0.000 C 
ATOM     78  C59 UNL A   1      18.422  -6.201   2.990  1.00  0.00    +0.000 C 
ATOM     79  F11 UNL A   1      18.207  -6.891   1.860  1.00  0.00    +0.000 F 
ATOM     80  C60 UNL A   1      19.723  -6.160   3.499  1.00  0.00    +0.000 C 
ATOM     81  F12 UNL A   1      20.711  -6.801   2.860  1.00  0.00    +0.000 F 
ATOM     82  C61 UNL A   1      20.011  -5.408   4.627  1.00  0.00    +0.000 C 
ATOM     83  F13 UNL A   1      21.270  -5.314   5.076  1.00  0.00    +0.000 F 
ATOM     84  C62 UNL A   1      18.995  -4.718   5.261  1.00  0.00    +0.000 C 
ATOM     85  F14 UNL A   1      19.266  -3.961   6.333  1.00  0.00    +0.000 F 
ATOM     86  C63 UNL A   1      17.698  -4.751   4.748  1.00  0.00    +0.000 C 
ATOM     87  F15 UNL A   1      16.786  -3.977   5.353  1.00  0.00    +0.000 F 
ENDBRANCH   76   77
TORSDOF 20