ROOT
ATOM    129  H35 UNL A   1       6.779  -0.161  -6.887  1.00  0.00    +0.000 H 
ATOM    130  H36 UNL A   1       5.503  -0.497  -4.690  1.00  0.00    +0.000 H 
ATOM     36  C29 UNL A   1       4.993  -3.233  -4.069  1.00  0.00    +0.000 C 
ATOM     37  C30 UNL A   1       5.752  -2.683  -5.240  1.00  0.00    +0.000 C 
ATOM     38  N4  UNL A   1       6.341  -3.329  -6.215  1.00  0.00    +0.000 N 
ATOM     39  C31 UNL A   1       6.875  -2.356  -7.046  1.00  0.00    +0.000 C 
ATOM     40  C32 UNL A   1       7.597  -2.522  -8.180  1.00  0.00    +0.000 C 
ATOM     52  C39 UNL A   1       7.978  -3.794  -8.734  1.00  0.00    +0.000 C 
ATOM     53  C40 UNL A   1       8.828  -4.055  -9.795  1.00  0.00    +0.000 C 
ATOM     54  C41 UNL A   1       8.857  -5.440 -10.002  1.00  0.00    +0.000 C 
ATOM     55  C42 UNL A   1       8.035  -6.038  -9.062  1.00  0.00    +0.000 C 
ATOM     56  N5  UNL A   1       7.518  -5.019  -8.279  1.00  0.00    +0.000 N 
ATOM     57  C43 UNL A   1       7.724  -7.432  -8.893  1.00  0.00    +0.000 C 
ATOM     69  C50 UNL A   1       7.025  -7.949  -7.856  1.00  0.00    +0.000 C 
ATOM     70  N6  UNL A   1       6.447  -7.285  -6.785  1.00  0.00    +0.000 N 
ATOM     71  C51 UNL A   1       5.877  -8.210  -6.056  1.00  0.00    +0.000 C 
ATOM     72  C52 UNL A   1       5.096  -8.059  -4.786  1.00  0.00    +0.000 C 
ATOM     84  C59 UNL A   1       4.880  -6.834  -4.274  1.00  0.00    +0.000 C 
ATOM     85  C60 UNL A   1       4.120  -6.550  -3.061  1.00  0.00    +0.000 C 
ATOM     86  C61 UNL A   1       4.075  -5.221  -2.874  1.00  0.00    +0.000 C 
ATOM     87  C62 UNL A   1       4.826  -4.564  -3.944  1.00  0.00    +0.000 C 
ATOM     88  N7  UNL A   1       5.271  -5.599  -4.727  1.00  0.00    +0.000 N 
ATOM     89  C63 UNL A   1       6.032  -9.575  -6.580  1.00  0.00    +0.000 C 
ATOM     90  C64 UNL A   1       6.746  -9.360  -7.677  1.00  0.00    +0.000 C 
ATOM     91  C65 UNL A   1       6.532  -1.072  -6.470  1.00  0.00    +0.000 C 
ATOM     92  C66 UNL A   1       5.858  -1.220  -5.336  1.00  0.00    +0.000 C 
ATOM    121  H27 UNL A   1       9.350  -3.351 -10.340  1.00  0.00    +0.000 H 
ATOM    122  H28 UNL A   1       9.399  -5.931 -10.731  1.00  0.00    +0.000 H 
ATOM    123  H29 UNL A   1       6.913  -5.146  -7.512  1.00  0.00    +0.000 H 
ATOM    124  H30 UNL A   1       3.687  -7.256  -2.445  1.00  0.00    +0.000 H 
ATOM    125  H31 UNL A   1       3.589  -4.741  -2.101  1.00  0.00    +0.000 H 
ATOM    126  H32 UNL A   1       5.818  -5.469  -5.535  1.00  0.00    +0.000 H 
ATOM    127  H33 UNL A   1       5.678 -10.465  -6.196  1.00  0.00    +0.000 H 
ATOM    128  H34 UNL A   1       7.063 -10.102  -8.320  1.00  0.00    +0.000 H 
ENDROOT
BRANCH   36   35
ATOM     33  C26 UNL A   1       4.298  -1.524  -0.763  1.00  0.00    +0.000 C 
ATOM     34  C27 UNL A   1       4.932  -2.270  -1.760  1.00  0.00    +0.000 C 
ATOM     35  C28 UNL A   1       4.390  -2.338  -3.053  1.00  0.00    +0.000 C 
ATOM    132  H38 UNL A   1       1.758  -0.306  -2.579  1.00  0.00    +0.000 H 
ATOM    131  H37 UNL A   1       2.808  -1.669  -4.287  1.00  0.00    +0.000 H 
ATOM    119  H25 UNL A   1       4.676  -1.521   0.197  1.00  0.00    +0.000 H 
ATOM    120  H26 UNL A   1       5.806  -2.775  -1.545  1.00  0.00    +0.000 H 
ATOM     93  C67 UNL A   1       3.220  -1.621  -3.342  1.00  0.00    +0.000 C 
ATOM     94  C68 UNL A   1       2.611  -0.842  -2.355  1.00  0.00    +0.000 C 
ATOM     32  C25 UNL A   1       3.151  -0.783  -1.063  1.00  0.00    +0.000 C 
BRANCH   32    2
ATOM      1  O1  UNL A   1       1.181  -0.013  -0.057  1.00  0.00    +0.000 O 
ATOM      2  C1  UNL A   1       2.410  -0.009  -0.036  1.00  0.00    +0.000 C 
BRANCH    2    3
ATOM      3  N1  UNL A   1       3.059   0.720   0.927  1.00  0.00    +0.000 N 
ATOM     95  H1  UNL A   1       2.472   1.128   1.603  1.00  0.00    +0.000 H 
BRANCH    3    4
ATOM     97  H3  UNL A   1       4.826   0.332   1.877  1.00  0.00    +0.000 H 
ATOM      4  C2  UNL A   1       4.474   0.985   1.107  1.00  0.00    +0.000 C 
ATOM     96  H2  UNL A   1       4.974   0.812   0.177  1.00  0.00    +0.000 H 
BRANCH    4    5
ATOM     98  H4  UNL A   1       4.373   3.073   0.806  1.00  0.00    +0.000 H 
ATOM     99  H5  UNL A   1       5.821   2.465   1.684  1.00  0.00    +0.000 H 
ATOM      5  C3  UNL A   1       4.760   2.414   1.554  1.00  0.00    +0.000 C 
BRANCH    5    6
ATOM    100  H6  UNL A   1       3.099   2.757   2.825  1.00  0.00    +0.000 H 
ATOM    101  H7  UNL A   1       4.517   3.830   3.074  1.00  0.00    +0.000 H 
ATOM      6  C4  UNL A   1       4.164   2.835   2.899  1.00  0.00    +0.000 C 
BRANCH    6    7
ATOM    103  H9  UNL A   1       4.185   2.511   4.962  1.00  0.00    +0.000 H 
ATOM    102  H8  UNL A   1       4.272   1.012   3.971  1.00  0.00    +0.000 H 
ATOM      7  C5  UNL A   1       4.610   2.017   4.113  1.00  0.00    +0.000 C 
BRANCH    7    8
ATOM    105  H11 UNL A   1       6.222   1.550   5.363  1.00  0.00    +0.000 H 
ATOM    104  H10 UNL A   1       6.572   1.387   3.607  1.00  0.00    +0.000 H 
ATOM      8  C6  UNL A   1       6.120   1.969   4.384  1.00  0.00    +0.000 C 
BRANCH    8    9
ATOM      9  C7  UNL A   1       6.840   3.317   4.437  1.00  0.00    +0.000 C 
ATOM    106  H12 UNL A   1       6.820   3.752   3.460  1.00  0.00    +0.000 H 
ATOM    107  H13 UNL A   1       7.839   3.133   4.773  1.00  0.00    +0.000 H 
BRANCH    9   10
ATOM     10  N2  UNL A   1       6.232   4.249   5.371  1.00  0.00    +0.000 N 
ATOM    108  H14 UNL A   1       5.288   4.084   5.598  1.00  0.00    +0.000 H 
BRANCH   10   11
ATOM     11  C8  UNL A   1       6.820   5.332   5.974  1.00  0.00    +0.000 C 
ATOM     12  O2  UNL A   1       6.131   6.195   6.514  1.00  0.00    +0.000 O 
BRANCH   11   13
ATOM     13  C9  UNL A   1       8.284   5.463   6.030  1.00  0.00    +0.000 C 
ATOM     14  C10 UNL A   1       8.902   5.312   7.279  1.00  0.00    +0.000 C 
ATOM    109  H15 UNL A   1       8.333   5.099   8.113  1.00  0.00    +0.000 H 
ATOM     15  C11 UNL A   1      10.287   5.450   7.398  1.00  0.00    +0.000 C 
ATOM     17  C13 UNL A   1      10.430   5.926   5.040  1.00  0.00    +0.000 C 
ATOM     18  C14 UNL A   1       9.041   5.791   4.903  1.00  0.00    +0.000 C 
ATOM    110  H16 UNL A   1      10.742   5.324   8.315  1.00  0.00    +0.000 H 
ATOM    112  H18 UNL A   1      11.002   6.152   4.212  1.00  0.00    +0.000 H 
ATOM     16  C12 UNL A   1      11.052   5.759   6.277  1.00  0.00    +0.000 C 
ATOM    111  H17 UNL A   1      12.075   5.863   6.361  1.00  0.00    +0.000 H 
BRANCH   18   19
ATOM     19  N3  UNL A   1       8.547   5.852   3.602  1.00  0.00    +0.000 N 
BRANCH   19   20
ATOM    113  H19 UNL A   1       7.318   7.455   3.897  1.00  0.00    +0.000 H 
ATOM     20  C15 UNL A   1       7.753   6.803   3.226  1.00  0.00    +0.000 C 
BRANCH   20   21
ATOM     26  C20 UNL A   1      11.449   5.415  -0.726  1.00  0.00    +0.000 C 
ATOM    117  H23 UNL A   1      11.258   3.320  -0.511  1.00  0.00    +0.000 H 
ATOM    114  H20 UNL A   1       7.970   8.883   1.707  1.00  0.00    +0.000 H 
ATOM    115  H21 UNL A   1      11.300   7.524  -0.861  1.00  0.00    +0.000 H 
ATOM    116  H22 UNL A   1      12.421   5.375  -1.071  1.00  0.00    +0.000 H 
ATOM     21  C16 UNL A   1       7.510   6.891   1.771  1.00  0.00    +0.000 C 
ATOM     22  C17 UNL A   1       8.108   7.972   1.244  1.00  0.00    +0.000 C 
ATOM     23  O3  UNL A   1       8.905   7.923   0.107  1.00  0.00    +0.000 O 
ATOM     24  C18 UNL A   1       9.516   6.701  -0.098  1.00  0.00    +0.000 C 
ATOM    118  H24 UNL A   1       8.974   3.404   0.331  1.00  0.00    +0.000 H 
ATOM     25  C19 UNL A   1      10.812   6.655  -0.593  1.00  0.00    +0.000 C 
ATOM     27  C21 UNL A   1      10.782   4.228  -0.394  1.00  0.00    +0.000 C 
ATOM     28  C22 UNL A   1       9.477   4.272   0.093  1.00  0.00    +0.000 C 
ATOM     29  C23 UNL A   1       8.867   5.515   0.252  1.00  0.00    +0.000 C 
ATOM     30  C24 UNL A   1       7.587   5.658   0.952  1.00  0.00    +0.000 C 
ATOM     31  O4  UNL A   1       6.715   4.803   0.933  1.00  0.00    +0.000 O 
ENDBRANCH   20   21
ENDBRANCH   19   20
ENDBRANCH   18   19
ENDBRANCH   11   13
ENDBRANCH   10   11
ENDBRANCH    9   10
ENDBRANCH    8    9
ENDBRANCH    7    8
ENDBRANCH    6    7
ENDBRANCH    5    6
ENDBRANCH    4    5
ENDBRANCH    3    4
ENDBRANCH    2    3
ENDBRANCH   32    2
ENDBRANCH   36   35
BRANCH   40   41
ATOM     41  C33 UNL A   1       8.037  -1.290  -8.903  1.00  0.00    +0.000 C 
ATOM     42  C34 UNL A   1       9.190  -0.594  -8.517  1.00  0.00    +0.000 C 
ATOM     43  F1  UNL A   1       9.891  -0.991  -7.444  1.00  0.00    +0.000 F 
ATOM     44  C35 UNL A   1       9.621   0.520  -9.230  1.00  0.00    +0.000 C 
ATOM     45  F2  UNL A   1      10.721   1.180  -8.841  1.00  0.00    +0.000 F 
ATOM     46  C36 UNL A   1       8.913   0.951 -10.344  1.00  0.00    +0.000 C 
ATOM     47  F3  UNL A   1       9.333   2.022 -11.032  1.00  0.00    +0.000 F 
ATOM     48  C37 UNL A   1       7.769   0.275 -10.741  1.00  0.00    +0.000 C 
ATOM     49  F4  UNL A   1       7.086   0.691 -11.816  1.00  0.00    +0.000 F 
ATOM     50  C38 UNL A   1       7.331  -0.836 -10.025  1.00  0.00    +0.000 C 
ATOM     51  F5  UNL A   1       6.221  -1.472 -10.428  1.00  0.00    +0.000 F 
ENDBRANCH   40   41
BRANCH   57   58
ATOM     65  C48 UNL A   1       9.993  -9.737 -10.888  1.00  0.00    +0.000 C 
ATOM     66  F9  UNL A   1      11.260 -10.172 -10.855  1.00  0.00    +0.000 F 
ATOM     67  C49 UNL A   1       9.534  -8.860  -9.909  1.00  0.00    +0.000 C 
ATOM     68  F10 UNL A   1      10.376  -8.468  -8.941  1.00  0.00    +0.000 F 
ATOM     58  C44 UNL A   1       8.213  -8.393  -9.928  1.00  0.00    +0.000 C 
ATOM     59  C45 UNL A   1       7.367  -8.834 -10.955  1.00  0.00    +0.000 C 
ATOM     60  F6  UNL A   1       6.090  -8.424 -10.999  1.00  0.00    +0.000 F 
ATOM     61  C46 UNL A   1       7.827  -9.718 -11.926  1.00  0.00    +0.000 C 
ATOM     62  F7  UNL A   1       6.997 -10.146 -12.887  1.00  0.00    +0.000 F 
ATOM     63  C47 UNL A   1       9.139 -10.166 -11.894  1.00  0.00    +0.000 C 
ATOM     64  F8  UNL A   1       9.579 -11.021 -12.828  1.00  0.00    +0.000 F 
ENDBRANCH   57   58
BRANCH   72   73
ATOM     73  C53 UNL A   1       4.544  -9.241  -4.088  1.00  0.00    +0.000 C 
ATOM     74  C54 UNL A   1       5.353 -10.025  -3.257  1.00  0.00    +0.000 C 
ATOM     75  F11 UNL A   1       6.656  -9.737  -3.125  1.00  0.00    +0.000 F 
ATOM     76  C55 UNL A   1       4.825 -11.116  -2.571  1.00  0.00    +0.000 C 
ATOM     77  F12 UNL A   1       5.619 -11.861  -1.789  1.00  0.00    +0.000 F 
ATOM     78  C56 UNL A   1       3.481 -11.434  -2.698  1.00  0.00    +0.000 C 
ATOM     79  F13 UNL A   1       2.973 -12.480  -2.032  1.00  0.00    +0.000 F 
ATOM     80  C57 UNL A   1       2.664 -10.670  -3.518  1.00  0.00    +0.000 C 
ATOM     81  F14 UNL A   1       1.365 -10.974  -3.641  1.00  0.00    +0.000 F 
ATOM     82  C58 UNL A   1       3.192  -9.586  -4.213  1.00  0.00    +0.000 C 
ATOM     83  F15 UNL A   1       2.386  -8.861  -5.003  1.00  0.00    +0.000 F 
ENDBRANCH   72   73
TORSDOF 18