ROOT
ATOM     34  C26 UNL A   1       5.480  -3.552   3.265  1.00  0.00    +0.000 C 
ATOM     35  C27 UNL A   1       6.126  -4.800   2.733  1.00  0.00    +0.000 C 
ATOM     36  N4  UNL A   1       6.964  -5.611   3.330  1.00  0.00    +0.000 N 
ATOM     37  C28 UNL A   1       7.244  -6.616   2.414  1.00  0.00    +0.000 C 
ATOM     38  C29 UNL A   1       8.083  -7.672   2.549  1.00  0.00    +0.000 C 
ATOM     50  C36 UNL A   1       8.864  -7.947   3.729  1.00  0.00    +0.000 C 
ATOM     51  C37 UNL A   1       9.747  -8.988   3.960  1.00  0.00    +0.000 C 
ATOM     52  C38 UNL A   1      10.251  -8.859   5.259  1.00  0.00    +0.000 C 
ATOM     53  C39 UNL A   1       9.715  -7.714   5.824  1.00  0.00    +0.000 C 
ATOM     54  N5  UNL A   1       8.858  -7.170   4.879  1.00  0.00    +0.000 N 
ATOM     55  C40 UNL A   1       9.967  -7.155   7.126  1.00  0.00    +0.000 C 
ATOM     67  C47 UNL A   1       9.409  -6.018   7.608  1.00  0.00    +0.000 C 
ATOM     68  N6  UNL A   1       8.484  -5.178   7.006  1.00  0.00    +0.000 N 
ATOM     69  C48 UNL A   1       8.214  -4.250   7.891  1.00  0.00    +0.000 C 
ATOM     70  C49 UNL A   1       7.279  -3.082   7.779  1.00  0.00    +0.000 C 
ATOM     82  C56 UNL A   1       6.576  -2.916   6.644  1.00  0.00    +0.000 C 
ATOM     83  C57 UNL A   1       5.647  -1.821   6.387  1.00  0.00    +0.000 C 
ATOM     84  C58 UNL A   1       5.119  -1.978   5.165  1.00  0.00    +0.000 C 
ATOM     85  C59 UNL A   1       5.715  -3.157   4.532  1.00  0.00    +0.000 C 
ATOM     86  N7  UNL A   1       6.536  -3.675   5.500  1.00  0.00    +0.000 N 
ATOM     87  C60 UNL A   1       8.944  -4.392   9.157  1.00  0.00    +0.000 C 
ATOM     88  C61 UNL A   1       9.686  -5.463   8.918  1.00  0.00    +0.000 C 
ATOM     89  C62 UNL A   1       6.464  -6.331   1.228  1.00  0.00    +0.000 C 
ATOM     90  C63 UNL A   1       5.785  -5.199   1.359  1.00  0.00    +0.000 C 
ATOM    118  H26 UNL A   1       9.992  -9.733   3.288  1.00  0.00    +0.000 H 
ATOM    119  H27 UNL A   1      10.911  -9.507   5.718  1.00  0.00    +0.000 H 
ATOM    120  H28 UNL A   1       8.324  -6.352   5.005  1.00  0.00    +0.000 H 
ATOM    121  H29 UNL A   1       5.433  -1.050   7.039  1.00  0.00    +0.000 H 
ATOM    122  H30 UNL A   1       4.406  -1.366   4.739  1.00  0.00    +0.000 H 
ATOM    123  H31 UNL A   1       7.047  -4.508   5.387  1.00  0.00    +0.000 H 
ATOM    124  H32 UNL A   1       8.892  -3.811  10.009  1.00  0.00    +0.000 H 
ATOM    125  H33 UNL A   1      10.375  -5.853   9.580  1.00  0.00    +0.000 H 
ATOM    126  H34 UNL A   1       6.439  -6.931   0.389  1.00  0.00    +0.000 H 
ATOM    127  H35 UNL A   1       5.177  -4.722   0.675  1.00  0.00    +0.000 H 
ENDROOT
BRANCH   34   33
ATOM    129  H37 UNL A   1       1.708  -2.570   0.750  1.00  0.00    +0.000 H 
ATOM     33  C25 UNL A   1       4.631  -2.686   2.408  1.00  0.00    +0.000 C 
ATOM    116  H24 UNL A   1       4.546   0.485   1.300  1.00  0.00    +0.000 H 
ATOM    117  H25 UNL A   1       5.996  -1.070   2.457  1.00  0.00    +0.000 H 
ATOM     91  C64 UNL A   1       3.380  -3.103   1.929  1.00  0.00    +0.000 C 
ATOM     92  C65 UNL A   1       2.612  -2.248   1.130  1.00  0.00    +0.000 C 
ATOM    128  H36 UNL A   1       3.025  -4.043   2.166  1.00  0.00    +0.000 H 
ATOM     30  C22 UNL A   1       3.071  -0.957   0.848  1.00  0.00    +0.000 C 
ATOM     31  C23 UNL A   1       4.263  -0.501   1.413  1.00  0.00    +0.000 C 
ATOM     32  C24 UNL A   1       5.068  -1.380   2.128  1.00  0.00    +0.000 C 
BRANCH   30    2
ATOM      1  O1  UNL A   1       1.066  -0.029   0.058  1.00  0.00    +0.000 O 
ATOM      2  C1  UNL A   1       2.286  -0.091  -0.061  1.00  0.00    +0.000 C 
BRANCH    2    3
ATOM      3  N1  UNL A   1       2.926   0.610  -1.057  1.00  0.00    +0.000 N 
ATOM     93  H1  UNL A   1       2.353   1.197  -1.601  1.00  0.00    +0.000 H 
BRANCH    3    4
ATOM      4  C2  UNL A   1       4.335   0.601  -1.415  1.00  0.00    +0.000 C 
ATOM     94  H2  UNL A   1       4.795  -0.247  -0.953  1.00  0.00    +0.000 H 
ATOM     95  H3  UNL A   1       4.752   1.525  -1.073  1.00  0.00    +0.000 H 
BRANCH    4    5
ATOM     97  H5  UNL A   1       5.642   0.473  -3.035  1.00  0.00    +0.000 H 
ATOM      5  C3  UNL A   1       4.580   0.527  -2.914  1.00  0.00    +0.000 C 
ATOM     96  H4  UNL A   1       4.059  -0.328  -3.291  1.00  0.00    +0.000 H 
BRANCH    5    6
ATOM     98  H6  UNL A   1       3.061   1.786  -3.676  1.00  0.00    +0.000 H 
ATOM     99  H7  UNL A   1       4.525   1.603  -4.702  1.00  0.00    +0.000 H 
ATOM      6  C4  UNL A   1       4.129   1.744  -3.718  1.00  0.00    +0.000 C 
BRANCH    6    7
ATOM    100  H8  UNL A   1       4.216   3.318  -2.303  1.00  0.00    +0.000 H 
ATOM    101  H9  UNL A   1       4.424   3.788  -4.029  1.00  0.00    +0.000 H 
ATOM      7  C5  UNL A   1       4.669   3.098  -3.248  1.00  0.00    +0.000 C 
BRANCH    7    8
ATOM    102  H10 UNL A   1       6.468   2.588  -2.245  1.00  0.00    +0.000 H 
ATOM    103  H11 UNL A   1       6.390   4.247  -2.929  1.00  0.00    +0.000 H 
ATOM      8  C6  UNL A   1       6.189   3.206  -3.073  1.00  0.00    +0.000 C 
BRANCH    8    9
ATOM      9  C7  UNL A   1       7.031   2.785  -4.275  1.00  0.00    +0.000 C 
ATOM    105  H13 UNL A   1       8.058   2.956  -4.029  1.00  0.00    +0.000 H 
ATOM    104  H12 UNL A   1       6.843   1.751  -4.481  1.00  0.00    +0.000 H 
BRANCH    9   10
ATOM     10  N2  UNL A   1       6.726   3.558  -5.464  1.00  0.00    +0.000 N 
ATOM    106  H14 UNL A   1       5.770   3.730  -5.626  1.00  0.00    +0.000 H 
BRANCH   10   11
ATOM     11  C8  UNL A   1       7.587   4.084  -6.392  1.00  0.00    +0.000 C 
ATOM     12  O2  UNL A   1       7.149   4.727  -7.341  1.00  0.00    +0.000 O 
BRANCH   11   13
ATOM    107  H15 UNL A   1       9.325   6.003  -6.093  1.00  0.00    +0.000 H 
ATOM    108  H16 UNL A   1      11.736   5.883  -5.849  1.00  0.00    +0.000 H 
ATOM     13  C9  UNL A   1       9.047   3.910  -6.246  1.00  0.00    +0.000 C 
ATOM     14  C10 UNL A   1       9.799   5.086  -6.099  1.00  0.00    +0.000 C 
ATOM     15  C11 UNL A   1      11.183   5.019  -5.962  1.00  0.00    +0.000 C 
ATOM    110  H18 UNL A   1      11.551   1.698  -6.146  1.00  0.00    +0.000 H 
ATOM     17  C13 UNL A   1      11.067   2.610  -6.142  1.00  0.00    +0.000 C 
ATOM     18  C14 UNL A   1       9.672   2.647  -6.300  1.00  0.00    +0.000 C 
ATOM     16  C12 UNL A   1      11.816   3.780  -5.978  1.00  0.00    +0.000 C 
ATOM    109  H17 UNL A   1      12.840   3.725  -5.869  1.00  0.00    +0.000 H 
BRANCH   18   19
ATOM     19  N3  UNL A   1       8.929   1.459  -6.467  1.00  0.00    +0.000 N 
ATOM    111  H19 UNL A   1       8.091   1.572  -6.973  1.00  0.00    +0.000 H 
BRANCH   19   20
ATOM    112  H20 UNL A   1       8.161  -0.733  -7.668  1.00  0.00    +0.000 H 
ATOM    113  H21 UNL A   1       8.637  -3.022  -7.043  1.00  0.00    +0.000 H 
ATOM    114  H22 UNL A   1       9.921  -3.496  -5.043  1.00  0.00    +0.000 H 
ATOM    115  H23 UNL A   1      10.276   0.631  -4.310  1.00  0.00    +0.000 H 
ATOM     20  C15 UNL A   1       9.173   0.144  -6.038  1.00  0.00    +0.000 C 
ATOM     21  C16 UNL A   1       8.711  -0.925  -6.816  1.00  0.00    +0.000 C 
ATOM     22  C17 UNL A   1       8.983  -2.246  -6.456  1.00  0.00    +0.000 C 
ATOM     23  C18 UNL A   1       9.720  -2.519  -5.306  1.00  0.00    +0.000 C 
ATOM     24  C19 UNL A   1      10.189  -1.470  -4.503  1.00  0.00    +0.000 C 
ATOM     25  C20 UNL A   1      10.987  -1.769  -3.258  1.00  0.00    +0.000 C 
ATOM     26  F1  UNL A   1      10.377  -2.686  -2.457  1.00  0.00    +0.000 F 
ATOM     27  F2  UNL A   1      12.219  -2.273  -3.538  1.00  0.00    +0.000 F 
ATOM     28  F3  UNL A   1      11.198  -0.676  -2.473  1.00  0.00    +0.000 F 
ATOM     29  C21 UNL A   1       9.918  -0.146  -4.888  1.00  0.00    +0.000 C 
ENDBRANCH   19   20
ENDBRANCH   18   19
ENDBRANCH   11   13
ENDBRANCH   10   11
ENDBRANCH    9   10
ENDBRANCH    8    9
ENDBRANCH    7    8
ENDBRANCH    6    7
ENDBRANCH    5    6
ENDBRANCH    4    5
ENDBRANCH    3    4
ENDBRANCH    2    3
ENDBRANCH   30    2
ENDBRANCH   34   33
BRANCH   38   39
ATOM     39  C30 UNL A   1       8.205  -8.621   1.392  1.00  0.00    +0.000 C 
ATOM     40  C31 UNL A   1       8.902  -8.270   0.227  1.00  0.00    +0.000 C 
ATOM     41  F4  UNL A   1       9.415  -7.038   0.093  1.00  0.00    +0.000 F 
ATOM     42  C32 UNL A   1       9.055  -9.178  -0.819  1.00  0.00    +0.000 C 
ATOM     43  F5  UNL A   1       9.698  -8.810  -1.935  1.00  0.00    +0.000 F 
ATOM     44  C33 UNL A   1       8.539 -10.461  -0.709  1.00  0.00    +0.000 C 
ATOM     45  F6  UNL A   1       8.699 -11.337  -1.710  1.00  0.00    +0.000 F 
ATOM     46  C34 UNL A   1       7.854 -10.833   0.438  1.00  0.00    +0.000 C 
ATOM     47  F7  UNL A   1       7.365 -12.076   0.550  1.00  0.00    +0.000 F 
ATOM     48  C35 UNL A   1       7.679  -9.920   1.475  1.00  0.00    +0.000 C 
ATOM     49  F8  UNL A   1       7.009 -10.309   2.570  1.00  0.00    +0.000 F 
ENDBRANCH   38   39
BRANCH   55   56
ATOM     65  C46 UNL A   1      12.307  -7.848   7.761  1.00  0.00    +0.000 C 
ATOM     66  F13 UNL A   1      12.779  -7.195   6.689  1.00  0.00    +0.000 F 
ATOM     56  C41 UNL A   1      10.931  -7.866   8.029  1.00  0.00    +0.000 C 
ATOM     57  C42 UNL A   1      10.488  -8.566   9.161  1.00  0.00    +0.000 C 
ATOM     58  F9  UNL A   1       9.182  -8.596   9.468  1.00  0.00    +0.000 F 
ATOM     59  C43 UNL A   1      11.392  -9.194  10.012  1.00  0.00    +0.000 C 
ATOM     60  F10 UNL A   1      10.952  -9.809  11.118  1.00  0.00    +0.000 F 
ATOM     61  C44 UNL A   1      12.749  -9.164   9.729  1.00  0.00    +0.000 C 
ATOM     62  F11 UNL A   1      13.620  -9.764  10.552  1.00  0.00    +0.000 F 
ATOM     63  C45 UNL A   1      13.206  -8.500   8.600  1.00  0.00    +0.000 C 
ATOM     64  F12 UNL A   1      14.517  -8.476   8.322  1.00  0.00    +0.000 F 
ENDBRANCH   55   56
BRANCH   70   71
ATOM     71  C50 UNL A   1       7.112  -2.117   8.896  1.00  0.00    +0.000 C 
ATOM     72  C51 UNL A   1       8.145  -1.246   9.263  1.00  0.00    +0.000 C 
ATOM     73  F14 UNL A   1       9.323  -1.295   8.623  1.00  0.00    +0.000 F 
ATOM     74  C52 UNL A   1       7.983  -0.343  10.312  1.00  0.00    +0.000 C 
ATOM     75  F15 UNL A   1       9.000   0.452  10.671  1.00  0.00    +0.000 F 
ATOM     76  C53 UNL A   1       6.776  -0.273  10.991  1.00  0.00    +0.000 C 
ATOM     77  F16 UNL A   1       6.618   0.603  11.993  1.00  0.00    +0.000 F 
ATOM     78  C54 UNL A   1       5.734  -1.115  10.635  1.00  0.00    +0.000 C 
ATOM     79  F17 UNL A   1       4.560  -1.039  11.275  1.00  0.00    +0.000 F 
ATOM     80  C55 UNL A   1       5.905  -2.039   9.608  1.00  0.00    +0.000 C 
ATOM     81  F18 UNL A   1       4.884  -2.848   9.290  1.00  0.00    +0.000 F 
ENDBRANCH   70   71
TORSDOF 17