ROOT
ATOM    129  H38 UNL A   1      -3.818  -0.965  -9.296  1.00  0.00    +0.000 H 
ATOM    130  H39 UNL A   1      -7.237   1.018 -10.582  1.00  0.00    +0.000 H 
ATOM    131  H40 UNL A   1     -11.069  -2.110  -9.720  1.00  0.00    +0.000 H 
ATOM    132  H41 UNL A   1     -12.580  -0.345 -10.793  1.00  0.00    +0.000 H 
ATOM    133  H42 UNL A   1      -4.763   5.886 -11.775  1.00  0.00    +0.000 H 
ATOM    134  H43 UNL A   1      -3.171   3.975 -11.169  1.00  0.00    +0.000 H 
ATOM     33  C26 UNL A   1      -4.503   1.575 -10.395  1.00  0.00    +0.000 C 
ATOM     34  C27 UNL A   1      -5.119   2.838 -10.929  1.00  0.00    +0.000 C 
ATOM     35  N3  UNL A   1      -6.378   3.112 -11.159  1.00  0.00    +0.000 N 
ATOM     36  C28 UNL A   1      -6.405   4.431 -11.595  1.00  0.00    +0.000 C 
ATOM     37  C29 UNL A   1      -7.469   5.162 -12.003  1.00  0.00    +0.000 C 
ATOM     49  C36 UNL A   1      -8.816   4.659 -12.076  1.00  0.00    +0.000 C 
ATOM     50  C37 UNL A   1      -9.948   5.290 -12.559  1.00  0.00    +0.000 C 
ATOM     51  C38 UNL A   1     -11.036   4.429 -12.386  1.00  0.00    +0.000 C 
ATOM     52  C39 UNL A   1     -10.574   3.244 -11.838  1.00  0.00    +0.000 C 
ATOM     53  N4  UNL A   1      -9.210   3.398 -11.651  1.00  0.00    +0.000 N 
ATOM     54  C40 UNL A   1     -11.322   2.059 -11.504  1.00  0.00    +0.000 C 
ATOM     66  C47 UNL A   1     -10.793   0.926 -10.981  1.00  0.00    +0.000 C 
ATOM     67  N5  UNL A   1      -9.470   0.643 -10.670  1.00  0.00    +0.000 N 
ATOM     68  C48 UNL A   1      -9.467  -0.574 -10.182  1.00  0.00    +0.000 C 
ATOM     69  C49 UNL A   1      -8.306  -1.407  -9.712  1.00  0.00    +0.000 C 
ATOM     81  C56 UNL A   1      -7.063  -0.895  -9.778  1.00  0.00    +0.000 C 
ATOM     82  C57 UNL A   1      -5.841  -1.577  -9.364  1.00  0.00    +0.000 C 
ATOM     83  C58 UNL A   1      -4.799  -0.748  -9.530  1.00  0.00    +0.000 C 
ATOM     84  C59 UNL A   1      -5.277   0.515 -10.097  1.00  0.00    +0.000 C 
ATOM     85  N6  UNL A   1      -6.632   0.333 -10.216  1.00  0.00    +0.000 N 
ATOM     86  C60 UNL A   1     -10.799  -1.189 -10.099  1.00  0.00    +0.000 C 
ATOM     87  C61 UNL A   1     -11.564  -0.250 -10.638  1.00  0.00    +0.000 C 
ATOM     88  C62 UNL A   1      -5.043   4.916 -11.561  1.00  0.00    +0.000 C 
ATOM     89  C63 UNL A   1      -4.201   3.951 -11.219  1.00  0.00    +0.000 C 
ATOM    125  H34 UNL A   1      -9.983   6.234 -12.975  1.00  0.00    +0.000 H 
ATOM    126  H35 UNL A   1     -12.017   4.641 -12.627  1.00  0.00    +0.000 H 
ATOM    127  H36 UNL A   1      -8.610   2.716 -11.273  1.00  0.00    +0.000 H 
ATOM    128  H37 UNL A   1      -5.787  -2.542  -9.001  1.00  0.00    +0.000 H 
ENDROOT
BRANCH   33   32
ATOM    123  H32 UNL A   1      -0.232  -0.048 -11.091  1.00  0.00    +0.000 H 
ATOM    136  H45 UNL A   1      -0.717   2.957  -8.186  1.00  0.00    +0.000 H 
ATOM    135  H44 UNL A   1      -3.111   2.943  -8.564  1.00  0.00    +0.000 H 
ATOM     90  C64 UNL A   1      -2.497   2.327  -9.120  1.00  0.00    +0.000 C 
ATOM     91  C65 UNL A   1      -1.128   2.306  -8.873  1.00  0.00    +0.000 C 
ATOM    124  H33 UNL A   1      -2.596   0.091 -11.622  1.00  0.00    +0.000 H 
ATOM     29  C22 UNL A   1      -0.309   1.401  -9.555  1.00  0.00    +0.000 C 
ATOM     30  C23 UNL A   1      -0.843   0.596 -10.565  1.00  0.00    +0.000 C 
ATOM     31  C24 UNL A   1      -2.205   0.666 -10.859  1.00  0.00    +0.000 C 
ATOM     32  C25 UNL A   1      -3.047   1.515 -10.123  1.00  0.00    +0.000 C 
BRANCH   29   27
ATOM     27  C21 UNL A   1       1.139   1.322  -9.270  1.00  0.00    +0.000 C 
ATOM     28  O4  UNL A   1       1.939   1.166 -10.188  1.00  0.00    +0.000 O 
BRANCH   27   26
ATOM     26  N2  UNL A   1       1.593   1.446  -7.982  1.00  0.00    +0.000 N 
ATOM    122  H31 UNL A   1       2.506   1.799  -7.880  1.00  0.00    +0.000 H 
BRANCH   26   25
ATOM     25  C20 UNL A   1       0.896   1.122  -6.747  1.00  0.00    +0.000 C 
ATOM    121  H30 UNL A   1      -0.154   1.117  -6.951  1.00  0.00    +0.000 H 
ATOM    120  H29 UNL A   1       1.143   1.856  -6.008  1.00  0.00    +0.000 H 
BRANCH   25   24
ATOM    118  H27 UNL A   1       0.788  -0.405  -5.280  1.00  0.00    +0.000 H 
ATOM    119  H28 UNL A   1       0.982  -0.961  -6.968  1.00  0.00    +0.000 H 
ATOM     24  C19 UNL A   1       1.281  -0.259  -6.218  1.00  0.00    +0.000 C 
BRANCH   24   23
ATOM    116  H25 UNL A   1       2.915  -1.407  -5.494  1.00  0.00    +0.000 H 
ATOM    117  H26 UNL A   1       3.226  -0.450  -6.979  1.00  0.00    +0.000 H 
ATOM     23  C18 UNL A   1       2.785  -0.475  -6.004  1.00  0.00    +0.000 C 
BRANCH   23   22
ATOM    114  H23 UNL A   1       4.513   0.299  -5.031  1.00  0.00    +0.000 H 
ATOM    115  H24 UNL A   1       3.436   1.516  -5.757  1.00  0.00    +0.000 H 
ATOM     22  C17 UNL A   1       3.501   0.610  -5.191  1.00  0.00    +0.000 C 
BRANCH   22   21
ATOM    113  H22 UNL A   1       1.815   1.019  -4.002  1.00  0.00    +0.000 H 
ATOM     21  C16 UNL A   1       2.863   0.886  -3.835  1.00  0.00    +0.000 C 
ATOM    112  H21 UNL A   1       3.321   1.759  -3.417  1.00  0.00    +0.000 H 
BRANCH   21   20
ATOM     20  C15 UNL A   1       3.018  -0.263  -2.843  1.00  0.00    +0.000 C 
ATOM    110  H19 UNL A   1       2.108  -0.378  -2.293  1.00  0.00    +0.000 H 
ATOM    111  H20 UNL A   1       3.239  -1.159  -3.385  1.00  0.00    +0.000 H 
BRANCH   20   19
ATOM     19  N1  UNL A   1       4.100   0.003  -1.922  1.00  0.00    +0.000 N 
ATOM    109  H18 UNL A   1       4.998  -0.263  -2.225  1.00  0.00    +0.000 H 
BRANCH   19   17
ATOM     17  C14 UNL A   1       4.032   0.576  -0.690  1.00  0.00    +0.000 C 
ATOM     18  O3  UNL A   1       5.075   0.930  -0.139  1.00  0.00    +0.000 O 
BRANCH   17   16
ATOM    107  H16 UNL A   1       2.020   0.006  -0.391  1.00  0.00    +0.000 H 
ATOM    108  H17 UNL A   1       2.849   0.659   1.038  1.00  0.00    +0.000 H 
ATOM     16  C13 UNL A   1       2.689   0.753  -0.016  1.00  0.00    +0.000 C 
BRANCH   16   15
ATOM    105  H14 UNL A   1       1.690   2.475   0.682  1.00  0.00    +0.000 H 
ATOM    106  H15 UNL A   1       2.857   2.705  -0.686  1.00  0.00    +0.000 H 
ATOM     15  C12 UNL A   1       2.066   2.127  -0.258  1.00  0.00    +0.000 C 
BRANCH   15   14
ATOM     14  C11 UNL A   1       0.918   2.234  -1.278  1.00  0.00    +0.000 C 
ATOM    103  H12 UNL A   1       0.466   3.197  -1.167  1.00  0.00    +0.000 H 
ATOM    104  H13 UNL A   1       1.361   2.074  -2.239  1.00  0.00    +0.000 H 
BRANCH   14   13
ATOM    101  H10 UNL A   1       0.108   0.331  -1.727  1.00  0.00    +0.000 H 
ATOM     13  C10 UNL A   1      -0.184   1.176  -1.140  1.00  0.00    +0.000 C 
ATOM    102  H11 UNL A   1      -0.261   1.001  -0.087  1.00  0.00    +0.000 H 
BRANCH   13   12
ATOM    100  H9  UNL A   1      -2.122   0.631  -1.522  1.00  0.00    +0.000 H 
ATOM     99  H8  UNL A   1      -1.506   2.051  -2.522  1.00  0.00    +0.000 H 
ATOM     12  C9  UNL A   1      -1.604   1.566  -1.573  1.00  0.00    +0.000 C 
BRANCH   12   11
ATOM     11  S1  UNL A   1      -2.663   2.652  -0.547  1.00  0.00    +0.000 S 
BRANCH   11   10
ATOM     97  H6  UNL A   1      -0.804   7.065  -1.190  1.00  0.00    +0.000 H 
ATOM     98  H7  UNL A   1      -2.317   5.222  -1.615  1.00  0.00    +0.000 H 
ATOM      5  C3  UNL A   1      -0.723   3.959   1.032  1.00  0.00    +0.000 C 
ATOM      6  C4  UNL A   1       0.154   5.028   1.278  1.00  0.00    +0.000 C 
ATOM      7  C5  UNL A   1       0.136   6.155   0.460  1.00  0.00    +0.000 C 
ATOM      8  C6  UNL A   1      -0.771   6.224  -0.592  1.00  0.00    +0.000 C 
ATOM      9  C7  UNL A   1      -1.638   5.153  -0.841  1.00  0.00    +0.000 C 
ATOM     10  C8  UNL A   1      -1.604   3.985  -0.057  1.00  0.00    +0.000 C 
ATOM     95  H4  UNL A   1       0.814   4.979   2.069  1.00  0.00    +0.000 H 
ATOM     96  H5  UNL A   1       0.791   6.933   0.633  1.00  0.00    +0.000 H 
BRANCH    5    4
ATOM      4  O2  UNL A   1      -0.433   2.819   1.852  1.00  0.00    +0.000 O 
BRANCH    4    2
ATOM      2  C2  UNL A   1      -1.133   1.682   2.277  1.00  0.00    +0.000 C 
ATOM      3  O1  UNL A   1      -2.329   1.458   2.173  1.00  0.00    +0.000 O 
BRANCH    2    1
ATOM      1  C1  UNL A   1      -0.146   0.752   2.921  1.00  0.00    +0.000 C 
ATOM     92  H1  UNL A   1      -0.652  -0.128   3.258  1.00  0.00    +0.000 H 
ATOM     93  H2  UNL A   1       0.312   1.241   3.756  1.00  0.00    +0.000 H 
ATOM     94  H3  UNL A   1       0.606   0.482   2.210  1.00  0.00    +0.000 H 
ENDBRANCH    2    1
ENDBRANCH    4    2
ENDBRANCH    5    4
ENDBRANCH   11   10
ENDBRANCH   12   11
ENDBRANCH   13   12
ENDBRANCH   14   13
ENDBRANCH   15   14
ENDBRANCH   16   15
ENDBRANCH   17   16
ENDBRANCH   19   17
ENDBRANCH   20   19
ENDBRANCH   21   20
ENDBRANCH   22   21
ENDBRANCH   23   22
ENDBRANCH   24   23
ENDBRANCH   25   24
ENDBRANCH   26   25
ENDBRANCH   27   26
ENDBRANCH   29   27
ENDBRANCH   33   32
BRANCH   37   38
ATOM     38  C30 UNL A   1      -7.226   6.586 -12.407  1.00  0.00    +0.000 C 
ATOM     39  C31 UNL A   1      -6.557   6.911 -13.597  1.00  0.00    +0.000 C 
ATOM     40  F1  UNL A   1      -6.060   5.941 -14.378  1.00  0.00    +0.000 F 
ATOM     41  C32 UNL A   1      -6.368   8.239 -13.972  1.00  0.00    +0.000 C 
ATOM     42  F2  UNL A   1      -5.690   8.526 -15.092  1.00  0.00    +0.000 F 
ATOM     43  C33 UNL A   1      -6.871   9.264 -13.185  1.00  0.00    +0.000 C 
ATOM     44  F3  UNL A   1      -6.698  10.541 -13.554  1.00  0.00    +0.000 F 
ATOM     45  C34 UNL A   1      -7.550   8.965 -12.014  1.00  0.00    +0.000 C 
ATOM     46  F4  UNL A   1      -8.047   9.954 -11.258  1.00  0.00    +0.000 F 
ATOM     47  C35 UNL A   1      -7.716   7.640 -11.621  1.00  0.00    +0.000 C 
ATOM     48  F5  UNL A   1      -8.368   7.384 -10.477  1.00  0.00    +0.000 F 
ENDBRANCH   37   38
BRANCH   54   55
ATOM     65  F10 UNL A   1     -12.416   1.975 -14.124  1.00  0.00    +0.000 F 
ATOM     55  C41 UNL A   1     -12.797   2.065 -11.776  1.00  0.00    +0.000 C 
ATOM     56  C42 UNL A   1     -13.736   2.137 -10.737  1.00  0.00    +0.000 C 
ATOM     57  F6  UNL A   1     -13.328   2.149  -9.459  1.00  0.00    +0.000 F 
ATOM     58  C43 UNL A   1     -15.101   2.157 -11.008  1.00  0.00    +0.000 C 
ATOM     59  F7  UNL A   1     -15.982   2.180  -9.999  1.00  0.00    +0.000 F 
ATOM     60  C44 UNL A   1     -15.551   2.140 -12.320  1.00  0.00    +0.000 C 
ATOM     61  F8  UNL A   1     -16.865   2.166 -12.579  1.00  0.00    +0.000 F 
ATOM     62  C45 UNL A   1     -14.639   2.087 -13.363  1.00  0.00    +0.000 C 
ATOM     63  F9  UNL A   1     -15.072   2.083 -14.632  1.00  0.00    +0.000 F 
ATOM     64  C46 UNL A   1     -13.274   2.038 -13.095  1.00  0.00    +0.000 C 
ENDBRANCH   54   55
BRANCH   69   70
ATOM     70  C50 UNL A   1      -8.518  -2.788  -9.207  1.00  0.00    +0.000 C 
ATOM     71  C51 UNL A   1      -8.923  -3.813 -10.074  1.00  0.00    +0.000 C 
ATOM     72  F11 UNL A   1      -9.127  -3.548 -11.373  1.00  0.00    +0.000 F 
ATOM     73  C52 UNL A   1      -9.164  -5.101  -9.602  1.00  0.00    +0.000 C 
ATOM     74  F12 UNL A   1      -9.597  -6.049 -10.444  1.00  0.00    +0.000 F 
ATOM     75  C53 UNL A   1      -8.974  -5.397  -8.261  1.00  0.00    +0.000 C 
ATOM     76  F13 UNL A   1      -9.206  -6.637  -7.808  1.00  0.00    +0.000 F 
ATOM     77  C54 UNL A   1      -8.552  -4.405  -7.389  1.00  0.00    +0.000 C 
ATOM     78  F14 UNL A   1      -8.354  -4.692  -6.095  1.00  0.00    +0.000 F 
ATOM     79  C55 UNL A   1      -8.338  -3.110  -7.854  1.00  0.00    +0.000 C 
ATOM     80  F15 UNL A   1      -7.945  -2.167  -6.986  1.00  0.00    +0.000 F 
ENDBRANCH   69   70
TORSDOF 24