ROOT
ATOM     19  C15 UNL A   1      12.688   1.705  -1.522  1.00  0.00    +0.000 C 
ATOM     20  C16 UNL A   1      13.297   2.981  -1.018  1.00  0.00    +0.000 C 
ATOM     21  N3  UNL A   1      13.693   4.033  -1.687  1.00  0.00    +0.000 N 
ATOM     22  C17 UNL A   1      14.094   4.955  -0.729  1.00  0.00    +0.000 C 
ATOM     23  C18 UNL A   1      14.621   6.189  -0.916  1.00  0.00    +0.000 C 
ATOM     35  C25 UNL A   1      14.891   6.763  -2.207  1.00  0.00    +0.000 C 
ATOM     36  C26 UNL A   1      15.491   7.973  -2.505  1.00  0.00    +0.000 C 
ATOM     37  C27 UNL A   1      15.509   8.119  -3.897  1.00  0.00    +0.000 C 
ATOM     38  C28 UNL A   1      14.958   6.981  -4.465  1.00  0.00    +0.000 C 
ATOM     39  N4  UNL A   1      14.579   6.160  -3.417  1.00  0.00    +0.000 N 
ATOM     40  C29 UNL A   1      14.791   6.668  -5.862  1.00  0.00    +0.000 C 
ATOM     52  C36 UNL A   1      14.237   5.531  -6.347  1.00  0.00    +0.000 C 
ATOM     53  N5  UNL A   1      13.740   4.439  -5.649  1.00  0.00    +0.000 N 
ATOM     54  C37 UNL A   1      13.322   3.590  -6.556  1.00  0.00    +0.000 C 
ATOM     55  C38 UNL A   1      12.711   2.229  -6.367  1.00  0.00    +0.000 C 
ATOM     67  C45 UNL A   1      12.617   1.713  -5.127  1.00  0.00    +0.000 C 
ATOM     68  C46 UNL A   1      12.031   0.418  -4.791  1.00  0.00    +0.000 C 
ATOM     69  C47 UNL A   1      12.000   0.286  -3.455  1.00  0.00    +0.000 C 
ATOM     70  C48 UNL A   1      12.602   1.470  -2.844  1.00  0.00    +0.000 C 
ATOM     71  N6  UNL A   1      12.991   2.239  -3.914  1.00  0.00    +0.000 N 
ATOM     72  C49 UNL A   1      13.478   4.064  -7.938  1.00  0.00    +0.000 C 
ATOM     73  C50 UNL A   1      14.064   5.240  -7.755  1.00  0.00    +0.000 C 
ATOM     74  C51 UNL A   1      13.860   4.352   0.565  1.00  0.00    +0.000 C 
ATOM     75  C52 UNL A   1      13.438   3.103   0.441  1.00  0.00    +0.000 C 
ATOM    108  H21 UNL A   1      15.862   8.650  -1.821  1.00  0.00    +0.000 H 
ATOM    109  H22 UNL A   1      15.871   8.937  -4.412  1.00  0.00    +0.000 H 
ATOM    110  H23 UNL A   1      14.151   5.279  -3.516  1.00  0.00    +0.000 H 
ATOM    111  H24 UNL A   1      11.695  -0.282  -5.470  1.00  0.00    +0.000 H 
ATOM    112  H25 UNL A   1      11.613  -0.522  -2.942  1.00  0.00    +0.000 H 
ATOM    113  H26 UNL A   1      13.489   3.083  -3.821  1.00  0.00    +0.000 H 
ATOM    114  H27 UNL A   1      13.204   3.603  -8.820  1.00  0.00    +0.000 H 
ATOM    115  H28 UNL A   1      14.360   5.868  -8.519  1.00  0.00    +0.000 H 
ATOM    116  H29 UNL A   1      14.003   4.832   1.468  1.00  0.00    +0.000 H 
ATOM    117  H30 UNL A   1      13.256   2.400   1.174  1.00  0.00    +0.000 H 
ENDROOT
BRANCH   19   18
ATOM    106  H19 UNL A   1      12.318  -2.349   0.689  1.00  0.00    +0.000 H 
ATOM    107  H20 UNL A   1      13.432  -0.833  -0.849  1.00  0.00    +0.000 H 
ATOM     76  C53 UNL A   1      10.956   1.192   0.181  1.00  0.00    +0.000 C 
ATOM     77  C54 UNL A   1      10.364   0.350   1.114  1.00  0.00    +0.000 C 
ATOM     15  C11 UNL A   1      10.826  -0.962   1.252  1.00  0.00    +0.000 C 
ATOM     16  C12 UNL A   1      11.954  -1.394   0.549  1.00  0.00    +0.000 C 
ATOM     17  C13 UNL A   1      12.586  -0.526  -0.344  1.00  0.00    +0.000 C 
ATOM     18  C14 UNL A   1      12.072   0.763  -0.556  1.00  0.00    +0.000 C 
ATOM    118  H31 UNL A   1      10.574   2.139   0.029  1.00  0.00    +0.000 H 
ATOM    119  H32 UNL A   1       9.588   0.691   1.702  1.00  0.00    +0.000 H 
BRANCH   15   13
ATOM     13  C10 UNL A   1      10.112  -1.914   2.126  1.00  0.00    +0.000 C 
ATOM     14  O2  UNL A   1      10.739  -2.600   2.927  1.00  0.00    +0.000 O 
BRANCH   13   12
ATOM    105  H18 UNL A   1       8.303  -2.555   2.718  1.00  0.00    +0.000 H 
ATOM     12  N2  UNL A   1       8.748  -2.031   2.013  1.00  0.00    +0.000 N 
BRANCH   12   11
ATOM     11  C9  UNL A   1       7.876  -1.481   0.987  1.00  0.00    +0.000 C 
ATOM    103  H16 UNL A   1       7.260  -0.725   1.428  1.00  0.00    +0.000 H 
ATOM    104  H17 UNL A   1       8.495  -1.078   0.213  1.00  0.00    +0.000 H 
BRANCH   11   10
ATOM     10  C8  UNL A   1       6.978  -2.542   0.362  1.00  0.00    +0.000 C 
ATOM    101  H14 UNL A   1       6.480  -2.105  -0.478  1.00  0.00    +0.000 H 
ATOM    102  H15 UNL A   1       7.615  -3.359   0.094  1.00  0.00    +0.000 H 
BRANCH   10    9
ATOM      9  C7  UNL A   1       5.915  -3.112   1.303  1.00  0.00    +0.000 C 
ATOM     99  H12 UNL A   1       5.340  -3.830   0.757  1.00  0.00    +0.000 H 
ATOM    100  H13 UNL A   1       6.444  -3.533   2.132  1.00  0.00    +0.000 H 
BRANCH    9    8
ATOM     97  H10 UNL A   1       4.201  -2.604   2.445  1.00  0.00    +0.000 H 
ATOM     98  H11 UNL A   1       5.548  -1.425   2.491  1.00  0.00    +0.000 H 
ATOM      8  C6  UNL A   1       4.950  -2.079   1.891  1.00  0.00    +0.000 C 
BRANCH    8    7
ATOM     95  H8  UNL A   1       3.599  -0.512   1.395  1.00  0.00    +0.000 H 
ATOM      7  C5  UNL A   1       4.242  -1.184   0.865  1.00  0.00    +0.000 C 
ATOM     96  H9  UNL A   1       5.011  -0.682   0.316  1.00  0.00    +0.000 H 
BRANCH    7    6
ATOM     94  H7  UNL A   1       4.008  -2.685  -0.633  1.00  0.00    +0.000 H 
ATOM     93  H6  UNL A   1       3.027  -1.251  -0.894  1.00  0.00    +0.000 H 
ATOM      6  C4  UNL A   1       3.395  -1.942  -0.165  1.00  0.00    +0.000 C 
BRANCH    6    5
ATOM     92  H5  UNL A   1       2.436  -3.517   0.794  1.00  0.00    +0.000 H 
ATOM      5  N1  UNL A   1       2.274  -2.600   0.474  1.00  0.00    +0.000 N 
BRANCH    5    3
ATOM      3  C3  UNL A   1       1.016  -2.103   0.690  1.00  0.00    +0.000 C 
ATOM      4  O1  UNL A   1       0.412  -2.541   1.670  1.00  0.00    +0.000 O 
BRANCH    3    2
ATOM      2  C2  UNL A   1       0.422  -1.076  -0.297  1.00  0.00    +0.000 C 
ATOM     91  H4  UNL A   1       0.763  -1.316  -1.282  1.00  0.00    +0.000 H 
BRANCH    2    1
ATOM      1  C1  UNL A   1       0.926   0.323   0.090  1.00  0.00    +0.000 C 
ATOM     90  H3  UNL A   1       0.617   1.031  -0.650  1.00  0.00    +0.000 H 
ATOM     89  H2  UNL A   1       0.517   0.599   1.040  1.00  0.00    +0.000 H 
ATOM     88  H1  UNL A   1       1.994   0.313   0.151  1.00  0.00    +0.000 H 
ENDBRANCH    2    1
BRANCH    2   78
ATOM    131  H44 UNL A   1      -3.663  -3.331  -0.150  1.00  0.00    +0.000 H 
ATOM    132  H45 UNL A   1      -1.249  -3.244  -0.224  1.00  0.00    +0.000 H 
ATOM     78  C55 UNL A   1      -1.109  -1.144  -0.405  1.00  0.00    +0.000 C 
ATOM     79  C56 UNL A   1      -1.884   0.002  -0.645  1.00  0.00    +0.000 C 
ATOM     80  C57 UNL A   1      -3.279  -0.055  -0.655  1.00  0.00    +0.000 C 
ATOM     81  C58 UNL A   1      -3.947  -1.258  -0.413  1.00  0.00    +0.000 C 
ATOM     86  C62 UNL A   1      -3.189  -2.422  -0.271  1.00  0.00    +0.000 C 
ATOM     87  C63 UNL A   1      -1.790  -2.368  -0.292  1.00  0.00    +0.000 C 
ATOM    120  H33 UNL A   1      -1.413   0.903  -0.819  1.00  0.00    +0.000 H 
ATOM    121  H34 UNL A   1      -3.823   0.802  -0.843  1.00  0.00    +0.000 H 
BRANCH   81   82
ATOM     82  C59 UNL A   1      -5.450  -1.284  -0.265  1.00  0.00    +0.000 C 
ATOM    123  H36 UNL A   1      -5.834  -0.645  -1.033  1.00  0.00    +0.000 H 
ATOM    122  H35 UNL A   1      -5.773  -2.300  -0.351  1.00  0.00    +0.000 H 
BRANCH   82   83
ATOM     83 SI1  UNL A   1      -6.117  -0.593   1.375  1.00  0.00    +0.000 SI
ATOM    124  H37 UNL A   1      -5.609  -1.395   2.430  1.00  0.00    +0.000 H 
BRANCH   83   84
ATOM     84  C60 UNL A   1      -5.553   1.165   1.650  1.00  0.00    +0.000 C 
ATOM    125  H38 UNL A   1      -5.926   1.787   0.863  1.00  0.00    +0.000 H 
ATOM    126  H39 UNL A   1      -4.484   1.200   1.654  1.00  0.00    +0.000 H 
ATOM    127  H40 UNL A   1      -5.925   1.517   2.589  1.00  0.00    +0.000 H 
ENDBRANCH   83   84
BRANCH   83   85
ATOM    129  H42 UNL A   1      -8.354  -0.284   2.303  1.00  0.00    +0.000 H 
ATOM    130  H43 UNL A   1      -8.306  -1.663   1.231  1.00  0.00    +0.000 H 
ATOM     85  C61 UNL A   1      -7.982  -0.653   1.370  1.00  0.00    +0.000 C 
ATOM    128  H41 UNL A   1      -8.357  -0.046   0.572  1.00  0.00    +0.000 H 
ENDBRANCH   83   85
ENDBRANCH   82   83
ENDBRANCH   81   82
ENDBRANCH    2   78
ENDBRANCH    3    2
ENDBRANCH    5    3
ENDBRANCH    6    5
ENDBRANCH    7    6
ENDBRANCH    8    7
ENDBRANCH    9    8
ENDBRANCH   10    9
ENDBRANCH   11   10
ENDBRANCH   12   11
ENDBRANCH   13   12
ENDBRANCH   15   13
ENDBRANCH   19   18
BRANCH   23   24
ATOM     33  C24 UNL A   1      14.159   8.136   0.614  1.00  0.00    +0.000 C 
ATOM     34  F5  UNL A   1      13.151   8.509  -0.190  1.00  0.00    +0.000 F 
ATOM     24  C19 UNL A   1      14.924   7.000   0.309  1.00  0.00    +0.000 C 
ATOM     25  C20 UNL A   1      15.969   6.660   1.181  1.00  0.00    +0.000 C 
ATOM     26  F1  UNL A   1      16.722   5.575   0.941  1.00  0.00    +0.000 F 
ATOM     27  C21 UNL A   1      16.210   7.401   2.334  1.00  0.00    +0.000 C 
ATOM     28  F2  UNL A   1      17.173   7.020   3.185  1.00  0.00    +0.000 F 
ATOM     29  C22 UNL A   1      15.439   8.519   2.616  1.00  0.00    +0.000 C 
ATOM     30  F3  UNL A   1      15.670   9.230   3.729  1.00  0.00    +0.000 F 
ATOM     31  C23 UNL A   1      14.422   8.893   1.751  1.00  0.00    +0.000 C 
ATOM     32  F4  UNL A   1      13.684   9.980   2.017  1.00  0.00    +0.000 F 
ENDBRANCH   23   24
BRANCH   40   41
ATOM     41  C30 UNL A   1      15.293   7.673  -6.854  1.00  0.00    +0.000 C 
ATOM     42  C31 UNL A   1      14.417   8.513  -7.555  1.00  0.00    +0.000 C 
ATOM     43  F6  UNL A   1      13.090   8.370  -7.419  1.00  0.00    +0.000 F 
ATOM     44  C32 UNL A   1      14.905   9.494  -8.414  1.00  0.00    +0.000 C 
ATOM     45  F7  UNL A   1      14.051  10.273  -9.093  1.00  0.00    +0.000 F 
ATOM     46  C33 UNL A   1      16.273   9.667  -8.570  1.00  0.00    +0.000 C 
ATOM     47  F8  UNL A   1      16.740  10.624  -9.384  1.00  0.00    +0.000 F 
ATOM     48  C34 UNL A   1      17.156   8.848  -7.884  1.00  0.00    +0.000 C 
ATOM     49  F9  UNL A   1      18.478   9.021  -8.024  1.00  0.00    +0.000 F 
ATOM     50  C35 UNL A   1      16.672   7.852  -7.042  1.00  0.00    +0.000 C 
ATOM     51  F10 UNL A   1      17.549   7.075  -6.388  1.00  0.00    +0.000 F 
ENDBRANCH   40   41
BRANCH   55   56
ATOM     65  C44 UNL A   1      10.865   1.237  -7.762  1.00  0.00    +0.000 C 
ATOM     66  F15 UNL A   1       9.956   1.804  -6.956  1.00  0.00    +0.000 F 
ATOM     56  C39 UNL A   1      12.233   1.432  -7.524  1.00  0.00    +0.000 C 
ATOM     57  C40 UNL A   1      13.143   0.811  -8.390  1.00  0.00    +0.000 C 
ATOM     58  F11 UNL A   1      14.461   0.984  -8.211  1.00  0.00    +0.000 F 
ATOM     59  C41 UNL A   1      12.703   0.026  -9.453  1.00  0.00    +0.000 C 
ATOM     60  F12 UNL A   1      13.593  -0.539 -10.280  1.00  0.00    +0.000 F 
ATOM     61  C42 UNL A   1      11.345  -0.168  -9.659  1.00  0.00    +0.000 C 
ATOM     62  F13 UNL A   1      10.922  -0.935 -10.673  1.00  0.00    +0.000 F 
ATOM     63  C43 UNL A   1      10.426   0.435  -8.813  1.00  0.00    +0.000 C 
ATOM     64  F14 UNL A   1       9.114   0.237  -9.000  1.00  0.00    +0.000 F 
ENDBRANCH   55   56
TORSDOF 21