ROOT
ATOM    133  H29 UNL A   1     -17.187   8.635   8.851  1.00  0.00    +0.000 H 
ATOM    134  H30 UNL A   1     -18.858   6.618   8.645  1.00  0.00    +0.000 H 
ATOM    135  H31 UNL A   1     -17.849   7.072  12.632  1.00  0.00    +0.000 H 
ATOM    136  H32 UNL A   1     -17.156   4.338   7.395  1.00  0.00    +0.000 H 
ATOM    137  H33 UNL A   1     -15.750   6.061   8.668  1.00  0.00    +0.000 H 
ATOM    138  H34 UNL A   1     -13.892   2.358   8.892  1.00  0.00    +0.000 H 
ATOM    139  H35 UNL A   1     -19.548   0.959   9.822  1.00  0.00    +0.000 H 
ATOM    140  H36 UNL A   1     -20.969   2.820  10.892  1.00  0.00    +0.000 H 
ATOM    141  H37 UNL A   1     -13.201   8.715  12.676  1.00  0.00    +0.000 H 
ATOM    142  H38 UNL A   1     -12.033   6.544  11.939  1.00  0.00    +0.000 H 
ATOM     38  C25 UNL A   1     -13.894   4.770  10.519  1.00  0.00    +0.000 C 
ATOM     39  C26 UNL A   1     -14.111   6.053  11.197  1.00  0.00    +0.000 C 
ATOM     40  N6  UNL A   1     -15.259   6.602  11.357  1.00  0.00    +0.000 N 
ATOM     41  C27 UNL A   1     -15.036   7.891  11.794  1.00  0.00    +0.000 C 
ATOM     42  C28 UNL A   1     -16.020   8.813  11.596  1.00  0.00    +0.000 C 
ATOM     54  C35 UNL A   1     -17.166   8.167  10.960  1.00  0.00    +0.000 C 
ATOM     55  C36 UNL A   1     -17.522   8.043   9.627  1.00  0.00    +0.000 C 
ATOM     56  C37 UNL A   1     -18.428   6.960   9.518  1.00  0.00    +0.000 C 
ATOM     57  C38 UNL A   1     -18.637   6.440  10.785  1.00  0.00    +0.000 C 
ATOM     58  N7  UNL A   1     -17.879   7.199  11.656  1.00  0.00    +0.000 N 
ATOM     59  C39 UNL A   1     -19.496   5.373  11.272  1.00  0.00    +0.000 C 
ATOM     71  C46 UNL A   1     -19.212   4.136  10.764  1.00  0.00    +0.000 C 
ATOM     72  N8  UNL A   1     -17.979   3.826  10.251  1.00  0.00    +0.000 N 
ATOM     73  C47 UNL A   1     -17.984   2.589   9.835  1.00  0.00    +0.000 C 
ATOM     74  C48 UNL A   1     -16.799   1.925   9.179  1.00  0.00    +0.000 C 
ATOM     86  C55 UNL A   1     -15.991   2.823   8.541  1.00  0.00    +0.000 C 
ATOM     87  C56 UNL A   1     -16.409   4.136   8.078  1.00  0.00    +0.000 C 
ATOM     88  C57 UNL A   1     -15.637   5.036   8.711  1.00  0.00    +0.000 C 
ATOM     89  C58 UNL A   1     -14.615   4.325   9.467  1.00  0.00    +0.000 C 
ATOM     90  N9  UNL A   1     -14.636   3.000   8.952  1.00  0.00    +0.000 N 
ATOM     91  C59 UNL A   1     -19.266   1.927  10.044  1.00  0.00    +0.000 C 
ATOM     92  C60 UNL A   1     -19.982   2.916  10.606  1.00  0.00    +0.000 C 
ATOM     93  C61 UNL A   1     -13.650   7.928  12.182  1.00  0.00    +0.000 C 
ATOM     94  C62 UNL A   1     -13.023   6.807  11.816  1.00  0.00    +0.000 C 
ENDROOT
BRANCH   38   37
ATOM     34  C21 UNL A   1     -10.441   2.559  10.937  1.00  0.00    +0.000 C 
ATOM     35  C22 UNL A   1     -11.498   2.234  11.801  1.00  0.00    +0.000 C 
ATOM     36  C23 UNL A   1     -12.642   3.015  11.786  1.00  0.00    +0.000 C 
ATOM    131  H27 UNL A   1     -11.424   1.426  12.438  1.00  0.00    +0.000 H 
ATOM    132  H28 UNL A   1     -13.424   2.834  12.434  1.00  0.00    +0.000 H 
ATOM     37  C24 UNL A   1     -12.692   4.050  10.863  1.00  0.00    +0.000 C 
ATOM    143  H39 UNL A   1     -11.594   5.336   9.593  1.00  0.00    +0.000 H 
ATOM    144  H40 UNL A   1      -9.481   4.202  10.010  1.00  0.00    +0.000 H 
ATOM     95  C63 UNL A   1     -11.552   4.496  10.192  1.00  0.00    +0.000 C 
ATOM     96  C64 UNL A   1     -10.378   3.808  10.335  1.00  0.00    +0.000 C 
BRANCH   34   32
ATOM     33  O7  UNL A   1      -9.406   0.458  11.064  1.00  0.00    +0.000 O 
ATOM     32  C20 UNL A   1      -9.718   1.406  10.352  1.00  0.00    +0.000 C 
BRANCH   32   31
ATOM    130  H26 UNL A   1      -9.533   0.396   8.621  1.00  0.00    +0.000 H 
ATOM     31  N5  UNL A   1      -9.590   1.312   8.978  1.00  0.00    +0.000 N 
BRANCH   31   30
ATOM    129  H25 UNL A   1      -8.831   3.103   8.341  1.00  0.00    +0.000 H 
ATOM     30  C19 UNL A   1      -9.528   2.373   7.984  1.00  0.00    +0.000 C 
ATOM    128  H24 UNL A   1     -10.509   2.782   7.861  1.00  0.00    +0.000 H 
BRANCH   30   29
ATOM     29  C18 UNL A   1      -9.030   1.897   6.632  1.00  0.00    +0.000 C 
ATOM    126  H22 UNL A   1      -8.649   2.743   6.099  1.00  0.00    +0.000 H 
ATOM    127  H23 UNL A   1      -8.284   1.155   6.825  1.00  0.00    +0.000 H 
BRANCH   29   28
ATOM    124  H20 UNL A   1      -9.613   0.827   4.902  1.00  0.00    +0.000 H 
ATOM     28  C17 UNL A   1     -10.098   1.228   5.767  1.00  0.00    +0.000 C 
ATOM    125  H21 UNL A   1     -10.556   0.493   6.394  1.00  0.00    +0.000 H 
BRANCH   28   27
ATOM    122  H18 UNL A   1     -11.791   1.600   4.540  1.00  0.00    +0.000 H 
ATOM     27  C16 UNL A   1     -11.242   2.133   5.287  1.00  0.00    +0.000 C 
ATOM    123  H19 UNL A   1     -11.813   2.368   6.161  1.00  0.00    +0.000 H 
BRANCH   27   26
ATOM    121  H17 UNL A   1     -10.370   4.035   5.485  1.00  0.00    +0.000 H 
ATOM     26  C15 UNL A   1     -10.822   3.477   4.691  1.00  0.00    +0.000 C 
ATOM    120  H16 UNL A   1     -11.692   3.952   4.290  1.00  0.00    +0.000 H 
BRANCH   26   25
ATOM     25  C14 UNL A   1      -9.782   3.375   3.585  1.00  0.00    +0.000 C 
ATOM    118  H14 UNL A   1      -9.329   4.336   3.454  1.00  0.00    +0.000 H 
ATOM    119  H15 UNL A   1      -9.072   2.633   3.884  1.00  0.00    +0.000 H 
BRANCH   25   24
ATOM    117  H13 UNL A   1     -10.965   2.198   2.356  1.00  0.00    +0.000 H 
ATOM     24  N4  UNL A   1     -10.335   2.953   2.320  1.00  0.00    +0.000 N 
BRANCH   24   22
ATOM     22  C13 UNL A   1     -10.092   3.470   1.079  1.00  0.00    +0.000 C 
ATOM     23  O6  UNL A   1     -10.329   2.752   0.104  1.00  0.00    +0.000 O 
BRANCH   22   21
ATOM    115  H11 UNL A   1      -8.370   4.724   1.052  1.00  0.00    +0.000 H 
ATOM    116  H12 UNL A   1      -9.670   5.163  -0.099  1.00  0.00    +0.000 H 
ATOM     21  C12 UNL A   1      -9.421   4.845   0.892  1.00  0.00    +0.000 C 
BRANCH   21   20
ATOM    114  H10 UNL A   1     -10.859   6.073   1.731  1.00  0.00    +0.000 H 
ATOM     20  N3  UNL A   1      -9.893   5.895   1.782  1.00  0.00    +0.000 N 
BRANCH   20   18
ATOM     18  C11 UNL A   1      -9.215   6.673   2.673  1.00  0.00    +0.000 C 
ATOM     19  O5  UNL A   1      -9.873   7.434   3.387  1.00  0.00    +0.000 O 
BRANCH   18   17
ATOM     17  C10 UNL A   1      -7.682   6.619   2.789  1.00  0.00    +0.000 C 
ATOM    113  H9  UNL A   1      -7.409   7.372   3.497  1.00  0.00    +0.000 H 
ATOM    112  H8  UNL A   1      -7.270   6.782   1.815  1.00  0.00    +0.000 H 
BRANCH   17   16
ATOM    111  H7  UNL A   1      -7.428   5.145   4.223  1.00  0.00    +0.000 H 
ATOM     16  N2  UNL A   1      -7.145   5.357   3.304  1.00  0.00    +0.000 N 
BRANCH   16   14
ATOM     14  C9  UNL A   1      -6.314   4.411   2.736  1.00  0.00    +0.000 C 
ATOM     15  O4  UNL A   1      -6.071   3.389   3.369  1.00  0.00    +0.000 O 
BRANCH   14   12
ATOM     12  C8  UNL A   1      -5.704   4.638   1.336  1.00  0.00    +0.000 C 
ATOM     13  O3  UNL A   1      -5.784   5.770   0.869  1.00  0.00    +0.000 O 
BRANCH   12   11
ATOM     97  C65 UNL A   1      -4.446   3.762  -0.739  1.00  0.00    +0.000 C 
ATOM     98  C66 UNL A   1      -4.311   4.882  -1.591  1.00  0.00    +0.000 C 
ATOM     99  C67 UNL A   1      -3.620   4.769  -2.797  1.00  0.00    +0.000 C 
ATOM    100  C68 UNL A   1      -3.075   3.552  -3.180  1.00  0.00    +0.000 C 
ATOM    101  C69 UNL A   1      -3.214   2.417  -2.377  1.00  0.00    +0.000 C 
ATOM    102  C70 UNL A   1      -3.897   2.542  -1.153  1.00  0.00    +0.000 C 
ATOM      9  N1  UNL A   1      -4.152   1.651  -0.132  1.00  0.00    +0.000 N 
ATOM     10  C6  UNL A   1      -4.844   2.251   0.895  1.00  0.00    +0.000 C 
ATOM     11  C7  UNL A   1      -5.045   3.579   0.560  1.00  0.00    +0.000 C 
ATOM    110  H6  UNL A   1      -5.158   1.792   1.764  1.00  0.00    +0.000 H 
ATOM    145  H41 UNL A   1      -4.726   5.787  -1.318  1.00  0.00    +0.000 H 
ATOM    146  H42 UNL A   1      -3.514   5.595  -3.407  1.00  0.00    +0.000 H 
ATOM    147  H43 UNL A   1      -2.561   3.484  -4.072  1.00  0.00    +0.000 H 
ATOM    148  H44 UNL A   1      -2.824   1.508  -2.674  1.00  0.00    +0.000 H 
BRANCH    9    6
ATOM      6  S1  UNL A   1      -3.587   0.042  -0.089  1.00  0.00    +0.000 S 
ATOM      7  O1  UNL A   1      -3.937  -0.519  -1.374  1.00  0.00    +0.000 O 
ATOM      8  O2  UNL A   1      -4.088  -0.516   1.160  1.00  0.00    +0.000 O 
BRANCH    6    5
ATOM      2  C2  UNL A   1       0.985   0.001   0.042  1.00  0.00    +0.000 C 
ATOM      3  C3  UNL A   1       0.245  -1.184  -0.037  1.00  0.00    +0.000 C 
ATOM      4  C4  UNL A   1      -1.150  -1.146  -0.052  1.00  0.00    +0.000 C 
ATOM      5  C5  UNL A   1      -1.817   0.083   0.026  1.00  0.00    +0.000 C 
ATOM    103  C71 UNL A   1      -1.088   1.267   0.147  1.00  0.00    +0.000 C 
ATOM    104  C72 UNL A   1       0.309   1.223   0.142  1.00  0.00    +0.000 C 
ATOM    108  H4  UNL A   1       0.734  -2.092  -0.085  1.00  0.00    +0.000 H 
ATOM    109  H5  UNL A   1      -1.690  -2.023  -0.120  1.00  0.00    +0.000 H 
ATOM    149  H45 UNL A   1      -1.579   2.171   0.239  1.00  0.00    +0.000 H 
ATOM    150  H46 UNL A   1       0.848   2.100   0.213  1.00  0.00    +0.000 H 
BRANCH    2    1
ATOM      1  C1  UNL A   1       2.485  -0.049   0.022  1.00  0.00    +0.000 C 
ATOM    106  H2  UNL A   1       2.869   0.375   0.926  1.00  0.00    +0.000 H 
ATOM    107  H3  UNL A   1       2.850   0.508  -0.816  1.00  0.00    +0.000 H 
ATOM    105  H1  UNL A   1       2.807  -1.067  -0.059  1.00  0.00    +0.000 H 
ENDBRANCH    2    1
ENDBRANCH    6    5
ENDBRANCH    9    6
ENDBRANCH   12   11
ENDBRANCH   14   12
ENDBRANCH   16   14
ENDBRANCH   17   16
ENDBRANCH   18   17
ENDBRANCH   20   18
ENDBRANCH   21   20
ENDBRANCH   22   21
ENDBRANCH   24   22
ENDBRANCH   25   24
ENDBRANCH   26   25
ENDBRANCH   27   26
ENDBRANCH   28   27
ENDBRANCH   29   28
ENDBRANCH   30   29
ENDBRANCH   31   30
ENDBRANCH   32   31
ENDBRANCH   34   32
ENDBRANCH   38   37
BRANCH   42   43
ATOM     43  C29 UNL A   1     -15.850  10.315  11.654  1.00  0.00    +0.000 C 
ATOM     44  C30 UNL A   1     -16.725  11.152  10.923  1.00  0.00    +0.000 C 
ATOM     45  F1  UNL A   1     -17.785  10.659  10.270  1.00  0.00    +0.000 F 
ATOM     46  C31 UNL A   1     -16.551  12.535  10.833  1.00  0.00    +0.000 C 
ATOM     47  F2  UNL A   1     -17.412  13.266  10.112  1.00  0.00    +0.000 F 
ATOM     48  C32 UNL A   1     -15.496  13.148  11.473  1.00  0.00    +0.000 C 
ATOM     49  F3  UNL A   1     -15.315  14.471  11.370  1.00  0.00    +0.000 F 
ATOM     50  C33 UNL A   1     -14.648  12.381  12.244  1.00  0.00    +0.000 C 
ATOM     51  F4  UNL A   1     -13.630  12.965  12.893  1.00  0.00    +0.000 F 
ATOM     52  C34 UNL A   1     -14.845  11.000  12.363  1.00  0.00    +0.000 C 
ATOM     53  F5  UNL A   1     -14.054  10.376  13.240  1.00  0.00    +0.000 F 
ENDBRANCH   42   43
BRANCH   59   60
ATOM     65  C43 UNL A   1     -22.710   6.501  13.996  1.00  0.00    +0.000 C 
ATOM     66  F8  UNL A   1     -23.673   6.859  14.855  1.00  0.00    +0.000 F 
ATOM     67  C44 UNL A   1     -21.974   7.461  13.339  1.00  0.00    +0.000 C 
ATOM     68  F9  UNL A   1     -22.182   8.760  13.594  1.00  0.00    +0.000 F 
ATOM     69  C45 UNL A   1     -20.996   7.084  12.421  1.00  0.00    +0.000 C 
ATOM     70  F10 UNL A   1     -20.364   8.098  11.812  1.00  0.00    +0.000 F 
ATOM     60  C40 UNL A   1     -20.662   5.728  12.169  1.00  0.00    +0.000 C 
ATOM     61  C41 UNL A   1     -21.389   4.790  12.919  1.00  0.00    +0.000 C 
ATOM     62  F6  UNL A   1     -21.085   3.486  12.901  1.00  0.00    +0.000 F 
ATOM     63  C42 UNL A   1     -22.426   5.168  13.777  1.00  0.00    +0.000 C 
ATOM     64  F7  UNL A   1     -23.131   4.223  14.416  1.00  0.00    +0.000 F 
ENDBRANCH   59   60
BRANCH   74   75
ATOM     75  C49 UNL A   1     -16.034   0.769   9.729  1.00  0.00    +0.000 C 
ATOM     76  C50 UNL A   1     -15.345  -0.049   8.808  1.00  0.00    +0.000 C 
ATOM     77  F11 UNL A   1     -15.736  -0.084   7.523  1.00  0.00    +0.000 F 
ATOM     78  C51 UNL A   1     -14.172  -0.710   9.164  1.00  0.00    +0.000 C 
ATOM     79  F12 UNL A   1     -13.456  -1.351   8.229  1.00  0.00    +0.000 F 
ATOM     80  C52 UNL A   1     -13.701  -0.626  10.463  1.00  0.00    +0.000 C 
ATOM     81  F13 UNL A   1     -12.518  -1.167  10.784  1.00  0.00    +0.000 F 
ATOM     82  C53 UNL A   1     -14.442   0.055  11.419  1.00  0.00    +0.000 C 
ATOM     83  F14 UNL A   1     -13.984   0.133  12.678  1.00  0.00    +0.000 F 
ATOM     84  C54 UNL A   1     -15.602   0.746  11.060  1.00  0.00    +0.000 C 
ATOM     85  F15 UNL A   1     -16.222   1.489  11.988  1.00  0.00    +0.000 F 
ENDBRANCH   74   75
TORSDOF 25