ROOT
ATOM    131  H34 UNL A   1     -11.532  -3.218  -0.315  1.00  0.00    +0.000 H 
ATOM    132  H35 UNL A   1     -12.180  -1.224   1.235  1.00  0.00    +0.000 H 
ATOM    133  H36 UNL A   1      -8.062  -1.249   0.799  1.00  0.00    +0.000 H 
ATOM    134  H37 UNL A   1      -2.339   1.073   2.387  1.00  0.00    +0.000 H 
ATOM    135  H38 UNL A   1      -1.726  -0.837   0.830  1.00  0.00    +0.000 H 
ATOM    136  H39 UNL A   1      -5.862  -0.801   1.221  1.00  0.00    +0.000 H 
ATOM    137  H40 UNL A   1      -6.947   3.153   4.128  1.00  0.00    +0.000 H 
ATOM    138  H41 UNL A   1      -9.396   2.429   3.966  1.00  0.00    +0.000 H 
ATOM    139  H42 UNL A   1      -6.894  -4.941  -2.389  1.00  0.00    +0.000 H 
ATOM    140  H43 UNL A   1      -4.420  -4.571  -1.842  1.00  0.00    +0.000 H 
ATOM     37  C30 UNL A   1      -3.945  -2.329  -0.139  1.00  0.00    +0.000 C 
ATOM     38  C31 UNL A   1      -5.269  -2.906  -0.557  1.00  0.00    +0.000 C 
ATOM     39  N3  UNL A   1      -6.478  -2.517  -0.236  1.00  0.00    +0.000 N 
ATOM     40  C32 UNL A   1      -7.342  -3.354  -0.930  1.00  0.00    +0.000 C 
ATOM     41  C33 UNL A   1      -8.695  -3.386  -0.893  1.00  0.00    +0.000 C 
ATOM     53  C40 UNL A   1      -9.504  -2.524  -0.070  1.00  0.00    +0.000 C 
ATOM     54  C41 UNL A   1     -10.876  -2.541   0.106  1.00  0.00    +0.000 C 
ATOM     55  C42 UNL A   1     -11.222  -1.483   0.952  1.00  0.00    +0.000 C 
ATOM     56  C43 UNL A   1     -10.060  -0.841   1.347  1.00  0.00    +0.000 C 
ATOM     57  N4  UNL A   1      -9.013  -1.488   0.711  1.00  0.00    +0.000 N 
ATOM     58  C44 UNL A   1      -9.914   0.281   2.238  1.00  0.00    +0.000 C 
ATOM     70  C51 UNL A   1      -8.733   0.844   2.591  1.00  0.00    +0.000 C 
ATOM     71  N5  UNL A   1      -7.448   0.494   2.200  1.00  0.00    +0.000 N 
ATOM     72  C52 UNL A   1      -6.647   1.348   2.789  1.00  0.00    +0.000 C 
ATOM     73  C53 UNL A   1      -5.145   1.427   2.746  1.00  0.00    +0.000 C 
ATOM     85  C60 UNL A   1      -4.461   0.499   2.050  1.00  0.00    +0.000 C 
ATOM     86  C61 UNL A   1      -3.009   0.437   1.925  1.00  0.00    +0.000 C 
ATOM     87  C62 UNL A   1      -2.685  -0.580   1.111  1.00  0.00    +0.000 C 
ATOM     88  C63 UNL A   1      -3.904  -1.266   0.686  1.00  0.00    +0.000 C 
ATOM     89  N6  UNL A   1      -4.910  -0.565   1.304  1.00  0.00    +0.000 N 
ATOM     90  C64 UNL A   1      -7.341   2.357   3.603  1.00  0.00    +0.000 C 
ATOM     91  C65 UNL A   1      -8.604   1.976   3.484  1.00  0.00    +0.000 C 
ATOM     92  C66 UNL A   1      -6.524  -4.246  -1.722  1.00  0.00    +0.000 C 
ATOM     93  C67 UNL A   1      -5.235  -4.052  -1.479  1.00  0.00    +0.000 C 
ENDROOT
BRANCH   37   36
ATOM     33  C26 UNL A   1      -0.274  -3.921  -1.696  1.00  0.00    +0.000 C 
ATOM     34  C27 UNL A   1      -0.545  -4.008  -0.328  1.00  0.00    +0.000 C 
ATOM     35  C28 UNL A   1      -1.750  -3.514   0.178  1.00  0.00    +0.000 C 
ATOM    129  H32 UNL A   1       0.145  -4.437   0.309  1.00  0.00    +0.000 H 
ATOM    130  H33 UNL A   1      -1.960  -3.608   1.184  1.00  0.00    +0.000 H 
ATOM     36  C29 UNL A   1      -2.677  -2.892  -0.673  1.00  0.00    +0.000 C 
ATOM    141  H44 UNL A   1      -3.062  -2.341  -2.678  1.00  0.00    +0.000 H 
ATOM    142  H45 UNL A   1      -1.066  -3.380  -3.578  1.00  0.00    +0.000 H 
ATOM     94  C68 UNL A   1      -2.398  -2.814  -2.045  1.00  0.00    +0.000 C 
ATOM     95  C69 UNL A   1      -1.228  -3.372  -2.559  1.00  0.00    +0.000 C 
BRANCH   33   31
ATOM     31  C25 UNL A   1       1.004  -4.476  -2.204  1.00  0.00    +0.000 C 
ATOM     32  O5  UNL A   1       1.490  -5.472  -1.675  1.00  0.00    +0.000 O 
BRANCH   31   30
ATOM     30  N2  UNL A   1       1.640  -3.893  -3.271  1.00  0.00    +0.000 N 
ATOM    128  H31 UNL A   1       2.241  -4.478  -3.787  1.00  0.00    +0.000 H 
BRANCH   30   29
ATOM     29  C24 UNL A   1       1.538  -2.519  -3.733  1.00  0.00    +0.000 C 
ATOM    126  H29 UNL A   1       1.298  -2.520  -4.776  1.00  0.00    +0.000 H 
ATOM    127  H30 UNL A   1       0.772  -2.031  -3.167  1.00  0.00    +0.000 H 
BRANCH   29   28
ATOM    124  H27 UNL A   1       2.663  -0.726  -3.725  1.00  0.00    +0.000 H 
ATOM     28  C23 UNL A   1       2.843  -1.762  -3.526  1.00  0.00    +0.000 C 
ATOM    125  H28 UNL A   1       3.145  -1.948  -2.516  1.00  0.00    +0.000 H 
BRANCH   28   27
ATOM    122  H25 UNL A   1       4.855  -1.626  -4.187  1.00  0.00    +0.000 H 
ATOM     27  C22 UNL A   1       3.998  -2.225  -4.416  1.00  0.00    +0.000 C 
ATOM    123  H26 UNL A   1       4.139  -3.265  -4.206  1.00  0.00    +0.000 H 
BRANCH   27   26
ATOM    121  H24 UNL A   1       2.972  -2.842  -6.141  1.00  0.00    +0.000 H 
ATOM     26  C21 UNL A   1       3.734  -2.123  -5.923  1.00  0.00    +0.000 C 
ATOM    120  H23 UNL A   1       4.656  -2.310  -6.434  1.00  0.00    +0.000 H 
BRANCH   26   25
ATOM     25  C20 UNL A   1       3.193  -0.771  -6.399  1.00  0.00    +0.000 C 
ATOM    118  H21 UNL A   1       3.086  -0.807  -7.463  1.00  0.00    +0.000 H 
ATOM    119  H22 UNL A   1       2.262  -0.615  -5.897  1.00  0.00    +0.000 H 
BRANCH   25   24
ATOM    116  H19 UNL A   1       3.541   1.318  -6.189  1.00  0.00    +0.000 H 
ATOM    117  H20 UNL A   1       4.397   0.310  -5.027  1.00  0.00    +0.000 H 
ATOM     24  C19 UNL A   1       4.089   0.411  -6.047  1.00  0.00    +0.000 C 
BRANCH   24   23
ATOM    115  H18 UNL A   1       5.776  -0.405  -6.939  1.00  0.00    +0.000 H 
ATOM     23  N1  UNL A   1       5.271   0.439  -6.882  1.00  0.00    +0.000 N 
BRANCH   23   21
ATOM     21  C18 UNL A   1       5.773   1.480  -7.596  1.00  0.00    +0.000 C 
ATOM     22  O4  UNL A   1       6.851   1.390  -8.170  1.00  0.00    +0.000 O 
BRANCH   21   20
ATOM    114  H17 UNL A   1       5.392   3.585  -7.170  1.00  0.00    +0.000 H 
ATOM     20  C17 UNL A   1       5.018   2.748  -7.643  1.00  0.00    +0.000 C 
BRANCH   20   19
ATOM    113  H16 UNL A   1       3.420   1.945  -8.645  1.00  0.00    +0.000 H 
ATOM     19  C16 UNL A   1       3.848   2.817  -8.296  1.00  0.00    +0.000 C 
BRANCH   19   18
ATOM      9  C8  UNL A   1       2.019   4.406  -7.727  1.00  0.00    +0.000 C 
ATOM     10  C9  UNL A   1       1.285   5.579  -7.971  1.00  0.00    +0.000 C 
ATOM     11  C10 UNL A   1       1.638   6.444  -9.001  1.00  0.00    +0.000 C 
ATOM    105  H8  UNL A   1       0.471   5.802  -7.377  1.00  0.00    +0.000 H 
ATOM    109  H12 UNL A   1       3.042   6.809 -10.513  1.00  0.00    +0.000 H 
ATOM     14  C12 UNL A   1       2.759   6.152  -9.769  1.00  0.00    +0.000 C 
ATOM     15  C13 UNL A   1       3.519   4.986  -9.562  1.00  0.00    +0.000 C 
ATOM     18  C15 UNL A   1       3.153   4.092  -8.531  1.00  0.00    +0.000 C 
BRANCH    9    8
ATOM    104  H7  UNL A   1       0.654   2.966  -6.847  1.00  0.00    +0.000 H 
ATOM      8  C7  UNL A   1       1.491   3.538  -6.652  1.00  0.00    +0.000 C 
BRANCH    8    7
ATOM    103  H6  UNL A   1       2.884   4.046  -5.264  1.00  0.00    +0.000 H 
ATOM      7  C6  UNL A   1       2.051   3.461  -5.433  1.00  0.00    +0.000 C 
BRANCH    7    6
ATOM     97  C71 UNL A   1       2.075   1.630  -2.125  1.00  0.00    +0.000 C 
ATOM      3  C2  UNL A   1       0.833   1.000  -2.105  1.00  0.00    +0.000 C 
ATOM      4  C3  UNL A   1      -0.035   1.190  -3.181  1.00  0.00    +0.000 C 
ATOM    101  H4  UNL A   1      -0.960   0.732  -3.176  1.00  0.00    +0.000 H 
ATOM      5  C4  UNL A   1       0.332   1.994  -4.270  1.00  0.00    +0.000 C 
ATOM    102  H5  UNL A   1      -0.330   2.129  -5.050  1.00  0.00    +0.000 H 
ATOM      6  C5  UNL A   1       1.586   2.616  -4.312  1.00  0.00    +0.000 C 
ATOM    143  H46 UNL A   1       3.370   2.886  -3.218  1.00  0.00    +0.000 H 
ATOM    144  H47 UNL A   1       2.725   1.509  -1.332  1.00  0.00    +0.000 H 
ATOM     96  C70 UNL A   1       2.445   2.428  -3.218  1.00  0.00    +0.000 C 
BRANCH    3    2
ATOM      2  O1  UNL A   1       0.372   0.160  -1.129  1.00  0.00    +0.000 O 
BRANCH    2    1
ATOM      1  C1  UNL A   1       1.145   0.078   0.062  1.00  0.00    +0.000 C 
ATOM     98  H1  UNL A   1       0.682  -0.607   0.741  1.00  0.00    +0.000 H 
ATOM     99  H2  UNL A   1       1.205   1.045   0.516  1.00  0.00    +0.000 H 
ATOM    100  H3  UNL A   1       2.130  -0.267  -0.175  1.00  0.00    +0.000 H 
ENDBRANCH    2    1
ENDBRANCH    3    2
ENDBRANCH    7    6
ENDBRANCH    8    7
ENDBRANCH    9    8
BRANCH   11   12
ATOM     12  O2  UNL A   1       0.820   7.527  -9.171  1.00  0.00    +0.000 O 
BRANCH   12   13
ATOM    106  H9  UNL A   1       0.282   9.064 -10.412  1.00  0.00    +0.000 H 
ATOM    107  H10 UNL A   1       0.770   7.591 -11.216  1.00  0.00    +0.000 H 
ATOM    108  H11 UNL A   1       1.970   8.616 -10.467  1.00  0.00    +0.000 H 
ATOM     13  C11 UNL A   1       0.970   8.244 -10.393  1.00  0.00    +0.000 C 
ENDBRANCH   12   13
ENDBRANCH   11   12
BRANCH   15   16
ATOM     16  O3  UNL A   1       4.510   4.913 -10.504  1.00  0.00    +0.000 O 
BRANCH   16   17
ATOM     17  C14 UNL A   1       5.510   3.913 -10.490  1.00  0.00    +0.000 C 
ATOM    110  H13 UNL A   1       6.171   4.058 -11.319  1.00  0.00    +0.000 H 
ATOM    111  H14 UNL A   1       5.052   2.949 -10.562  1.00  0.00    +0.000 H 
ATOM    112  H15 UNL A   1       6.065   3.977  -9.577  1.00  0.00    +0.000 H 
ENDBRANCH   16   17
ENDBRANCH   15   16
ENDBRANCH   19   18
ENDBRANCH   20   19
ENDBRANCH   21   20
ENDBRANCH   23   21
ENDBRANCH   24   23
ENDBRANCH   25   24
ENDBRANCH   26   25
ENDBRANCH   27   26
ENDBRANCH   28   27
ENDBRANCH   29   28
ENDBRANCH   30   29
ENDBRANCH   31   30
ENDBRANCH   33   31
ENDBRANCH   37   36
BRANCH   41   42
ATOM     42  C34 UNL A   1      -9.400  -4.385  -1.763  1.00  0.00    +0.000 C 
ATOM     43  C35 UNL A   1      -9.372  -5.759  -1.481  1.00  0.00    +0.000 C 
ATOM     44  F1  UNL A   1      -8.640  -6.223  -0.457  1.00  0.00    +0.000 F 
ATOM     45  C36 UNL A   1     -10.079  -6.666  -2.267  1.00  0.00    +0.000 C 
ATOM     46  F2  UNL A   1     -10.009  -7.978  -1.999  1.00  0.00    +0.000 F 
ATOM     47  C37 UNL A   1     -10.851  -6.216  -3.327  1.00  0.00    +0.000 C 
ATOM     48  F3  UNL A   1     -11.544  -7.089  -4.071  1.00  0.00    +0.000 F 
ATOM     49  C38 UNL A   1     -10.902  -4.861  -3.617  1.00  0.00    +0.000 C 
ATOM     50  F4  UNL A   1     -11.659  -4.423  -4.633  1.00  0.00    +0.000 F 
ATOM     51  C39 UNL A   1     -10.175  -3.955  -2.851  1.00  0.00    +0.000 C 
ATOM     52  F5  UNL A   1     -10.241  -2.651  -3.161  1.00  0.00    +0.000 F 
ENDBRANCH   41   42
BRANCH   58   59
ATOM     65  F8  UNL A   1     -14.640   2.398   4.498  1.00  0.00    +0.000 F 
ATOM     66  C49 UNL A   1     -13.070   0.641   4.333  1.00  0.00    +0.000 C 
ATOM     67  F9  UNL A   1     -13.767  -0.083   5.219  1.00  0.00    +0.000 F 
ATOM     68  C50 UNL A   1     -11.893   0.132   3.792  1.00  0.00    +0.000 C 
ATOM     69  F10 UNL A   1     -11.475  -1.081   4.186  1.00  0.00    +0.000 F 
ATOM     59  C45 UNL A   1     -11.159   0.861   2.844  1.00  0.00    +0.000 C 
ATOM     60  C46 UNL A   1     -11.645   2.120   2.462  1.00  0.00    +0.000 C 
ATOM     61  F6  UNL A   1     -10.972   2.862   1.571  1.00  0.00    +0.000 F 
ATOM     62  C47 UNL A   1     -12.805   2.640   3.030  1.00  0.00    +0.000 C 
ATOM     63  F7  UNL A   1     -13.223   3.867   2.688  1.00  0.00    +0.000 F 
ATOM     64  C48 UNL A   1     -13.520   1.898   3.958  1.00  0.00    +0.000 C 
ENDBRANCH   58   59
BRANCH   73   74
ATOM     74  C54 UNL A   1      -4.418   2.506   3.466  1.00  0.00    +0.000 C 
ATOM     75  C55 UNL A   1      -4.402   2.556   4.867  1.00  0.00    +0.000 C 
ATOM     76  F11 UNL A   1      -5.048   1.620   5.579  1.00  0.00    +0.000 F 
ATOM     77  C56 UNL A   1      -3.766   3.595   5.544  1.00  0.00    +0.000 C 
ATOM     78  F12 UNL A   1      -3.814   3.649   6.882  1.00  0.00    +0.000 F 
ATOM     79  C57 UNL A   1      -3.101   4.583   4.834  1.00  0.00    +0.000 C 
ATOM     80  F13 UNL A   1      -2.490   5.582   5.484  1.00  0.00    +0.000 F 
ATOM     81  C58 UNL A   1      -3.080   4.540   3.448  1.00  0.00    +0.000 C 
ATOM     82  F14 UNL A   1      -2.425   5.484   2.759  1.00  0.00    +0.000 F 
ATOM     83  C59 UNL A   1      -3.744   3.519   2.770  1.00  0.00    +0.000 C 
ATOM     84  F15 UNL A   1      -3.722   3.514   1.430  1.00  0.00    +0.000 F 
ENDBRANCH   73   74
TORSDOF 26