ROOT
ATOM     19  C15 UNL A   1      12.695   1.594  -1.352  1.00  0.00    +0.000 C 
ATOM     20  C16 UNL A   1      13.302   2.859  -0.819  1.00  0.00    +0.000 C 
ATOM     21  N3  UNL A   1      13.699   3.926  -1.464  1.00  0.00    +0.000 N 
ATOM     22  C17 UNL A   1      14.099   4.827  -0.486  1.00  0.00    +0.000 C 
ATOM     23  C18 UNL A   1      14.625   6.064  -0.645  1.00  0.00    +0.000 C 
ATOM     35  C25 UNL A   1      14.897   6.667  -1.922  1.00  0.00    +0.000 C 
ATOM     36  C26 UNL A   1      15.496   7.885  -2.192  1.00  0.00    +0.000 C 
ATOM     37  C27 UNL A   1      15.517   8.062  -3.580  1.00  0.00    +0.000 C 
ATOM     38  C28 UNL A   1      14.969   6.936  -4.175  1.00  0.00    +0.000 C 
ATOM     39  N4  UNL A   1      14.589   6.091  -3.146  1.00  0.00    +0.000 N 
ATOM     40  C29 UNL A   1      14.806   6.653  -5.578  1.00  0.00    +0.000 C 
ATOM     52  C36 UNL A   1      14.254   5.526  -6.089  1.00  0.00    +0.000 C 
ATOM     53  N5  UNL A   1      13.756   4.418  -5.416  1.00  0.00    +0.000 N 
ATOM     54  C37 UNL A   1      13.341   3.589  -6.343  1.00  0.00    +0.000 C 
ATOM     55  C38 UNL A   1      12.731   2.224  -6.184  1.00  0.00    +0.000 C 
ATOM     67  C45 UNL A   1      12.633   1.681  -4.956  1.00  0.00    +0.000 C 
ATOM     68  C46 UNL A   1      12.047   0.379  -4.650  1.00  0.00    +0.000 C 
ATOM     69  C47 UNL A   1      12.012   0.217  -3.317  1.00  0.00    +0.000 C 
ATOM     70  C48 UNL A   1      12.612   1.388  -2.679  1.00  0.00    +0.000 C 
ATOM     71  N6  UNL A   1      13.004   2.180  -3.731  1.00  0.00    +0.000 N 
ATOM     72  C49 UNL A   1      13.499   4.094  -7.714  1.00  0.00    +0.000 C 
ATOM     73  C50 UNL A   1      14.084   5.266  -7.504  1.00  0.00    +0.000 C 
ATOM     74  C51 UNL A   1      13.863   4.195   0.795  1.00  0.00    +0.000 C 
ATOM     75  C52 UNL A   1      13.442   2.949   0.642  1.00  0.00    +0.000 C 
ATOM    112  H21 UNL A   1      15.864   8.547  -1.492  1.00  0.00    +0.000 H 
ATOM    113  H22 UNL A   1      15.878   8.891  -4.077  1.00  0.00    +0.000 H 
ATOM    114  H23 UNL A   1      14.162   5.211  -3.265  1.00  0.00    +0.000 H 
ATOM    115  H24 UNL A   1      11.714  -0.307  -5.345  1.00  0.00    +0.000 H 
ATOM    116  H25 UNL A   1      11.625  -0.602  -2.823  1.00  0.00    +0.000 H 
ATOM    117  H26 UNL A   1      13.500   3.023  -3.618  1.00  0.00    +0.000 H 
ATOM    118  H27 UNL A   1      13.227   3.652  -8.606  1.00  0.00    +0.000 H 
ATOM    119  H28 UNL A   1      14.381   5.910  -8.253  1.00  0.00    +0.000 H 
ATOM    120  H29 UNL A   1      14.005   4.656   1.708  1.00  0.00    +0.000 H 
ATOM    121  H30 UNL A   1      13.259   2.230   1.360  1.00  0.00    +0.000 H 
ENDROOT
BRANCH   19   18
ATOM     76  C53 UNL A   1      10.959   1.045   0.336  1.00  0.00    +0.000 C 
ATOM     77  C54 UNL A   1      10.363   0.182   1.248  1.00  0.00    +0.000 C 
ATOM    110  H19 UNL A   1      12.315  -2.509   0.767  1.00  0.00    +0.000 H 
ATOM     15  C11 UNL A   1      10.822  -1.133   1.356  1.00  0.00    +0.000 C 
ATOM     16  C12 UNL A   1      11.952  -1.550   0.647  1.00  0.00    +0.000 C 
ATOM     17  C13 UNL A   1      12.588  -0.662  -0.224  1.00  0.00    +0.000 C 
ATOM    111  H20 UNL A   1      13.435  -0.959  -0.733  1.00  0.00    +0.000 H 
ATOM     18  C14 UNL A   1      12.076   0.631  -0.408  1.00  0.00    +0.000 C 
ATOM    122  H31 UNL A   1      10.579   1.996   0.205  1.00  0.00    +0.000 H 
ATOM    123  H32 UNL A   1       9.585   0.511   1.842  1.00  0.00    +0.000 H 
BRANCH   15   13
ATOM     13  C10 UNL A   1      10.102  -2.105   2.204  1.00  0.00    +0.000 C 
ATOM     14  O2  UNL A   1      10.725  -2.812   2.990  1.00  0.00    +0.000 O 
BRANCH   13   12
ATOM     12  N2  UNL A   1       8.739  -2.218   2.085  1.00  0.00    +0.000 N 
ATOM    109  H18 UNL A   1       8.292  -2.766   2.771  1.00  0.00    +0.000 H 
BRANCH   12   11
ATOM     11  C9  UNL A   1       7.868  -1.634   1.076  1.00  0.00    +0.000 C 
ATOM    108  H17 UNL A   1       8.489  -1.221   0.309  1.00  0.00    +0.000 H 
ATOM    107  H16 UNL A   1       7.264  -0.881   1.538  1.00  0.00    +0.000 H 
BRANCH   11   10
ATOM    105  H14 UNL A   1       6.464  -2.206  -0.403  1.00  0.00    +0.000 H 
ATOM     10  C8  UNL A   1       6.954  -2.668   0.429  1.00  0.00    +0.000 C 
ATOM    106  H15 UNL A   1       7.579  -3.489   0.146  1.00  0.00    +0.000 H 
BRANCH   10    9
ATOM      9  C7  UNL A   1       5.881  -3.239   1.357  1.00  0.00    +0.000 C 
ATOM    103  H12 UNL A   1       5.299  -3.942   0.798  1.00  0.00    +0.000 H 
ATOM    104  H13 UNL A   1       6.403  -3.679   2.181  1.00  0.00    +0.000 H 
BRANCH    9    8
ATOM    101  H10 UNL A   1       4.175  -2.730   2.510  1.00  0.00    +0.000 H 
ATOM    102  H11 UNL A   1       5.532  -1.562   2.564  1.00  0.00    +0.000 H 
ATOM      8  C6  UNL A   1       4.927  -2.204   1.960  1.00  0.00    +0.000 C 
BRANCH    8    7
ATOM     99  H8  UNL A   1       3.590  -0.616   1.488  1.00  0.00    +0.000 H 
ATOM    100  H9  UNL A   1       4.992  -0.791   0.397  1.00  0.00    +0.000 H 
ATOM      7  C5  UNL A   1       4.221  -1.290   0.947  1.00  0.00    +0.000 C 
BRANCH    7    6
ATOM     97  H6  UNL A   1       2.983  -1.328  -0.796  1.00  0.00    +0.000 H 
ATOM     98  H7  UNL A   1       3.962  -2.768  -0.571  1.00  0.00    +0.000 H 
ATOM      6  C4  UNL A   1       3.359  -2.031  -0.082  1.00  0.00    +0.000 C 
BRANCH    6    5
ATOM      5  N1  UNL A   1       2.246  -2.693   0.567  1.00  0.00    +0.000 N 
ATOM     96  H5  UNL A   1       2.419  -3.609   0.882  1.00  0.00    +0.000 H 
BRANCH    5    3
ATOM      3  C3  UNL A   1       0.987  -2.214   0.798  1.00  0.00    +0.000 C 
ATOM      4  O1  UNL A   1       0.374  -2.706   1.749  1.00  0.00    +0.000 O 
BRANCH    3    2
ATOM      2  C2  UNL A   1       0.373  -1.162  -0.152  1.00  0.00    +0.000 C 
ATOM     95  H4  UNL A   1       0.696  -1.355  -1.154  1.00  0.00    +0.000 H 
BRANCH    2    1
ATOM      1  C1  UNL A   1       0.880   0.235   0.223  1.00  0.00    +0.000 C 
ATOM     92  H1  UNL A   1       1.950   0.234   0.235  1.00  0.00    +0.000 H 
ATOM     93  H2  UNL A   1       0.513   0.499   1.193  1.00  0.00    +0.000 H 
ATOM     94  H3  UNL A   1       0.532   0.946  -0.496  1.00  0.00    +0.000 H 
ENDBRANCH    2    1
BRANCH    2   78
ATOM    132  H41 UNL A   1      -1.156  -3.361  -0.523  1.00  0.00    +0.000 H 
ATOM     78  C55 UNL A   1      -1.160  -1.270  -0.199  1.00  0.00    +0.000 C 
ATOM     79  C56 UNL A   1      -2.010  -0.158  -0.093  1.00  0.00    +0.000 C 
ATOM     80  C57 UNL A   1      -3.398  -0.313  -0.070  1.00  0.00    +0.000 C 
ATOM     81  C58 UNL A   1      -3.962  -1.585  -0.134  1.00  0.00    +0.000 C 
ATOM     82  C59 UNL A   1      -3.144  -2.711  -0.258  1.00  0.00    +0.000 C 
ATOM     91  C67 UNL A   1      -1.755  -2.540  -0.346  1.00  0.00    +0.000 C 
ATOM    124  H33 UNL A   1      -1.603   0.788  -0.031  1.00  0.00    +0.000 H 
ATOM    125  H34 UNL A   1      -4.007   0.517  -0.004  1.00  0.00    +0.000 H 
ATOM    126  H35 UNL A   1      -4.987  -1.696  -0.090  1.00  0.00    +0.000 H 
BRANCH   82   83
ATOM     83  C60 UNL A   1      -3.794  -4.051  -0.314  1.00  0.00    +0.000 C 
ATOM     84  O3  UNL A   1      -4.997  -4.132  -0.559  1.00  0.00    +0.000 O 
BRANCH   83   85
ATOM    129  H38 UNL A   1      -1.114  -8.598   0.230  1.00  0.00    +0.000 H 
ATOM    130  H39 UNL A   1      -0.702  -6.784   1.786  1.00  0.00    +0.000 H 
ATOM    131  H40 UNL A   1      -1.936  -4.700   1.583  1.00  0.00    +0.000 H 
ATOM     85  C61 UNL A   1      -3.035  -5.310  -0.119  1.00  0.00    +0.000 C 
ATOM     86  C62 UNL A   1      -3.296  -6.373  -0.992  1.00  0.00    +0.000 C 
ATOM     87  C63 UNL A   1      -2.595  -7.571  -0.864  1.00  0.00    +0.000 C 
ATOM     88  C64 UNL A   1      -1.642  -7.716   0.144  1.00  0.00    +0.000 C 
ATOM     89  C65 UNL A   1      -1.401  -6.670   1.036  1.00  0.00    +0.000 C 
ATOM     90  C66 UNL A   1      -2.103  -5.468   0.914  1.00  0.00    +0.000 C 
ATOM    127  H36 UNL A   1      -4.009  -6.269  -1.731  1.00  0.00    +0.000 H 
ATOM    128  H37 UNL A   1      -2.780  -8.350  -1.515  1.00  0.00    +0.000 H 
ENDBRANCH   83   85
ENDBRANCH   82   83
ENDBRANCH    2   78
ENDBRANCH    3    2
ENDBRANCH    5    3
ENDBRANCH    6    5
ENDBRANCH    7    6
ENDBRANCH    8    7
ENDBRANCH    9    8
ENDBRANCH   10    9
ENDBRANCH   11   10
ENDBRANCH   12   11
ENDBRANCH   13   12
ENDBRANCH   15   13
ENDBRANCH   19   18
BRANCH   23   24
ATOM     33  C24 UNL A   1      14.160   7.977   0.927  1.00  0.00    +0.000 C 
ATOM     34  F5  UNL A   1      13.154   8.367   0.131  1.00  0.00    +0.000 F 
ATOM     24  C19 UNL A   1      14.927   6.848   0.598  1.00  0.00    +0.000 C 
ATOM     25  C20 UNL A   1      15.971   6.489   1.464  1.00  0.00    +0.000 C 
ATOM     26  F1  UNL A   1      16.724   5.411   1.202  1.00  0.00    +0.000 F 
ATOM     27  C21 UNL A   1      16.210   7.206   2.634  1.00  0.00    +0.000 C 
ATOM     28  F2  UNL A   1      17.172   6.806   3.477  1.00  0.00    +0.000 F 
ATOM     29  C22 UNL A   1      15.438   8.317   2.939  1.00  0.00    +0.000 C 
ATOM     30  F3  UNL A   1      15.667   9.004   4.067  1.00  0.00    +0.000 F 
ATOM     31  C23 UNL A   1      14.422   8.710   2.082  1.00  0.00    +0.000 C 
ATOM     32  F4  UNL A   1      13.683   9.790   2.370  1.00  0.00    +0.000 F 
ENDBRANCH   23   24
BRANCH   40   41
ATOM     41  C30 UNL A   1      15.310   7.679  -6.548  1.00  0.00    +0.000 C 
ATOM     42  C31 UNL A   1      14.436   8.533  -7.234  1.00  0.00    +0.000 C 
ATOM     43  F6  UNL A   1      13.109   8.386  -7.104  1.00  0.00    +0.000 F 
ATOM     44  C32 UNL A   1      14.926   9.532  -8.071  1.00  0.00    +0.000 C 
ATOM     45  F7  UNL A   1      14.074  10.324  -8.736  1.00  0.00    +0.000 F 
ATOM     46  C33 UNL A   1      16.294   9.709  -8.218  1.00  0.00    +0.000 C 
ATOM     47  F8  UNL A   1      16.764  10.682  -9.011  1.00  0.00    +0.000 F 
ATOM     48  C34 UNL A   1      17.176   8.876  -7.546  1.00  0.00    +0.000 C 
ATOM     49  F9  UNL A   1      18.498   9.052  -7.679  1.00  0.00    +0.000 F 
ATOM     50  C35 UNL A   1      16.690   7.862  -6.727  1.00  0.00    +0.000 C 
ATOM     51  F10 UNL A   1      17.565   7.072  -6.087  1.00  0.00    +0.000 F 
ENDBRANCH   40   41
BRANCH   55   56
ATOM     65  C44 UNL A   1      10.891   1.260  -7.606  1.00  0.00    +0.000 C 
ATOM     66  F15 UNL A   1       9.978   1.807  -6.790  1.00  0.00    +0.000 F 
ATOM     56  C39 UNL A   1      12.258   1.452  -7.361  1.00  0.00    +0.000 C 
ATOM     57  C40 UNL A   1      13.171   0.851  -8.237  1.00  0.00    +0.000 C 
ATOM     58  F11 UNL A   1      14.488   1.023  -8.050  1.00  0.00    +0.000 F 
ATOM     59  C41 UNL A   1      12.735   0.091  -9.319  1.00  0.00    +0.000 C 
ATOM     60  F12 UNL A   1      13.629  -0.454 -10.156  1.00  0.00    +0.000 F 
ATOM     61  C42 UNL A   1      11.378  -0.101  -9.534  1.00  0.00    +0.000 C 
ATOM     62  F13 UNL A   1      10.960  -0.846 -10.566  1.00  0.00    +0.000 F 
ATOM     63  C43 UNL A   1      10.456   0.481  -8.676  1.00  0.00    +0.000 C 
ATOM     64  F14 UNL A   1       9.145   0.285  -8.871  1.00  0.00    +0.000 F 
ENDBRANCH   55   56
TORSDOF 19