ROOT
ATOM     30  C24 UNL A   1       3.707  11.521   3.480  1.00  0.00    +0.000 C 
ATOM     31  C25 UNL A   1       2.356  11.999   2.939  1.00  0.00    +0.000 C 
ATOM     32  N4  UNL A   1       1.649  13.044   3.252  1.00  0.00    +0.000 N 
ATOM     33  C26 UNL A   1       0.437  12.958   2.537  1.00  0.00    +0.000 C 
ATOM     34  C27 UNL A   1      -0.673  13.696   2.828  1.00  0.00    +0.000 C 
ATOM     46  C34 UNL A   1      -0.426  14.605   3.894  1.00  0.00    +0.000 C 
ATOM     47  C35 UNL A   1       0.203  15.818   3.979  1.00  0.00    +0.000 C 
ATOM     48  C36 UNL A   1       0.631  15.911   5.323  1.00  0.00    +0.000 C 
ATOM     49  C37 UNL A   1       0.216  14.768   6.011  1.00  0.00    +0.000 C 
ATOM     50  N5  UNL A   1      -0.681  14.159   5.166  1.00  0.00    +0.000 N 
ATOM     51  C38 UNL A   1       0.630  14.034   7.188  1.00  0.00    +0.000 C 
ATOM     63  C45 UNL A   1       1.721  14.484   7.856  1.00  0.00    +0.000 C 
ATOM     64  N6  UNL A   1       2.670  13.588   8.299  1.00  0.00    +0.000 N 
ATOM     65  C46 UNL A   1       3.787  14.156   7.949  1.00  0.00    +0.000 C 
ATOM     66  C47 UNL A   1       5.091  13.470   7.857  1.00  0.00    +0.000 C 
ATOM     78  C54 UNL A   1       5.026  12.682   6.738  1.00  0.00    +0.000 C 
ATOM     79  C55 UNL A   1       6.029  11.768   6.229  1.00  0.00    +0.000 C 
ATOM     80  C56 UNL A   1       5.630  11.255   5.051  1.00  0.00    +0.000 C 
ATOM     81  C57 UNL A   1       4.320  11.801   4.664  1.00  0.00    +0.000 C 
ATOM     82  N7  UNL A   1       4.003  12.583   5.760  1.00  0.00    +0.000 N 
ATOM     83  C58 UNL A   1       3.697  15.566   7.549  1.00  0.00    +0.000 C 
ATOM     84  C59 UNL A   1       2.389  15.752   7.700  1.00  0.00    +0.000 C 
ATOM     85  C60 UNL A   1       0.586  11.878   1.607  1.00  0.00    +0.000 C 
ATOM     86  C61 UNL A   1       1.722  11.221   1.842  1.00  0.00    +0.000 C 
ATOM    114  H26 UNL A   1       0.336  16.512   3.227  1.00  0.00    +0.000 H 
ATOM    115  H27 UNL A   1       1.163  16.696   5.731  1.00  0.00    +0.000 H 
ATOM    116  H28 UNL A   1      -1.381  13.518   5.427  1.00  0.00    +0.000 H 
ATOM    117  H29 UNL A   1       6.919  11.543   6.701  1.00  0.00    +0.000 H 
ATOM    118  H30 UNL A   1       6.168  10.572   4.495  1.00  0.00    +0.000 H 
ATOM    119  H31 UNL A   1       3.134  13.037   5.854  1.00  0.00    +0.000 H 
ATOM    120  H32 UNL A   1       4.433  16.221   7.242  1.00  0.00    +0.000 H 
ATOM    121  H33 UNL A   1       1.920  16.672   7.704  1.00  0.00    +0.000 H 
ATOM    122  H34 UNL A   1      -0.089  11.643   0.863  1.00  0.00    +0.000 H 
ATOM    123  H35 UNL A   1       2.077  10.373   1.373  1.00  0.00    +0.000 H 
ENDROOT
BRANCH   30   29
ATOM    124  H36 UNL A   1       3.891   8.812   3.455  1.00  0.00    +0.000 H 
ATOM     29  C23 UNL A   1       4.436  10.640   2.534  1.00  0.00    +0.000 C 
ATOM    112  H24 UNL A   1       6.154  10.853  -0.332  1.00  0.00    +0.000 H 
ATOM    113  H25 UNL A   1       5.208  12.254   1.406  1.00  0.00    +0.000 H 
ATOM     87  C62 UNL A   1       4.361   9.243   2.644  1.00  0.00    +0.000 C 
ATOM     88  C63 UNL A   1       4.923   8.440   1.652  1.00  0.00    +0.000 C 
ATOM     26  C20 UNL A   1       5.530   9.030   0.539  1.00  0.00    +0.000 C 
ATOM     27  C21 UNL A   1       5.657  10.423   0.464  1.00  0.00    +0.000 C 
ATOM     28  C22 UNL A   1       5.113  11.228   1.459  1.00  0.00    +0.000 C 
ATOM    125  H37 UNL A   1       4.891   7.412   1.739  1.00  0.00    +0.000 H 
BRANCH   26   24
ATOM     25  O2  UNL A   1       7.178   8.596  -1.062  1.00  0.00    +0.000 O 
ATOM     24  C19 UNL A   1       6.128   8.232  -0.555  1.00  0.00    +0.000 C 
BRANCH   24   23
ATOM    111  H23 UNL A   1       6.096   6.427  -1.444  1.00  0.00    +0.000 H 
ATOM     23  N3  UNL A   1       5.508   7.101  -1.033  1.00  0.00    +0.000 N 
BRANCH   23   22
ATOM    110  H22 UNL A   1       3.554   7.566  -1.493  1.00  0.00    +0.000 H 
ATOM    109  H21 UNL A   1       3.774   6.681   0.012  1.00  0.00    +0.000 H 
ATOM     22  C18 UNL A   1       4.090   6.779  -1.006  1.00  0.00    +0.000 C 
BRANCH   22   21
ATOM    107  H19 UNL A   1       2.751   5.302  -1.737  1.00  0.00    +0.000 H 
ATOM    108  H20 UNL A   1       4.204   5.583  -2.732  1.00  0.00    +0.000 H 
ATOM     21  C17 UNL A   1       3.808   5.470  -1.744  1.00  0.00    +0.000 C 
BRANCH   21   20
ATOM    105  H17 UNL A   1       4.267   3.395  -1.749  1.00  0.00    +0.000 H 
ATOM    106  H18 UNL A   1       5.538   4.472  -1.095  1.00  0.00    +0.000 H 
ATOM     20  C16 UNL A   1       4.494   4.240  -1.134  1.00  0.00    +0.000 C 
BRANCH   20   19
ATOM     19  C15 UNL A   1       4.078   3.908   0.302  1.00  0.00    +0.000 C 
ATOM    103  H15 UNL A   1       4.617   3.037   0.609  1.00  0.00    +0.000 H 
ATOM    104  H16 UNL A   1       4.302   4.778   0.883  1.00  0.00    +0.000 H 
BRANCH   19   18
ATOM     18  C14 UNL A   1       2.581   3.636   0.505  1.00  0.00    +0.000 C 
ATOM    101  H13 UNL A   1       2.420   3.425   1.541  1.00  0.00    +0.000 H 
ATOM    102  H14 UNL A   1       2.069   4.512   0.165  1.00  0.00    +0.000 H 
BRANCH   18   17
ATOM     17  C13 UNL A   1       2.020   2.470  -0.309  1.00  0.00    +0.000 C 
ATOM     99  H11 UNL A   1       0.972   2.381  -0.113  1.00  0.00    +0.000 H 
ATOM    100  H12 UNL A   1       2.196   2.667  -1.346  1.00  0.00    +0.000 H 
BRANCH   17   16
ATOM     98  H10 UNL A   1       3.604   1.249   0.351  1.00  0.00    +0.000 H 
ATOM     16  N2  UNL A   1       2.672   1.226   0.035  1.00  0.00    +0.000 N 
BRANCH   16    2
ATOM      1  O1  UNL A   1       0.843  -0.114  -0.342  1.00  0.00    +0.000 O 
ATOM      2  C1  UNL A   1       2.032   0.006  -0.064  1.00  0.00    +0.000 C 
BRANCH    2    3
ATOM     89  H1  UNL A   1       2.310  -2.009   0.526  1.00  0.00    +0.000 H 
ATOM     90  H2  UNL A   1       3.565  -0.878   1.070  1.00  0.00    +0.000 H 
ATOM      3  C2  UNL A   1       2.928  -1.176   0.264  1.00  0.00    +0.000 C 
BRANCH    3    4
ATOM     97  H9  UNL A   1       3.082  -3.538  -1.378  1.00  0.00    +0.000 H 
ATOM      4  C3  UNL A   1       3.813  -1.581  -0.874  1.00  0.00    +0.000 C 
ATOM      5  C4  UNL A   1       4.886  -0.851  -1.450  1.00  0.00    +0.000 C 
ATOM      6  C5  UNL A   1       5.471  -1.648  -2.406  1.00  0.00    +0.000 C 
ATOM      7  N1  UNL A   1       4.800  -2.853  -2.466  1.00  0.00    +0.000 N 
ATOM     15  C12 UNL A   1       3.775  -2.792  -1.544  1.00  0.00    +0.000 C 
ATOM     91  H3  UNL A   1       5.175   0.107  -1.196  1.00  0.00    +0.000 H 
ATOM     92  H4  UNL A   1       6.284  -1.387  -2.987  1.00  0.00    +0.000 H 
BRANCH    7    8
ATOM      8  C6  UNL A   1       5.139  -3.956  -3.293  1.00  0.00    +0.000 C 
ATOM      9  C7  UNL A   1       6.461  -4.116  -3.737  1.00  0.00    +0.000 C 
ATOM     10  C8  UNL A   1       6.809  -5.213  -4.531  1.00  0.00    +0.000 C 
ATOM     11  C9  UNL A   1       5.840  -6.141  -4.907  1.00  0.00    +0.000 C 
ATOM     12  C10 UNL A   1       4.524  -5.981  -4.479  1.00  0.00    +0.000 C 
ATOM     13  C11 UNL A   1       4.180  -4.902  -3.667  1.00  0.00    +0.000 C 
ATOM     14  F1  UNL A   1       2.891  -4.776  -3.320  1.00  0.00    +0.000 F 
ATOM     93  H5  UNL A   1       7.179  -3.421  -3.477  1.00  0.00    +0.000 H 
ATOM     94  H6  UNL A   1       7.786  -5.335  -4.840  1.00  0.00    +0.000 H 
ATOM     95  H7  UNL A   1       6.097  -6.945  -5.502  1.00  0.00    +0.000 H 
ATOM     96  H8  UNL A   1       3.803  -6.663  -4.763  1.00  0.00    +0.000 H 
ENDBRANCH    7    8
ENDBRANCH    3    4
ENDBRANCH    2    3
ENDBRANCH   16    2
ENDBRANCH   17   16
ENDBRANCH   18   17
ENDBRANCH   19   18
ENDBRANCH   20   19
ENDBRANCH   21   20
ENDBRANCH   22   21
ENDBRANCH   23   22
ENDBRANCH   24   23
ENDBRANCH   26   24
ENDBRANCH   30   29
BRANCH   34   35
ATOM     35  C28 UNL A   1      -2.097  13.549   2.364  1.00  0.00    +0.000 C 
ATOM     36  C29 UNL A   1      -2.725  12.308   2.185  1.00  0.00    +0.000 C 
ATOM     37  F2  UNL A   1      -2.018  11.171   2.169  1.00  0.00    +0.000 F 
ATOM     38  C30 UNL A   1      -4.119  12.199   2.117  1.00  0.00    +0.000 C 
ATOM     39  F3  UNL A   1      -4.683  10.991   1.983  1.00  0.00    +0.000 F 
ATOM     40  C31 UNL A   1      -4.924  13.318   2.257  1.00  0.00    +0.000 C 
ATOM     41  F4  UNL A   1      -6.257  13.192   2.293  1.00  0.00    +0.000 F 
ATOM     42  C32 UNL A   1      -4.339  14.560   2.395  1.00  0.00    +0.000 C 
ATOM     43  F5  UNL A   1      -5.105  15.647   2.566  1.00  0.00    +0.000 F 
ATOM     44  C33 UNL A   1      -2.950  14.678   2.417  1.00  0.00    +0.000 C 
ATOM     45  F6  UNL A   1      -2.443  15.913   2.558  1.00  0.00    +0.000 F 
ENDBRANCH   34   35
BRANCH   51   52
ATOM     52  C39 UNL A   1       0.305  12.587   7.487  1.00  0.00    +0.000 C 
ATOM     53  C40 UNL A   1       0.569  11.539   6.590  1.00  0.00    +0.000 C 
ATOM     54  F7  UNL A   1       1.014  11.798   5.363  1.00  0.00    +0.000 F 
ATOM     55  C41 UNL A   1       0.381  10.200   6.925  1.00  0.00    +0.000 C 
ATOM     56  F8  UNL A   1       0.630   9.241   6.020  1.00  0.00    +0.000 F 
ATOM     57  C42 UNL A   1      -0.064   9.865   8.188  1.00  0.00    +0.000 C 
ATOM     58  F9  UNL A   1      -0.245   8.579   8.517  1.00  0.00    +0.000 F 
ATOM     59  C43 UNL A   1      -0.332  10.871   9.103  1.00  0.00    +0.000 C 
ATOM     60  F10 UNL A   1      -0.768  10.550  10.329  1.00  0.00    +0.000 F 
ATOM     61  C44 UNL A   1      -0.155  12.214   8.757  1.00  0.00    +0.000 C 
ATOM     62  F11 UNL A   1      -0.431  13.156   9.672  1.00  0.00    +0.000 F 
ENDBRANCH   51   52
BRANCH   66   67
ATOM     67  C48 UNL A   1       6.148  13.843   8.882  1.00  0.00    +0.000 C 
ATOM     68  C49 UNL A   1       5.940  14.946   9.759  1.00  0.00    +0.000 C 
ATOM     69  F12 UNL A   1       4.748  15.547   9.864  1.00  0.00    +0.000 F 
ATOM     70  C50 UNL A   1       6.938  15.488  10.574  1.00  0.00    +0.000 C 
ATOM     71  F13 UNL A   1       6.681  16.585  11.301  1.00  0.00    +0.000 F 
ATOM     72  C51 UNL A   1       8.182  14.908  10.615  1.00  0.00    +0.000 C 
ATOM     73  F14 UNL A   1       9.152  15.435  11.372  1.00  0.00    +0.000 F 
ATOM     74  C52 UNL A   1       8.400  13.761   9.878  1.00  0.00    +0.000 C 
ATOM     75  F15 UNL A   1       9.588  13.145   9.958  1.00  0.00    +0.000 F 
ATOM     76  C53 UNL A   1       7.401  13.233   9.040  1.00  0.00    +0.000 C 
ATOM     77  F16 UNL A   1       7.702  12.086   8.429  1.00  0.00    +0.000 F 
ENDBRANCH   66   67
TORSDOF 17