ROOT
ATOM    129  H39 UNL A   1      -5.939  10.508  -5.053  1.00  0.00    +0.000 H 
ATOM     28  C23 UNL A   1      -8.421   9.155  -5.636  1.00  0.00    +0.000 C 
ATOM     29  C24 UNL A   1      -8.107  10.603  -5.713  1.00  0.00    +0.000 C 
ATOM     30  N3  UNL A   1      -8.939  11.558  -5.962  1.00  0.00    +0.000 N 
ATOM     31  C25 UNL A   1      -8.197  12.734  -5.947  1.00  0.00    +0.000 C 
ATOM     32  C26 UNL A   1      -8.650  13.842  -6.597  1.00  0.00    +0.000 C 
ATOM     44  C33 UNL A   1     -10.055  13.716  -6.907  1.00  0.00    +0.000 C 
ATOM     45  C34 UNL A   1     -11.201  13.559  -6.152  1.00  0.00    +0.000 C 
ATOM     46  C35 UNL A   1     -12.005  12.640  -6.890  1.00  0.00    +0.000 C 
ATOM     47  C36 UNL A   1     -11.337  12.350  -8.080  1.00  0.00    +0.000 C 
ATOM     48  N4  UNL A   1     -10.403  13.348  -8.185  1.00  0.00    +0.000 N 
ATOM     49  C37 UNL A   1     -11.443  11.256  -9.017  1.00  0.00    +0.000 C 
ATOM     61  C44 UNL A   1     -10.436  10.853  -9.847  1.00  0.00    +0.000 C 
ATOM     62  N5  UNL A   1     -10.415   9.574 -10.385  1.00  0.00    +0.000 N 
ATOM     63  C45 UNL A   1      -9.150   9.322 -10.596  1.00  0.00    +0.000 C 
ATOM     64  C46 UNL A   1      -8.534   7.994 -10.326  1.00  0.00    +0.000 C 
ATOM     76  C53 UNL A   1      -8.572   7.820  -8.982  1.00  0.00    +0.000 C 
ATOM     77  C54 UNL A   1      -8.531   6.611  -8.193  1.00  0.00    +0.000 C 
ATOM     78  C55 UNL A   1      -8.648   6.952  -6.893  1.00  0.00    +0.000 C 
ATOM     79  C56 UNL A   1      -8.575   8.410  -6.752  1.00  0.00    +0.000 C 
ATOM     80  N6  UNL A   1      -8.629   8.867  -8.046  1.00  0.00    +0.000 N 
ATOM     81  C57 UNL A   1      -8.274  10.482 -10.620  1.00  0.00    +0.000 C 
ATOM     82  C58 UNL A   1      -9.091  11.381 -10.066  1.00  0.00    +0.000 C 
ATOM     83  C59 UNL A   1      -6.915  12.388  -5.389  1.00  0.00    +0.000 C 
ATOM     84  C60 UNL A   1      -6.769  11.062  -5.316  1.00  0.00    +0.000 C 
ATOM    120  H30 UNL A   1     -11.427  14.008  -5.250  1.00  0.00    +0.000 H 
ATOM    121  H31 UNL A   1     -12.918  12.259  -6.596  1.00  0.00    +0.000 H 
ATOM    122  H32 UNL A   1     -10.049  13.731  -9.020  1.00  0.00    +0.000 H 
ATOM    123  H33 UNL A   1      -8.431   5.651  -8.559  1.00  0.00    +0.000 H 
ATOM    124  H34 UNL A   1      -8.772   6.287  -6.114  1.00  0.00    +0.000 H 
ATOM    125  H35 UNL A   1      -8.700   9.819  -8.289  1.00  0.00    +0.000 H 
ATOM    126  H36 UNL A   1      -7.306  10.581 -10.964  1.00  0.00    +0.000 H 
ATOM    127  H37 UNL A   1      -8.805  12.342  -9.820  1.00  0.00    +0.000 H 
ATOM    128  H38 UNL A   1      -6.204  13.072  -5.087  1.00  0.00    +0.000 H 
ENDROOT
BRANCH   28   27
ATOM    130  H40 UNL A   1      -7.034   7.095  -4.790  1.00  0.00    +0.000 H 
ATOM    131  H41 UNL A   1      -7.373   5.901  -2.713  1.00  0.00    +0.000 H 
ATOM     27  C22 UNL A   1      -8.418   8.600  -4.291  1.00  0.00    +0.000 C 
ATOM     85  C61 UNL A   1      -7.653   7.471  -4.055  1.00  0.00    +0.000 C 
ATOM     86  C62 UNL A   1      -7.731   6.861  -2.832  1.00  0.00    +0.000 C 
ATOM    118  H28 UNL A   1      -9.495   9.172  -1.163  1.00  0.00    +0.000 H 
ATOM     24  C19 UNL A   1      -8.291   7.531  -1.752  1.00  0.00    +0.000 C 
ATOM     25  C20 UNL A   1      -9.031   8.699  -1.955  1.00  0.00    +0.000 C 
ATOM     26  C21 UNL A   1      -9.132   9.213  -3.247  1.00  0.00    +0.000 C 
ATOM    119  H29 UNL A   1      -9.725  10.036  -3.434  1.00  0.00    +0.000 H 
BRANCH   24   22
ATOM     22  C18 UNL A   1      -8.075   6.987  -0.391  1.00  0.00    +0.000 C 
ATOM     23  O3  UNL A   1      -8.919   7.116   0.458  1.00  0.00    +0.000 O 
BRANCH   22   21
ATOM    117  H27 UNL A   1      -6.890   5.710   0.645  1.00  0.00    +0.000 H 
ATOM     21  N2  UNL A   1      -6.874   6.335  -0.116  1.00  0.00    +0.000 N 
BRANCH   21   20
ATOM    116  H26 UNL A   1      -5.277   7.473  -0.698  1.00  0.00    +0.000 H 
ATOM    115  H25 UNL A   1      -5.737   6.181  -1.834  1.00  0.00    +0.000 H 
ATOM     20  C17 UNL A   1      -5.592   6.457  -0.811  1.00  0.00    +0.000 C 
BRANCH   20   19
ATOM    113  H23 UNL A   1      -3.651   5.631  -0.902  1.00  0.00    +0.000 H 
ATOM    114  H24 UNL A   1      -4.290   5.983   0.743  1.00  0.00    +0.000 H 
ATOM     19  C16 UNL A   1      -4.484   5.586  -0.232  1.00  0.00    +0.000 C 
BRANCH   19   18
ATOM     18  C15 UNL A   1      -4.827   4.101  -0.009  1.00  0.00    +0.000 C 
ATOM    111  H21 UNL A   1      -3.923   3.613   0.288  1.00  0.00    +0.000 H 
ATOM    112  H22 UNL A   1      -5.620   4.131   0.710  1.00  0.00    +0.000 H 
BRANCH   18   17
ATOM     17  C14 UNL A   1      -5.422   3.277  -1.170  1.00  0.00    +0.000 C 
ATOM    109  H19 UNL A   1      -5.845   2.392  -0.744  1.00  0.00    +0.000 H 
ATOM    110  H20 UNL A   1      -6.106   3.950  -1.642  1.00  0.00    +0.000 H 
BRANCH   17   16
ATOM    107  H17 UNL A   1      -5.098   2.382  -3.072  1.00  0.00    +0.000 H 
ATOM    108  H18 UNL A   1      -3.974   3.712  -2.624  1.00  0.00    +0.000 H 
ATOM     16  C13 UNL A   1      -4.491   2.829  -2.313  1.00  0.00    +0.000 C 
BRANCH   16   15
ATOM    105  H15 UNL A   1      -2.610   2.326  -1.391  1.00  0.00    +0.000 H 
ATOM    106  H16 UNL A   1      -3.853   1.036  -1.358  1.00  0.00    +0.000 H 
ATOM     15  C12 UNL A   1      -3.370   1.801  -1.931  1.00  0.00    +0.000 C 
BRANCH   15   14
ATOM     14  N1  UNL A   1      -2.699   1.081  -3.122  1.00  0.00    +0.000 N 
ATOM    104  H14 UNL A   1      -3.331   0.360  -3.344  1.00  0.00    +0.000 H 
BRANCH   14   12
ATOM     12  C11 UNL A   1      -1.687   0.918  -4.031  1.00  0.00    +0.000 C 
ATOM     13  O2  UNL A   1      -1.897  -0.142  -4.667  1.00  0.00    +0.000 O 
BRANCH   12   11
ATOM     11  C10 UNL A   1      -0.247   1.613  -4.374  1.00  0.00    +0.000 C 
ATOM    102  H12 UNL A   1       0.098   1.906  -3.404  1.00  0.00    +0.000 H 
ATOM    103  H13 UNL A   1       0.036   0.849  -5.068  1.00  0.00    +0.000 H 
BRANCH   11   10
ATOM     10  C9  UNL A   1       0.299   2.811  -5.305  1.00  0.00    +0.000 C 
ATOM    100  H10 UNL A   1       1.349   2.612  -5.363  1.00  0.00    +0.000 H 
ATOM    101  H11 UNL A   1      -0.467   2.723  -6.046  1.00  0.00    +0.000 H 
BRANCH   10    9
ATOM      9  C8  UNL A   1       0.237   4.398  -5.207  1.00  0.00    +0.000 C 
ATOM     98  H8  UNL A   1       0.274   4.744  -6.219  1.00  0.00    +0.000 H 
ATOM     99  H9  UNL A   1      -0.632   4.513  -4.594  1.00  0.00    +0.000 H 
BRANCH    9    8
ATOM      8  O1  UNL A   1       1.163   5.229  -4.488  1.00  0.00    +0.000 O 
BRANCH    8    7
ATOM      2  C2  UNL A   1       0.884   2.285  -0.463  1.00  0.00    +0.000 C 
ATOM      3  C3  UNL A   1      -0.178   2.374  -1.360  1.00  0.00    +0.000 C 
ATOM      4  C4  UNL A   1      -0.357   3.520  -2.160  1.00  0.00    +0.000 C 
ATOM      6  C6  UNL A   1       0.724   4.377  -2.167  1.00  0.00    +0.000 C 
ATOM      7  C7  UNL A   1       1.243   5.268  -3.133  1.00  0.00    +0.000 C 
ATOM     87  N7  UNL A   1       2.060   6.207  -2.656  1.00  0.00    +0.000 N 
ATOM     88  S1  UNL A   1       2.455   5.789  -1.080  1.00  0.00    +0.000 S 
ATOM     89  C63 UNL A   1       1.578   4.331  -1.079  1.00  0.00    +0.000 C 
ATOM     90  N8  UNL A   1       1.682   3.335  -0.176  1.00  0.00    +0.000 N 
ATOM     94  H4  UNL A   1      -0.843   1.589  -1.440  1.00  0.00    +0.000 H 
BRANCH    2    1
ATOM      1  C1  UNL A   1       1.171   0.974   0.221  1.00  0.00    +0.000 C 
ATOM     91  H1  UNL A   1       0.462   0.241  -0.102  1.00  0.00    +0.000 H 
ATOM     92  H2  UNL A   1       1.095   1.101   1.281  1.00  0.00    +0.000 H 
ATOM     93  H3  UNL A   1       2.159   0.650  -0.030  1.00  0.00    +0.000 H 
ENDBRANCH    2    1
BRANCH    4    5
ATOM     97  H7  UNL A   1      -1.876   4.855  -2.713  1.00  0.00    +0.000 H 
ATOM      5  C5  UNL A   1      -1.500   3.902  -3.022  1.00  0.00    +0.000 C 
ATOM     95  H5  UNL A   1      -2.273   3.168  -2.936  1.00  0.00    +0.000 H 
ATOM     96  H6  UNL A   1      -1.175   3.961  -4.040  1.00  0.00    +0.000 H 
ENDBRANCH    4    5
ENDBRANCH    8    7
ENDBRANCH    9    8
ENDBRANCH   10    9
ENDBRANCH   11   10
ENDBRANCH   12   11
ENDBRANCH   14   12
ENDBRANCH   15   14
ENDBRANCH   16   15
ENDBRANCH   17   16
ENDBRANCH   18   17
ENDBRANCH   19   18
ENDBRANCH   20   19
ENDBRANCH   21   20
ENDBRANCH   22   21
ENDBRANCH   24   22
ENDBRANCH   28   27
BRANCH   32   33
ATOM     33  C27 UNL A   1      -7.777  14.865  -7.284  1.00  0.00    +0.000 C 
ATOM     34  C28 UNL A   1      -8.393  15.982  -7.888  1.00  0.00    +0.000 C 
ATOM     35  F1  UNL A   1      -9.666  16.299  -7.606  1.00  0.00    +0.000 F 
ATOM     36  C29 UNL A   1      -7.754  16.738  -8.873  1.00  0.00    +0.000 C 
ATOM     37  F2  UNL A   1      -8.432  17.695  -9.521  1.00  0.00    +0.000 F 
ATOM     38  C30 UNL A   1      -6.453  16.452  -9.239  1.00  0.00    +0.000 C 
ATOM     39  F3  UNL A   1      -5.862  17.124 -10.235  1.00  0.00    +0.000 F 
ATOM     40  C31 UNL A   1      -5.781  15.433  -8.599  1.00  0.00    +0.000 C 
ATOM     41  F4  UNL A   1      -4.521  15.135  -8.946  1.00  0.00    +0.000 F 
ATOM     42  C32 UNL A   1      -6.433  14.644  -7.652  1.00  0.00    +0.000 C 
ATOM     43  F5  UNL A   1      -5.728  13.601  -7.201  1.00  0.00    +0.000 F 
ENDBRANCH   32   33
BRANCH   49   50
ATOM     50  C38 UNL A   1     -12.652  10.373  -8.877  1.00  0.00    +0.000 C 
ATOM     51  C39 UNL A   1     -12.616   9.076  -8.337  1.00  0.00    +0.000 C 
ATOM     52  F6  UNL A   1     -11.453   8.509  -7.988  1.00  0.00    +0.000 F 
ATOM     53  C40 UNL A   1     -13.789   8.366  -8.080  1.00  0.00    +0.000 C 
ATOM     54  F7  UNL A   1     -13.727   7.129  -7.563  1.00  0.00    +0.000 F 
ATOM     55  C41 UNL A   1     -15.021   8.952  -8.316  1.00  0.00    +0.000 C 
ATOM     56  F8  UNL A   1     -16.150   8.292  -8.020  1.00  0.00    +0.000 F 
ATOM     57  C42 UNL A   1     -15.083  10.237  -8.830  1.00  0.00    +0.000 C 
ATOM     58  F9  UNL A   1     -16.272  10.828  -9.014  1.00  0.00    +0.000 F 
ATOM     59  C43 UNL A   1     -13.913  10.933  -9.121  1.00  0.00    +0.000 C 
ATOM     60  F10 UNL A   1     -14.011  12.188  -9.587  1.00  0.00    +0.000 F 
ENDBRANCH   49   50
BRANCH   64   65
ATOM     65  C47 UNL A   1      -7.686   7.282 -11.310  1.00  0.00    +0.000 C 
ATOM     66  C48 UNL A   1      -7.902   7.438 -12.689  1.00  0.00    +0.000 C 
ATOM     67  F11 UNL A   1      -9.018   8.037 -13.131  1.00  0.00    +0.000 F 
ATOM     68  C49 UNL A   1      -6.943   7.053 -13.630  1.00  0.00    +0.000 C 
ATOM     69  F12 UNL A   1      -7.155   7.282 -14.934  1.00  0.00    +0.000 F 
ATOM     70  C50 UNL A   1      -5.745   6.492 -13.220  1.00  0.00    +0.000 C 
ATOM     71  F13 UNL A   1      -4.796   6.186 -14.117  1.00  0.00    +0.000 F 
ATOM     72  C51 UNL A   1      -5.517   6.287 -11.872  1.00  0.00    +0.000 C 
ATOM     73  F14 UNL A   1      -4.348   5.775 -11.460  1.00  0.00    +0.000 F 
ATOM     74  C52 UNL A   1      -6.472   6.674 -10.931  1.00  0.00    +0.000 C 
ATOM     75  F15 UNL A   1      -6.146   6.531  -9.639  1.00  0.00    +0.000 F 
ENDBRANCH   64   65
TORSDOF 21