ROOT
ATOM     28  C20 UNL A   1       1.956  -5.451 -11.028  1.00  0.00    +0.000 C 
ATOM     29  C21 UNL A   1       1.346  -6.673 -10.394  1.00  0.00    +0.000 C 
ATOM     30  N4  UNL A   1       0.354  -7.417 -10.818  1.00  0.00    +0.000 N 
ATOM     31  C22 UNL A   1       0.202  -8.424  -9.873  1.00  0.00    +0.000 C 
ATOM     32  C23 UNL A   1      -0.711  -9.424  -9.842  1.00  0.00    +0.000 C 
ATOM     44  C30 UNL A   1      -1.742  -9.619 -10.828  1.00  0.00    +0.000 C 
ATOM     45  C31 UNL A   1      -2.722 -10.596 -10.869  1.00  0.00    +0.000 C 
ATOM     46  C32 UNL A   1      -3.485 -10.402 -12.025  1.00  0.00    +0.000 C 
ATOM     47  C33 UNL A   1      -3.002  -9.284 -12.685  1.00  0.00    +0.000 C 
ATOM     48  N5  UNL A   1      -1.930  -8.816 -11.942  1.00  0.00    +0.000 N 
ATOM     49  C34 UNL A   1      -3.476  -8.688 -13.907  1.00  0.00    +0.000 C 
ATOM     61  C41 UNL A   1      -2.978  -7.559 -14.465  1.00  0.00    +0.000 C 
ATOM     62  N6  UNL A   1      -1.933  -6.760 -14.026  1.00  0.00    +0.000 N 
ATOM     63  C42 UNL A   1      -1.810  -5.807 -14.917  1.00  0.00    +0.000 C 
ATOM     64  C43 UNL A   1      -0.836  -4.664 -14.953  1.00  0.00    +0.000 C 
ATOM     76  C50 UNL A   1       0.113  -4.572 -14.003  1.00  0.00    +0.000 C 
ATOM     77  C51 UNL A   1       1.129  -3.527 -13.922  1.00  0.00    +0.000 C 
ATOM     78  C52 UNL A   1       1.924  -3.769 -12.868  1.00  0.00    +0.000 C 
ATOM     79  C53 UNL A   1       1.439  -4.960 -12.169  1.00  0.00    +0.000 C 
ATOM     80  N7  UNL A   1       0.377  -5.384 -12.928  1.00  0.00    +0.000 N 
ATOM     81  C54 UNL A   1      -2.768  -5.895 -16.028  1.00  0.00    +0.000 C 
ATOM     82  C55 UNL A   1      -3.475  -6.965 -15.690  1.00  0.00    +0.000 C 
ATOM     83  C56 UNL A   1       1.217  -8.214  -8.864  1.00  0.00    +0.000 C 
ATOM     84  C57 UNL A   1       1.923  -7.120  -9.116  1.00  0.00    +0.000 C 
ATOM    109  H23 UNL A   1      -2.866 -11.339 -10.168  1.00  0.00    +0.000 H 
ATOM    110  H24 UNL A   1      -4.274 -10.991 -12.334  1.00  0.00    +0.000 H 
ATOM    111  H25 UNL A   1      -1.384  -8.029 -12.170  1.00  0.00    +0.000 H 
ATOM    112  H26 UNL A   1       1.221  -2.729 -14.570  1.00  0.00    +0.000 H 
ATOM    113  H27 UNL A   1       2.744  -3.207 -12.595  1.00  0.00    +0.000 H 
ATOM    114  H28 UNL A   1      -0.145  -6.193 -12.721  1.00  0.00    +0.000 H 
ATOM    115  H29 UNL A   1      -2.866  -5.284 -16.854  1.00  0.00    +0.000 H 
ATOM    116  H30 UNL A   1      -4.275  -7.329 -16.230  1.00  0.00    +0.000 H 
ATOM    117  H31 UNL A   1       1.371  -8.835  -8.054  1.00  0.00    +0.000 H 
ATOM    118  H32 UNL A   1       2.680  -6.693  -8.560  1.00  0.00    +0.000 H 
ENDROOT
BRANCH   28   27
ATOM     27  C19 UNL A   1       3.078  -4.739 -10.361  1.00  0.00    +0.000 C 
ATOM    107  H21 UNL A   1       3.738  -1.839  -8.794  1.00  0.00    +0.000 H 
ATOM    108  H22 UNL A   1       1.961  -2.982  -9.983  1.00  0.00    +0.000 H 
ATOM     85  C58 UNL A   1       4.332  -5.347 -10.198  1.00  0.00    +0.000 C 
ATOM     86  C59 UNL A   1       5.315  -4.732  -9.418  1.00  0.00    +0.000 C 
ATOM    120  H34 UNL A   1       6.226  -5.195  -9.272  1.00  0.00    +0.000 H 
ATOM     24  C16 UNL A   1       5.059  -3.488  -8.835  1.00  0.00    +0.000 C 
ATOM     25  C17 UNL A   1       3.871  -2.810  -9.117  1.00  0.00    +0.000 C 
ATOM     26  C18 UNL A   1       2.867  -3.454  -9.835  1.00  0.00    +0.000 C 
ATOM    119  H33 UNL A   1       4.529  -6.251 -10.656  1.00  0.00    +0.000 H 
BRANCH   24   22
ATOM     22  C15 UNL A   1       6.031  -2.936  -7.867  1.00  0.00    +0.000 C 
ATOM     23  O3  UNL A   1       7.223  -2.892  -8.154  1.00  0.00    +0.000 O 
BRANCH   22   21
ATOM    106  H20 UNL A   1       6.280  -2.153  -6.033  1.00  0.00    +0.000 H 
ATOM     21  N3  UNL A   1       5.591  -2.525  -6.629  1.00  0.00    +0.000 N 
BRANCH   21   20
ATOM    105  H19 UNL A   1       3.695  -3.289  -6.651  1.00  0.00    +0.000 H 
ATOM     20  C14 UNL A   1       4.242  -2.566  -6.083  1.00  0.00    +0.000 C 
ATOM    104  H18 UNL A   1       3.817  -1.587  -6.155  1.00  0.00    +0.000 H 
BRANCH   20   19
ATOM     19  C13 UNL A   1       4.189  -3.009  -4.625  1.00  0.00    +0.000 C 
ATOM    102  H16 UNL A   1       3.160  -3.115  -4.350  1.00  0.00    +0.000 H 
ATOM    103  H17 UNL A   1       4.746  -3.921  -4.575  1.00  0.00    +0.000 H 
BRANCH   19   18
ATOM     18  C12 UNL A   1       4.848  -2.061  -3.623  1.00  0.00    +0.000 C 
ATOM    100  H14 UNL A   1       4.683  -2.454  -2.641  1.00  0.00    +0.000 H 
ATOM    101  H15 UNL A   1       5.879  -2.011  -3.903  1.00  0.00    +0.000 H 
BRANCH   18   17
ATOM     17  C11 UNL A   1       4.340  -0.616  -3.642  1.00  0.00    +0.000 C 
ATOM     98  H12 UNL A   1       4.834  -0.085  -2.855  1.00  0.00    +0.000 H 
ATOM     99  H13 UNL A   1       4.556  -0.248  -4.622  1.00  0.00    +0.000 H 
BRANCH   17   16
ATOM     97  H11 UNL A   1       2.362  -0.972  -4.252  1.00  0.00    +0.000 H 
ATOM     96  H10 UNL A   1       2.619   0.617  -3.468  1.00  0.00    +0.000 H 
ATOM     16  C10 UNL A   1       2.828  -0.432  -3.454  1.00  0.00    +0.000 C 
BRANCH   16   15
ATOM     95  H9  UNL A   1       2.433  -2.066  -2.163  1.00  0.00    +0.000 H 
ATOM     94  H8  UNL A   1       1.208  -0.797  -2.120  1.00  0.00    +0.000 H 
ATOM     15  C9  UNL A   1       2.256  -1.011  -2.162  1.00  0.00    +0.000 C 
BRANCH   15   14
ATOM     93  H7  UNL A   1       3.880  -0.450  -0.945  1.00  0.00    +0.000 H 
ATOM     14  N2  UNL A   1       2.897  -0.447  -0.992  1.00  0.00    +0.000 N 
BRANCH   14    2
ATOM      1  O1  UNL A   1       0.969   0.255   0.052  1.00  0.00    +0.000 O 
ATOM      2  C1  UNL A   1       2.185   0.095   0.059  1.00  0.00    +0.000 C 
BRANCH    2    3
ATOM      3  C2  UNL A   1       3.056   0.518   1.242  1.00  0.00    +0.000 C 
ATOM     87  H1  UNL A   1       2.419   0.930   1.996  1.00  0.00    +0.000 H 
ATOM     88  H2  UNL A   1       3.764   1.226   0.865  1.00  0.00    +0.000 H 
BRANCH    3    4
ATOM      4  C3  UNL A   1       3.853  -0.610   1.857  1.00  0.00    +0.000 C 
ATOM      5  C4  UNL A   1       5.123  -0.259   2.463  1.00  0.00    +0.000 C 
ATOM      6  C5  UNL A   1       5.915  -1.208   2.977  1.00  0.00    +0.000 C 
ATOM      7  N1  UNL A   1       5.545  -2.540   2.953  1.00  0.00    +0.000 N 
ATOM     11  C7  UNL A   1       4.346  -2.969   2.408  1.00  0.00    +0.000 C 
ATOM     12  O2  UNL A   1       3.971  -4.133   2.326  1.00  0.00    +0.000 O 
ATOM     13  C8  UNL A   1       3.469  -1.899   1.856  1.00  0.00    +0.000 C 
ATOM     89  H3  UNL A   1       5.418   0.729   2.499  1.00  0.00    +0.000 H 
ATOM     90  H4  UNL A   1       6.819  -0.941   3.399  1.00  0.00    +0.000 H 
ATOM     92  H6  UNL A   1       2.547  -2.151   1.466  1.00  0.00    +0.000 H 
BRANCH    7    8
ATOM      9  F1  UNL A   1       5.824  -4.316   4.401  1.00  0.00    +0.000 F 
ATOM     10  F2  UNL A   1       6.842  -4.375   2.459  1.00  0.00    +0.000 F 
ATOM     91  H5  UNL A   1       7.269  -3.051   3.891  1.00  0.00    +0.000 H 
ATOM      8  C6  UNL A   1       6.431  -3.556   3.458  1.00  0.00    +0.000 C 
ENDBRANCH    7    8
ENDBRANCH    3    4
ENDBRANCH    2    3
ENDBRANCH   14    2
ENDBRANCH   15   14
ENDBRANCH   16   15
ENDBRANCH   17   16
ENDBRANCH   18   17
ENDBRANCH   19   18
ENDBRANCH   20   19
ENDBRANCH   21   20
ENDBRANCH   22   21
ENDBRANCH   24   22
ENDBRANCH   28   27
BRANCH   32   33
ATOM     33  C24 UNL A   1      -0.641 -10.398  -8.704  1.00  0.00    +0.000 C 
ATOM     34  C25 UNL A   1      -1.082 -10.054  -7.418  1.00  0.00    +0.000 C 
ATOM     35  F3  UNL A   1      -1.511  -8.809  -7.163  1.00  0.00    +0.000 F 
ATOM     36  C26 UNL A   1      -1.063 -10.986  -6.383  1.00  0.00    +0.000 C 
ATOM     37  F4  UNL A   1      -1.465 -10.628  -5.155  1.00  0.00    +0.000 F 
ATOM     38  C27 UNL A   1      -0.626 -12.281  -6.619  1.00  0.00    +0.000 C 
ATOM     39  F5  UNL A   1      -0.621 -13.179  -5.624  1.00  0.00    +0.000 F 
ATOM     40  C28 UNL A   1      -0.192 -12.644  -7.885  1.00  0.00    +0.000 C 
ATOM     41  F6  UNL A   1       0.221 -13.898  -8.116  1.00  0.00    +0.000 F 
ATOM     42  C29 UNL A   1      -0.190 -11.709  -8.917  1.00  0.00    +0.000 C 
ATOM     43  F7  UNL A   1       0.237 -12.089 -10.130  1.00  0.00    +0.000 F 
ENDBRANCH   32   33
BRANCH   49   50
ATOM     50  C35 UNL A   1      -4.613  -9.361 -14.615  1.00  0.00    +0.000 C 
ATOM     51  C36 UNL A   1      -4.400 -10.110 -15.781  1.00  0.00    +0.000 C 
ATOM     52  F8  UNL A   1      -3.175 -10.183 -16.321  1.00  0.00    +0.000 F 
ATOM     53  C37 UNL A   1      -5.455 -10.764 -16.412  1.00  0.00    +0.000 C 
ATOM     54  F9  UNL A   1      -5.236 -11.447 -17.543  1.00  0.00    +0.000 F 
ATOM     55  C38 UNL A   1      -6.733 -10.701 -15.876  1.00  0.00    +0.000 C 
ATOM     56  F10 UNL A   1      -7.745 -11.338 -16.480  1.00  0.00    +0.000 F 
ATOM     57  C39 UNL A   1      -6.963  -9.974 -14.717  1.00  0.00    +0.000 C 
ATOM     58  F11 UNL A   1      -8.195  -9.921 -14.194  1.00  0.00    +0.000 F 
ATOM     59  C40 UNL A   1      -5.915  -9.301 -14.096  1.00  0.00    +0.000 C 
ATOM     60  F12 UNL A   1      -6.166  -8.601 -12.980  1.00  0.00    +0.000 F 
ENDBRANCH   49   50
BRANCH   64   65
ATOM     65  C44 UNL A   1      -0.905  -3.636 -16.020  1.00  0.00    +0.000 C 
ATOM     66  C45 UNL A   1      -1.947  -2.701 -16.051  1.00  0.00    +0.000 C 
ATOM     67  F13 UNL A   1      -2.923  -2.756 -15.133  1.00  0.00    +0.000 F 
ATOM     68  C46 UNL A   1      -2.003  -1.720 -17.039  1.00  0.00    +0.000 C 
ATOM     69  F14 UNL A   1      -3.024  -0.853 -17.063  1.00  0.00    +0.000 F 
ATOM     70  C47 UNL A   1      -1.006  -1.645 -18.001  1.00  0.00    +0.000 C 
ATOM     71  F15 UNL A   1      -1.054  -0.694 -18.944  1.00  0.00    +0.000 F 
ATOM     72  C48 UNL A   1       0.037  -2.558 -17.988  1.00  0.00    +0.000 C 
ATOM     73  F16 UNL A   1       1.008  -2.481 -18.908  1.00  0.00    +0.000 F 
ATOM     74  C49 UNL A   1       0.081  -3.553 -17.015  1.00  0.00    +0.000 C 
ATOM     75  F17 UNL A   1       1.097  -4.427 -17.027  1.00  0.00    +0.000 F 
ENDBRANCH   64   65
TORSDOF 17