ROOT
ATOM     32  C23 UNL A   1      -1.120 -12.003   0.350  1.00  0.00    +0.000 C 
ATOM     33  C24 UNL A   1      -0.794 -12.743   1.616  1.00  0.00    +0.000 C 
ATOM     34  N6  UNL A   1       0.077 -13.700   1.815  1.00  0.00    +0.000 N 
ATOM     35  C25 UNL A   1       0.012 -13.993   3.171  1.00  0.00    +0.000 C 
ATOM     36  C26 UNL A   1       0.676 -14.950   3.861  1.00  0.00    +0.000 C 
ATOM     48  C33 UNL A   1       1.607 -15.876   3.271  1.00  0.00    +0.000 C 
ATOM     49  C34 UNL A   1       2.281 -16.924   3.873  1.00  0.00    +0.000 C 
ATOM     50  C35 UNL A   1       3.108 -17.521   2.914  1.00  0.00    +0.000 C 
ATOM     51  C36 UNL A   1       2.915 -16.872   1.704  1.00  0.00    +0.000 C 
ATOM     52  N7  UNL A   1       1.995 -15.863   1.939  1.00  0.00    +0.000 N 
ATOM     53  C37 UNL A   1       3.524 -17.151   0.429  1.00  0.00    +0.000 C 
ATOM     65  C44 UNL A   1       3.275 -16.473  -0.718  1.00  0.00    +0.000 C 
ATOM     66  N8  UNL A   1       2.414 -15.405  -0.930  1.00  0.00    +0.000 N 
ATOM     67  C45 UNL A   1       2.530 -15.095  -2.197  1.00  0.00    +0.000 C 
ATOM     68  C46 UNL A   1       1.813 -14.032  -2.983  1.00  0.00    +0.000 C 
ATOM     80  C53 UNL A   1       0.888 -13.270  -2.370  1.00  0.00    +0.000 C 
ATOM     81  C54 UNL A   1       0.107 -12.211  -3.002  1.00  0.00    +0.000 C 
ATOM     82  C55 UNL A   1      -0.684 -11.640  -2.080  1.00  0.00    +0.000 C 
ATOM     83  C56 UNL A   1      -0.489 -12.316  -0.798  1.00  0.00    +0.000 C 
ATOM     84  N9  UNL A   1       0.456 -13.274  -1.066  1.00  0.00    +0.000 N 
ATOM     85  C57 UNL A   1       3.503 -15.917  -2.930  1.00  0.00    +0.000 C 
ATOM     86  C58 UNL A   1       3.900 -16.764  -1.991  1.00  0.00    +0.000 C 
ATOM     87  C59 UNL A   1      -0.947 -13.080   3.755  1.00  0.00    +0.000 C 
ATOM     88  C60 UNL A   1      -1.523 -12.332   2.825  1.00  0.00    +0.000 C 
ATOM    117  H27 UNL A   1       2.190 -17.216   4.858  1.00  0.00    +0.000 H 
ATOM    118  H28 UNL A   1       3.752 -18.310   3.079  1.00  0.00    +0.000 H 
ATOM    119  H29 UNL A   1       1.665 -15.230   1.261  1.00  0.00    +0.000 H 
ATOM    120  H30 UNL A   1       0.156 -11.945  -3.998  1.00  0.00    +0.000 H 
ATOM    121  H31 UNL A   1      -1.326 -10.850  -2.249  1.00  0.00    +0.000 H 
ATOM    122  H32 UNL A   1       0.793 -13.905  -0.389  1.00  0.00    +0.000 H 
ATOM    123  H33 UNL A   1       3.799 -15.852  -3.917  1.00  0.00    +0.000 H 
ATOM    124  H34 UNL A   1       4.570 -17.534  -2.148  1.00  0.00    +0.000 H 
ATOM    125  H35 UNL A   1      -1.155 -13.019   4.764  1.00  0.00    +0.000 H 
ATOM    126  H36 UNL A   1      -2.284 -11.642   2.924  1.00  0.00    +0.000 H 
ENDROOT
BRANCH   32   31
ATOM    115  H25 UNL A   1      -5.073  -9.922  -0.843  1.00  0.00    +0.000 H 
ATOM    116  H26 UNL A   1      -3.570 -11.828  -0.799  1.00  0.00    +0.000 H 
ATOM     89  C61 UNL A   1      -1.772  -9.710   1.085  1.00  0.00    +0.000 C 
ATOM     90  C62 UNL A   1      -2.670  -8.646   1.123  1.00  0.00    +0.000 C 
ATOM    127  H37 UNL A   1      -0.871  -9.639   1.584  1.00  0.00    +0.000 H 
ATOM     28  C19 UNL A   1      -3.847  -8.702   0.371  1.00  0.00    +0.000 C 
ATOM     29  C20 UNL A   1      -4.183  -9.867  -0.322  1.00  0.00    +0.000 C 
ATOM     30  C21 UNL A   1      -3.312 -10.958  -0.308  1.00  0.00    +0.000 C 
ATOM     31  C22 UNL A   1      -2.086 -10.877   0.372  1.00  0.00    +0.000 C 
ATOM    128  H38 UNL A   1      -2.466  -7.819   1.706  1.00  0.00    +0.000 H 
BRANCH   28   26
ATOM     26  C18 UNL A   1      -4.763  -7.543   0.304  1.00  0.00    +0.000 C 
ATOM     27  O3  UNL A   1      -5.974  -7.718   0.408  1.00  0.00    +0.000 O 
BRANCH   26   25
ATOM     25  N5  UNL A   1      -4.260  -6.283   0.106  1.00  0.00    +0.000 N 
ATOM    114  H24 UNL A   1      -4.903  -5.547   0.230  1.00  0.00    +0.000 H 
BRANCH   25   24
ATOM    113  H23 UNL A   1      -2.371  -6.761  -0.534  1.00  0.00    +0.000 H 
ATOM    112  H22 UNL A   1      -2.462  -5.388   0.577  1.00  0.00    +0.000 H 
ATOM     24  C17 UNL A   1      -2.912  -5.880  -0.259  1.00  0.00    +0.000 C 
BRANCH   24   23
ATOM    111  H21 UNL A   1      -3.441  -5.419  -2.233  1.00  0.00    +0.000 H 
ATOM    110  H20 UNL A   1      -1.874  -4.736  -1.709  1.00  0.00    +0.000 H 
ATOM     23  C16 UNL A   1      -2.895  -4.931  -1.453  1.00  0.00    +0.000 C 
BRANCH   23   22
ATOM    108  H18 UNL A   1      -3.473  -2.995  -2.101  1.00  0.00    +0.000 H 
ATOM    109  H19 UNL A   1      -4.610  -3.818  -0.990  1.00  0.00    +0.000 H 
ATOM     22  C15 UNL A   1      -3.591  -3.587  -1.218  1.00  0.00    +0.000 C 
BRANCH   22   21
ATOM    106  H16 UNL A   1      -3.554  -1.826  -0.033  1.00  0.00    +0.000 H 
ATOM    107  H17 UNL A   1      -3.268  -3.360   0.843  1.00  0.00    +0.000 H 
ATOM     21  C14 UNL A   1      -3.063  -2.776  -0.030  1.00  0.00    +0.000 C 
BRANCH   21   20
ATOM    105  H15 UNL A   1      -1.079  -3.489  -0.040  1.00  0.00    +0.000 H 
ATOM     20  C13 UNL A   1      -1.550  -2.528  -0.030  1.00  0.00    +0.000 C 
ATOM    104  H14 UNL A   1      -1.303  -1.956   0.840  1.00  0.00    +0.000 H 
BRANCH   20   19
ATOM     19  C12 UNL A   1      -1.042  -1.776  -1.257  1.00  0.00    +0.000 C 
ATOM    102  H12 UNL A   1       0.028  -1.799  -1.265  1.00  0.00    +0.000 H 
ATOM    103  H13 UNL A   1      -1.430  -2.250  -2.135  1.00  0.00    +0.000 H 
BRANCH   19   18
ATOM     18  N4  UNL A   1      -1.489  -0.396  -1.238  1.00  0.00    +0.000 N 
ATOM    101  H11 UNL A   1      -2.462  -0.282  -1.144  1.00  0.00    +0.000 H 
BRANCH   18   16
ATOM     17  O2  UNL A   1      -1.441   1.816  -1.356  1.00  0.00    +0.000 O 
ATOM     16  C11 UNL A   1      -0.787   0.768  -1.326  1.00  0.00    +0.000 C 
BRANCH   16    2
ATOM      2  C2  UNL A   1       0.744   0.803  -1.382  1.00  0.00    +0.000 C 
ATOM     94  H4  UNL A   1       1.101   1.811  -1.369  1.00  0.00    +0.000 H 
BRANCH    2    1
ATOM      1  C1  UNL A   1       1.394   0.235  -0.125  1.00  0.00    +0.000 C 
ATOM     91  H1  UNL A   1       2.459   0.285  -0.221  1.00  0.00    +0.000 H 
ATOM     92  H2  UNL A   1       1.095  -0.785   0.002  1.00  0.00    +0.000 H 
ATOM     93  H3  UNL A   1       1.085   0.806   0.725  1.00  0.00    +0.000 H 
ENDBRANCH    2    1
BRANCH    2    3
ATOM      3  S1  UNL A   1       1.276   0.076  -2.974  1.00  0.00    +0.000 S 
BRANCH    3    4
ATOM     97  H7  UNL A   1       8.802  -1.467  -2.705  1.00  0.00    +0.000 H 
ATOM     98  H8  UNL A   1       7.752   0.725  -2.763  1.00  0.00    +0.000 H 
ATOM      4  C3  UNL A   1       3.012   0.051  -2.795  1.00  0.00    +0.000 C 
ATOM      5  N1  UNL A   1       3.571  -1.112  -2.712  1.00  0.00    +0.000 N 
ATOM      6  C4  UNL A   1       4.971  -1.171  -2.680  1.00  0.00    +0.000 C 
ATOM      7  C5  UNL A   1       5.588  -2.424  -2.641  1.00  0.00    +0.000 C 
ATOM      8  C6  UNL A   1       6.982  -2.533  -2.652  1.00  0.00    +0.000 C 
ATOM      9  C7  UNL A   1       7.773  -1.386  -2.698  1.00  0.00    +0.000 C 
ATOM     10  C8  UNL A   1       7.172  -0.128  -2.733  1.00  0.00    +0.000 C 
ATOM     11  C9  UNL A   1       5.775  -0.031  -2.726  1.00  0.00    +0.000 C 
ATOM     12  C10 UNL A   1       5.109   1.281  -2.799  1.00  0.00    +0.000 C 
ATOM     13  O1  UNL A   1       5.766   2.320  -2.856  1.00  0.00    +0.000 O 
ATOM     14  N2  UNL A   1       3.714   1.251  -2.828  1.00  0.00    +0.000 N 
ATOM     95  H5  UNL A   1       5.009  -3.278  -2.604  1.00  0.00    +0.000 H 
ATOM     96  H6  UNL A   1       7.426  -3.464  -2.627  1.00  0.00    +0.000 H 
BRANCH   14   15
ATOM     99  H9  UNL A   1       2.064   2.555  -2.935  1.00  0.00    +0.000 H 
ATOM    100  H10 UNL A   1       3.573   3.349  -2.946  1.00  0.00    +0.000 H 
ATOM     15  N3  UNL A   1       3.048   2.517  -2.912  1.00  0.00    +0.000 N 
ENDBRANCH   14   15
ENDBRANCH    3    4
ENDBRANCH    2    3
ENDBRANCH   16    2
ENDBRANCH   18   16
ENDBRANCH   19   18
ENDBRANCH   20   19
ENDBRANCH   21   20
ENDBRANCH   22   21
ENDBRANCH   23   22
ENDBRANCH   24   23
ENDBRANCH   25   24
ENDBRANCH   26   25
ENDBRANCH   28   26
ENDBRANCH   32   31
BRANCH   36   37
ATOM     37  C27 UNL A   1       0.417 -15.044   5.337  1.00  0.00    +0.000 C 
ATOM     38  C28 UNL A   1      -0.808 -15.507   5.840  1.00  0.00    +0.000 C 
ATOM     39  F1  UNL A   1      -1.798 -15.847   5.000  1.00  0.00    +0.000 F 
ATOM     40  C29 UNL A   1      -1.038 -15.582   7.211  1.00  0.00    +0.000 C 
ATOM     41  F2  UNL A   1      -2.234 -15.977   7.668  1.00  0.00    +0.000 F 
ATOM     42  C30 UNL A   1      -0.037 -15.231   8.104  1.00  0.00    +0.000 C 
ATOM     43  F3  UNL A   1      -0.258 -15.306   9.424  1.00  0.00    +0.000 F 
ATOM     44  C31 UNL A   1       1.191 -14.794   7.630  1.00  0.00    +0.000 C 
ATOM     45  F4  UNL A   1       2.163 -14.466   8.492  1.00  0.00    +0.000 F 
ATOM     46  C32 UNL A   1       1.413 -14.690   6.259  1.00  0.00    +0.000 C 
ATOM     47  F5  UNL A   1       2.605 -14.247   5.831  1.00  0.00    +0.000 F 
ENDBRANCH   36   37
BRANCH   53   54
ATOM     54  C38 UNL A   1       4.493 -18.294   0.354  1.00  0.00    +0.000 C 
ATOM     55  C39 UNL A   1       5.872 -18.080   0.221  1.00  0.00    +0.000 C 
ATOM     56  F6  UNL A   1       6.354 -16.833   0.102  1.00  0.00    +0.000 F 
ATOM     57  C40 UNL A   1       6.760 -19.151   0.173  1.00  0.00    +0.000 C 
ATOM     58  F7  UNL A   1       8.070 -18.926   0.003  1.00  0.00    +0.000 F 
ATOM     59  C41 UNL A   1       6.290 -20.451   0.288  1.00  0.00    +0.000 C 
ATOM     60  F8  UNL A   1       7.148 -21.481   0.249  1.00  0.00    +0.000 F 
ATOM     61  C42 UNL A   1       4.932 -20.685   0.437  1.00  0.00    +0.000 C 
ATOM     62  F9  UNL A   1       4.477 -21.939   0.559  1.00  0.00    +0.000 F 
ATOM     63  C43 UNL A   1       4.039 -19.617   0.458  1.00  0.00    +0.000 C 
ATOM     64  F10 UNL A   1       2.729 -19.874   0.592  1.00  0.00    +0.000 F 
ENDBRANCH   53   54
BRANCH   68   69
ATOM     69  C47 UNL A   1       2.087 -13.835  -4.429  1.00  0.00    +0.000 C 
ATOM     70  C48 UNL A   1       1.668 -14.782  -5.373  1.00  0.00    +0.000 C 
ATOM     71  F11 UNL A   1       1.039 -15.896  -4.970  1.00  0.00    +0.000 F 
ATOM     72  C49 UNL A   1       1.922 -14.605  -6.731  1.00  0.00    +0.000 C 
ATOM     73  F12 UNL A   1       1.543 -15.544  -7.610  1.00  0.00    +0.000 F 
ATOM     74  C50 UNL A   1       2.578 -13.466  -7.174  1.00  0.00    +0.000 C 
ATOM     75  F13 UNL A   1       2.817 -13.293  -8.481  1.00  0.00    +0.000 F 
ATOM     76  C51 UNL A   1       2.991 -12.509  -6.258  1.00  0.00    +0.000 C 
ATOM     77  F14 UNL A   1       3.614 -11.402  -6.683  1.00  0.00    +0.000 F 
ATOM     78  C52 UNL A   1       2.759 -12.697  -4.898  1.00  0.00    +0.000 C 
ATOM     79  F15 UNL A   1       3.176 -11.760  -4.034  1.00  0.00    +0.000 F 
ENDBRANCH   68   69
TORSDOF 19