ROOT
ATOM     28  C20 UNL A   1      10.402  -1.587 -11.494  1.00  0.00    +0.000 C 
ATOM     29  C21 UNL A   1       9.955  -2.965 -11.181  1.00  0.00    +0.000 C 
ATOM     30  N6  UNL A   1      10.126  -4.027 -11.894  1.00  0.00    +0.000 N 
ATOM     31  C22 UNL A   1       9.497  -5.058 -11.204  1.00  0.00    +0.000 C 
ATOM     32  C23 UNL A   1       9.051  -6.167 -11.858  1.00  0.00    +0.000 C 
ATOM     44  C30 UNL A   1       9.635  -6.255 -13.174  1.00  0.00    +0.000 C 
ATOM     45  C31 UNL A   1      10.923  -6.402 -13.650  1.00  0.00    +0.000 C 
ATOM     46  C32 UNL A   1      10.993  -5.549 -14.791  1.00  0.00    +0.000 C 
ATOM     47  C33 UNL A   1       9.727  -4.996 -14.995  1.00  0.00    +0.000 C 
ATOM     48  N7  UNL A   1       8.899  -5.782 -14.233  1.00  0.00    +0.000 N 
ATOM     49  C34 UNL A   1       9.275  -3.838 -15.732  1.00  0.00    +0.000 C 
ATOM     61  C41 UNL A   1       8.088  -3.196 -15.524  1.00  0.00    +0.000 C 
ATOM     62  N8  UNL A   1       7.886  -1.896 -15.968  1.00  0.00    +0.000 N 
ATOM     63  C42 UNL A   1       6.982  -1.405 -15.161  1.00  0.00    +0.000 C 
ATOM     64  C43 UNL A   1       7.052  -0.023 -14.614  1.00  0.00    +0.000 C 
ATOM     76  C50 UNL A   1       8.148   0.017 -13.816  1.00  0.00    +0.000 C 
ATOM     77  C51 UNL A   1       8.911   1.141 -13.328  1.00  0.00    +0.000 C 
ATOM     78  C52 UNL A   1       9.930   0.664 -12.585  1.00  0.00    +0.000 C 
ATOM     79  C53 UNL A   1       9.777  -0.786 -12.391  1.00  0.00    +0.000 C 
ATOM     80  N9  UNL A   1       8.761  -1.122 -13.249  1.00  0.00    +0.000 N 
ATOM     81  C54 UNL A   1       6.215  -2.382 -14.405  1.00  0.00    +0.000 C 
ATOM     82  C55 UNL A   1       6.997  -3.451 -14.585  1.00  0.00    +0.000 C 
ATOM     83  C56 UNL A   1       9.221  -4.550  -9.886  1.00  0.00    +0.000 C 
ATOM     84  C57 UNL A   1       9.376  -3.225  -9.854  1.00  0.00    +0.000 C 
ATOM    112  H22 UNL A   1      11.671  -6.999 -13.264  1.00  0.00    +0.000 H 
ATOM    113  H23 UNL A   1      11.832  -5.371 -15.365  1.00  0.00    +0.000 H 
ATOM    114  H24 UNL A   1       7.950  -5.971 -14.413  1.00  0.00    +0.000 H 
ATOM    115  H25 UNL A   1       8.710   2.136 -13.514  1.00  0.00    +0.000 H 
ATOM    116  H26 UNL A   1      10.705   1.233 -12.209  1.00  0.00    +0.000 H 
ATOM    117  H27 UNL A   1       8.490  -2.048 -13.446  1.00  0.00    +0.000 H 
ATOM    118  H28 UNL A   1       5.329  -2.280 -13.885  1.00  0.00    +0.000 H 
ATOM    119  H29 UNL A   1       6.847  -4.356 -14.112  1.00  0.00    +0.000 H 
ATOM    120  H30 UNL A   1       8.941  -5.130  -9.079  1.00  0.00    +0.000 H 
ATOM    121  H31 UNL A   1       9.150  -2.560  -9.098  1.00  0.00    +0.000 H 
ENDROOT
BRANCH   28   27
ATOM    122  H32 UNL A   1       9.991   0.376  -9.875  1.00  0.00    +0.000 H 
ATOM     27  C19 UNL A   1      11.385  -1.044 -10.573  1.00  0.00    +0.000 C 
ATOM    110  H20 UNL A   1      14.399  -1.469  -9.179  1.00  0.00    +0.000 H 
ATOM    111  H21 UNL A   1      12.939  -2.457 -10.883  1.00  0.00    +0.000 H 
ATOM     85  C58 UNL A   1      10.981   0.084  -9.880  1.00  0.00    +0.000 C 
ATOM     86  C59 UNL A   1      11.921   0.797  -9.206  1.00  0.00    +0.000 C 
ATOM     24  C16 UNL A   1      13.107   0.178  -8.838  1.00  0.00    +0.000 C 
ATOM     25  C17 UNL A   1      13.500  -1.027  -9.428  1.00  0.00    +0.000 C 
ATOM     26  C18 UNL A   1      12.648  -1.616 -10.360  1.00  0.00    +0.000 C 
ATOM    123  H33 UNL A   1      11.755   1.788  -8.970  1.00  0.00    +0.000 H 
BRANCH   24   22
ATOM     22  C15 UNL A   1      13.870   0.836  -7.763  1.00  0.00    +0.000 C 
ATOM     23  O3  UNL A   1      15.085   0.831  -7.769  1.00  0.00    +0.000 O 
BRANCH   22   21
ATOM    109  H19 UNL A   1      13.605   2.207  -6.294  1.00  0.00    +0.000 H 
ATOM     21  N5  UNL A   1      13.146   1.474  -6.763  1.00  0.00    +0.000 N 
BRANCH   21   20
ATOM    108  H18 UNL A   1      11.741   0.157  -6.018  1.00  0.00    +0.000 H 
ATOM    107  H17 UNL A   1      11.107   1.365  -7.142  1.00  0.00    +0.000 H 
ATOM     20  C14 UNL A   1      11.775   1.181  -6.327  1.00  0.00    +0.000 C 
BRANCH   20   19
ATOM    105  H15 UNL A   1      10.392   1.703  -4.811  1.00  0.00    +0.000 H 
ATOM    106  H16 UNL A   1      12.098   1.928  -4.388  1.00  0.00    +0.000 H 
ATOM     19  C13 UNL A   1      11.352   2.036  -5.147  1.00  0.00    +0.000 C 
BRANCH   19   18
ATOM     18  C12 UNL A   1      11.259   3.530  -5.492  1.00  0.00    +0.000 C 
ATOM    103  H13 UNL A   1      11.134   4.070  -4.577  1.00  0.00    +0.000 H 
ATOM    104  H14 UNL A   1      12.162   3.760  -6.018  1.00  0.00    +0.000 H 
BRANCH   18   17
ATOM     17  C11 UNL A   1      10.116   3.937  -6.439  1.00  0.00    +0.000 C 
ATOM    101  H11 UNL A   1      10.094   5.005  -6.490  1.00  0.00    +0.000 H 
ATOM    102  H12 UNL A   1      10.326   3.465  -7.376  1.00  0.00    +0.000 H 
BRANCH   17   16
ATOM     99  H9  UNL A   1       8.005   3.836  -6.728  1.00  0.00    +0.000 H 
ATOM    100  H10 UNL A   1       8.739   2.384  -6.021  1.00  0.00    +0.000 H 
ATOM     16  C10 UNL A   1       8.718   3.454  -6.027  1.00  0.00    +0.000 C 
BRANCH   16   15
ATOM     97  H7  UNL A   1       7.512   3.299  -4.268  1.00  0.00    +0.000 H 
ATOM     98  H8  UNL A   1       9.157   3.822  -3.969  1.00  0.00    +0.000 H 
ATOM     15  C9  UNL A   1       8.314   3.911  -4.623  1.00  0.00    +0.000 C 
BRANCH   15   14
ATOM     14  N4  UNL A   1       7.882   5.296  -4.656  1.00  0.00    +0.000 N 
ATOM     96  H6  UNL A   1       8.628   5.938  -4.689  1.00  0.00    +0.000 H 
BRANCH   14   12
ATOM     12  C8  UNL A   1       6.648   5.894  -4.650  1.00  0.00    +0.000 C 
ATOM     13  O2  UNL A   1       6.607   7.120  -4.757  1.00  0.00    +0.000 O 
BRANCH   12   11
ATOM      8  C4  UNL A   1       3.092   3.793  -3.579  1.00  0.00    +0.000 C 
ATOM      9  C5  UNL A   1       3.159   5.174  -3.407  1.00  0.00    +0.000 C 
ATOM     10  C6  UNL A   1       4.326   5.838  -3.800  1.00  0.00    +0.000 C 
ATOM     11  C7  UNL A   1       5.381   5.144  -4.421  1.00  0.00    +0.000 C 
ATOM     87  C60 UNL A   1       5.196   3.802  -4.756  1.00  0.00    +0.000 C 
ATOM     88  C61 UNL A   1       4.086   3.107  -4.282  1.00  0.00    +0.000 C 
ATOM    124  H34 UNL A   1       5.884   3.322  -5.358  1.00  0.00    +0.000 H 
ATOM    125  H35 UNL A   1       3.997   2.092  -4.449  1.00  0.00    +0.000 H 
ATOM     94  H4  UNL A   1       2.367   5.695  -3.000  1.00  0.00    +0.000 H 
ATOM     95  H5  UNL A   1       4.414   6.852  -3.632  1.00  0.00    +0.000 H 
BRANCH    8    7
ATOM      4  C3  UNL A   1       0.869   1.468  -2.098  1.00  0.00    +0.000 C 
ATOM      5  N1  UNL A   1       0.049   2.267  -2.861  1.00  0.00    +0.000 N 
ATOM      6  N2  UNL A   1       0.759   3.293  -3.311  1.00  0.00    +0.000 N 
ATOM      7  N3  UNL A   1       2.044   3.061  -2.998  1.00  0.00    +0.000 N 
ATOM     89  C62 UNL A   1       2.149   2.002  -2.111  1.00  0.00    +0.000 C 
BRANCH    4    2
ATOM      2  C2  UNL A   1       0.348   0.286  -1.421  1.00  0.00    +0.000 C 
ATOM      3  O1  UNL A   1      -0.437  -0.479  -1.981  1.00  0.00    +0.000 O 
BRANCH    2    1
ATOM      1  C1  UNL A   1       0.788   0.003  -0.009  1.00  0.00    +0.000 C 
ATOM     91  H1  UNL A   1       0.318  -0.893   0.339  1.00  0.00    +0.000 H 
ATOM     92  H2  UNL A   1       0.508   0.820   0.623  1.00  0.00    +0.000 H 
ATOM     93  H3  UNL A   1       1.851  -0.119   0.016  1.00  0.00    +0.000 H 
ENDBRANCH    2    1
ENDBRANCH    4    2
BRANCH   89   90
ATOM     90  C63 UNL A   1       3.415   1.679  -1.409  1.00  0.00    +0.000 C 
ATOM    126  H36 UNL A   1       3.266   0.828  -0.778  1.00  0.00    +0.000 H 
ATOM    127  H37 UNL A   1       3.716   2.516  -0.814  1.00  0.00    +0.000 H 
ATOM    128  H38 UNL A   1       4.176   1.460  -2.129  1.00  0.00    +0.000 H 
ENDBRANCH   89   90
ENDBRANCH    8    7
ENDBRANCH   12   11
ENDBRANCH   14   12
ENDBRANCH   15   14
ENDBRANCH   16   15
ENDBRANCH   17   16
ENDBRANCH   18   17
ENDBRANCH   19   18
ENDBRANCH   20   19
ENDBRANCH   21   20
ENDBRANCH   22   21
ENDBRANCH   24   22
ENDBRANCH   28   27
BRANCH   32   33
ATOM     33  C24 UNL A   1       7.838  -6.973 -11.467  1.00  0.00    +0.000 C 
ATOM     34  C25 UNL A   1       7.566  -8.174 -12.153  1.00  0.00    +0.000 C 
ATOM     35  F1  UNL A   1       8.492  -8.731 -12.949  1.00  0.00    +0.000 F 
ATOM     36  C26 UNL A   1       6.310  -8.784 -12.107  1.00  0.00    +0.000 C 
ATOM     37  F2  UNL A   1       6.062  -9.854 -12.876  1.00  0.00    +0.000 F 
ATOM     38  C27 UNL A   1       5.300  -8.253 -11.328  1.00  0.00    +0.000 C 
ATOM     39  F3  UNL A   1       4.078  -8.799 -11.331  1.00  0.00    +0.000 F 
ATOM     40  C28 UNL A   1       5.550  -7.122 -10.580  1.00  0.00    +0.000 C 
ATOM     41  F4  UNL A   1       4.580  -6.584  -9.828  1.00  0.00    +0.000 F 
ATOM     42  C29 UNL A   1       6.785  -6.482 -10.665  1.00  0.00    +0.000 C 
ATOM     43  F5  UNL A   1       6.863  -5.313 -10.019  1.00  0.00    +0.000 F 
ENDBRANCH   32   33
BRANCH   49   50
ATOM     50  C35 UNL A   1      10.284  -3.175 -16.634  1.00  0.00    +0.000 C 
ATOM     51  C36 UNL A   1      10.909  -1.948 -16.348  1.00  0.00    +0.000 C 
ATOM     52  F6  UNL A   1      10.585  -1.254 -15.251  1.00  0.00    +0.000 F 
ATOM     53  C37 UNL A   1      11.926  -1.441 -17.157  1.00  0.00    +0.000 C 
ATOM     54  F7  UNL A   1      12.499  -0.265 -16.860  1.00  0.00    +0.000 F 
ATOM     55  C38 UNL A   1      12.372  -2.170 -18.245  1.00  0.00    +0.000 C 
ATOM     56  F8  UNL A   1      13.378  -1.707 -19.000  1.00  0.00    +0.000 F 
ATOM     57  C39 UNL A   1      11.792  -3.395 -18.534  1.00  0.00    +0.000 C 
ATOM     58  F9  UNL A   1      12.253  -4.128 -19.556  1.00  0.00    +0.000 F 
ATOM     59  C40 UNL A   1      10.753  -3.885 -17.746  1.00  0.00    +0.000 C 
ATOM     60  F10 UNL A   1      10.236  -5.088 -18.039  1.00  0.00    +0.000 F 
ENDBRANCH   49   50
BRANCH   64   65
ATOM     65  C44 UNL A   1       5.909   0.917 -14.643  1.00  0.00    +0.000 C 
ATOM     66  C45 UNL A   1       5.022   0.958 -15.731  1.00  0.00    +0.000 C 
ATOM     67  F11 UNL A   1       5.316   0.301 -16.862  1.00  0.00    +0.000 F 
ATOM     68  C46 UNL A   1       3.790   1.617 -15.648  1.00  0.00    +0.000 C 
ATOM     69  F12 UNL A   1       2.945   1.589 -16.688  1.00  0.00    +0.000 F 
ATOM     70  C47 UNL A   1       3.412   2.252 -14.476  1.00  0.00    +0.000 C 
ATOM     71  F13 UNL A   1       2.206   2.829 -14.375  1.00  0.00    +0.000 F 
ATOM     72  C48 UNL A   1       4.272   2.249 -13.394  1.00  0.00    +0.000 C 
ATOM     73  F14 UNL A   1       3.902   2.824 -12.241  1.00  0.00    +0.000 F 
ATOM     74  C49 UNL A   1       5.501   1.592 -13.476  1.00  0.00    +0.000 C 
ATOM     75  F15 UNL A   1       6.247   1.545 -12.362  1.00  0.00    +0.000 F 
ENDBRANCH   64   65
TORSDOF 19