ROOT
ATOM    140  H40 UNL A   1      -3.895  11.454  14.556  1.00  0.00    +0.000 H 
ATOM    141  H41 UNL A   1      -4.583  11.707  17.059  1.00  0.00    +0.000 H 
ATOM    142  H42 UNL A   1      -6.724   8.558  15.431  1.00  0.00    +0.000 H 
ATOM    143  H43 UNL A   1     -10.986   3.855  16.090  1.00  0.00    +0.000 H 
ATOM    144  H44 UNL A   1     -10.390   3.674  13.626  1.00  0.00    +0.000 H 
ATOM    145  H45 UNL A   1      -8.196   6.816  15.238  1.00  0.00    +0.000 H 
ATOM    146  H46 UNL A   1      -9.568   7.124  20.068  1.00  0.00    +0.000 H 
ATOM    147  H47 UNL A   1      -8.105   9.219  20.220  1.00  0.00    +0.000 H 
ATOM    148  H48 UNL A   1      -5.341   8.099  10.633  1.00  0.00    +0.000 H 
ATOM    149  H49 UNL A   1      -7.169   6.334  10.317  1.00  0.00    +0.000 H 
ATOM     38  C31 UNL A   1      -8.501   5.614  12.733  1.00  0.00    +0.000 C 
ATOM     39  C32 UNL A   1      -7.466   6.688  12.538  1.00  0.00    +0.000 C 
ATOM     40  N4  UNL A   1      -6.958   7.520  13.414  1.00  0.00    +0.000 N 
ATOM     41  C33 UNL A   1      -6.010   8.264  12.725  1.00  0.00    +0.000 C 
ATOM     42  C34 UNL A   1      -5.236   9.279  13.180  1.00  0.00    +0.000 C 
ATOM     54  C41 UNL A   1      -5.288   9.807  14.517  1.00  0.00    +0.000 C 
ATOM     55  C42 UNL A   1      -4.581  10.869  15.056  1.00  0.00    +0.000 C 
ATOM     56  C43 UNL A   1      -4.958  11.011  16.397  1.00  0.00    +0.000 C 
ATOM     57  C44 UNL A   1      -5.920  10.056  16.682  1.00  0.00    +0.000 C 
ATOM     58  N5  UNL A   1      -6.104   9.318  15.524  1.00  0.00    +0.000 N 
ATOM     59  C45 UNL A   1      -6.626   9.834  17.916  1.00  0.00    +0.000 C 
ATOM     71  C52 UNL A   1      -7.521   8.840  18.131  1.00  0.00    +0.000 C 
ATOM     72  N6  UNL A   1      -7.961   7.858  17.254  1.00  0.00    +0.000 N 
ATOM     73  C53 UNL A   1      -8.811   7.126  17.931  1.00  0.00    +0.000 C 
ATOM     74  C54 UNL A   1      -9.619   5.944  17.473  1.00  0.00    +0.000 C 
ATOM     86  C61 UNL A   1      -9.557   5.557  16.185  1.00  0.00    +0.000 C 
ATOM     87  C62 UNL A   1     -10.316   4.461  15.590  1.00  0.00    +0.000 C 
ATOM     88  C63 UNL A   1     -10.005   4.367  14.286  1.00  0.00    +0.000 C 
ATOM     89  C64 UNL A   1      -9.031   5.407  13.953  1.00  0.00    +0.000 C 
ATOM     90  N7  UNL A   1      -8.819   6.060  15.142  1.00  0.00    +0.000 N 
ATOM     91  C65 UNL A   1      -8.988   7.549  19.328  1.00  0.00    +0.000 C 
ATOM     92  C66 UNL A   1      -8.209   8.619  19.386  1.00  0.00    +0.000 C 
ATOM     93  C67 UNL A   1      -5.989   7.768  11.365  1.00  0.00    +0.000 C 
ATOM     94  C68 UNL A   1      -6.910   6.832  11.183  1.00  0.00    +0.000 C 
ENDROOT
BRANCH   38   37
ATOM     34  C27 UNL A   1      -9.656   3.213   9.363  1.00  0.00    +0.000 C 
ATOM     35  C28 UNL A   1     -10.566   4.114   9.930  1.00  0.00    +0.000 C 
ATOM     36  C29 UNL A   1     -10.195   4.890  11.031  1.00  0.00    +0.000 C 
ATOM     37  C30 UNL A   1      -8.915   4.760  11.591  1.00  0.00    +0.000 C 
ATOM    138  H38 UNL A   1     -11.515   4.204   9.534  1.00  0.00    +0.000 H 
ATOM    139  H39 UNL A   1     -10.866   5.563  11.434  1.00  0.00    +0.000 H 
ATOM    150  H50 UNL A   1      -7.080   3.719  11.450  1.00  0.00    +0.000 H 
ATOM    151  H51 UNL A   1      -7.676   2.483   9.450  1.00  0.00    +0.000 H 
ATOM     95  C69 UNL A   1      -8.013   3.846  11.027  1.00  0.00    +0.000 C 
ATOM     96  C70 UNL A   1      -8.367   3.108   9.895  1.00  0.00    +0.000 C 
BRANCH   34   32
ATOM     33  O4  UNL A   1     -10.781   3.042   7.314  1.00  0.00    +0.000 O 
ATOM     32  C26 UNL A   1     -10.064   2.481   8.140  1.00  0.00    +0.000 C 
BRANCH   32   31
ATOM    137  H37 UNL A   1      -9.755   0.890   6.973  1.00  0.00    +0.000 H 
ATOM     31  N3  UNL A   1      -9.652   1.195   7.903  1.00  0.00    +0.000 N 
BRANCH   31   30
ATOM     30  C25 UNL A   1      -9.085   0.212   8.809  1.00  0.00    +0.000 C 
ATOM    135  H35 UNL A   1      -8.106  -0.051   8.466  1.00  0.00    +0.000 H 
ATOM    136  H36 UNL A   1      -9.048   0.647   9.787  1.00  0.00    +0.000 H 
BRANCH   30   29
ATOM    133  H33 UNL A   1      -9.503  -1.700   9.622  1.00  0.00    +0.000 H 
ATOM     29  C24 UNL A   1      -9.938  -1.054   8.888  1.00  0.00    +0.000 C 
ATOM    134  H34 UNL A   1     -10.927  -0.728   9.133  1.00  0.00    +0.000 H 
BRANCH   29   28
ATOM    131  H31 UNL A   1     -10.668  -2.704   7.773  1.00  0.00    +0.000 H 
ATOM     28  C23 UNL A   1     -10.064  -1.843   7.579  1.00  0.00    +0.000 C 
ATOM    132  H32 UNL A   1     -10.488  -1.161   6.871  1.00  0.00    +0.000 H 
BRANCH   28   27
ATOM    129  H29 UNL A   1      -8.987  -2.946   6.117  1.00  0.00    +0.000 H 
ATOM    130  H30 UNL A   1      -8.206  -1.438   6.691  1.00  0.00    +0.000 H 
ATOM     27  C22 UNL A   1      -8.748  -2.323   6.954  1.00  0.00    +0.000 C 
BRANCH   27   26
ATOM     26  C21 UNL A   1      -7.827  -3.119   7.886  1.00  0.00    +0.000 C 
ATOM    127  H27 UNL A   1      -6.920  -3.332   7.362  1.00  0.00    +0.000 H 
ATOM    128  H28 UNL A   1      -7.670  -2.514   8.755  1.00  0.00    +0.000 H 
BRANCH   26   25
ATOM     25  C20 UNL A   1      -8.424  -4.441   8.372  1.00  0.00    +0.000 C 
ATOM    125  H25 UNL A   1      -7.998  -4.682   9.324  1.00  0.00    +0.000 H 
ATOM    126  H26 UNL A   1      -9.484  -4.319   8.441  1.00  0.00    +0.000 H 
BRANCH   25   24
ATOM    124  H24 UNL A   1      -8.786  -5.588   6.697  1.00  0.00    +0.000 H 
ATOM     24  N2  UNL A   1      -8.157  -5.527   7.452  1.00  0.00    +0.000 N 
BRANCH   24   22
ATOM     22  C19 UNL A   1      -7.184  -6.478   7.458  1.00  0.00    +0.000 C 
ATOM     23  O3  UNL A   1      -7.059  -7.151   6.428  1.00  0.00    +0.000 O 
BRANCH   22   20
ATOM     20  C17 UNL A   1      -6.271  -6.744   8.664  1.00  0.00    +0.000 C 
ATOM    120  H20 UNL A   1      -5.755  -7.657   8.453  1.00  0.00    +0.000 H 
BRANCH   20   19
ATOM     97  C71 UNL A   1      -3.992  -5.912   8.014  1.00  0.00    +0.000 C 
ATOM     98  C72 UNL A   1      -2.941  -4.995   8.066  1.00  0.00    +0.000 C 
ATOM     99  F16 UNL A   1      -1.853  -5.268   7.328  1.00  0.00    +0.000 F 
ATOM     16  C13 UNL A   1      -2.996  -3.837   8.860  1.00  0.00    +0.000 C 
ATOM     17  C14 UNL A   1      -4.148  -3.674   9.647  1.00  0.00    +0.000 C 
ATOM     18  C15 UNL A   1      -5.190  -4.614   9.631  1.00  0.00    +0.000 C 
ATOM     19  C16 UNL A   1      -5.143  -5.734   8.793  1.00  0.00    +0.000 C 
ATOM    118  H18 UNL A   1      -4.230  -2.841  10.251  1.00  0.00    +0.000 H 
ATOM    119  H19 UNL A   1      -6.006  -4.478  10.249  1.00  0.00    +0.000 H 
ATOM    152  H52 UNL A   1      -3.920  -6.733   7.394  1.00  0.00    +0.000 H 
BRANCH   16   15
ATOM    100  C73 UNL A   1      -1.177  -2.535   7.708  1.00  0.00    +0.000 C 
ATOM     11  C8  UNL A   1      -0.056  -1.698   7.729  1.00  0.00    +0.000 C 
ATOM     12  C9  UNL A   1       0.336  -1.111   8.932  1.00  0.00    +0.000 C 
ATOM     13  C10 UNL A   1      -0.399  -1.343  10.092  1.00  0.00    +0.000 C 
ATOM     14  C11 UNL A   1      -1.494  -2.211  10.068  1.00  0.00    +0.000 C 
ATOM     15  C12 UNL A   1      -1.895  -2.846   8.879  1.00  0.00    +0.000 C 
ATOM    115  H15 UNL A   1       1.170  -0.505   8.962  1.00  0.00    +0.000 H 
ATOM    116  H16 UNL A   1      -0.133  -0.873  10.972  1.00  0.00    +0.000 H 
ATOM    117  H17 UNL A   1      -2.019  -2.389  10.938  1.00  0.00    +0.000 H 
ATOM    153  H53 UNL A   1      -1.486  -2.937   6.809  1.00  0.00    +0.000 H 
BRANCH   11   10
ATOM     10  N1  UNL A   1       0.773  -1.518   6.611  1.00  0.00    +0.000 N 
ATOM    114  H14 UNL A   1       1.672  -1.165   6.800  1.00  0.00    +0.000 H 
BRANCH   10    8
ATOM      9  O2  UNL A   1       1.397  -2.014   4.500  1.00  0.00    +0.000 O 
ATOM      8  C7  UNL A   1       0.500  -1.770   5.293  1.00  0.00    +0.000 C 
BRANCH    8    7
ATOM      7  O1  UNL A   1      -0.807  -1.592   4.968  1.00  0.00    +0.000 O 
BRANCH    7    6
ATOM    113  H13 UNL A   1      -2.198  -2.017   3.540  1.00  0.00    +0.000 H 
ATOM      6  C6  UNL A   1      -1.172  -1.718   3.584  1.00  0.00    +0.000 C 
ATOM    112  H12 UNL A   1      -0.535  -2.446   3.124  1.00  0.00    +0.000 H 
BRANCH    6    5
ATOM      5  C5  UNL A   1      -1.033  -0.393   2.826  1.00  0.00    +0.000 C 
ATOM    110  H10 UNL A   1      -1.612  -0.466   1.929  1.00  0.00    +0.000 H 
ATOM    111  H11 UNL A   1      -1.371   0.364   3.503  1.00  0.00    +0.000 H 
BRANCH    5    4
ATOM    108  H8  UNL A   1       0.348   0.953   1.934  1.00  0.00    +0.000 H 
ATOM      4  C4  UNL A   1       0.395   0.008   2.433  1.00  0.00    +0.000 C 
ATOM    109  H9  UNL A   1       0.958   0.033   3.343  1.00  0.00    +0.000 H 
BRANCH    4    3
ATOM    106  H6  UNL A   1       2.146  -0.685   1.447  1.00  0.00    +0.000 H 
ATOM      3  C3  UNL A   1       1.119  -0.981   1.511  1.00  0.00    +0.000 C 
ATOM    107  H7  UNL A   1       0.984  -1.950   1.944  1.00  0.00    +0.000 H 
BRANCH    3    2
ATOM    105  H5  UNL A   1      -0.503  -1.162   0.167  1.00  0.00    +0.000 H 
ATOM      2  C2  UNL A   1       0.560  -1.066   0.089  1.00  0.00    +0.000 C 
ATOM    104  H4  UNL A   1       1.000  -1.909  -0.401  1.00  0.00    +0.000 H 
BRANCH    2    1
ATOM      1  C1  UNL A   1       0.849   0.180  -0.733  1.00  0.00    +0.000 C 
ATOM    101  H1  UNL A   1       0.436   0.064  -1.714  1.00  0.00    +0.000 H 
ATOM    102  H2  UNL A   1       1.907   0.322  -0.806  1.00  0.00    +0.000 H 
ATOM    103  H3  UNL A   1       0.407   1.031  -0.259  1.00  0.00    +0.000 H 
ENDBRANCH    2    1
ENDBRANCH    3    2
ENDBRANCH    4    3
ENDBRANCH    5    4
ENDBRANCH    6    5
ENDBRANCH    7    6
ENDBRANCH    8    7
ENDBRANCH   10    8
ENDBRANCH   11   10
ENDBRANCH   16   15
ENDBRANCH   20   19
BRANCH   20   21
ATOM    121  H21 UNL A   1      -7.590  -6.261  10.277  1.00  0.00    +0.000 H 
ATOM    122  H22 UNL A   1      -6.315  -7.377  10.707  1.00  0.00    +0.000 H 
ATOM    123  H23 UNL A   1      -7.676  -7.928   9.759  1.00  0.00    +0.000 H 
ATOM     21  C18 UNL A   1      -7.019  -7.104   9.948  1.00  0.00    +0.000 C 
ENDBRANCH   20   21
ENDBRANCH   22   20
ENDBRANCH   24   22
ENDBRANCH   25   24
ENDBRANCH   26   25
ENDBRANCH   27   26
ENDBRANCH   28   27
ENDBRANCH   29   28
ENDBRANCH   30   29
ENDBRANCH   31   30
ENDBRANCH   32   31
ENDBRANCH   34   32
ENDBRANCH   38   37
BRANCH   42   43
ATOM     43  C35 UNL A   1      -4.266   9.894  12.216  1.00  0.00    +0.000 C 
ATOM     44  C36 UNL A   1      -4.695  10.746  11.188  1.00  0.00    +0.000 C 
ATOM     45  F1  UNL A   1      -6.003  10.989  11.015  1.00  0.00    +0.000 F 
ATOM     46  C37 UNL A   1      -3.781  11.325  10.312  1.00  0.00    +0.000 C 
ATOM     47  F2  UNL A   1      -4.215  12.106   9.313  1.00  0.00    +0.000 F 
ATOM     48  C38 UNL A   1      -2.423  11.086  10.464  1.00  0.00    +0.000 C 
ATOM     49  F3  UNL A   1      -1.544  11.649   9.623  1.00  0.00    +0.000 F 
ATOM     50  C39 UNL A   1      -1.976  10.259  11.483  1.00  0.00    +0.000 C 
ATOM     51  F4  UNL A   1      -0.664  10.034  11.636  1.00  0.00    +0.000 F 
ATOM     52  C40 UNL A   1      -2.889   9.660  12.347  1.00  0.00    +0.000 C 
ATOM     53  F5  UNL A   1      -2.429   8.856  13.318  1.00  0.00    +0.000 F 
ENDBRANCH   42   43
BRANCH   59   60
ATOM     65  C49 UNL A   1      -5.875  12.578  21.147  1.00  0.00    +0.000 C 
ATOM     66  F8  UNL A   1      -5.651  13.432  22.155  1.00  0.00    +0.000 F 
ATOM     67  C50 UNL A   1      -6.633  12.975  20.056  1.00  0.00    +0.000 C 
ATOM     68  F9  UNL A   1      -7.130  14.219  20.003  1.00  0.00    +0.000 F 
ATOM     69  C51 UNL A   1      -6.885  12.082  19.019  1.00  0.00    +0.000 C 
ATOM     70  F10 UNL A   1      -7.633  12.487  17.982  1.00  0.00    +0.000 F 
ATOM     60  C46 UNL A   1      -6.368  10.778  19.050  1.00  0.00    +0.000 C 
ATOM     61  C47 UNL A   1      -5.589  10.403  20.154  1.00  0.00    +0.000 C 
ATOM     62  F6  UNL A   1      -5.087   9.161  20.233  1.00  0.00    +0.000 F 
ATOM     63  C48 UNL A   1      -5.357  11.292  21.198  1.00  0.00    +0.000 C 
ATOM     64  F7  UNL A   1      -4.644  10.900  22.264  1.00  0.00    +0.000 F 
ENDBRANCH   59   60
BRANCH   74   75
ATOM     75  C55 UNL A   1     -10.516   5.230  18.415  1.00  0.00    +0.000 C 
ATOM     76  C56 UNL A   1     -11.709   5.820  18.856  1.00  0.00    +0.000 C 
ATOM     77  F11 UNL A   1     -12.041   7.050  18.438  1.00  0.00    +0.000 F 
ATOM     78  C57 UNL A   1     -12.541   5.165  19.760  1.00  0.00    +0.000 C 
ATOM     79  F12 UNL A   1     -13.655   5.767  20.198  1.00  0.00    +0.000 F 
ATOM     80  C58 UNL A   1     -12.210   3.899  20.220  1.00  0.00    +0.000 C 
ATOM     81  F13 UNL A   1     -13.011   3.269  21.090  1.00  0.00    +0.000 F 
ATOM     82  C59 UNL A   1     -11.043   3.290  19.782  1.00  0.00    +0.000 C 
ATOM     83  F14 UNL A   1     -10.725   2.063  20.217  1.00  0.00    +0.000 F 
ATOM     84  C60 UNL A   1     -10.198   3.953  18.895  1.00  0.00    +0.000 C 
ATOM     85  F15 UNL A   1      -9.070   3.347  18.497  1.00  0.00    +0.000 F 
ENDBRANCH   74   75
TORSDOF 27