ROOT
ATOM    129  H38 UNL A   1       5.537  -2.821  -3.814  1.00  0.00    +0.000 H 
ATOM     33  C27 UNL A   1       5.319  -4.804  -1.770  1.00  0.00    +0.000 C 
ATOM     34  C28 UNL A   1       6.042  -4.907  -3.081  1.00  0.00    +0.000 C 
ATOM     35  N4  UNL A   1       6.729  -5.912  -3.563  1.00  0.00    +0.000 N 
ATOM     36  C29 UNL A   1       7.171  -5.506  -4.815  1.00  0.00    +0.000 C 
ATOM     37  C30 UNL A   1       7.937  -6.192  -5.697  1.00  0.00    +0.000 C 
ATOM     49  C37 UNL A   1       8.456  -7.516  -5.466  1.00  0.00    +0.000 C 
ATOM     50  C38 UNL A   1       9.291  -8.269  -6.274  1.00  0.00    +0.000 C 
ATOM     51  C39 UNL A   1       9.487  -9.513  -5.666  1.00  0.00    +0.000 C 
ATOM     52  C40 UNL A   1       8.811  -9.520  -4.457  1.00  0.00    +0.000 C 
ATOM     53  N5  UNL A   1       8.184  -8.289  -4.346  1.00  0.00    +0.000 N 
ATOM     54  C41 UNL A   1       8.737 -10.574  -3.479  1.00  0.00    +0.000 C 
ATOM     66  C48 UNL A   1       8.093 -10.490  -2.290  1.00  0.00    +0.000 C 
ATOM     67  N6  UNL A   1       7.373  -9.429  -1.762  1.00  0.00    +0.000 N 
ATOM     68  C49 UNL A   1       6.917  -9.846  -0.606  1.00  0.00    +0.000 C 
ATOM     69  C50 UNL A   1       6.081  -9.111   0.400  1.00  0.00    +0.000 C 
ATOM     81  C57 UNL A   1       5.701  -7.848   0.133  1.00  0.00    +0.000 C 
ATOM     82  C58 UNL A   1       4.883  -7.015   1.006  1.00  0.00    +0.000 C 
ATOM     83  C59 UNL A   1       4.636  -5.852   0.389  1.00  0.00    +0.000 C 
ATOM     84  C60 UNL A   1       5.327  -5.836  -0.903  1.00  0.00    +0.000 C 
ATOM     85  N7  UNL A   1       5.939  -7.061  -0.967  1.00  0.00    +0.000 N 
ATOM     86  C61 UNL A   1       7.288 -11.227  -0.274  1.00  0.00    +0.000 C 
ATOM     87  C62 UNL A   1       8.035 -11.561  -1.316  1.00  0.00    +0.000 C 
ATOM     88  C63 UNL A   1       6.663  -4.168  -5.028  1.00  0.00    +0.000 C 
ATOM     89  C64 UNL A   1       5.986  -3.737  -3.971  1.00  0.00    +0.000 C 
ATOM    120  H29 UNL A   1       9.700  -7.964  -7.172  1.00  0.00    +0.000 H 
ATOM    121  H30 UNL A   1      10.041 -10.293  -6.053  1.00  0.00    +0.000 H 
ATOM    122  H31 UNL A   1       7.628  -8.005  -3.585  1.00  0.00    +0.000 H 
ATOM    123  H32 UNL A   1       4.550  -7.279   1.947  1.00  0.00    +0.000 H 
ATOM    124  H33 UNL A   1       4.050  -5.089   0.763  1.00  0.00    +0.000 H 
ATOM    125  H34 UNL A   1       6.494  -7.348  -1.728  1.00  0.00    +0.000 H 
ATOM    126  H35 UNL A   1       7.034 -11.789   0.554  1.00  0.00    +0.000 H 
ATOM    127  H36 UNL A   1       8.515 -12.469  -1.421  1.00  0.00    +0.000 H 
ATOM    128  H37 UNL A   1       6.808  -3.619  -5.891  1.00  0.00    +0.000 H 
ENDROOT
BRANCH   33   32
ATOM    130  H39 UNL A   1       3.055  -3.741  -2.828  1.00  0.00    +0.000 H 
ATOM    131  H40 UNL A   1       1.837  -1.776  -2.082  1.00  0.00    +0.000 H 
ATOM    118  H27 UNL A   1       4.588  -1.271   1.063  1.00  0.00    +0.000 H 
ATOM    119  H28 UNL A   1       5.934  -3.079   0.177  1.00  0.00    +0.000 H 
ATOM     90  C65 UNL A   1       3.404  -3.191  -2.027  1.00  0.00    +0.000 C 
ATOM     91  C66 UNL A   1       2.695  -2.069  -1.590  1.00  0.00    +0.000 C 
ATOM     29  C23 UNL A   1       3.151  -1.346  -0.484  1.00  0.00    +0.000 C 
ATOM     30  C24 UNL A   1       4.297  -1.759   0.202  1.00  0.00    +0.000 C 
ATOM     31  C25 UNL A   1       5.043  -2.829  -0.279  1.00  0.00    +0.000 C 
ATOM     32  C26 UNL A   1       4.591  -3.571  -1.382  1.00  0.00    +0.000 C 
BRANCH   29    2
ATOM      1  O1  UNL A   1       1.166  -0.198   0.009  1.00  0.00    +0.000 O 
ATOM      2  C1  UNL A   1       2.392  -0.160  -0.034  1.00  0.00    +0.000 C 
BRANCH    2    3
ATOM      3  N1  UNL A   1       3.066   0.982   0.324  1.00  0.00    +0.000 N 
ATOM     92  H1  UNL A   1       2.529   1.669   0.782  1.00  0.00    +0.000 H 
BRANCH    3    4
ATOM      4  C2  UNL A   1       4.466   1.310   0.117  1.00  0.00    +0.000 C 
ATOM     93  H2  UNL A   1       4.915   0.540  -0.476  1.00  0.00    +0.000 H 
ATOM     94  H3  UNL A   1       4.931   1.385   1.077  1.00  0.00    +0.000 H 
BRANCH    4    5
ATOM      5  C3  UNL A   1       4.646   2.644  -0.595  1.00  0.00    +0.000 C 
ATOM     95  H4  UNL A   1       4.057   2.629  -1.487  1.00  0.00    +0.000 H 
ATOM     96  H5  UNL A   1       5.694   2.747  -0.786  1.00  0.00    +0.000 H 
BRANCH    5    6
ATOM     97  H6  UNL A   1       3.188   3.782   0.441  1.00  0.00    +0.000 H 
ATOM     98  H7  UNL A   1       4.485   4.720  -0.359  1.00  0.00    +0.000 H 
ATOM      6  C4  UNL A   1       4.233   3.864   0.230  1.00  0.00    +0.000 C 
BRANCH    6    7
ATOM     99  H8  UNL A   1       4.674   3.233   2.209  1.00  0.00    +0.000 H 
ATOM    100  H9  UNL A   1       4.710   5.002   1.926  1.00  0.00    +0.000 H 
ATOM      7  C5  UNL A   1       4.974   4.031   1.562  1.00  0.00    +0.000 C 
BRANCH    7    8
ATOM    101  H10 UNL A   1       6.813   3.045   1.140  1.00  0.00    +0.000 H 
ATOM    102  H11 UNL A   1       6.875   4.259   2.445  1.00  0.00    +0.000 H 
ATOM      8  C6  UNL A   1       6.506   4.016   1.470  1.00  0.00    +0.000 C 
BRANCH    8    9
ATOM      9  C7  UNL A   1       7.089   5.053   0.510  1.00  0.00    +0.000 C 
ATOM    103  H12 UNL A   1       6.665   4.907  -0.462  1.00  0.00    +0.000 H 
ATOM    104  H13 UNL A   1       8.151   4.929   0.479  1.00  0.00    +0.000 H 
BRANCH    9   10
ATOM    105  H14 UNL A   1       5.865   6.689   0.826  1.00  0.00    +0.000 H 
ATOM     10  N2  UNL A   1       6.796   6.399   0.956  1.00  0.00    +0.000 N 
BRANCH   10   11
ATOM     11  C8  UNL A   1       7.619   7.326   1.532  1.00  0.00    +0.000 C 
ATOM     12  O2  UNL A   1       7.095   8.364   1.935  1.00  0.00    +0.000 O 
BRANCH   11   13
ATOM    106  H15 UNL A   1       9.349   6.731   0.615  1.00  0.00    +0.000 H 
ATOM    107  H16 UNL A   1       9.531   4.984   2.227  1.00  0.00    +0.000 H 
ATOM    108  H17 UNL A   1       8.670   5.879   3.422  1.00  0.00    +0.000 H 
ATOM     13  C9  UNL A   1       9.114   7.022   1.618  1.00  0.00    +0.000 C 
ATOM     14  C10 UNL A   1       9.443   5.948   2.685  1.00  0.00    +0.000 C 
ATOM     15  C11 UNL A   1      10.782   6.366   3.310  1.00  0.00    +0.000 C 
ATOM     16  N3  UNL A   1      10.852   7.788   3.027  1.00  0.00    +0.000 N 
ATOM    109  H18 UNL A   1      11.597   5.844   2.855  1.00  0.00    +0.000 H 
ATOM    110  H19 UNL A   1      10.844   6.143   4.355  1.00  0.00    +0.000 H 
ATOM     17  C12 UNL A   1      11.570   8.846   3.496  1.00  0.00    +0.000 C 
ATOM    116  H25 UNL A   1      11.358  10.928   2.949  1.00  0.00    +0.000 H 
ATOM    117  H26 UNL A   1       9.459  10.121   1.303  1.00  0.00    +0.000 H 
ATOM     26  C20 UNL A   1      11.046   9.953   2.823  1.00  0.00    +0.000 C 
ATOM     27  C21 UNL A   1      10.018   9.530   1.938  1.00  0.00    +0.000 C 
ATOM     28  C22 UNL A   1       9.922   8.176   2.104  1.00  0.00    +0.000 C 
BRANCH   17   18
ATOM     18  C13 UNL A   1      12.610   8.892   4.512  1.00  0.00    +0.000 C 
ATOM     19  O3  UNL A   1      12.993   9.940   5.029  1.00  0.00    +0.000 O 
BRANCH   18   20
ATOM    111  H20 UNL A   1      12.827   8.065   7.023  1.00  0.00    +0.000 H 
ATOM    112  H21 UNL A   1      13.873   6.044   7.869  1.00  0.00    +0.000 H 
ATOM    113  H22 UNL A   1      14.908   4.480   6.330  1.00  0.00    +0.000 H 
ATOM    114  H23 UNL A   1      14.944   4.952   3.951  1.00  0.00    +0.000 H 
ATOM    115  H24 UNL A   1      13.922   6.987   3.099  1.00  0.00    +0.000 H 
ATOM     20  C14 UNL A   1      13.257   7.653   4.994  1.00  0.00    +0.000 C 
ATOM     21  C15 UNL A   1      13.266   7.398   6.370  1.00  0.00    +0.000 C 
ATOM     22  C16 UNL A   1      13.871   6.239   6.856  1.00  0.00    +0.000 C 
ATOM     23  C17 UNL A   1      14.473   5.344   5.971  1.00  0.00    +0.000 C 
ATOM     24  C18 UNL A   1      14.490   5.613   4.601  1.00  0.00    +0.000 C 
ATOM     25  C19 UNL A   1      13.894   6.776   4.109  1.00  0.00    +0.000 C 
ENDBRANCH   18   20
ENDBRANCH   17   18
ENDBRANCH   11   13
ENDBRANCH   10   11
ENDBRANCH    9   10
ENDBRANCH    8    9
ENDBRANCH    7    8
ENDBRANCH    6    7
ENDBRANCH    5    6
ENDBRANCH    4    5
ENDBRANCH    3    4
ENDBRANCH    2    3
ENDBRANCH   29    2
ENDBRANCH   33   32
BRANCH   37   38
ATOM     38  C31 UNL A   1       8.263  -5.538  -7.007  1.00  0.00    +0.000 C 
ATOM     39  C32 UNL A   1       9.208  -4.507  -7.100  1.00  0.00    +0.000 C 
ATOM     40  F1  UNL A   1       9.778  -4.012  -5.990  1.00  0.00    +0.000 F 
ATOM     41  C33 UNL A   1       9.564  -3.971  -8.335  1.00  0.00    +0.000 C 
ATOM     42  F2  UNL A   1      10.455  -2.971  -8.399  1.00  0.00    +0.000 F 
ATOM     43  C34 UNL A   1       8.999  -4.469  -9.500  1.00  0.00    +0.000 C 
ATOM     44  F3  UNL A   1       9.357  -3.964 -10.689  1.00  0.00    +0.000 F 
ATOM     45  C35 UNL A   1       8.064  -5.490  -9.432  1.00  0.00    +0.000 C 
ATOM     46  F4  UNL A   1       7.527  -5.981 -10.558  1.00  0.00    +0.000 F 
ATOM     47  C36 UNL A   1       7.691  -6.014  -8.197  1.00  0.00    +0.000 C 
ATOM     48  F5  UNL A   1       6.786  -7.004  -8.164  1.00  0.00    +0.000 F 
ENDBRANCH   37   38
BRANCH   54   55
ATOM     65  F10 UNL A   1      11.567 -10.851  -3.456  1.00  0.00    +0.000 F 
ATOM     55  C42 UNL A   1       9.438 -11.864  -3.780  1.00  0.00    +0.000 C 
ATOM     56  C43 UNL A   1       8.723 -13.026  -4.106  1.00  0.00    +0.000 C 
ATOM     57  F6  UNL A   1       7.381 -13.010  -4.120  1.00  0.00    +0.000 F 
ATOM     58  C44 UNL A   1       9.385 -14.220  -4.375  1.00  0.00    +0.000 C 
ATOM     59  F7  UNL A   1       8.680 -15.330  -4.635  1.00  0.00    +0.000 F 
ATOM     60  C45 UNL A   1      10.771 -14.267  -4.355  1.00  0.00    +0.000 C 
ATOM     61  F8  UNL A   1      11.406 -15.418  -4.616  1.00  0.00    +0.000 F 
ATOM     62  C46 UNL A   1      11.498 -13.125  -4.055  1.00  0.00    +0.000 C 
ATOM     63  F9  UNL A   1      12.837 -13.167  -4.045  1.00  0.00    +0.000 F 
ATOM     64  C47 UNL A   1      10.839 -11.936  -3.759  1.00  0.00    +0.000 C 
ENDBRANCH   54   55
BRANCH   69   70
ATOM     70  C51 UNL A   1       5.658  -9.758   1.668  1.00  0.00    +0.000 C 
ATOM     71  C52 UNL A   1       6.588 -10.060   2.671  1.00  0.00    +0.000 C 
ATOM     72  F11 UNL A   1       7.887  -9.783   2.485  1.00  0.00    +0.000 F 
ATOM     73  C53 UNL A   1       6.192 -10.683   3.852  1.00  0.00    +0.000 C 
ATOM     74  F12 UNL A   1       7.108 -11.003   4.777  1.00  0.00    +0.000 F 
ATOM     75  C54 UNL A   1       4.856 -10.986   4.067  1.00  0.00    +0.000 C 
ATOM     76  F13 UNL A   1       4.476 -11.581   5.205  1.00  0.00    +0.000 F 
ATOM     77  C55 UNL A   1       3.915 -10.678   3.096  1.00  0.00    +0.000 C 
ATOM     78  F14 UNL A   1       2.620 -10.954   3.305  1.00  0.00    +0.000 F 
ATOM     79  C56 UNL A   1       4.313 -10.084   1.902  1.00  0.00    +0.000 C 
ATOM     80  F15 UNL A   1       3.384  -9.808   0.975  1.00  0.00    +0.000 F 
ENDBRANCH   69   70
TORSDOF 17