ROOT
ATOM     33  C25 UNL A   1       4.848   3.107  -4.124  1.00  0.00    +0.000 C 
ATOM     34  C26 UNL A   1       5.473   4.432  -3.801  1.00  0.00    +0.000 C 
ATOM     35  N5  UNL A   1       5.967   5.333  -4.613  1.00  0.00    +0.000 N 
ATOM     36  C27 UNL A   1       6.385   6.381  -3.805  1.00  0.00    +0.000 C 
ATOM     37  C28 UNL A   1       6.984   7.540  -4.173  1.00  0.00    +0.000 C 
ATOM     49  C35 UNL A   1       7.310   7.887  -5.532  1.00  0.00    +0.000 C 
ATOM     50  C36 UNL A   1       7.968   9.010  -6.003  1.00  0.00    +0.000 C 
ATOM     51  C37 UNL A   1       8.002   8.944  -7.400  1.00  0.00    +0.000 C 
ATOM     52  C38 UNL A   1       7.410   7.756  -7.798  1.00  0.00    +0.000 C 
ATOM     53  N6  UNL A   1       6.990   7.117  -6.642  1.00  0.00    +0.000 N 
ATOM     54  C39 UNL A   1       7.235   7.245  -9.135  1.00  0.00    +0.000 C 
ATOM     66  C46 UNL A   1       6.667   6.055  -9.448  1.00  0.00    +0.000 C 
ATOM     67  N7  UNL A   1       6.149   5.089  -8.597  1.00  0.00    +0.000 N 
ATOM     68  C47 UNL A   1       5.719   4.122  -9.369  1.00  0.00    +0.000 C 
ATOM     69  C48 UNL A   1       5.080   2.821  -8.981  1.00  0.00    +0.000 C 
ATOM     81  C55 UNL A   1       4.940   2.518  -7.678  1.00  0.00    +0.000 C 
ATOM     82  C56 UNL A   1       4.322   1.301  -7.160  1.00  0.00    +0.000 C 
ATOM     83  C57 UNL A   1       4.221   1.399  -5.827  1.00  0.00    +0.000 C 
ATOM     84  C58 UNL A   1       4.815   2.664  -5.394  1.00  0.00    +0.000 C 
ATOM     85  N8  UNL A   1       5.271   3.236  -6.555  1.00  0.00    +0.000 N 
ATOM     86  C59 UNL A   1       5.895   4.374 -10.806  1.00  0.00    +0.000 C 
ATOM     87  C60 UNL A   1       6.499   5.555 -10.798  1.00  0.00    +0.000 C 
ATOM     88  C61 UNL A   1       6.065   6.016  -2.441  1.00  0.00    +0.000 C 
ATOM     89  C62 UNL A   1       5.541   4.800  -2.380  1.00  0.00    +0.000 C 
ATOM    117  H26 UNL A   1       8.365   9.766  -5.423  1.00  0.00    +0.000 H 
ATOM    118  H27 UNL A   1       8.400   9.659  -8.028  1.00  0.00    +0.000 H 
ATOM    119  H28 UNL A   1       6.533   6.245  -6.612  1.00  0.00    +0.000 H 
ATOM    120  H29 UNL A   1       4.015   0.496  -7.728  1.00  0.00    +0.000 H 
ATOM    121  H30 UNL A   1       3.792   0.696  -5.205  1.00  0.00    +0.000 H 
ATOM    122  H31 UNL A   1       5.784   4.077  -6.581  1.00  0.00    +0.000 H 
ATOM    123  H32 UNL A   1       5.621   3.787 -11.609  1.00  0.00    +0.000 H 
ATOM    124  H33 UNL A   1       6.809   6.055 -11.646  1.00  0.00    +0.000 H 
ATOM    125  H34 UNL A   1       6.225   6.624  -1.622  1.00  0.00    +0.000 H 
ATOM    126  H35 UNL A   1       5.255   4.255  -1.552  1.00  0.00    +0.000 H 
ENDROOT
BRANCH   33   32
ATOM    127  H36 UNL A   1       2.629   3.626  -2.691  1.00  0.00    +0.000 H 
ATOM     32  C24 UNL A   1       4.225   2.286  -3.058  1.00  0.00    +0.000 C 
ATOM    115  H24 UNL A   1       4.509  -0.706  -1.561  1.00  0.00    +0.000 H 
ATOM    116  H25 UNL A   1       5.643   0.719  -3.162  1.00  0.00    +0.000 H 
ATOM     90  C63 UNL A   1       3.053   2.725  -2.421  1.00  0.00    +0.000 C 
ATOM     91  C64 UNL A   1       2.461   1.948  -1.425  1.00  0.00    +0.000 C 
ATOM     29  C21 UNL A   1       3.019   0.714  -1.081  1.00  0.00    +0.000 C 
ATOM     30  C22 UNL A   1       4.144   0.239  -1.762  1.00  0.00    +0.000 C 
ATOM     31  C23 UNL A   1       4.772   1.041  -2.712  1.00  0.00    +0.000 C 
ATOM    128  H37 UNL A   1       1.612   2.284  -0.943  1.00  0.00    +0.000 H 
BRANCH   29    2
ATOM      1  O1  UNL A   1       1.145  -0.173   0.012  1.00  0.00    +0.000 O 
ATOM      2  C1  UNL A   1       2.370  -0.089  -0.023  1.00  0.00    +0.000 C 
BRANCH    2    3
ATOM      3  N1  UNL A   1       3.130  -0.728   0.923  1.00  0.00    +0.000 N 
ATOM     92  H1  UNL A   1       2.649  -1.386   1.475  1.00  0.00    +0.000 H 
BRANCH    3    4
ATOM      4  C2  UNL A   1       4.542  -0.573   1.227  1.00  0.00    +0.000 C 
ATOM     93  H2  UNL A   1       4.955   0.166   0.573  1.00  0.00    +0.000 H 
ATOM     94  H3  UNL A   1       5.011  -1.524   1.090  1.00  0.00    +0.000 H 
BRANCH    4    5
ATOM      5  C3  UNL A   1       4.781  -0.140   2.670  1.00  0.00    +0.000 C 
ATOM     95  H4  UNL A   1       4.268   0.787   2.827  1.00  0.00    +0.000 H 
ATOM     96  H5  UNL A   1       5.842  -0.065   2.787  1.00  0.00    +0.000 H 
BRANCH    5    6
ATOM     97  H6  UNL A   1       3.236  -1.176   3.686  1.00  0.00    +0.000 H 
ATOM     98  H7  UNL A   1       4.680  -0.765   4.666  1.00  0.00    +0.000 H 
ATOM      6  C4  UNL A   1       4.304  -1.131   3.733  1.00  0.00    +0.000 C 
BRANCH    6    7
ATOM     99  H8  UNL A   1       4.432  -2.979   2.701  1.00  0.00    +0.000 H 
ATOM    100  H9  UNL A   1       4.551  -3.068   4.489  1.00  0.00    +0.000 H 
ATOM      7  C5  UNL A   1       4.843  -2.558   3.595  1.00  0.00    +0.000 C 
BRANCH    7    8
ATOM    101  H10 UNL A   1       6.693  -2.226   2.608  1.00  0.00    +0.000 H 
ATOM    102  H11 UNL A   1       6.580  -3.733   3.567  1.00  0.00    +0.000 H 
ATOM      8  C6  UNL A   1       6.368  -2.686   3.518  1.00  0.00    +0.000 C 
BRANCH    8    9
ATOM      9  C7  UNL A   1       7.133  -2.044   4.673  1.00  0.00    +0.000 C 
ATOM    103  H12 UNL A   1       6.893  -1.002   4.709  1.00  0.00    +0.000 H 
ATOM    104  H13 UNL A   1       8.179  -2.194   4.500  1.00  0.00    +0.000 H 
BRANCH    9   10
ATOM    105  H14 UNL A   1       5.851  -2.594   6.210  1.00  0.00    +0.000 H 
ATOM     10  N2  UNL A   1       6.799  -2.647   5.951  1.00  0.00    +0.000 N 
BRANCH   10   11
ATOM     11  C8  UNL A   1       7.623  -3.280   6.845  1.00  0.00    +0.000 C 
ATOM     12  O2  UNL A   1       7.147  -3.963   7.746  1.00  0.00    +0.000 O 
BRANCH   11   13
ATOM    106  H15 UNL A   1       9.445  -5.211   6.956  1.00  0.00    +0.000 H 
ATOM    107  H16 UNL A   1      11.855  -5.015   6.736  1.00  0.00    +0.000 H 
ATOM    108  H17 UNL A   1      12.868  -2.846   6.383  1.00  0.00    +0.000 H 
ATOM     13  C9  UNL A   1       9.089  -3.141   6.726  1.00  0.00    +0.000 C 
ATOM     14  C10 UNL A   1       9.880  -4.287   6.807  1.00  0.00    +0.000 C 
ATOM     15  C11 UNL A   1      11.261  -4.173   6.686  1.00  0.00    +0.000 C 
ATOM     16  C12 UNL A   1      11.845  -2.916   6.495  1.00  0.00    +0.000 C 
ATOM     17  C13 UNL A   1      11.068  -1.750   6.455  1.00  0.00    +0.000 C 
ATOM    114  H23 UNL A   1       9.085  -1.036   6.556  1.00  0.00    +0.000 H 
ATOM     28  C20 UNL A   1       9.680  -1.879   6.576  1.00  0.00    +0.000 C 
BRANCH   17   18
ATOM     18  N3  UNL A   1      11.605  -0.463   6.225  1.00  0.00    +0.000 N 
ATOM    109  H18 UNL A   1      10.959   0.280   6.252  1.00  0.00    +0.000 H 
BRANCH   18   19
ATOM    110  H19 UNL A   1      13.034   1.321   7.518  1.00  0.00    +0.000 H 
ATOM    111  H20 UNL A   1      15.386   1.831   7.225  1.00  0.00    +0.000 H 
ATOM    112  H21 UNL A   1      15.577  -0.899   4.025  1.00  0.00    +0.000 H 
ATOM    113  H22 UNL A   1      13.226  -1.410   4.330  1.00  0.00    +0.000 H 
ATOM     19  C14 UNL A   1      12.940  -0.103   5.962  1.00  0.00    +0.000 C 
ATOM     20  C15 UNL A   1      13.574   0.839   6.782  1.00  0.00    +0.000 C 
ATOM     21  C16 UNL A   1      14.929   1.135   6.615  1.00  0.00    +0.000 C 
ATOM     22  C17 UNL A   1      15.664   0.486   5.618  1.00  0.00    +0.000 C 
ATOM     26  C18 UNL A   1      15.040  -0.436   4.774  1.00  0.00    +0.000 C 
ATOM     27  C19 UNL A   1      13.685  -0.726   4.952  1.00  0.00    +0.000 C 
BRANCH   22   23
ATOM     25  O4  UNL A   1      17.837   0.069   4.556  1.00  0.00    +0.000 O 
ATOM     23  N4  UNL A   1      17.077   0.750   5.478  1.00  0.00    +0.000 N 
ATOM     24  O3  UNL A   1      17.636   1.559   6.189  1.00  0.00    +0.000 O 
ENDBRANCH   22   23
ENDBRANCH   18   19
ENDBRANCH   17   18
ENDBRANCH   11   13
ENDBRANCH   10   11
ENDBRANCH    9   10
ENDBRANCH    8    9
ENDBRANCH    7    8
ENDBRANCH    6    7
ENDBRANCH    5    6
ENDBRANCH    4    5
ENDBRANCH    3    4
ENDBRANCH    2    3
ENDBRANCH   29    2
ENDBRANCH   33   32
BRANCH   37   38
ATOM     38  C29 UNL A   1       7.299   8.531  -3.091  1.00  0.00    +0.000 C 
ATOM     39  C30 UNL A   1       8.316   8.304  -2.152  1.00  0.00    +0.000 C 
ATOM     40  F1  UNL A   1       9.021   7.162  -2.183  1.00  0.00    +0.000 F 
ATOM     41  C31 UNL A   1       8.586   9.232  -1.149  1.00  0.00    +0.000 C 
ATOM     42  F2  UNL A   1       9.527   8.969  -0.231  1.00  0.00    +0.000 F 
ATOM     43  C32 UNL A   1       7.870  10.418  -1.085  1.00  0.00    +0.000 C 
ATOM     44  F3  UNL A   1       8.130  11.308  -0.118  1.00  0.00    +0.000 F 
ATOM     45  C33 UNL A   1       6.878  10.675  -2.018  1.00  0.00    +0.000 C 
ATOM     46  F4  UNL A   1       6.192  11.826  -1.966  1.00  0.00    +0.000 F 
ATOM     47  C34 UNL A   1       6.587   9.737  -3.006  1.00  0.00    +0.000 C 
ATOM     48  F5  UNL A   1       5.609  10.008  -3.883  1.00  0.00    +0.000 F 
ENDBRANCH   37   38
BRANCH   54   55
ATOM     65  F10 UNL A   1       9.998   7.555  -9.708  1.00  0.00    +0.000 F 
ATOM     55  C40 UNL A   1       7.746   8.084 -10.268  1.00  0.00    +0.000 C 
ATOM     56  C41 UNL A   1       6.876   8.803 -11.098  1.00  0.00    +0.000 C 
ATOM     57  F6  UNL A   1       5.548   8.690 -10.945  1.00  0.00    +0.000 F 
ATOM     58  C42 UNL A   1       7.370   9.626 -12.107  1.00  0.00    +0.000 C 
ATOM     59  F7  UNL A   1       6.521  10.285 -12.908  1.00  0.00    +0.000 F 
ATOM     60  C43 UNL A   1       8.739   9.763 -12.287  1.00  0.00    +0.000 C 
ATOM     61  F8  UNL A   1       9.213  10.568 -13.248  1.00  0.00    +0.000 F 
ATOM     62  C44 UNL A   1       9.617   9.063 -11.473  1.00  0.00    +0.000 C 
ATOM     63  F9  UNL A   1      10.940   9.203 -11.638  1.00  0.00    +0.000 F 
ATOM     64  C45 UNL A   1       9.126   8.222 -10.479  1.00  0.00    +0.000 C 
ENDBRANCH   54   55
BRANCH   69   70
ATOM     70  C49 UNL A   1       4.597   1.855  -9.999  1.00  0.00    +0.000 C 
ATOM     71  C50 UNL A   1       5.496   1.077 -10.738  1.00  0.00    +0.000 C 
ATOM     72  F11 UNL A   1       6.816   1.257 -10.588  1.00  0.00    +0.000 F 
ATOM     73  C51 UNL A   1       5.041   0.119 -11.641  1.00  0.00    +0.000 C 
ATOM     74  F12 UNL A   1       5.921  -0.602 -12.349  1.00  0.00    +0.000 F 
ATOM     75  C52 UNL A   1       3.680  -0.092 -11.806  1.00  0.00    +0.000 C 
ATOM     76  F13 UNL A   1       3.244  -1.029 -12.659  1.00  0.00    +0.000 F 
ATOM     77  C53 UNL A   1       2.771   0.668 -11.085  1.00  0.00    +0.000 C 
ATOM     78  F14 UNL A   1       1.456   0.455 -11.228  1.00  0.00    +0.000 F 
ATOM     79  C54 UNL A   1       3.225   1.643 -10.200  1.00  0.00    +0.000 C 
ATOM     80  F15 UNL A   1       2.326   2.357  -9.507  1.00  0.00    +0.000 F 
ENDBRANCH   69   70
TORSDOF 18