ROOT
ATOM     28  C23 UNL A   1      10.500  -7.750  -9.829  1.00  0.00    +0.000 C 
ATOM     29  C24 UNL A   1      11.960  -7.681  -9.484  1.00  0.00    +0.000 C 
ATOM     30  N4  UNL A   1      12.900  -6.926  -9.994  1.00  0.00    +0.000 N 
ATOM     31  C25 UNL A   1      14.051  -7.219  -9.275  1.00  0.00    +0.000 C 
ATOM     32  C26 UNL A   1      15.304  -6.734  -9.451  1.00  0.00    +0.000 C 
ATOM     44  C33 UNL A   1      15.673  -5.794 -10.476  1.00  0.00    +0.000 C 
ATOM     45  C34 UNL A   1      16.924  -5.278 -10.765  1.00  0.00    +0.000 C 
ATOM     46  C35 UNL A   1      16.792  -4.378 -11.828  1.00  0.00    +0.000 C 
ATOM     47  C36 UNL A   1      15.465  -4.365 -12.228  1.00  0.00    +0.000 C 
ATOM     48  N5  UNL A   1      14.789  -5.232 -11.385  1.00  0.00    +0.000 N 
ATOM     49  C37 UNL A   1      14.860  -3.616 -13.298  1.00  0.00    +0.000 C 
ATOM     61  C44 UNL A   1      13.545  -3.649 -13.624  1.00  0.00    +0.000 C 
ATOM     62  N6  UNL A   1      12.523  -4.392 -13.049  1.00  0.00    +0.000 N 
ATOM     63  C45 UNL A   1      11.436  -4.084 -13.712  1.00  0.00    +0.000 C 
ATOM     64  C46 UNL A   1      10.037  -4.611 -13.539  1.00  0.00    +0.000 C 
ATOM     76  C53 UNL A   1       9.797  -5.556 -12.609  1.00  0.00    +0.000 C 
ATOM     77  C54 UNL A   1       8.494  -6.147 -12.319  1.00  0.00    +0.000 C 
ATOM     78  C55 UNL A   1       8.616  -6.988 -11.280  1.00  0.00    +0.000 C 
ATOM     79  C56 UNL A   1      10.016  -7.027 -10.857  1.00  0.00    +0.000 C 
ATOM     80  N7  UNL A   1      10.649  -6.168 -11.723  1.00  0.00    +0.000 N 
ATOM     81  C57 UNL A   1      11.640  -3.077 -14.764  1.00  0.00    +0.000 C 
ATOM     82  C58 UNL A   1      12.948  -2.872 -14.691  1.00  0.00    +0.000 C 
ATOM     83  C59 UNL A   1      13.685  -8.192  -8.268  1.00  0.00    +0.000 C 
ATOM     84  C60 UNL A   1      12.419  -8.560  -8.397  1.00  0.00    +0.000 C 
ATOM    119  H27 UNL A   1      17.804  -5.517 -10.280  1.00  0.00    +0.000 H 
ATOM    120  H28 UNL A   1      17.553  -3.819 -12.243  1.00  0.00    +0.000 H 
ATOM    121  H29 UNL A   1      13.824  -5.422 -11.426  1.00  0.00    +0.000 H 
ATOM    122  H30 UNL A   1       7.619  -5.949 -12.830  1.00  0.00    +0.000 H 
ATOM    123  H31 UNL A   1       7.845  -7.522 -10.848  1.00  0.00    +0.000 H 
ATOM    124  H32 UNL A   1      11.620  -6.008 -11.709  1.00  0.00    +0.000 H 
ATOM    125  H33 UNL A   1      10.948  -2.644 -15.395  1.00  0.00    +0.000 H 
ATOM    126  H34 UNL A   1      13.474  -2.240 -15.314  1.00  0.00    +0.000 H 
ATOM    127  H35 UNL A   1      14.326  -8.552  -7.544  1.00  0.00    +0.000 H 
ATOM    128  H36 UNL A   1      11.892  -9.276  -7.873  1.00  0.00    +0.000 H 
ENDROOT
BRANCH   28   27
ATOM    129  H37 UNL A   1       9.859  -7.333  -7.269  1.00  0.00    +0.000 H 
ATOM    130  H38 UNL A   1       8.436  -8.655  -5.819  1.00  0.00    +0.000 H 
ATOM     27  C22 UNL A   1       9.577  -8.546  -8.979  1.00  0.00    +0.000 C 
ATOM    117  H25 UNL A   1       7.514 -11.200  -9.039  1.00  0.00    +0.000 H 
ATOM     86  C62 UNL A   1       8.525  -8.899  -6.818  1.00  0.00    +0.000 C 
ATOM     85  C61 UNL A   1       9.375  -8.165  -7.643  1.00  0.00    +0.000 C 
ATOM     24  C19 UNL A   1       7.794  -9.966  -7.346  1.00  0.00    +0.000 C 
ATOM     25  C20 UNL A   1       8.015 -10.380  -8.664  1.00  0.00    +0.000 C 
ATOM     26  C21 UNL A   1       8.916  -9.681  -9.473  1.00  0.00    +0.000 C 
ATOM    118  H26 UNL A   1       9.095 -10.001 -10.438  1.00  0.00    +0.000 H 
BRANCH   24   22
ATOM     22  C18 UNL A   1       6.785 -10.687  -6.535  1.00  0.00    +0.000 C 
ATOM     23  O2  UNL A   1       6.764 -11.912  -6.548  1.00  0.00    +0.000 O 
BRANCH   22   21
ATOM    116  H24 UNL A   1       5.239 -10.538  -5.269  1.00  0.00    +0.000 H 
ATOM     21  N3  UNL A   1       5.855  -9.986  -5.803  1.00  0.00    +0.000 N 
BRANCH   21   20
ATOM    114  H22 UNL A   1       5.997  -8.228  -4.744  1.00  0.00    +0.000 H 
ATOM    115  H23 UNL A   1       6.189  -8.100  -6.506  1.00  0.00    +0.000 H 
ATOM     20  C17 UNL A   1       5.648  -8.553  -5.702  1.00  0.00    +0.000 C 
BRANCH   20   19
ATOM    113  H21 UNL A   1       3.868  -8.565  -6.776  1.00  0.00    +0.000 H 
ATOM     19  C16 UNL A   1       4.191  -8.134  -5.851  1.00  0.00    +0.000 C 
ATOM    112  H20 UNL A   1       4.155  -7.065  -5.820  1.00  0.00    +0.000 H 
BRANCH   19   18
ATOM     18  C15 UNL A   1       3.215  -8.662  -4.799  1.00  0.00    +0.000 C 
ATOM    110  H18 UNL A   1       2.273  -8.181  -4.966  1.00  0.00    +0.000 H 
ATOM    111  H19 UNL A   1       3.215  -9.723  -4.933  1.00  0.00    +0.000 H 
BRANCH   18   17
ATOM     17  C14 UNL A   1       3.585  -8.451  -3.329  1.00  0.00    +0.000 C 
ATOM    108  H16 UNL A   1       2.747  -8.763  -2.741  1.00  0.00    +0.000 H 
ATOM    109  H17 UNL A   1       4.482  -9.018  -3.193  1.00  0.00    +0.000 H 
BRANCH   17   16
ATOM    106  H14 UNL A   1       4.019  -7.040  -1.812  1.00  0.00    +0.000 H 
ATOM    107  H15 UNL A   1       4.870  -6.814  -3.390  1.00  0.00    +0.000 H 
ATOM     16  C13 UNL A   1       3.955  -7.033  -2.880  1.00  0.00    +0.000 C 
BRANCH   16   15
ATOM    105  H13 UNL A   1       2.972  -5.898  -4.344  1.00  0.00    +0.000 H 
ATOM     15  C12 UNL A   1       3.006  -5.902  -3.274  1.00  0.00    +0.000 C 
ATOM    104  H12 UNL A   1       3.385  -4.991  -2.860  1.00  0.00    +0.000 H 
BRANCH   15   14
ATOM     14  N2  UNL A   1       1.644  -6.069  -2.824  1.00  0.00    +0.000 N 
ATOM    103  H11 UNL A   1       1.386  -6.997  -2.622  1.00  0.00    +0.000 H 
BRANCH   14   12
ATOM     12  C11 UNL A   1       0.648  -5.136  -2.632  1.00  0.00    +0.000 C 
ATOM     13  O1  UNL A   1      -0.483  -5.578  -2.431  1.00  0.00    +0.000 O 
BRANCH   12   11
ATOM      3  C2  UNL A   1       0.839  -1.494  -1.913  1.00  0.00    +0.000 C 
ATOM      4  C3  UNL A   1       0.314  -2.761  -1.678  1.00  0.00    +0.000 C 
ATOM    131  H39 UNL A   1       2.233  -4.014  -5.203  1.00  0.00    +0.000 H 
ATOM    134  H42 UNL A   1       2.768   0.245  -2.939  1.00  0.00    +0.000 H 
ATOM    133  H41 UNL A   1       4.176  -0.294  -4.788  1.00  0.00    +0.000 H 
ATOM    132  H40 UNL A   1       3.780  -2.418  -6.012  1.00  0.00    +0.000 H 
ATOM     11  C10 UNL A   1       0.931  -3.697  -2.587  1.00  0.00    +0.000 C 
ATOM     87  C63 UNL A   1       1.698  -2.916  -3.445  1.00  0.00    +0.000 C 
ATOM     88  C64 UNL A   1       2.393  -3.141  -4.675  1.00  0.00    +0.000 C 
ATOM     89  C65 UNL A   1       3.254  -2.221  -5.147  1.00  0.00    +0.000 C 
ATOM     90  C66 UNL A   1       3.456  -0.959  -4.464  1.00  0.00    +0.000 C 
ATOM     91  C67 UNL A   1       2.689  -0.674  -3.401  1.00  0.00    +0.000 C 
ATOM     92  N8  UNL A   1       1.779  -1.625  -2.918  1.00  0.00    +0.000 N 
BRANCH    3    2
ATOM     97  H5  UNL A   1      -0.563  -0.109  -1.188  1.00  0.00    +0.000 H 
ATOM      2  C1  UNL A   1       0.499  -0.176  -1.296  1.00  0.00    +0.000 C 
ATOM     96  H4  UNL A   1       0.858   0.611  -1.926  1.00  0.00    +0.000 H 
BRANCH    2    1
ATOM      1  N1  UNL A   1       1.113  -0.053   0.017  1.00  0.00    +0.000 N 
ATOM     93  H1  UNL A   1       0.871   0.851   0.422  1.00  0.00    +0.000 H 
ATOM     94  H2  UNL A   1       2.126  -0.125  -0.073  1.00  0.00    +0.000 H 
ATOM     95  H3  UNL A   1       0.772  -0.799   0.623  1.00  0.00    +0.000 H 
ENDBRANCH    2    1
ENDBRANCH    3    2
BRANCH    4    5
ATOM     98  H6  UNL A   1       0.546  -4.094   0.632  1.00  0.00    +0.000 H 
ATOM     99  H7  UNL A   1      -1.171  -4.484   2.303  1.00  0.00    +0.000 H 
ATOM    100  H8  UNL A   1      -3.413  -3.619   1.971  1.00  0.00    +0.000 H 
ATOM      5  C4  UNL A   1      -0.709  -3.006  -0.672  1.00  0.00    +0.000 C 
ATOM    102  H10 UNL A   1      -2.241  -1.998  -1.723  1.00  0.00    +0.000 H 
ATOM      6  C5  UNL A   1      -0.407  -3.727   0.487  1.00  0.00    +0.000 C 
ATOM      7  C6  UNL A   1      -1.396  -3.951   1.449  1.00  0.00    +0.000 C 
ATOM      9  C8  UNL A   1      -2.994  -2.741   0.101  1.00  0.00    +0.000 C 
ATOM     10  C9  UNL A   1      -2.010  -2.521  -0.864  1.00  0.00    +0.000 C 
ATOM    101  H9  UNL A   1      -3.948  -2.375  -0.042  1.00  0.00    +0.000 H 
ATOM      8  C7  UNL A   1      -2.687  -3.456   1.257  1.00  0.00    +0.000 C 
ENDBRANCH    4    5
ENDBRANCH   12   11
ENDBRANCH   14   12
ENDBRANCH   15   14
ENDBRANCH   16   15
ENDBRANCH   17   16
ENDBRANCH   18   17
ENDBRANCH   19   18
ENDBRANCH   20   19
ENDBRANCH   21   20
ENDBRANCH   22   21
ENDBRANCH   24   22
ENDBRANCH   28   27
BRANCH   32   33
ATOM     33  C27 UNL A   1      16.368  -7.211  -8.507  1.00  0.00    +0.000 C 
ATOM     34  C28 UNL A   1      16.863  -8.522  -8.559  1.00  0.00    +0.000 C 
ATOM     35  F1  UNL A   1      16.362  -9.398  -9.442  1.00  0.00    +0.000 F 
ATOM     36  C29 UNL A   1      17.847  -8.952  -7.672  1.00  0.00    +0.000 C 
ATOM     37  F2  UNL A   1      18.267 -10.224  -7.706  1.00  0.00    +0.000 F 
ATOM     38  C30 UNL A   1      18.379  -8.072  -6.743  1.00  0.00    +0.000 C 
ATOM     39  F3  UNL A   1      19.328  -8.486  -5.892  1.00  0.00    +0.000 F 
ATOM     40  C31 UNL A   1      17.922  -6.764  -6.689  1.00  0.00    +0.000 C 
ATOM     41  F4  UNL A   1      18.444  -5.908  -5.799  1.00  0.00    +0.000 F 
ATOM     42  C32 UNL A   1      16.918  -6.339  -7.555  1.00  0.00    +0.000 C 
ATOM     43  F5  UNL A   1      16.484  -5.072  -7.468  1.00  0.00    +0.000 F 
ENDBRANCH   32   33
BRANCH   49   50
ATOM     50  C38 UNL A   1      15.758  -2.753 -14.133  1.00  0.00    +0.000 C 
ATOM     51  C39 UNL A   1      15.762  -1.357 -14.007  1.00  0.00    +0.000 C 
ATOM     52  F6  UNL A   1      14.900  -0.752 -13.176  1.00  0.00    +0.000 F 
ATOM     53  C40 UNL A   1      16.637  -0.575 -14.757  1.00  0.00    +0.000 C 
ATOM     54  F7  UNL A   1      16.603   0.760 -14.646  1.00  0.00    +0.000 F 
ATOM     55  C41 UNL A   1      17.538  -1.175 -15.624  1.00  0.00    +0.000 C 
ATOM     56  F8  UNL A   1      18.388  -0.421 -16.336  1.00  0.00    +0.000 F 
ATOM     57  C42 UNL A   1      17.557  -2.555 -15.757  1.00  0.00    +0.000 C 
ATOM     58  F9  UNL A   1      18.435  -3.137 -16.586  1.00  0.00    +0.000 F 
ATOM     59  C43 UNL A   1      16.668  -3.338 -15.027  1.00  0.00    +0.000 C 
ATOM     60  F10 UNL A   1      16.704  -4.670 -15.179  1.00  0.00    +0.000 F 
ENDBRANCH   49   50
BRANCH   64   65
ATOM     65  C47 UNL A   1       8.930  -4.123 -14.400  1.00  0.00    +0.000 C 
ATOM     66  C48 UNL A   1       8.870  -4.473 -15.756  1.00  0.00    +0.000 C 
ATOM     67  F11 UNL A   1       9.835  -5.234 -16.293  1.00  0.00    +0.000 F 
ATOM     68  C49 UNL A   1       7.841  -4.012 -16.574  1.00  0.00    +0.000 C 
ATOM     69  F12 UNL A   1       7.829  -4.330 -17.875  1.00  0.00    +0.000 F 
ATOM     70  C50 UNL A   1       6.838  -3.213 -16.046  1.00  0.00    +0.000 C 
ATOM     71  F13 UNL A   1       5.845  -2.774 -16.832  1.00  0.00    +0.000 F 
ATOM     72  C51 UNL A   1       6.868  -2.865 -14.704  1.00  0.00    +0.000 C 
ATOM     73  F14 UNL A   1       5.894  -2.104 -14.187  1.00  0.00    +0.000 F 
ATOM     74  C52 UNL A   1       7.911  -3.306 -13.890  1.00  0.00    +0.000 C 
ATOM     75  F15 UNL A   1       7.920  -2.946 -12.598  1.00  0.00    +0.000 F 
ENDBRANCH   64   65
TORSDOF 18