ROOT
ATOM     19  C15 UNL A   1      -7.118  -8.754   4.784  1.00  0.00    +0.000 C 
ATOM     20  C16 UNL A   1      -8.621  -8.717   4.776  1.00  0.00    +0.000 C 
ATOM     21  N3  UNL A   1      -9.458  -8.838   5.777  1.00  0.00    +0.000 N 
ATOM     22  C17 UNL A   1     -10.726  -8.689   5.231  1.00  0.00    +0.000 C 
ATOM     23  C18 UNL A   1     -11.929  -8.784   5.847  1.00  0.00    +0.000 C 
ATOM     35  C25 UNL A   1     -12.107  -9.077   7.245  1.00  0.00    +0.000 C 
ATOM     36  C26 UNL A   1     -13.287  -9.253   7.947  1.00  0.00    +0.000 C 
ATOM     37  C27 UNL A   1     -12.969  -9.482   9.290  1.00  0.00    +0.000 C 
ATOM     38  C28 UNL A   1     -11.590  -9.491   9.417  1.00  0.00    +0.000 C 
ATOM     39  N4  UNL A   1     -11.074  -9.237   8.156  1.00  0.00    +0.000 N 
ATOM     40  C29 UNL A   1     -10.799  -9.712  10.600  1.00  0.00    +0.000 C 
ATOM     52  C36 UNL A   1      -9.444  -9.717  10.638  1.00  0.00    +0.000 C 
ATOM     53  N5  UNL A   1      -8.543  -9.524   9.600  1.00  0.00    +0.000 N 
ATOM     54  C37 UNL A   1      -7.351  -9.608  10.139  1.00  0.00    +0.000 C 
ATOM     55  C38 UNL A   1      -6.003  -9.505   9.480  1.00  0.00    +0.000 C 
ATOM     67  C45 UNL A   1      -5.930  -9.316   8.149  1.00  0.00    +0.000 C 
ATOM     68  C46 UNL A   1      -4.696  -9.206   7.377  1.00  0.00    +0.000 C 
ATOM     69  C47 UNL A   1      -5.003  -8.977   6.090  1.00  0.00    +0.000 C 
ATOM     70  C48 UNL A   1      -6.458  -8.958   5.941  1.00  0.00    +0.000 C 
ATOM     71  N6  UNL A   1      -6.926  -9.177   7.213  1.00  0.00    +0.000 N 
ATOM     72  C49 UNL A   1      -7.364  -9.838  11.591  1.00  0.00    +0.000 C 
ATOM     73  C50 UNL A   1      -8.662  -9.935  11.837  1.00  0.00    +0.000 C 
ATOM     74  C51 UNL A   1     -10.548  -8.426   3.818  1.00  0.00    +0.000 C 
ATOM     75  C52 UNL A   1      -9.270  -8.492   3.475  1.00  0.00    +0.000 C 
ATOM    112  H21 UNL A   1     -14.238  -9.221   7.548  1.00  0.00    +0.000 H 
ATOM    113  H22 UNL A   1     -13.647  -9.621  10.056  1.00  0.00    +0.000 H 
ATOM    114  H23 UNL A   1     -10.115  -9.180   7.939  1.00  0.00    +0.000 H 
ATOM    115  H24 UNL A   1      -3.741  -9.290   7.759  1.00  0.00    +0.000 H 
ATOM    116  H25 UNL A   1      -4.321  -8.836   5.328  1.00  0.00    +0.000 H 
ATOM    117  H26 UNL A   1      -7.884  -9.229   7.434  1.00  0.00    +0.000 H 
ATOM    118  H27 UNL A   1      -6.569  -9.906  12.246  1.00  0.00    +0.000 H 
ATOM    119  H28 UNL A   1      -9.065 -10.139  12.765  1.00  0.00    +0.000 H 
ATOM    120  H29 UNL A   1     -11.317  -8.214   3.163  1.00  0.00    +0.000 H 
ATOM    121  H30 UNL A   1      -8.841  -8.407   2.540  1.00  0.00    +0.000 H 
ENDROOT
BRANCH   19   18
ATOM     76  C53 UNL A   1      -6.392  -7.236   2.933  1.00  0.00    +0.000 C 
ATOM     77  C54 UNL A   1      -5.666  -6.984   1.768  1.00  0.00    +0.000 C 
ATOM    110  H19 UNL A   1      -4.209  -9.982   1.407  1.00  0.00    +0.000 H 
ATOM     15  C11 UNL A   1      -4.821  -7.966   1.244  1.00  0.00    +0.000 C 
ATOM     16  C12 UNL A   1      -4.797  -9.241   1.819  1.00  0.00    +0.000 C 
ATOM     17  C13 UNL A   1      -5.571  -9.512   2.951  1.00  0.00    +0.000 C 
ATOM    111  H20 UNL A   1      -5.568 -10.460   3.359  1.00  0.00    +0.000 H 
ATOM     18  C14 UNL A   1      -6.350  -8.502   3.537  1.00  0.00    +0.000 C 
ATOM    122  H31 UNL A   1      -6.963  -6.486   3.353  1.00  0.00    +0.000 H 
ATOM    123  H32 UNL A   1      -5.754  -6.071   1.293  1.00  0.00    +0.000 H 
BRANCH   15   13
ATOM     13  C10 UNL A   1      -3.984  -7.710   0.048  1.00  0.00    +0.000 C 
ATOM     14  O2  UNL A   1      -3.876  -8.577  -0.811  1.00  0.00    +0.000 O 
BRANCH   13   12
ATOM     12  N2  UNL A   1      -3.327  -6.512  -0.103  1.00  0.00    +0.000 N 
ATOM    109  H18 UNL A   1      -3.032  -6.309  -1.020  1.00  0.00    +0.000 H 
BRANCH   12   11
ATOM     11  C9  UNL A   1      -3.005  -5.501   0.890  1.00  0.00    +0.000 C 
ATOM    108  H17 UNL A   1      -3.517  -5.755   1.795  1.00  0.00    +0.000 H 
ATOM    107  H16 UNL A   1      -3.314  -4.545   0.522  1.00  0.00    +0.000 H 
BRANCH   11   10
ATOM    105  H14 UNL A   1      -1.359  -4.758   2.000  1.00  0.00    +0.000 H 
ATOM     10  C8  UNL A   1      -1.508  -5.450   1.198  1.00  0.00    +0.000 C 
ATOM    106  H15 UNL A   1      -1.222  -6.454   1.436  1.00  0.00    +0.000 H 
BRANCH   10    9
ATOM      9  C7  UNL A   1      -0.610  -5.022   0.029  1.00  0.00    +0.000 C 
ATOM    103  H12 UNL A   1       0.388  -4.920   0.403  1.00  0.00    +0.000 H 
ATOM    104  H13 UNL A   1      -0.721  -5.782  -0.716  1.00  0.00    +0.000 H 
BRANCH    9    8
ATOM    101  H10 UNL A   1      -0.279  -3.518  -1.437  1.00  0.00    +0.000 H 
ATOM    102  H11 UNL A   1      -1.987  -3.832  -1.028  1.00  0.00    +0.000 H 
ATOM      8  C6  UNL A   1      -0.990  -3.706  -0.661  1.00  0.00    +0.000 C 
BRANCH    8    7
ATOM     99  H8  UNL A   1      -1.594  -1.717  -0.204  1.00  0.00    +0.000 H 
ATOM    100  H9  UNL A   1      -1.450  -2.807   1.192  1.00  0.00    +0.000 H 
ATOM      7  C5  UNL A   1      -1.020  -2.487   0.267  1.00  0.00    +0.000 C 
BRANCH    7    6
ATOM     97  H6  UNL A   1       0.367  -1.532   1.580  1.00  0.00    +0.000 H 
ATOM     98  H7  UNL A   1       1.083  -2.721   0.499  1.00  0.00    +0.000 H 
ATOM      6  C4  UNL A   1       0.370  -1.928   0.586  1.00  0.00    +0.000 C 
BRANCH    6    5
ATOM      5  N1  UNL A   1       0.736  -0.875  -0.343  1.00  0.00    +0.000 N 
ATOM     96  H5  UNL A   1       1.222  -1.172  -1.145  1.00  0.00    +0.000 H 
BRANCH    5    3
ATOM      3  C3  UNL A   1       0.503   0.473  -0.264  1.00  0.00    +0.000 C 
ATOM      4  O1  UNL A   1       0.682   1.138  -1.287  1.00  0.00    +0.000 O 
BRANCH    3    2
ATOM      2  C2  UNL A   1       0.065   1.115   1.066  1.00  0.00    +0.000 C 
ATOM     95  H4  UNL A   1       0.532   0.592   1.873  1.00  0.00    +0.000 H 
BRANCH    2    1
ATOM      1  C1  UNL A   1       0.532   2.577   1.106  1.00  0.00    +0.000 C 
ATOM     92  H1  UNL A   1       0.228   3.024   2.030  1.00  0.00    +0.000 H 
ATOM     93  H2  UNL A   1       0.096   3.114   0.290  1.00  0.00    +0.000 H 
ATOM     94  H3  UNL A   1       1.599   2.613   1.027  1.00  0.00    +0.000 H 
ENDBRANCH    2    1
BRANCH    2   78
ATOM    129  H38 UNL A   1      -8.342  -2.578   2.658  1.00  0.00    +0.000 H 
ATOM    130  H39 UNL A   1      -6.982   0.865   0.653  1.00  0.00    +0.000 H 
ATOM     78  C55 UNL A   1      -1.437   0.975   1.301  1.00  0.00    +0.000 C 
ATOM     79  C56 UNL A   1      -2.374   1.723   0.574  1.00  0.00    +0.000 C 
ATOM     80  C57 UNL A   1      -3.752   1.478   0.683  1.00  0.00    +0.000 C 
ATOM     81  C58 UNL A   1      -4.203   0.406   1.479  1.00  0.00    +0.000 C 
ATOM     82  C59 UNL A   1      -3.263  -0.300   2.223  1.00  0.00    +0.000 C 
ATOM     83  C60 UNL A   1      -1.898   0.006   2.210  1.00  0.00    +0.000 C 
ATOM     84  N7  UNL A   1      -3.933  -1.306   2.876  1.00  0.00    +0.000 N 
ATOM     85  C61 UNL A   1      -5.264  -1.313   2.534  1.00  0.00    +0.000 C 
ATOM     86  C62 UNL A   1      -6.281  -2.205   2.895  1.00  0.00    +0.000 C 
ATOM     87  C63 UNL A   1      -7.567  -1.940   2.417  1.00  0.00    +0.000 C 
ATOM     88  C64 UNL A   1      -7.815  -0.825   1.620  1.00  0.00    +0.000 C 
ATOM     89 Cl1  UNL A   1      -9.419  -0.522   1.069  1.00  0.00    +0.000 Cl
ATOM     90  C65 UNL A   1      -6.787   0.047   1.251  1.00  0.00    +0.000 C 
ATOM     91  C66 UNL A   1      -5.477  -0.208   1.709  1.00  0.00    +0.000 C 
ATOM    124  H33 UNL A   1      -2.043   2.471  -0.056  1.00  0.00    +0.000 H 
ATOM    125  H34 UNL A   1      -4.429   2.076   0.184  1.00  0.00    +0.000 H 
ATOM    126  H35 UNL A   1      -1.244  -0.469   2.852  1.00  0.00    +0.000 H 
ATOM    127  H36 UNL A   1      -3.515  -1.939   3.504  1.00  0.00    +0.000 H 
ATOM    128  H37 UNL A   1      -6.088  -3.025   3.491  1.00  0.00    +0.000 H 
ENDBRANCH    2   78
ENDBRANCH    3    2
ENDBRANCH    5    3
ENDBRANCH    6    5
ENDBRANCH    7    6
ENDBRANCH    8    7
ENDBRANCH    9    8
ENDBRANCH   10    9
ENDBRANCH   11   10
ENDBRANCH   12   11
ENDBRANCH   13   12
ENDBRANCH   15   13
ENDBRANCH   19   18
BRANCH   23   24
ATOM     33  C24 UNL A   1     -13.952  -7.432   5.184  1.00  0.00    +0.000 C 
ATOM     34  F5  UNL A   1     -13.603  -6.495   6.078  1.00  0.00    +0.000 F 
ATOM     24  C19 UNL A   1     -13.156  -8.575   5.009  1.00  0.00    +0.000 C 
ATOM     25  C20 UNL A   1     -13.572  -9.526   4.066  1.00  0.00    +0.000 C 
ATOM     26  F1  UNL A   1     -12.841 -10.631   3.854  1.00  0.00    +0.000 F 
ATOM     27  C21 UNL A   1     -14.726  -9.330   3.311  1.00  0.00    +0.000 C 
ATOM     28  F2  UNL A   1     -15.080 -10.233   2.386  1.00  0.00    +0.000 F 
ATOM     29  C22 UNL A   1     -15.501  -8.197   3.506  1.00  0.00    +0.000 C 
ATOM     30  F3  UNL A   1     -16.616  -8.014   2.784  1.00  0.00    +0.000 F 
ATOM     31  C23 UNL A   1     -15.119  -7.252   4.446  1.00  0.00    +0.000 C 
ATOM     32  F4  UNL A   1     -15.875  -6.163   4.646  1.00  0.00    +0.000 F 
ENDBRANCH   23   24
BRANCH   40   41
ATOM     41  C30 UNL A   1     -11.522  -9.979  11.887  1.00  0.00    +0.000 C 
ATOM     42  C31 UNL A   1     -11.579  -9.020  12.910  1.00  0.00    +0.000 C 
ATOM     43  F6  UNL A   1     -10.937  -7.850  12.774  1.00  0.00    +0.000 F 
ATOM     44  C32 UNL A   1     -12.264  -9.278  14.094  1.00  0.00    +0.000 C 
ATOM     45  F7  UNL A   1     -12.267  -8.366  15.076  1.00  0.00    +0.000 F 
ATOM     46  C33 UNL A   1     -12.929 -10.483  14.266  1.00  0.00    +0.000 C 
ATOM     47  F8  UNL A   1     -13.591 -10.728  15.405  1.00  0.00    +0.000 F 
ATOM     48  C34 UNL A   1     -12.901 -11.438  13.261  1.00  0.00    +0.000 C 
ATOM     49  F9  UNL A   1     -13.551 -12.598  13.421  1.00  0.00    +0.000 F 
ATOM     50  C35 UNL A   1     -12.195 -11.194  12.086  1.00  0.00    +0.000 C 
ATOM     51  F10 UNL A   1     -12.174 -12.141  11.136  1.00  0.00    +0.000 F 
ENDBRANCH   40   41
BRANCH   55   56
ATOM     65  C44 UNL A   1      -3.920  -8.532  10.508  1.00  0.00    +0.000 C 
ATOM     66  F15 UNL A   1      -4.231  -7.333   9.995  1.00  0.00    +0.000 F 
ATOM     56  C39 UNL A   1      -4.757  -9.633  10.279  1.00  0.00    +0.000 C 
ATOM     57  C40 UNL A   1      -4.383 -10.865  10.833  1.00  0.00    +0.000 C 
ATOM     58  F11 UNL A   1      -5.164 -11.941  10.658  1.00  0.00    +0.000 F 
ATOM     59  C41 UNL A   1      -3.228 -10.987  11.602  1.00  0.00    +0.000 C 
ATOM     60  F12 UNL A   1      -2.916 -12.167  12.155  1.00  0.00    +0.000 F 
ATOM     61  C42 UNL A   1      -2.410  -9.886  11.808  1.00  0.00    +0.000 C 
ATOM     62  F13 UNL A   1      -1.297 -10.005  12.544  1.00  0.00    +0.000 F 
ATOM     63  C43 UNL A   1      -2.751  -8.661  11.255  1.00  0.00    +0.000 C 
ATOM     64  F14 UNL A   1      -1.956  -7.598  11.440  1.00  0.00    +0.000 F 
ENDBRANCH   55   56
TORSDOF 17