ROOT
ATOM     28  C23 UNL A   1      -1.397   8.916   8.700  1.00  0.00    +0.000 C 
ATOM     29  C24 UNL A   1      -1.251  10.154   7.860  1.00  0.00    +0.000 C 
ATOM     30  N3  UNL A   1      -0.270  11.021   7.827  1.00  0.00    +0.000 N 
ATOM     31  C25 UNL A   1      -0.624  11.954   6.861  1.00  0.00    +0.000 C 
ATOM     32  C26 UNL A   1       0.029  13.084   6.499  1.00  0.00    +0.000 C 
ATOM     44  C33 UNL A   1       1.270  13.526   7.078  1.00  0.00    +0.000 C 
ATOM     45  C34 UNL A   1       2.000  14.666   6.790  1.00  0.00    +0.000 C 
ATOM     46  C35 UNL A   1       3.147  14.665   7.591  1.00  0.00    +0.000 C 
ATOM     47  C36 UNL A   1       3.110  13.545   8.405  1.00  0.00    +0.000 C 
ATOM     48  N4  UNL A   1       1.960  12.849   8.072  1.00  0.00    +0.000 N 
ATOM     49  C37 UNL A   1       4.056  13.139   9.411  1.00  0.00    +0.000 C 
ATOM     61  C44 UNL A   1       3.960  12.012  10.157  1.00  0.00    +0.000 C 
ATOM     62  N5  UNL A   1       2.970  11.040  10.148  1.00  0.00    +0.000 N 
ATOM     63  C45 UNL A   1       3.334  10.147  11.035  1.00  0.00    +0.000 C 
ATOM     64  C46 UNL A   1       2.623   8.893  11.472  1.00  0.00    +0.000 C 
ATOM     76  C53 UNL A   1       1.433   8.588  10.921  1.00  0.00    +0.000 C 
ATOM     77  C54 UNL A   1       0.626   7.415  11.242  1.00  0.00    +0.000 C 
ATOM     78  C55 UNL A   1      -0.467   7.409  10.462  1.00  0.00    +0.000 C 
ATOM     79  C56 UNL A   1      -0.455   8.599   9.609  1.00  0.00    +0.000 C 
ATOM     80  N6  UNL A   1       0.704   9.246   9.960  1.00  0.00    +0.000 N 
ATOM     81  C57 UNL A   1       4.622  10.437  11.683  1.00  0.00    +0.000 C 
ATOM     82  C58 UNL A   1       4.936  11.607  11.146  1.00  0.00    +0.000 C 
ATOM     83  C59 UNL A   1      -1.882  11.520   6.293  1.00  0.00    +0.000 C 
ATOM     84  C60 UNL A   1      -2.342  10.445   6.917  1.00  0.00    +0.000 C 
ATOM    119  H31 UNL A   1       1.743  15.391   6.103  1.00  0.00    +0.000 H 
ATOM    120  H32 UNL A   1       3.893  15.378   7.577  1.00  0.00    +0.000 H 
ATOM    121  H33 UNL A   1       1.675  12.000   8.481  1.00  0.00    +0.000 H 
ATOM    122  H34 UNL A   1       0.858   6.705  11.954  1.00  0.00    +0.000 H 
ATOM    123  H35 UNL A   1      -1.199   6.681  10.463  1.00  0.00    +0.000 H 
ATOM    124  H36 UNL A   1       0.986  10.100   9.561  1.00  0.00    +0.000 H 
ATOM    125  H37 UNL A   1       5.144   9.877  12.375  1.00  0.00    +0.000 H 
ATOM    126  H38 UNL A   1       5.770  12.159  11.401  1.00  0.00    +0.000 H 
ATOM    127  H39 UNL A   1      -2.358  11.986   5.505  1.00  0.00    +0.000 H 
ATOM    128  H40 UNL A   1      -3.233   9.943   6.777  1.00  0.00    +0.000 H 
ENDROOT
BRANCH   28   27
ATOM    129  H41 UNL A   1      -1.976   7.432   6.544  1.00  0.00    +0.000 H 
ATOM    130  H42 UNL A   1      -3.906   6.018   6.152  1.00  0.00    +0.000 H 
ATOM     27  C22 UNL A   1      -2.556   8.011   8.495  1.00  0.00    +0.000 C 
ATOM    117  H29 UNL A   1      -5.291   6.816  10.045  1.00  0.00    +0.000 H 
ATOM     86  C62 UNL A   1      -3.777   6.474   7.069  1.00  0.00    +0.000 C 
ATOM     85  C61 UNL A   1      -2.689   7.317   7.282  1.00  0.00    +0.000 C 
ATOM     24  C19 UNL A   1      -4.694   6.247   8.100  1.00  0.00    +0.000 C 
ATOM     25  C20 UNL A   1      -4.589   6.954   9.301  1.00  0.00    +0.000 C 
ATOM     26  C21 UNL A   1      -3.532   7.845   9.491  1.00  0.00    +0.000 C 
ATOM    118  H30 UNL A   1      -3.466   8.384  10.368  1.00  0.00    +0.000 H 
BRANCH   24   22
ATOM     22  C18 UNL A   1      -5.795   5.273   7.944  1.00  0.00    +0.000 C 
ATOM     23  O2  UNL A   1      -6.931   5.575   8.300  1.00  0.00    +0.000 O 
BRANCH   22   21
ATOM    116  H28 UNL A   1      -6.333   3.469   7.263  1.00  0.00    +0.000 H 
ATOM     21  N2  UNL A   1      -5.540   4.027   7.431  1.00  0.00    +0.000 N 
BRANCH   21   20
ATOM    114  H26 UNL A   1      -4.154   3.408   6.036  1.00  0.00    +0.000 H 
ATOM    115  H27 UNL A   1      -3.497   3.987   7.575  1.00  0.00    +0.000 H 
ATOM     20  C17 UNL A   1      -4.266   3.413   7.100  1.00  0.00    +0.000 C 
BRANCH   20   19
ATOM    113  H25 UNL A   1      -4.325   2.027   8.665  1.00  0.00    +0.000 H 
ATOM     19  C16 UNL A   1      -4.153   1.980   7.610  1.00  0.00    +0.000 C 
ATOM    112  H24 UNL A   1      -3.183   1.612   7.351  1.00  0.00    +0.000 H 
BRANCH   19   18
ATOM     18  C15 UNL A   1      -5.194   1.006   7.053  1.00  0.00    +0.000 C 
ATOM    110  H22 UNL A   1      -4.955   0.027   7.415  1.00  0.00    +0.000 H 
ATOM    111  H23 UNL A   1      -6.143   1.369   7.386  1.00  0.00    +0.000 H 
BRANCH   18   17
ATOM     17  C14 UNL A   1      -5.282   0.936   5.525  1.00  0.00    +0.000 C 
ATOM    108  H20 UNL A   1      -5.965   0.152   5.270  1.00  0.00    +0.000 H 
ATOM    109  H21 UNL A   1      -5.600   1.906   5.204  1.00  0.00    +0.000 H 
BRANCH   17   16
ATOM    106  H18 UNL A   1      -4.154   0.632   3.749  1.00  0.00    +0.000 H 
ATOM    107  H19 UNL A   1      -3.292   1.454   5.077  1.00  0.00    +0.000 H 
ATOM     16  C13 UNL A   1      -3.959   0.664   4.801  1.00  0.00    +0.000 C 
BRANCH   16   15
ATOM    105  H17 UNL A   1      -3.240  -0.687   6.268  1.00  0.00    +0.000 H 
ATOM     15  C12 UNL A   1      -3.279  -0.640   5.199  1.00  0.00    +0.000 C 
ATOM    104  H16 UNL A   1      -2.293  -0.661   4.782  1.00  0.00    +0.000 H 
BRANCH   15   14
ATOM     14  N1  UNL A   1      -4.019  -1.794   4.718  1.00  0.00    +0.000 N 
ATOM    103  H15 UNL A   1      -4.995  -1.679   4.665  1.00  0.00    +0.000 H 
BRANCH   14   12
ATOM     12  C11 UNL A   1      -3.551  -3.017   4.328  1.00  0.00    +0.000 C 
ATOM     13  O1  UNL A   1      -4.375  -3.930   4.223  1.00  0.00    +0.000 O 
BRANCH   12    9
ATOM      9  C9  UNL A   1      -2.082  -3.242   3.983  1.00  0.00    +0.000 C 
ATOM    100  H12 UNL A   1      -1.903  -4.269   3.745  1.00  0.00    +0.000 H 
BRANCH    9    8
ATOM     98  H10 UNL A   1      -1.025  -3.066   8.533  1.00  0.00    +0.000 H 
ATOM     99  H11 UNL A   1      -2.575  -3.166   6.685  1.00  0.00    +0.000 H 
ATOM    132  H44 UNL A   1       2.189  -3.121   5.833  1.00  0.00    +0.000 H 
ATOM      5  C5  UNL A   1       0.711  -3.112   7.337  1.00  0.00    +0.000 C 
ATOM      6  C6  UNL A   1      -0.666  -3.100   7.566  1.00  0.00    +0.000 C 
ATOM      7  C7  UNL A   1      -1.562  -3.133   6.494  1.00  0.00    +0.000 C 
ATOM    131  H43 UNL A   1       0.637  -3.138   3.982  1.00  0.00    +0.000 H 
ATOM      8  C8  UNL A   1      -1.114  -3.122   5.161  1.00  0.00    +0.000 C 
ATOM     87  C63 UNL A   1       0.274  -3.128   4.948  1.00  0.00    +0.000 C 
ATOM     88  C64 UNL A   1       1.173  -3.120   6.019  1.00  0.00    +0.000 C 
BRANCH    5    4
ATOM     97  H9  UNL A   1       1.350  -2.522   9.246  1.00  0.00    +0.000 H 
ATOM      4  C4  UNL A   1       1.674  -3.212   8.495  1.00  0.00    +0.000 C 
ATOM     96  H8  UNL A   1       2.658  -2.979   8.143  1.00  0.00    +0.000 H 
BRANCH    4    2
ATOM      2  C2  UNL A   1       1.696  -4.618   9.130  1.00  0.00    +0.000 C 
ATOM     92  H4  UNL A   1       0.688  -4.866   9.389  1.00  0.00    +0.000 H 
BRANCH    2    1
ATOM      1  C1  UNL A   1       2.201  -5.685   8.154  1.00  0.00    +0.000 C 
ATOM     90  H2  UNL A   1       3.197  -5.443   7.845  1.00  0.00    +0.000 H 
ATOM     91  H3  UNL A   1       1.560  -5.716   7.297  1.00  0.00    +0.000 H 
ATOM     89  H1  UNL A   1       2.199  -6.640   8.636  1.00  0.00    +0.000 H 
ENDBRANCH    2    1
BRANCH    2    3
ATOM      3  C3  UNL A   1       2.567  -4.613  10.387  1.00  0.00    +0.000 C 
ATOM     93  H5  UNL A   1       3.574  -4.364  10.122  1.00  0.00    +0.000 H 
ATOM     94  H6  UNL A   1       2.547  -5.582  10.839  1.00  0.00    +0.000 H 
ATOM     95  H7  UNL A   1       2.191  -3.889  11.079  1.00  0.00    +0.000 H 
ENDBRANCH    2    3
ENDBRANCH    4    2
ENDBRANCH    5    4
ENDBRANCH    9    8
BRANCH    9   10
ATOM     10  C10 UNL A   1      -1.780  -2.415   2.728  1.00  0.00    +0.000 C 
ATOM     11  F1  UNL A   1      -0.604  -2.803   2.165  1.00  0.00    +0.000 F 
ATOM    101  H13 UNL A   1      -1.716  -1.381   2.997  1.00  0.00    +0.000 H 
ATOM    102  H14 UNL A   1      -2.567  -2.568   2.020  1.00  0.00    +0.000 H 
ENDBRANCH    9   10
ENDBRANCH   12    9
ENDBRANCH   14   12
ENDBRANCH   15   14
ENDBRANCH   16   15
ENDBRANCH   17   16
ENDBRANCH   18   17
ENDBRANCH   19   18
ENDBRANCH   20   19
ENDBRANCH   21   20
ENDBRANCH   22   21
ENDBRANCH   24   22
ENDBRANCH   28   27
BRANCH   32   33
ATOM     33  C27 UNL A   1      -0.598  13.939   5.438  1.00  0.00    +0.000 C 
ATOM     34  C28 UNL A   1      -1.746  14.700   5.701  1.00  0.00    +0.000 C 
ATOM     35  F2  UNL A   1      -2.347  14.622   6.898  1.00  0.00    +0.000 F 
ATOM     36  C29 UNL A   1      -2.299  15.524   4.725  1.00  0.00    +0.000 C 
ATOM     37  F3  UNL A   1      -3.416  16.216   4.988  1.00  0.00    +0.000 F 
ATOM     38  C30 UNL A   1      -1.698  15.626   3.479  1.00  0.00    +0.000 C 
ATOM     39  F4  UNL A   1      -2.224  16.431   2.545  1.00  0.00    +0.000 F 
ATOM     40  C31 UNL A   1      -0.555  14.891   3.200  1.00  0.00    +0.000 C 
ATOM     41  F5  UNL A   1       0.032  14.998   2.001  1.00  0.00    +0.000 F 
ATOM     42  C32 UNL A   1      -0.015  14.046   4.166  1.00  0.00    +0.000 C 
ATOM     43  F6  UNL A   1       1.086  13.342   3.865  1.00  0.00    +0.000 F 
ENDBRANCH   32   33
BRANCH   49   50
ATOM     50  C38 UNL A   1       5.228  14.038   9.671  1.00  0.00    +0.000 C 
ATOM     51  C39 UNL A   1       6.524  13.694   9.261  1.00  0.00    +0.000 C 
ATOM     52  F7  UNL A   1       6.752  12.515   8.663  1.00  0.00    +0.000 F 
ATOM     53  C40 UNL A   1       7.598  14.547   9.500  1.00  0.00    +0.000 C 
ATOM     54  F8  UNL A   1       8.835  14.178   9.141  1.00  0.00    +0.000 F 
ATOM     55  C41 UNL A   1       7.392  15.769  10.122  1.00  0.00    +0.000 C 
ATOM     56  F9  UNL A   1       8.427  16.591  10.347  1.00  0.00    +0.000 F 
ATOM     57  C42 UNL A   1       6.115  16.137  10.519  1.00  0.00    +0.000 C 
ATOM     58  F10 UNL A   1       5.913  17.323  11.110  1.00  0.00    +0.000 F 
ATOM     59  C43 UNL A   1       5.043  15.275  10.306  1.00  0.00    +0.000 C 
ATOM     60  F11 UNL A   1       3.821  15.652  10.712  1.00  0.00    +0.000 F 
ENDBRANCH   49   50
BRANCH   64   65
ATOM     65  C47 UNL A   1       3.219   8.013  12.511  1.00  0.00    +0.000 C 
ATOM     66  C48 UNL A   1       3.336   8.447  13.839  1.00  0.00    +0.000 C 
ATOM     67  F12 UNL A   1       2.894   9.664  14.186  1.00  0.00    +0.000 F 
ATOM     68  C49 UNL A   1       3.959   7.656  14.802  1.00  0.00    +0.000 C 
ATOM     69  F13 UNL A   1       4.111   8.121  16.050  1.00  0.00    +0.000 F 
ATOM     70  C50 UNL A   1       4.444   6.402  14.465  1.00  0.00    +0.000 C 
ATOM     71  F14 UNL A   1       5.050   5.645  15.390  1.00  0.00    +0.000 F 
ATOM     72  C51 UNL A   1       4.313   5.939  13.164  1.00  0.00    +0.000 C 
ATOM     73  F15 UNL A   1       4.770   4.723  12.837  1.00  0.00    +0.000 F 
ATOM     74  C52 UNL A   1       3.717   6.741  12.193  1.00  0.00    +0.000 C 
ATOM     75  F16 UNL A   1       3.625   6.277  10.938  1.00  0.00    +0.000 F 
ENDBRANCH   64   65
TORSDOF 21