ROOT
ATOM     28  C19 UNL A   1      10.879 -15.477  -8.785  1.00  0.00    +0.000 C 
ATOM     29  C20 UNL A   1      11.401 -16.618  -7.960  1.00  0.00    +0.000 C 
ATOM     30  N5  UNL A   1      12.611 -16.826  -7.504  1.00  0.00    +0.000 N 
ATOM     31  C21 UNL A   1      12.538 -17.997  -6.763  1.00  0.00    +0.000 C 
ATOM     32  C22 UNL A   1      13.538 -18.669  -6.141  1.00  0.00    +0.000 C 
ATOM     44  C29 UNL A   1      14.916 -18.253  -6.143  1.00  0.00    +0.000 C 
ATOM     45  C30 UNL A   1      16.014 -18.896  -5.601  1.00  0.00    +0.000 C 
ATOM     46  C31 UNL A   1      17.140 -18.091  -5.809  1.00  0.00    +0.000 C 
ATOM     47  C32 UNL A   1      16.752 -16.968  -6.521  1.00  0.00    +0.000 C 
ATOM     48  N6  UNL A   1      15.384 -17.078  -6.716  1.00  0.00    +0.000 N 
ATOM     49  C33 UNL A   1      17.566 -15.876  -6.991  1.00  0.00    +0.000 C 
ATOM     61  C40 UNL A   1      17.110 -14.813  -7.699  1.00  0.00    +0.000 C 
ATOM     62  N7  UNL A   1      15.816 -14.533  -8.114  1.00  0.00    +0.000 N 
ATOM     63  C41 UNL A   1      15.881 -13.390  -8.752  1.00  0.00    +0.000 C 
ATOM     64  C42 UNL A   1      14.782 -12.620  -9.430  1.00  0.00    +0.000 C 
ATOM     76  C49 UNL A   1      13.543 -13.144  -9.479  1.00  0.00    +0.000 C 
ATOM     77  C50 UNL A   1      12.387 -12.523 -10.119  1.00  0.00    +0.000 C 
ATOM     78  C51 UNL A   1      11.310 -13.300  -9.926  1.00  0.00    +0.000 C 
ATOM     79  C52 UNL A   1      11.708 -14.490  -9.172  1.00  0.00    +0.000 C 
ATOM     80  N8  UNL A   1      13.055 -14.320  -8.968  1.00  0.00    +0.000 N 
ATOM     81  C53 UNL A   1      17.227 -12.803  -8.798  1.00  0.00    +0.000 C 
ATOM     82  C54 UNL A   1      17.944 -13.726  -8.171  1.00  0.00    +0.000 C 
ATOM     83  C55 UNL A   1      11.156 -18.425  -6.783  1.00  0.00    +0.000 C 
ATOM     84  C56 UNL A   1      10.426 -17.646  -7.567  1.00  0.00    +0.000 C 
ATOM    117  H22 UNL A   1      16.005 -19.812  -5.125  1.00  0.00    +0.000 H 
ATOM    118  H23 UNL A   1      18.099 -18.300  -5.487  1.00  0.00    +0.000 H 
ATOM    119  H24 UNL A   1      14.826 -16.421  -7.191  1.00  0.00    +0.000 H 
ATOM    120  H25 UNL A   1      12.396 -11.630 -10.636  1.00  0.00    +0.000 H 
ATOM    121  H26 UNL A   1      10.354 -13.093 -10.255  1.00  0.00    +0.000 H 
ATOM    122  H27 UNL A   1      13.616 -14.980  -8.499  1.00  0.00    +0.000 H 
ATOM    123  H28 UNL A   1      17.535 -11.908  -9.210  1.00  0.00    +0.000 H 
ATOM    124  H29 UNL A   1      18.966 -13.677  -8.037  1.00  0.00    +0.000 H 
ATOM    125  H30 UNL A   1      10.787 -19.231  -6.254  1.00  0.00    +0.000 H 
ATOM    126  H31 UNL A   1       9.433 -17.737  -7.833  1.00  0.00    +0.000 H 
ENDROOT
BRANCH   28   27
ATOM    115  H20 UNL A   1       7.309 -15.422 -11.721  1.00  0.00    +0.000 H 
ATOM    116  H21 UNL A   1       9.666 -15.677 -11.200  1.00  0.00    +0.000 H 
ATOM     85  C57 UNL A   1       8.497 -15.210  -8.088  1.00  0.00    +0.000 C 
ATOM     86  C58 UNL A   1       7.136 -15.146  -8.381  1.00  0.00    +0.000 C 
ATOM     24  C15 UNL A   1       6.708 -15.164  -9.711  1.00  0.00    +0.000 C 
ATOM     25  C16 UNL A   1       7.630 -15.369 -10.742  1.00  0.00    +0.000 C 
ATOM     26  C17 UNL A   1       8.988 -15.501 -10.443  1.00  0.00    +0.000 C 
ATOM     27  C18 UNL A   1       9.434 -15.394  -9.116  1.00  0.00    +0.000 C 
ATOM    127  H32 UNL A   1       8.816 -15.122  -7.111  1.00  0.00    +0.000 H 
ATOM    128  H33 UNL A   1       6.446 -15.084  -7.616  1.00  0.00    +0.000 H 
BRANCH   24   22
ATOM     22  C14 UNL A   1       5.281 -14.992 -10.060  1.00  0.00    +0.000 C 
ATOM     23  O4  UNL A   1       4.773 -15.711 -10.915  1.00  0.00    +0.000 O 
BRANCH   22   21
ATOM    114  H19 UNL A   1       3.565 -14.066  -9.608  1.00  0.00    +0.000 H 
ATOM     21  N4  UNL A   1       4.535 -14.020  -9.445  1.00  0.00    +0.000 N 
BRANCH   21   20
ATOM    113  H18 UNL A   1       6.039 -12.908  -8.610  1.00  0.00    +0.000 H 
ATOM     20  C13 UNL A   1       4.970 -12.931  -8.589  1.00  0.00    +0.000 C 
ATOM    112  H17 UNL A   1       4.600 -13.104  -7.599  1.00  0.00    +0.000 H 
BRANCH   20   19
ATOM     19  C12 UNL A   1       4.466 -11.575  -9.070  1.00  0.00    +0.000 C 
ATOM    110  H15 UNL A   1       4.880 -10.822  -8.431  1.00  0.00    +0.000 H 
ATOM    111  H16 UNL A   1       4.777 -11.487 -10.090  1.00  0.00    +0.000 H 
BRANCH   19   18
ATOM     18  C11 UNL A   1       2.944 -11.410  -9.073  1.00  0.00    +0.000 C 
ATOM    108  H13 UNL A   1       2.723 -10.402  -9.358  1.00  0.00    +0.000 H 
ATOM    109  H14 UNL A   1       2.571 -12.144  -9.755  1.00  0.00    +0.000 H 
BRANCH   18   17
ATOM     17  C10 UNL A   1       2.246 -11.686  -7.737  1.00  0.00    +0.000 C 
ATOM    106  H11 UNL A   1       1.223 -11.388  -7.832  1.00  0.00    +0.000 H 
ATOM    107  H12 UNL A   1       2.375 -12.731  -7.549  1.00  0.00    +0.000 H 
BRANCH   17   16
ATOM    105  H10 UNL A   1       3.853 -11.289  -6.442  1.00  0.00    +0.000 H 
ATOM    104  H9  UNL A   1       2.247 -11.213  -5.666  1.00  0.00    +0.000 H 
ATOM     16  C9  UNL A   1       2.837 -10.963  -6.523  1.00  0.00    +0.000 C 
BRANCH   16   15
ATOM    103  H8  UNL A   1       3.283  -9.187  -7.601  1.00  0.00    +0.000 H 
ATOM    102  H7  UNL A   1       3.491  -9.045  -5.862  1.00  0.00    +0.000 H 
ATOM     15  C8  UNL A   1       2.879  -9.443  -6.644  1.00  0.00    +0.000 C 
BRANCH   15   14
ATOM    101  H6  UNL A   1       0.937  -9.213  -7.232  1.00  0.00    +0.000 H 
ATOM     14  N3  UNL A   1       1.550  -8.880  -6.538  1.00  0.00    +0.000 N 
BRANCH   14   12
ATOM     12  C7  UNL A   1       0.955  -7.986  -5.686  1.00  0.00    +0.000 C 
ATOM     13  O3  UNL A   1      -0.260  -7.832  -5.793  1.00  0.00    +0.000 O 
BRANCH   12   11
ATOM    129  H34 UNL A   1       3.739  -7.049  -5.324  1.00  0.00    +0.000 H 
ATOM    130  H35 UNL A   1       3.509  -8.189  -4.099  1.00  0.00    +0.000 H 
ATOM    131  H36 UNL A   1       3.658  -6.427  -2.429  1.00  0.00    +0.000 H 
ATOM      9  N1  UNL A   1       2.047  -5.472  -3.385  1.00  0.00    +0.000 N 
ATOM     10  N2  UNL A   1       1.089  -6.218  -3.997  1.00  0.00    +0.000 N 
ATOM     11  C6  UNL A   1       1.710  -7.133  -4.679  1.00  0.00    +0.000 C 
ATOM     87  C59 UNL A   1       3.177  -7.228  -4.431  1.00  0.00    +0.000 C 
ATOM     88  C60 UNL A   1       3.371  -6.102  -3.408  1.00  0.00    +0.000 C 
BRANCH    9    8
ATOM     99  H4  UNL A   1      -0.213  -4.285   0.394  1.00  0.00    +0.000 H 
ATOM    100  H5  UNL A   1       0.416  -5.903  -1.304  1.00  0.00    +0.000 H 
ATOM      5  C2  UNL A   1       0.938  -2.710  -0.423  1.00  0.00    +0.000 C 
ATOM      6  C3  UNL A   1       0.431  -4.013  -0.365  1.00  0.00    +0.000 C 
ATOM      7  C4  UNL A   1       0.801  -4.946  -1.342  1.00  0.00    +0.000 C 
ATOM    136  H41 UNL A   1       2.187  -1.379  -1.485  1.00  0.00    +0.000 H 
ATOM    135  H40 UNL A   1       2.823  -3.006  -3.157  1.00  0.00    +0.000 H 
ATOM      8  C5  UNL A   1       1.686  -4.595  -2.368  1.00  0.00    +0.000 C 
ATOM     94  C65 UNL A   1       2.176  -3.282  -2.402  1.00  0.00    +0.000 C 
ATOM     95  C66 UNL A   1       1.812  -2.340  -1.441  1.00  0.00    +0.000 C 
BRANCH    5    2
ATOM      2  S1  UNL A   1       0.397  -1.544   0.801  1.00  0.00    +0.000 S 
ATOM      3  O1  UNL A   1       1.138  -1.846   2.010  1.00  0.00    +0.000 O 
ATOM      4  O2  UNL A   1      -1.053  -1.562   0.783  1.00  0.00    +0.000 O 
BRANCH    2    1
ATOM      1  C1  UNL A   1       0.906   0.061   0.246  1.00  0.00    +0.000 C 
ATOM     98  H3  UNL A   1       1.972   0.083   0.148  1.00  0.00    +0.000 H 
ATOM     97  H2  UNL A   1       0.456   0.270  -0.701  1.00  0.00    +0.000 H 
ATOM     96  H1  UNL A   1       0.599   0.798   0.958  1.00  0.00    +0.000 H 
ENDBRANCH    2    1
ENDBRANCH    5    2
ENDBRANCH    9    8
BRANCH   88   89
ATOM    132  H37 UNL A   1       5.348  -4.346  -1.934  1.00  0.00    +0.000 H 
ATOM    133  H38 UNL A   1       6.979  -3.084  -3.602  1.00  0.00    +0.000 H 
ATOM    134  H39 UNL A   1       6.380  -3.892  -5.981  1.00  0.00    +0.000 H 
ATOM     89  C61 UNL A   1       4.532  -5.211  -3.741  1.00  0.00    +0.000 C 
ATOM     90  C62 UNL A   1       5.363  -4.427  -2.963  1.00  0.00    +0.000 C 
ATOM     91  C63 UNL A   1       6.239  -3.759  -3.852  1.00  0.00    +0.000 C 
ATOM     92  C64 UNL A   1       5.907  -4.191  -5.113  1.00  0.00    +0.000 C 
ATOM     93  O5  UNL A   1       4.872  -5.064  -5.058  1.00  0.00    +0.000 O 
ENDBRANCH   88   89
ENDBRANCH   12   11
ENDBRANCH   14   12
ENDBRANCH   15   14
ENDBRANCH   16   15
ENDBRANCH   17   16
ENDBRANCH   18   17
ENDBRANCH   19   18
ENDBRANCH   20   19
ENDBRANCH   21   20
ENDBRANCH   22   21
ENDBRANCH   24   22
ENDBRANCH   28   27
BRANCH   32   33
ATOM     33  C23 UNL A   1      13.169 -19.925  -5.407  1.00  0.00    +0.000 C 
ATOM     34  C24 UNL A   1      12.763 -21.084  -6.088  1.00  0.00    +0.000 C 
ATOM     35  F1  UNL A   1      12.678 -21.084  -7.427  1.00  0.00    +0.000 F 
ATOM     36  C25 UNL A   1      12.393 -22.232  -5.393  1.00  0.00    +0.000 C 
ATOM     37  F2  UNL A   1      11.950 -23.305  -6.064  1.00  0.00    +0.000 F 
ATOM     38  C26 UNL A   1      12.459 -22.259  -4.009  1.00  0.00    +0.000 C 
ATOM     39  F3  UNL A   1      12.100 -23.364  -3.341  1.00  0.00    +0.000 F 
ATOM     40  C27 UNL A   1      12.887 -21.137  -3.316  1.00  0.00    +0.000 C 
ATOM     41  F4  UNL A   1      12.963 -21.166  -1.978  1.00  0.00    +0.000 F 
ATOM     42  C28 UNL A   1      13.229 -19.977  -4.006  1.00  0.00    +0.000 C 
ATOM     43  F5  UNL A   1      13.616 -18.900  -3.305  1.00  0.00    +0.000 F 
ENDBRANCH   32   33
BRANCH   49   50
ATOM     50  C34 UNL A   1      19.036 -15.922  -6.695  1.00  0.00    +0.000 C 
ATOM     51  C35 UNL A   1      19.620 -15.073  -5.744  1.00  0.00    +0.000 C 
ATOM     52  F6  UNL A   1      18.874 -14.154  -5.112  1.00  0.00    +0.000 F 
ATOM     53  C36 UNL A   1      20.983 -15.140  -5.466  1.00  0.00    +0.000 C 
ATOM     54  F7  UNL A   1      21.527 -14.290  -4.585  1.00  0.00    +0.000 F 
ATOM     55  C37 UNL A   1      21.779 -16.076  -6.109  1.00  0.00    +0.000 C 
ATOM     56  F8  UNL A   1      23.089 -16.144  -5.835  1.00  0.00    +0.000 F 
ATOM     57  C38 UNL A   1      21.219 -16.937  -7.041  1.00  0.00    +0.000 C 
ATOM     58  F9  UNL A   1      21.986 -17.849  -7.655  1.00  0.00    +0.000 F 
ATOM     59  C39 UNL A   1      19.863 -16.854  -7.341  1.00  0.00    +0.000 C 
ATOM     60  F10 UNL A   1      19.351 -17.692  -8.255  1.00  0.00    +0.000 F 
ENDBRANCH   49   50
BRANCH   64   65
ATOM     65  C43 UNL A   1      15.044 -11.306 -10.069  1.00  0.00    +0.000 C 
ATOM     66  C44 UNL A   1      15.769 -11.218 -11.265  1.00  0.00    +0.000 C 
ATOM     67  F11 UNL A   1      16.279 -12.327 -11.821  1.00  0.00    +0.000 F 
ATOM     68  C45 UNL A   1      15.995  -9.989 -11.880  1.00  0.00    +0.000 C 
ATOM     69  F12 UNL A   1      16.716  -9.929 -13.008  1.00  0.00    +0.000 F 
ATOM     70  C46 UNL A   1      15.481  -8.827 -11.323  1.00  0.00    +0.000 C 
ATOM     71  F13 UNL A   1      15.687  -7.646 -11.922  1.00  0.00    +0.000 F 
ATOM     72  C47 UNL A   1      14.753  -8.891 -10.145  1.00  0.00    +0.000 C 
ATOM     73  F14 UNL A   1      14.241  -7.773  -9.612  1.00  0.00    +0.000 F 
ATOM     74  C48 UNL A   1      14.547 -10.117  -9.516  1.00  0.00    +0.000 C 
ATOM     75  F15 UNL A   1      13.840 -10.150  -8.377  1.00  0.00    +0.000 F 
ENDBRANCH   64   65
TORSDOF 19