ROOT
ATOM    129  H27 UNL A   1       6.876   9.322  15.263  1.00  0.00    +0.000 H 
ATOM    130  H28 UNL A   1       3.467   7.559  13.982  1.00  0.00    +0.000 H 
ATOM    131  H29 UNL A   1       9.151   5.936   8.304  1.00  0.00    +0.000 H 
ATOM    132  H30 UNL A   1       9.369   8.454   8.603  1.00  0.00    +0.000 H 
ATOM    133  H31 UNL A   1       6.111   7.251  10.871  1.00  0.00    +0.000 H 
ATOM    134  H32 UNL A   1       3.972   4.981  10.185  1.00  0.00    +0.000 H 
ATOM    135  H33 UNL A   1       3.671   6.482  12.265  1.00  0.00    +0.000 H 
ATOM    136  H34 UNL A   1       2.802  11.404  10.067  1.00  0.00    +0.000 H 
ATOM    137  H35 UNL A   1       4.630  10.664   8.404  1.00  0.00    +0.000 H 
ATOM     38  C28 UNL A   1       6.980   9.653   9.748  1.00  0.00    +0.000 C 
ATOM     39  C29 UNL A   1       5.662  10.023  10.322  1.00  0.00    +0.000 C 
ATOM     40  N5  UNL A   1       5.341  10.055  11.573  1.00  0.00    +0.000 N 
ATOM     41  C30 UNL A   1       3.994  10.398  11.616  1.00  0.00    +0.000 C 
ATOM     42  C31 UNL A   1       3.213  10.005  12.660  1.00  0.00    +0.000 C 
ATOM     54  C38 UNL A   1       4.024   9.586  13.779  1.00  0.00    +0.000 C 
ATOM     55  C39 UNL A   1       4.991  10.200  14.552  1.00  0.00    +0.000 C 
ATOM     56  C40 UNL A   1       5.978   9.194  14.771  1.00  0.00    +0.000 C 
ATOM     57  C41 UNL A   1       5.516   8.007  14.202  1.00  0.00    +0.000 C 
ATOM     58  N6  UNL A   1       4.181   8.237  13.987  1.00  0.00    +0.000 N 
ATOM     59  C42 UNL A   1       6.182   6.787  13.818  1.00  0.00    +0.000 C 
ATOM     71  C49 UNL A   1       5.727   5.930  12.857  1.00  0.00    +0.000 C 
ATOM     72  N7  UNL A   1       6.586   5.040  12.228  1.00  0.00    +0.000 N 
ATOM     73  C50 UNL A   1       6.065   4.865  11.042  1.00  0.00    +0.000 C 
ATOM     74  C51 UNL A   1       6.883   4.828   9.799  1.00  0.00    +0.000 C 
ATOM     86  C58 UNL A   1       7.395   6.075   9.641  1.00  0.00    +0.000 C 
ATOM     87  C59 UNL A   1       8.518   6.534   8.858  1.00  0.00    +0.000 C 
ATOM     88  C60 UNL A   1       8.601   7.873   8.974  1.00  0.00    +0.000 C 
ATOM     89  C61 UNL A   1       7.437   8.381   9.706  1.00  0.00    +0.000 C 
ATOM     90  N8  UNL A   1       6.836   7.247  10.206  1.00  0.00    +0.000 N 
ATOM     91  C62 UNL A   1       4.660   5.223  10.915  1.00  0.00    +0.000 C 
ATOM     92  C63 UNL A   1       4.526   5.957  12.024  1.00  0.00    +0.000 C 
ATOM     93  C64 UNL A   1       3.661  10.882  10.302  1.00  0.00    +0.000 C 
ATOM     94  C65 UNL A   1       4.621  10.562   9.431  1.00  0.00    +0.000 C 
ATOM    128  H26 UNL A   1       4.998  11.173  14.896  1.00  0.00    +0.000 H 
ENDROOT
BRANCH   38   37
ATOM     34  C24 UNL A   1       8.668  12.721   7.430  1.00  0.00    +0.000 C 
ATOM     35  C25 UNL A   1       8.396  12.992   8.775  1.00  0.00    +0.000 C 
ATOM     36  C26 UNL A   1       7.907  11.967   9.580  1.00  0.00    +0.000 C 
ATOM     37  C27 UNL A   1       7.638  10.719   9.002  1.00  0.00    +0.000 C 
ATOM    138  H36 UNL A   1       7.583   9.598   7.216  1.00  0.00    +0.000 H 
ATOM    139  H37 UNL A   1       8.900  11.207   5.982  1.00  0.00    +0.000 H 
ATOM    127  H25 UNL A   1       7.745  12.124  10.587  1.00  0.00    +0.000 H 
ATOM    126  H24 UNL A   1       8.554  13.935   9.164  1.00  0.00    +0.000 H 
ATOM     95  C66 UNL A   1       7.883  10.483   7.654  1.00  0.00    +0.000 C 
ATOM     96  C67 UNL A   1       8.525  11.437   6.915  1.00  0.00    +0.000 C 
BRANCH   34   32
ATOM     33  O4  UNL A   1       9.816  14.688   6.877  1.00  0.00    +0.000 O 
ATOM     32  C23 UNL A   1       9.077  13.786   6.501  1.00  0.00    +0.000 C 
BRANCH   32   31
ATOM    125  H23 UNL A   1       9.182  14.164   4.520  1.00  0.00    +0.000 H 
ATOM     31  N4  UNL A   1       8.614  13.738   5.202  1.00  0.00    +0.000 N 
BRANCH   31   30
ATOM    123  H21 UNL A   1       7.394  12.078   4.947  1.00  0.00    +0.000 H 
ATOM    124  H22 UNL A   1       6.551  13.600   5.219  1.00  0.00    +0.000 H 
ATOM     30  C22 UNL A   1       7.373  13.125   4.726  1.00  0.00    +0.000 C 
BRANCH   30   29
ATOM    121  H19 UNL A   1       6.245  12.928   2.942  1.00  0.00    +0.000 H 
ATOM    122  H20 UNL A   1       7.292  14.356   3.021  1.00  0.00    +0.000 H 
ATOM     29  C21 UNL A   1       7.203  13.310   3.227  1.00  0.00    +0.000 C 
BRANCH   29   28
ATOM     28  C20 UNL A   1       8.283  12.586   2.409  1.00  0.00    +0.000 C 
ATOM    119  H17 UNL A   1       8.201  12.914   1.394  1.00  0.00    +0.000 H 
ATOM    120  H18 UNL A   1       9.215  12.835   2.871  1.00  0.00    +0.000 H 
BRANCH   28   27
ATOM     27  C19 UNL A   1       8.206  11.050   2.417  1.00  0.00    +0.000 C 
ATOM    117  H15 UNL A   1       8.919  10.678   1.711  1.00  0.00    +0.000 H 
ATOM    118  H16 UNL A   1       8.407  10.745   3.423  1.00  0.00    +0.000 H 
BRANCH   27   26
ATOM     26  C18 UNL A   1       6.832  10.470   2.057  1.00  0.00    +0.000 C 
ATOM    115  H13 UNL A   1       6.904   9.402   2.045  1.00  0.00    +0.000 H 
ATOM    116  H14 UNL A   1       6.134  10.810   2.793  1.00  0.00    +0.000 H 
BRANCH   26   25
ATOM     25  C17 UNL A   1       6.333  10.944   0.690  1.00  0.00    +0.000 C 
ATOM    114  H12 UNL A   1       6.585  11.976   0.559  1.00  0.00    +0.000 H 
ATOM    113  H11 UNL A   1       5.271  10.823   0.638  1.00  0.00    +0.000 H 
BRANCH   25   24
ATOM    112  H10 UNL A   1       7.858  10.478  -0.602  1.00  0.00    +0.000 H 
ATOM     24  N3  UNL A   1       6.958  10.163  -0.357  1.00  0.00    +0.000 N 
BRANCH   24   22
ATOM     22  C16 UNL A   1       6.544   9.071  -1.074  1.00  0.00    +0.000 C 
ATOM     23  O3  UNL A   1       7.365   8.540  -1.822  1.00  0.00    +0.000 O 
BRANCH   22   21
ATOM     97  C68 UNL A   1       4.244   8.735  -0.001  1.00  0.00    +0.000 C 
ATOM     98  C69 UNL A   1       2.892   8.422  -0.151  1.00  0.00    +0.000 C 
ATOM    140  H38 UNL A   1       4.587   9.092   0.905  1.00  0.00    +0.000 H 
ATOM    141  H39 UNL A   1       2.218   8.651   0.596  1.00  0.00    +0.000 H 
ATOM    110  H8  UNL A   1       3.074   6.937  -3.154  1.00  0.00    +0.000 H 
ATOM    111  H9  UNL A   1       5.365   7.716  -2.980  1.00  0.00    +0.000 H 
ATOM     18  C12 UNL A   1       2.462   7.796  -1.320  1.00  0.00    +0.000 C 
ATOM     19  C13 UNL A   1       3.376   7.479  -2.329  1.00  0.00    +0.000 C 
ATOM     20  C14 UNL A   1       4.701   7.900  -2.212  1.00  0.00    +0.000 C 
ATOM     21  C15 UNL A   1       5.141   8.571  -1.061  1.00  0.00    +0.000 C 
BRANCH   18   17
ATOM     99  N9  UNL A   1       0.735   6.398  -2.232  1.00  0.00    +0.000 N 
ATOM    100  N10 UNL A   1      -0.576   6.271  -2.137  1.00  0.00    +0.000 N 
ATOM    109  H7  UNL A   1      -0.037   8.938  -0.393  1.00  0.00    +0.000 H 
ATOM     15  C10 UNL A   1      -1.065   7.292  -1.363  1.00  0.00    +0.000 C 
ATOM     16  C11 UNL A   1      -0.005   8.075  -0.958  1.00  0.00    +0.000 C 
ATOM     17  N2  UNL A   1       1.107   7.448  -1.476  1.00  0.00    +0.000 N 
BRANCH   15   14
ATOM    107  H5  UNL A   1      -2.728   8.506  -1.013  1.00  0.00    +0.000 H 
ATOM    108  H6  UNL A   1      -2.986   7.088  -2.082  1.00  0.00    +0.000 H 
ATOM     14  C9  UNL A   1      -2.538   7.467  -1.187  1.00  0.00    +0.000 C 
BRANCH   14   13
ATOM     13  O2  UNL A   1      -3.130   6.723  -0.107  1.00  0.00    +0.000 O 
BRANCH   13   12
ATOM    101  C70 UNL A   1      -2.840   4.602  -1.315  1.00  0.00    +0.000 C 
ATOM    102  C71 UNL A   1      -2.691   3.217  -1.219  1.00  0.00    +0.000 C 
ATOM      9  C5  UNL A   1      -2.926   2.563  -0.009  1.00  0.00    +0.000 C 
ATOM     10  C6  UNL A   1      -3.381   3.301   1.086  1.00  0.00    +0.000 C 
ATOM    105  H3  UNL A   1      -3.639   2.820   1.962  1.00  0.00    +0.000 H 
ATOM     11  C7  UNL A   1      -3.487   4.694   0.995  1.00  0.00    +0.000 C 
ATOM    106  H4  UNL A   1      -3.814   5.236   1.809  1.00  0.00    +0.000 H 
ATOM     12  C8  UNL A   1      -3.154   5.357  -0.189  1.00  0.00    +0.000 C 
ATOM    143  H41 UNL A   1      -2.405   2.674  -2.048  1.00  0.00    +0.000 H 
ATOM    142  H40 UNL A   1      -2.716   5.068  -2.228  1.00  0.00    +0.000 H 
BRANCH    9    8
ATOM    104  H2  UNL A   1      -3.502   0.503   0.182  1.00  0.00    +0.000 H 
ATOM      8  C4  UNL A   1      -2.682   1.123   0.097  1.00  0.00    +0.000 C 
BRANCH    8    7
ATOM      1  O1  UNL A   1      -2.190  -1.742   0.145  1.00  0.00    +0.000 O 
ATOM      2  C1  UNL A   1      -1.296  -0.927   0.109  1.00  0.00    +0.000 C 
ATOM      3  N1  UNL A   1       0.041  -1.229   0.063  1.00  0.00    +0.000 N 
ATOM      4  C2  UNL A   1       0.932  -0.202   0.021  1.00  0.00    +0.000 C 
ATOM      5  S1  UNL A   1       2.573  -0.417  -0.033  1.00  0.00    +0.000 S 
ATOM      6  S2  UNL A   1       0.079   1.323   0.038  1.00  0.00    +0.000 S 
ATOM      7  C3  UNL A   1      -1.469   0.553   0.090  1.00  0.00    +0.000 C 
ATOM    103  H1  UNL A   1       0.347  -2.164   0.060  1.00  0.00    +0.000 H 
ENDBRANCH    8    7
ENDBRANCH    9    8
ENDBRANCH   13   12
ENDBRANCH   14   13
ENDBRANCH   15   14
ENDBRANCH   18   17
ENDBRANCH   22   21
ENDBRANCH   24   22
ENDBRANCH   25   24
ENDBRANCH   26   25
ENDBRANCH   27   26
ENDBRANCH   28   27
ENDBRANCH   29   28
ENDBRANCH   30   29
ENDBRANCH   31   30
ENDBRANCH   32   31
ENDBRANCH   34   32
ENDBRANCH   38   37
BRANCH   42   43
ATOM     43  C32 UNL A   1       1.757   9.621  12.550  1.00  0.00    +0.000 C 
ATOM     44  C33 UNL A   1       1.041   9.332  13.730  1.00  0.00    +0.000 C 
ATOM     45  F1  UNL A   1       1.540   9.665  14.931  1.00  0.00    +0.000 F 
ATOM     46  C34 UNL A   1      -0.151   8.604  13.712  1.00  0.00    +0.000 C 
ATOM     47  F2  UNL A   1      -0.721   8.233  14.867  1.00  0.00    +0.000 F 
ATOM     48  C35 UNL A   1      -0.707   8.199  12.513  1.00  0.00    +0.000 C 
ATOM     49  F3  UNL A   1      -1.811   7.443  12.495  1.00  0.00    +0.000 F 
ATOM     50  C36 UNL A   1      -0.083   8.540  11.332  1.00  0.00    +0.000 C 
ATOM     51  F4  UNL A   1      -0.598   8.144  10.160  1.00  0.00    +0.000 F 
ATOM     52  C37 UNL A   1       1.134   9.218  11.349  1.00  0.00    +0.000 C 
ATOM     53  F5  UNL A   1       1.720   9.358  10.155  1.00  0.00    +0.000 F 
ENDBRANCH   42   43
BRANCH   59   60
ATOM     65  C46 UNL A   1      10.143   6.476  15.506  1.00  0.00    +0.000 C 
ATOM     66  F8  UNL A   1      11.363   6.445  16.062  1.00  0.00    +0.000 F 
ATOM     67  C47 UNL A   1       9.013   6.413  16.306  1.00  0.00    +0.000 C 
ATOM     68  F9  UNL A   1       9.139   6.346  17.638  1.00  0.00    +0.000 F 
ATOM     69  C48 UNL A   1       7.745   6.452  15.733  1.00  0.00    +0.000 C 
ATOM     70  F10 UNL A   1       6.673   6.416  16.540  1.00  0.00    +0.000 F 
ATOM     60  C43 UNL A   1       7.575   6.584  14.349  1.00  0.00    +0.000 C 
ATOM     61  C44 UNL A   1       8.737   6.681  13.564  1.00  0.00    +0.000 C 
ATOM     62  F6  UNL A   1       8.660   6.918  12.249  1.00  0.00    +0.000 F 
ATOM     63  C45 UNL A   1      10.007   6.601  14.134  1.00  0.00    +0.000 C 
ATOM     64  F7  UNL A   1      11.098   6.686  13.360  1.00  0.00    +0.000 F 
ENDBRANCH   59   60
BRANCH   74   75
ATOM     75  C52 UNL A   1       6.827   3.715   8.820  1.00  0.00    +0.000 C 
ATOM     76  C53 UNL A   1       6.444   2.422   9.214  1.00  0.00    +0.000 C 
ATOM     77  F11 UNL A   1       6.335   2.117  10.515  1.00  0.00    +0.000 F 
ATOM     78  C54 UNL A   1       6.095   1.440   8.279  1.00  0.00    +0.000 C 
ATOM     79  F12 UNL A   1       5.669   0.240   8.697  1.00  0.00    +0.000 F 
ATOM     80  C55 UNL A   1       6.128   1.720   6.923  1.00  0.00    +0.000 C 
ATOM     81  F13 UNL A   1       5.728   0.803   6.030  1.00  0.00    +0.000 F 
ATOM     82  C56 UNL A   1       6.535   2.970   6.500  1.00  0.00    +0.000 C 
ATOM     83  F14 UNL A   1       6.540   3.267   5.192  1.00  0.00    +0.000 F 
ATOM     84  C57 UNL A   1       6.876   3.952   7.431  1.00  0.00    +0.000 C 
ATOM     85  F15 UNL A   1       7.163   5.168   6.947  1.00  0.00    +0.000 F 
ENDBRANCH   74   75
TORSDOF 21