ROOT
ATOM     24  C20 UNL A   1       3.628  15.966   3.311  1.00  0.00    +0.000 C 
ATOM     25  C21 UNL A   1       2.851  16.600   4.430  1.00  0.00    +0.000 C 
ATOM     26  N3  UNL A   1       1.788  17.363   4.372  1.00  0.00    +0.000 N 
ATOM     27  C22 UNL A   1       1.446  17.634   5.690  1.00  0.00    +0.000 C 
ATOM     28  C23 UNL A   1       0.451  18.424   6.159  1.00  0.00    +0.000 C 
ATOM     40  C30 UNL A   1      -0.462  19.158   5.324  1.00  0.00    +0.000 C 
ATOM     41  C31 UNL A   1      -1.458  20.041   5.700  1.00  0.00    +0.000 C 
ATOM     42  C32 UNL A   1      -2.116  20.478   4.544  1.00  0.00    +0.000 C 
ATOM     43  C33 UNL A   1      -1.502  19.899   3.445  1.00  0.00    +0.000 C 
ATOM     44  N4  UNL A   1      -0.491  19.089   3.938  1.00  0.00    +0.000 N 
ATOM     45  C34 UNL A   1      -1.814  20.069   2.049  1.00  0.00    +0.000 C 
ATOM     57  C41 UNL A   1      -1.150  19.479   1.025  1.00  0.00    +0.000 C 
ATOM     58  N5  UNL A   1      -0.065  18.616   1.071  1.00  0.00    +0.000 N 
ATOM     59  C42 UNL A   1       0.207  18.311  -0.174  1.00  0.00    +0.000 C 
ATOM     60  C43 UNL A   1       1.298  17.432  -0.719  1.00  0.00    +0.000 C 
ATOM     72  C50 UNL A   1       2.168  16.857   0.133  1.00  0.00    +0.000 C 
ATOM     73  C51 UNL A   1       3.278  15.988  -0.247  1.00  0.00    +0.000 C 
ATOM     74  C52 UNL A   1       3.905  15.569   0.864  1.00  0.00    +0.000 C 
ATOM     75  C53 UNL A   1       3.259  16.167   2.032  1.00  0.00    +0.000 C 
ATOM     76  N6  UNL A   1       2.243  16.921   1.502  1.00  0.00    +0.000 N 
ATOM     77  C54 UNL A   1      -0.695  18.930  -1.155  1.00  0.00    +0.000 C 
ATOM     78  C55 UNL A   1      -1.480  19.660  -0.374  1.00  0.00    +0.000 C 
ATOM     79  C56 UNL A   1       2.386  16.918   6.527  1.00  0.00    +0.000 C 
ATOM     80  C57 UNL A   1       3.314  16.317   5.797  1.00  0.00    +0.000 C 
ATOM    118  H25 UNL A   1      -1.679  20.329   6.666  1.00  0.00    +0.000 H 
ATOM    119  H26 UNL A   1      -2.921  21.122   4.515  1.00  0.00    +0.000 H 
ATOM    120  H27 UNL A   1       0.117  18.546   3.387  1.00  0.00    +0.000 H 
ATOM    121  H28 UNL A   1       3.538  15.736  -1.213  1.00  0.00    +0.000 H 
ATOM    122  H29 UNL A   1       4.713  14.927   0.889  1.00  0.00    +0.000 H 
ATOM    123  H30 UNL A   1       1.625  17.456   2.052  1.00  0.00    +0.000 H 
ATOM    124  H31 UNL A   1      -0.713  18.825  -2.181  1.00  0.00    +0.000 H 
ATOM    125  H32 UNL A   1      -2.231  20.278  -0.720  1.00  0.00    +0.000 H 
ATOM    126  H33 UNL A   1       2.339  16.881   7.557  1.00  0.00    +0.000 H 
ATOM    127  H34 UNL A   1       4.144  15.788   6.106  1.00  0.00    +0.000 H 
ENDROOT
BRANCH   24   23
ATOM    129  H36 UNL A   1       5.385  12.104   5.086  1.00  0.00    +0.000 H 
ATOM     81  C58 UNL A   1       4.512  13.832   4.251  1.00  0.00    +0.000 C 
ATOM     82  C59 UNL A   1       5.563  12.971   4.554  1.00  0.00    +0.000 C 
ATOM     20  C16 UNL A   1       6.861  13.283   4.139  1.00  0.00    +0.000 C 
ATOM     21  C17 UNL A   1       7.125  14.508   3.520  1.00  0.00    +0.000 C 
ATOM    116  H23 UNL A   1       8.089  14.754   3.248  1.00  0.00    +0.000 H 
ATOM     22  C18 UNL A   1       6.078  15.399   3.272  1.00  0.00    +0.000 C 
ATOM    117  H24 UNL A   1       6.275  16.314   2.836  1.00  0.00    +0.000 H 
ATOM     23  C19 UNL A   1       4.760  15.056   3.612  1.00  0.00    +0.000 C 
ATOM    128  H35 UNL A   1       3.545  13.568   4.497  1.00  0.00    +0.000 H 
BRANCH   20   18
ATOM     18  C15 UNL A   1       7.983  12.346   4.375  1.00  0.00    +0.000 C 
ATOM     19  O2  UNL A   1       9.064  12.774   4.754  1.00  0.00    +0.000 O 
BRANCH   18   17
ATOM     17  N2  UNL A   1       7.806  10.999   4.168  1.00  0.00    +0.000 N 
ATOM    115  H22 UNL A   1       8.479  10.414   4.585  1.00  0.00    +0.000 H 
BRANCH   17   16
ATOM    113  H20 UNL A   1       6.240   9.655   4.077  1.00  0.00    +0.000 H 
ATOM    114  H21 UNL A   1       6.103  11.061   3.020  1.00  0.00    +0.000 H 
ATOM     16  C14 UNL A   1       6.761  10.319   3.420  1.00  0.00    +0.000 C 
BRANCH   16   15
ATOM    111  H18 UNL A   1       6.510   9.134   1.680  1.00  0.00    +0.000 H 
ATOM     15  C13 UNL A   1       7.329   9.513   2.254  1.00  0.00    +0.000 C 
ATOM    112  H19 UNL A   1       7.956  10.181   1.701  1.00  0.00    +0.000 H 
BRANCH   15   14
ATOM    110  H17 UNL A   1       9.002   8.743   3.257  1.00  0.00    +0.000 H 
ATOM    109  H16 UNL A   1       8.550   7.845   1.776  1.00  0.00    +0.000 H 
ATOM     14  C12 UNL A   1       8.211   8.331   2.667  1.00  0.00    +0.000 C 
BRANCH   14   13
ATOM    107  H14 UNL A   1       8.206   6.464   3.682  1.00  0.00    +0.000 H 
ATOM    108  H15 UNL A   1       7.273   7.778   4.462  1.00  0.00    +0.000 H 
ATOM     13  C11 UNL A   1       7.526   7.280   3.549  1.00  0.00    +0.000 C 
BRANCH   13   12
ATOM    105  H12 UNL A   1       5.801   6.040   3.713  1.00  0.00    +0.000 H 
ATOM    106  H13 UNL A   1       5.569   7.552   2.804  1.00  0.00    +0.000 H 
ATOM     12  C10 UNL A   1       6.211   6.717   2.993  1.00  0.00    +0.000 C 
BRANCH   12   11
ATOM     11  C9  UNL A   1       6.371   5.970   1.667  1.00  0.00    +0.000 C 
ATOM    103  H10 UNL A   1       5.411   5.860   1.207  1.00  0.00    +0.000 H 
ATOM    104  H11 UNL A   1       7.023   6.531   1.031  1.00  0.00    +0.000 H 
BRANCH   11   10
ATOM     10  N1  UNL A   1       6.947   4.657   1.889  1.00  0.00    +0.000 N 
ATOM    102  H9  UNL A   1       7.888   4.670   2.180  1.00  0.00    +0.000 H 
BRANCH   10    8
ATOM      9  O1  UNL A   1       7.130   2.431   1.938  1.00  0.00    +0.000 O 
ATOM      8  C8  UNL A   1       6.413   3.416   1.766  1.00  0.00    +0.000 C 
BRANCH    8    7
ATOM    101  H8  UNL A   1       4.830   2.499   0.623  1.00  0.00    +0.000 H 
ATOM      7  C7  UNL A   1       5.008   3.212   1.348  1.00  0.00    +0.000 C 
BRANCH    7    6
ATOM    100  H7  UNL A   1       4.110   4.626   2.519  1.00  0.00    +0.000 H 
ATOM      6  C6  UNL A   1       3.947   3.874   1.831  1.00  0.00    +0.000 C 
BRANCH    6    5
ATOM    130  H37 UNL A   1       2.003   5.614   1.298  1.00  0.00    +0.000 H 
ATOM      3  C3  UNL A   1       0.757   1.995   0.993  1.00  0.00    +0.000 C 
ATOM      4  C4  UNL A   1       2.092   2.266   1.330  1.00  0.00    +0.000 C 
ATOM      5  C5  UNL A   1       2.563   3.582   1.430  1.00  0.00    +0.000 C 
ATOM     99  H6  UNL A   1       2.739   1.481   1.507  1.00  0.00    +0.000 H 
ATOM    136  H43 UNL A   1      -1.091   2.880   0.480  1.00  0.00    +0.000 H 
ATOM     83  C60 UNL A   1       1.671   4.640   1.217  1.00  0.00    +0.000 C 
ATOM     84  C61 UNL A   1       0.330   4.387   0.894  1.00  0.00    +0.000 C 
ATOM     93  C69 UNL A   1      -0.114   3.066   0.757  1.00  0.00    +0.000 C 
BRANCH    3    2
ATOM     97  H4  UNL A   1       0.556   0.061   1.811  1.00  0.00    +0.000 H 
ATOM      2  C2  UNL A   1       0.262   0.572   0.918  1.00  0.00    +0.000 C 
ATOM     98  H5  UNL A   1      -0.802   0.607   0.813  1.00  0.00    +0.000 H 
BRANCH    2    1
ATOM      1  C1  UNL A   1       0.815  -0.184  -0.279  1.00  0.00    +0.000 C 
ATOM     94  H1  UNL A   1       0.430  -1.183  -0.279  1.00  0.00    +0.000 H 
ATOM     95  H2  UNL A   1       1.883  -0.213  -0.221  1.00  0.00    +0.000 H 
ATOM     96  H3  UNL A   1       0.521   0.311  -1.181  1.00  0.00    +0.000 H 
ENDBRANCH    2    1
ENDBRANCH    3    2
BRANCH   84   85
ATOM     85  C62 UNL A   1      -0.581   5.547   0.684  1.00  0.00    +0.000 C 
ATOM     86  O3  UNL A   1      -0.118   6.637   0.360  1.00  0.00    +0.000 O 
BRANCH   85   87
ATOM    131  H38 UNL A   1      -2.480   6.492  -0.919  1.00  0.00    +0.000 H 
ATOM    132  H39 UNL A   1      -4.888   6.238  -0.733  1.00  0.00    +0.000 H 
ATOM    133  H40 UNL A   1      -5.841   5.037   1.147  1.00  0.00    +0.000 H 
ATOM    134  H41 UNL A   1      -4.395   4.119   2.865  1.00  0.00    +0.000 H 
ATOM    135  H42 UNL A   1      -1.985   4.367   2.684  1.00  0.00    +0.000 H 
ATOM     87  C63 UNL A   1      -2.049   5.411   0.846  1.00  0.00    +0.000 C 
ATOM     88  C64 UNL A   1      -2.886   5.974  -0.123  1.00  0.00    +0.000 C 
ATOM     89  C65 UNL A   1      -4.270   5.835  -0.012  1.00  0.00    +0.000 C 
ATOM     90  C66 UNL A   1      -4.818   5.149   1.073  1.00  0.00    +0.000 C 
ATOM     91  C67 UNL A   1      -3.986   4.615   2.058  1.00  0.00    +0.000 C 
ATOM     92  C68 UNL A   1      -2.600   4.751   1.951  1.00  0.00    +0.000 C 
ENDBRANCH   85   87
ENDBRANCH   84   85
ENDBRANCH    6    5
ENDBRANCH    7    6
ENDBRANCH    8    7
ENDBRANCH   10    8
ENDBRANCH   11   10
ENDBRANCH   12   11
ENDBRANCH   13   12
ENDBRANCH   14   13
ENDBRANCH   15   14
ENDBRANCH   16   15
ENDBRANCH   17   16
ENDBRANCH   18   17
ENDBRANCH   20   18
ENDBRANCH   24   23
BRANCH   28   29
ATOM     33  F2  UNL A   1       2.027  19.939  10.546  1.00  0.00    +0.000 F 
ATOM     34  C27 UNL A   1      -0.010  18.750  10.434  1.00  0.00    +0.000 C 
ATOM     35  F3  UNL A   1      -0.152  18.839  11.764  1.00  0.00    +0.000 F 
ATOM     36  C28 UNL A   1      -0.962  18.083   9.677  1.00  0.00    +0.000 C 
ATOM     37  F4  UNL A   1      -2.034  17.544  10.275  1.00  0.00    +0.000 F 
ATOM     38  C29 UNL A   1      -0.803  17.967   8.299  1.00  0.00    +0.000 C 
ATOM     39  F5  UNL A   1      -1.732  17.301   7.597  1.00  0.00    +0.000 F 
ATOM     29  C24 UNL A   1       0.302  18.537   7.649  1.00  0.00    +0.000 C 
ATOM     30  C25 UNL A   1       1.239  19.228   8.431  1.00  0.00    +0.000 C 
ATOM     31  F1  UNL A   1       2.320  19.781   7.860  1.00  0.00    +0.000 F 
ATOM     32  C26 UNL A   1       1.092  19.317   9.813  1.00  0.00    +0.000 C 
ENDBRANCH   28   29
BRANCH   45   46
ATOM     46  C35 UNL A   1      -2.946  20.986   1.693  1.00  0.00    +0.000 C 
ATOM     47  C36 UNL A   1      -4.174  20.490   1.231  1.00  0.00    +0.000 C 
ATOM     48  F6  UNL A   1      -4.343  19.172   1.046  1.00  0.00    +0.000 F 
ATOM     49  C37 UNL A   1      -5.221  21.353   0.921  1.00  0.00    +0.000 C 
ATOM     50  F7  UNL A   1      -6.372  20.862   0.440  1.00  0.00    +0.000 F 
ATOM     51  C38 UNL A   1      -5.072  22.721   1.095  1.00  0.00    +0.000 C 
ATOM     52  F8  UNL A   1      -6.083  23.550   0.802  1.00  0.00    +0.000 F 
ATOM     53  C39 UNL A   1      -3.871  23.231   1.567  1.00  0.00    +0.000 C 
ATOM     54  F9  UNL A   1      -3.729  24.552   1.746  1.00  0.00    +0.000 F 
ATOM     55  C40 UNL A   1      -2.813  22.373   1.853  1.00  0.00    +0.000 C 
ATOM     56  F10 UNL A   1      -1.660  22.896   2.297  1.00  0.00    +0.000 F 
ENDBRANCH   45   46
BRANCH   60   61
ATOM     65  F12 UNL A   1       2.461  19.082  -5.155  1.00  0.00    +0.000 F 
ATOM     66  C47 UNL A   1       1.775  16.832  -4.947  1.00  0.00    +0.000 C 
ATOM     67  F13 UNL A   1       1.925  16.648  -6.265  1.00  0.00    +0.000 F 
ATOM     68  C48 UNL A   1       1.333  15.790  -4.145  1.00  0.00    +0.000 C 
ATOM     69  F14 UNL A   1       1.073  14.592  -4.687  1.00  0.00    +0.000 F 
ATOM     70  C49 UNL A   1       1.161  15.985  -2.776  1.00  0.00    +0.000 C 
ATOM     71  F15 UNL A   1       0.726  14.963  -2.025  1.00  0.00    +0.000 F 
ATOM     61  C44 UNL A   1       1.451  17.221  -2.180  1.00  0.00    +0.000 C 
ATOM     62  C45 UNL A   1       1.907  18.255  -3.009  1.00  0.00    +0.000 C 
ATOM     63  F11 UNL A   1       2.178  19.460  -2.486  1.00  0.00    +0.000 F 
ATOM     64  C46 UNL A   1       2.056  18.066  -4.380  1.00  0.00    +0.000 C 
ENDBRANCH   60   61
TORSDOF 21