ROOT
ATOM    136  H38 UNL A   1       8.532  20.016  11.609  1.00  0.00    +0.000 H 
ATOM    137  H39 UNL A   1       7.565  19.553  13.986  1.00  0.00    +0.000 H 
ATOM    138  H40 UNL A   1       4.707  18.484  11.188  1.00  0.00    +0.000 H 
ATOM    139  H41 UNL A   1      -1.175  16.413   9.828  1.00  0.00    +0.000 H 
ATOM    140  H42 UNL A   1      -0.219  16.838   7.513  1.00  0.00    +0.000 H 
ATOM    141  H43 UNL A   1       2.681  17.891  10.300  1.00  0.00    +0.000 H 
ATOM    142  H44 UNL A   1       0.712  16.849  14.807  1.00  0.00    +0.000 H 
ATOM    143  H45 UNL A   1       2.863  17.796  15.821  1.00  0.00    +0.000 H 
ATOM    144  H46 UNL A   1       6.670  19.238   6.637  1.00  0.00    +0.000 H 
ATOM    145  H47 UNL A   1       4.376  18.738   5.613  1.00  0.00    +0.000 H 
ATOM     38  C32 UNL A   1       2.437  17.875   7.514  1.00  0.00    +0.000 C 
ATOM     39  C33 UNL A   1       3.833  18.363   7.783  1.00  0.00    +0.000 C 
ATOM     40  N3  UNL A   1       4.457  18.500   8.926  1.00  0.00    +0.000 N 
ATOM     41  C34 UNL A   1       5.736  18.937   8.608  1.00  0.00    +0.000 C 
ATOM     42  C35 UNL A   1       6.747  19.272   9.446  1.00  0.00    +0.000 C 
ATOM     54  C42 UNL A   1       6.654  19.243  10.882  1.00  0.00    +0.000 C 
ATOM     55  C43 UNL A   1       7.600  19.625  11.817  1.00  0.00    +0.000 C 
ATOM     56  C44 UNL A   1       7.076  19.389  13.093  1.00  0.00    +0.000 C 
ATOM     57  C45 UNL A   1       5.788  18.898  12.952  1.00  0.00    +0.000 C 
ATOM     58  N4  UNL A   1       5.544  18.808  11.591  1.00  0.00    +0.000 N 
ATOM     59  C46 UNL A   1       4.848  18.537  13.982  1.00  0.00    +0.000 C 
ATOM     71  C53 UNL A   1       3.598  18.062  13.763  1.00  0.00    +0.000 C 
ATOM     72  N5  UNL A   1       2.953  17.827  12.557  1.00  0.00    +0.000 N 
ATOM     73  C54 UNL A   1       1.769  17.360  12.867  1.00  0.00    +0.000 C 
ATOM     74  C55 UNL A   1       0.639  16.960  11.959  1.00  0.00    +0.000 C 
ATOM     86  C62 UNL A   1       0.781  17.104  10.628  1.00  0.00    +0.000 C 
ATOM     87  C63 UNL A   1      -0.228  16.771   9.627  1.00  0.00    +0.000 C 
ATOM     88  C64 UNL A   1       0.274  17.005   8.404  1.00  0.00    +0.000 C 
ATOM     89  C65 UNL A   1       1.632  17.533   8.538  1.00  0.00    +0.000 C 
ATOM     90  N6  UNL A   1       1.845  17.567   9.893  1.00  0.00    +0.000 N 
ATOM     91  C66 UNL A   1       1.538  17.221  14.312  1.00  0.00    +0.000 C 
ATOM     92  C67 UNL A   1       2.669  17.697  14.813  1.00  0.00    +0.000 C 
ATOM     93  C68 UNL A   1       5.815  19.001   7.165  1.00  0.00    +0.000 C 
ATOM     94  C69 UNL A   1       4.646  18.717   6.609  1.00  0.00    +0.000 C 
ENDROOT
BRANCH   38   37
ATOM     34  C28 UNL A   1       1.062  17.312   3.491  1.00  0.00    +0.000 C 
ATOM     35  C29 UNL A   1       0.476  18.299   4.291  1.00  0.00    +0.000 C 
ATOM     36  C30 UNL A   1       0.935  18.502   5.595  1.00  0.00    +0.000 C 
ATOM     37  C31 UNL A   1       1.962  17.701   6.118  1.00  0.00    +0.000 C 
ATOM    134  H36 UNL A   1      -0.294  18.876   3.918  1.00  0.00    +0.000 H 
ATOM    135  H37 UNL A   1       0.517  19.245   6.176  1.00  0.00    +0.000 H 
ATOM    146  H48 UNL A   1       3.302  16.124   5.680  1.00  0.00    +0.000 H 
ATOM    147  H49 UNL A   1       2.620  15.892   3.366  1.00  0.00    +0.000 H 
ATOM     95  C70 UNL A   1       2.554  16.725   5.301  1.00  0.00    +0.000 C 
ATOM     96  C71 UNL A   1       2.136  16.564   3.981  1.00  0.00    +0.000 C 
BRANCH   34   32
ATOM     33  O3  UNL A   1       0.244  18.102   1.444  1.00  0.00    +0.000 O 
ATOM     32  C27 UNL A   1       0.565  17.129   2.107  1.00  0.00    +0.000 C 
BRANCH   32   31
ATOM    133  H35 UNL A   1       0.455  15.833   0.581  1.00  0.00    +0.000 H 
ATOM     31  N2  UNL A   1       0.476  15.868   1.564  1.00  0.00    +0.000 N 
BRANCH   31   30
ATOM    131  H33 UNL A   1       1.151  13.934   1.817  1.00  0.00    +0.000 H 
ATOM    132  H34 UNL A   1       0.581  14.742   3.279  1.00  0.00    +0.000 H 
ATOM     30  C26 UNL A   1       0.408  14.581   2.235  1.00  0.00    +0.000 C 
BRANCH   30   29
ATOM    129  H31 UNL A   1      -0.970  13.026   2.657  1.00  0.00    +0.000 H 
ATOM    130  H32 UNL A   1      -1.680  14.648   2.409  1.00  0.00    +0.000 H 
ATOM     29  C25 UNL A   1      -0.963  13.926   2.078  1.00  0.00    +0.000 C 
BRANCH   29   28
ATOM     28  C24 UNL A   1      -1.344  13.568   0.637  1.00  0.00    +0.000 C 
ATOM    127  H29 UNL A   1      -2.312  13.114   0.656  1.00  0.00    +0.000 H 
ATOM    128  H30 UNL A   1      -1.307  14.487   0.089  1.00  0.00    +0.000 H 
BRANCH   28   27
ATOM     27  C23 UNL A   1      -0.388  12.611  -0.086  1.00  0.00    +0.000 C 
ATOM    125  H27 UNL A   1      -0.819  12.365  -1.034  1.00  0.00    +0.000 H 
ATOM    126  H28 UNL A   1       0.547  13.126  -0.163  1.00  0.00    +0.000 H 
BRANCH   27   26
ATOM     26  C22 UNL A   1      -0.094  11.303   0.655  1.00  0.00    +0.000 C 
ATOM    123  H25 UNL A   1       0.634  10.756   0.093  1.00  0.00    +0.000 H 
ATOM    124  H26 UNL A   1       0.254  11.573   1.630  1.00  0.00    +0.000 H 
BRANCH   26   25
ATOM     25  C21 UNL A   1      -1.320  10.407   0.856  1.00  0.00    +0.000 C 
ATOM    122  H24 UNL A   1      -2.187  11.032   0.891  1.00  0.00    +0.000 H 
ATOM    121  H23 UNL A   1      -1.203   9.860   1.768  1.00  0.00    +0.000 H 
BRANCH   25   24
ATOM    120  H22 UNL A   1      -1.984   9.829  -1.002  1.00  0.00    +0.000 H 
ATOM     24  N1  UNL A   1      -1.483   9.470  -0.234  1.00  0.00    +0.000 N 
BRANCH   24   22
ATOM     22  C20 UNL A   1      -1.071   8.182  -0.392  1.00  0.00    +0.000 C 
ATOM     23  O2  UNL A   1      -1.143   7.733  -1.543  1.00  0.00    +0.000 O 
BRANCH   22   20
ATOM    116  H18 UNL A   1      -0.629   6.295   0.374  1.00  0.00    +0.000 H 
ATOM     20  C18 UNL A   1      -0.550   7.293   0.751  1.00  0.00    +0.000 C 
BRANCH   20   19
ATOM      7  C6  UNL A   1       1.926   6.624   0.488  1.00  0.00    +0.000 C 
ATOM      8  C7  UNL A   1       3.291   6.920   0.694  1.00  0.00    +0.000 C 
ATOM      9  C8  UNL A   1       3.698   7.990   1.499  1.00  0.00    +0.000 C 
ATOM    104  H6  UNL A   1       4.007   6.332   0.239  1.00  0.00    +0.000 H 
ATOM     17  C15 UNL A   1       2.724   8.807   2.064  1.00  0.00    +0.000 C 
ATOM     18  C16 UNL A   1       1.373   8.548   1.842  1.00  0.00    +0.000 C 
ATOM     19  C17 UNL A   1       0.941   7.488   1.027  1.00  0.00    +0.000 C 
ATOM    115  H17 UNL A   1       0.668   9.154   2.289  1.00  0.00    +0.000 H 
ATOM    114  H16 UNL A   1       3.003   9.608   2.651  1.00  0.00    +0.000 H 
BRANCH    7    6
ATOM     97  C72 UNL A   1       1.130   5.120  -1.382  1.00  0.00    +0.000 C 
ATOM     98  C73 UNL A   1       0.787   3.836  -1.833  1.00  0.00    +0.000 C 
ATOM      3  C2  UNL A   1       0.914   2.712  -1.002  1.00  0.00    +0.000 C 
ATOM      4  C3  UNL A   1       1.393   2.900   0.294  1.00  0.00    +0.000 C 
ATOM      5  C4  UNL A   1       1.724   4.178   0.747  1.00  0.00    +0.000 C 
ATOM    102  H4  UNL A   1       1.503   2.089   0.923  1.00  0.00    +0.000 H 
ATOM      6  C5  UNL A   1       1.596   5.307  -0.079  1.00  0.00    +0.000 C 
ATOM    103  H5  UNL A   1       2.071   4.296   1.711  1.00  0.00    +0.000 H 
ATOM    148  H50 UNL A   1       1.039   5.929  -2.016  1.00  0.00    +0.000 H 
ATOM    149  H51 UNL A   1       0.433   3.716  -2.795  1.00  0.00    +0.000 H 
BRANCH    3    2
ATOM      2  S1  UNL A   1       0.423   1.126  -1.668  1.00  0.00    +0.000 S 
BRANCH    2    1
ATOM      1  C1  UNL A   1       0.922  -0.043  -0.372  1.00  0.00    +0.000 C 
ATOM     99  H1  UNL A   1       0.670  -1.038  -0.673  1.00  0.00    +0.000 H 
ATOM    100  H2  UNL A   1       0.412   0.194   0.538  1.00  0.00    +0.000 H 
ATOM    101  H3  UNL A   1       1.979   0.026  -0.217  1.00  0.00    +0.000 H 
ENDBRANCH    2    1
ENDBRANCH    3    2
ENDBRANCH    7    6
BRANCH    9   10
ATOM    105  H7  UNL A   1       5.287   9.200   2.155  1.00  0.00    +0.000 H 
ATOM     10  C9  UNL A   1       5.148   8.178   1.871  1.00  0.00    +0.000 C 
ATOM    106  H8  UNL A   1       5.716   7.894   1.010  1.00  0.00    +0.000 H 
BRANCH   10   11
ATOM     11  C10 UNL A   1       5.644   7.292   3.023  1.00  0.00    +0.000 C 
ATOM    108  H10 UNL A   1       4.119   8.055   4.340  1.00  0.00    +0.000 H 
ATOM     12  C11 UNL A   1       4.757   7.198   4.273  1.00  0.00    +0.000 C 
ATOM    107  H9  UNL A   1       6.565   7.783   3.255  1.00  0.00    +0.000 H 
ATOM     15  C14 UNL A   1       5.748   5.840   2.611  1.00  0.00    +0.000 C 
ATOM    109  H11 UNL A   1       5.345   7.167   5.167  1.00  0.00    +0.000 H 
ATOM     13  C12 UNL A   1       3.925   5.930   4.111  1.00  0.00    +0.000 C 
ATOM     14  C13 UNL A   1       4.847   4.941   3.414  1.00  0.00    +0.000 C 
ATOM     16  O1  UNL A   1       6.504   5.434   1.736  1.00  0.00    +0.000 O 
ATOM    110  H12 UNL A   1       3.059   6.123   3.513  1.00  0.00    +0.000 H 
ATOM    111  H13 UNL A   1       3.572   5.558   5.050  1.00  0.00    +0.000 H 
ATOM    112  H14 UNL A   1       4.295   4.280   2.779  1.00  0.00    +0.000 H 
ATOM    113  H15 UNL A   1       5.376   4.303   4.091  1.00  0.00    +0.000 H 
ENDBRANCH   10   11
ENDBRANCH    9   10
ENDBRANCH   20   19
BRANCH   20   21
ATOM    117  H19 UNL A   1      -1.454   8.177   2.476  1.00  0.00    +0.000 H 
ATOM     21  C19 UNL A   1      -1.442   7.223   1.991  1.00  0.00    +0.000 C 
ATOM    118  H20 UNL A   1      -1.060   6.485   2.664  1.00  0.00    +0.000 H 
ATOM    119  H21 UNL A   1      -2.437   6.958   1.699  1.00  0.00    +0.000 H 
ENDBRANCH   20   21
ENDBRANCH   22   20
ENDBRANCH   24   22
ENDBRANCH   25   24
ENDBRANCH   26   25
ENDBRANCH   27   26
ENDBRANCH   28   27
ENDBRANCH   29   28
ENDBRANCH   30   29
ENDBRANCH   31   30
ENDBRANCH   32   31
ENDBRANCH   34   32
ENDBRANCH   38   37
BRANCH   42   43
ATOM     43  C36 UNL A   1       8.044  19.707   8.829  1.00  0.00    +0.000 C 
ATOM     44  C37 UNL A   1       8.172  20.948   8.188  1.00  0.00    +0.000 C 
ATOM     45  F1  UNL A   1       7.111  21.759   8.069  1.00  0.00    +0.000 F 
ATOM     46  C38 UNL A   1       9.386  21.345   7.631  1.00  0.00    +0.000 C 
ATOM     47  F2  UNL A   1       9.473  22.515   6.984  1.00  0.00    +0.000 F 
ATOM     48  C39 UNL A   1      10.500  20.525   7.735  1.00  0.00    +0.000 C 
ATOM     49  F3  UNL A   1      11.668  20.911   7.204  1.00  0.00    +0.000 F 
ATOM     50  C40 UNL A   1      10.400  19.303   8.382  1.00  0.00    +0.000 C 
ATOM     51  F4  UNL A   1      11.479  18.515   8.492  1.00  0.00    +0.000 F 
ATOM     52  C41 UNL A   1       9.182  18.891   8.915  1.00  0.00    +0.000 C 
ATOM     53  F5  UNL A   1       9.114  17.697   9.523  1.00  0.00    +0.000 F 
ENDBRANCH   42   43
BRANCH   59   60
ATOM     65  C50 UNL A   1       6.120  19.089  18.061  1.00  0.00    +0.000 C 
ATOM     66  F8  UNL A   1       6.515  19.265  19.329  1.00  0.00    +0.000 F 
ATOM     67  C51 UNL A   1       5.829  20.187  17.265  1.00  0.00    +0.000 C 
ATOM     68  F9  UNL A   1       5.960  21.425  17.760  1.00  0.00    +0.000 F 
ATOM     69  C52 UNL A   1       5.398  20.005  15.954  1.00  0.00    +0.000 C 
ATOM     70  F10 UNL A   1       5.112  21.085  15.212  1.00  0.00    +0.000 F 
ATOM     60  C47 UNL A   1       5.272  18.718  15.409  1.00  0.00    +0.000 C 
ATOM     61  C48 UNL A   1       5.588  17.622  16.225  1.00  0.00    +0.000 C 
ATOM     62  F6  UNL A   1       5.468  16.372  15.753  1.00  0.00    +0.000 F 
ATOM     63  C49 UNL A   1       5.994  17.808  17.544  1.00  0.00    +0.000 C 
ATOM     64  F7  UNL A   1       6.250  16.745  18.319  1.00  0.00    +0.000 F 
ENDBRANCH   59   60
BRANCH   74   75
ATOM     75  C56 UNL A   1      -0.636  16.440  12.514  1.00  0.00    +0.000 C 
ATOM     76  C57 UNL A   1      -1.517  17.287  13.202  1.00  0.00    +0.000 C 
ATOM     77  F11 UNL A   1      -1.198  18.577  13.384  1.00  0.00    +0.000 F 
ATOM     78  C58 UNL A   1      -2.708  16.803  13.739  1.00  0.00    +0.000 C 
ATOM     79  F12 UNL A   1      -3.512  17.624  14.427  1.00  0.00    +0.000 F 
ATOM     80  C59 UNL A   1      -3.054  15.470  13.574  1.00  0.00    +0.000 C 
ATOM     81  F13 UNL A   1      -4.201  15.006  14.086  1.00  0.00    +0.000 F 
ATOM     82  C60 UNL A   1      -2.206  14.618  12.882  1.00  0.00    +0.000 C 
ATOM     83  F14 UNL A   1      -2.543  13.333  12.710  1.00  0.00    +0.000 F 
ATOM     84  C61 UNL A   1      -1.003  15.095  12.367  1.00  0.00    +0.000 C 
ATOM     85  F15 UNL A   1      -0.197  14.247  11.711  1.00  0.00    +0.000 F 
ENDBRANCH   74   75
TORSDOF 22