ROOT
ATOM    129  H31 UNL A   1      -2.224  -0.938 -11.253  1.00  0.00    +0.000 H 
ATOM    130  H32 UNL A   1      -2.689   1.579 -11.180  1.00  0.00    +0.000 H 
ATOM    131  H33 UNL A   1       5.668   3.045  -5.795  1.00  0.00    +0.000 H 
ATOM    132  H34 UNL A   1       6.381   0.626  -6.244  1.00  0.00    +0.000 H 
ATOM     28  C21 UNL A   1       4.422  -0.902  -7.636  1.00  0.00    +0.000 C 
ATOM     29  C22 UNL A   1       4.389   0.567  -7.325  1.00  0.00    +0.000 C 
ATOM     30  N5  UNL A   1       3.472   1.454  -7.619  1.00  0.00    +0.000 N 
ATOM     31  C23 UNL A   1       3.905   2.646  -7.053  1.00  0.00    +0.000 C 
ATOM     32  C24 UNL A   1       3.328   3.870  -7.119  1.00  0.00    +0.000 C 
ATOM     44  C31 UNL A   1       2.115   4.157  -7.839  1.00  0.00    +0.000 C 
ATOM     45  C32 UNL A   1       1.506   5.383  -8.050  1.00  0.00    +0.000 C 
ATOM     46  C33 UNL A   1       0.321   5.166  -8.761  1.00  0.00    +0.000 C 
ATOM     47  C34 UNL A   1       0.213   3.811  -9.031  1.00  0.00    +0.000 C 
ATOM     48  N6  UNL A   1       1.322   3.205  -8.463  1.00  0.00    +0.000 N 
ATOM     49  C35 UNL A   1      -0.824   3.119  -9.754  1.00  0.00    +0.000 C 
ATOM     61  C42 UNL A   1      -0.834   1.788 -10.012  1.00  0.00    +0.000 C 
ATOM     62  N7  UNL A   1       0.093   0.822  -9.648  1.00  0.00    +0.000 N 
ATOM     63  C43 UNL A   1      -0.366  -0.313 -10.115  1.00  0.00    +0.000 C 
ATOM     64  C44 UNL A   1       0.237  -1.686 -10.023  1.00  0.00    +0.000 C 
ATOM     76  C51 UNL A   1       1.443  -1.841  -9.445  1.00  0.00    +0.000 C 
ATOM     77  C52 UNL A   1       2.153  -3.108  -9.300  1.00  0.00    +0.000 C 
ATOM     78  C53 UNL A   1       3.295  -2.895  -8.628  1.00  0.00    +0.000 C 
ATOM     79  C54 UNL A   1       3.410  -1.469  -8.320  1.00  0.00    +0.000 C 
ATOM     80  N8  UNL A   1       2.275  -0.918  -8.861  1.00  0.00    +0.000 N 
ATOM     81  C55 UNL A   1      -1.650  -0.197 -10.820  1.00  0.00    +0.000 C 
ATOM     82  C56 UNL A   1      -1.875   1.108 -10.755  1.00  0.00    +0.000 C 
ATOM     83  C57 UNL A   1       5.145   2.359  -6.363  1.00  0.00    +0.000 C 
ATOM     84  C58 UNL A   1       5.521   1.103  -6.554  1.00  0.00    +0.000 C 
ATOM    123  H25 UNL A   1       1.865   6.298  -7.736  1.00  0.00    +0.000 H 
ATOM    124  H26 UNL A   1      -0.358   5.892  -9.037  1.00  0.00    +0.000 H 
ATOM    125  H27 UNL A   1       1.519   2.241  -8.497  1.00  0.00    +0.000 H 
ATOM    126  H28 UNL A   1       1.829  -4.021  -9.656  1.00  0.00    +0.000 H 
ATOM    127  H29 UNL A   1       3.982  -3.621  -8.369  1.00  0.00    +0.000 H 
ATOM    128  H30 UNL A   1       2.077   0.046  -8.832  1.00  0.00    +0.000 H 
ENDROOT
BRANCH   28   27
ATOM    122  H24 UNL A   1       6.377  -2.195  -8.999  1.00  0.00    +0.000 H 
ATOM    133  H35 UNL A   1       4.977  -1.508  -5.086  1.00  0.00    +0.000 H 
ATOM    134  H36 UNL A   1       6.763  -2.893  -4.210  1.00  0.00    +0.000 H 
ATOM     85  C59 UNL A   1       5.636  -1.968  -5.733  1.00  0.00    +0.000 C 
ATOM     86  C60 UNL A   1       6.638  -2.793  -5.230  1.00  0.00    +0.000 C 
ATOM     24  C17 UNL A   1       7.475  -3.488  -6.109  1.00  0.00    +0.000 C 
ATOM     25  C18 UNL A   1       7.391  -3.258  -7.485  1.00  0.00    +0.000 C 
ATOM     26  C19 UNL A   1       6.425  -2.383  -7.986  1.00  0.00    +0.000 C 
ATOM     27  C20 UNL A   1       5.517  -1.758  -7.115  1.00  0.00    +0.000 C 
ATOM    121  H23 UNL A   1       8.041  -3.734  -8.130  1.00  0.00    +0.000 H 
BRANCH   24   22
ATOM     22  C16 UNL A   1       8.476  -4.454  -5.608  1.00  0.00    +0.000 C 
ATOM     23  O3  UNL A   1       9.605  -4.463  -6.089  1.00  0.00    +0.000 O 
BRANCH   22   21
ATOM     21  N4  UNL A   1       8.142  -5.346  -4.620  1.00  0.00    +0.000 N 
ATOM    120  H22 UNL A   1       8.901  -5.819  -4.207  1.00  0.00    +0.000 H 
BRANCH   21   20
ATOM     20  C15 UNL A   1       6.832  -5.697  -4.093  1.00  0.00    +0.000 C 
ATOM    118  H20 UNL A   1       6.784  -5.402  -3.066  1.00  0.00    +0.000 H 
ATOM    119  H21 UNL A   1       6.096  -5.188  -4.679  1.00  0.00    +0.000 H 
BRANCH   20   19
ATOM     19  C14 UNL A   1       6.555  -7.195  -4.189  1.00  0.00    +0.000 C 
ATOM    116  H18 UNL A   1       5.550  -7.368  -3.865  1.00  0.00    +0.000 H 
ATOM    117  H19 UNL A   1       6.722  -7.468  -5.209  1.00  0.00    +0.000 H 
BRANCH   19   18
ATOM     18  C13 UNL A   1       7.484  -8.074  -3.348  1.00  0.00    +0.000 C 
ATOM    115  H17 UNL A   1       8.479  -7.850  -3.674  1.00  0.00    +0.000 H 
ATOM    114  H16 UNL A   1       7.203  -9.095  -3.502  1.00  0.00    +0.000 H 
BRANCH   18   17
ATOM     17  C12 UNL A   1       7.460  -7.799  -1.839  1.00  0.00    +0.000 C 
ATOM    113  H15 UNL A   1       7.789  -6.788  -1.716  1.00  0.00    +0.000 H 
ATOM    112  H14 UNL A   1       8.096  -8.515  -1.361  1.00  0.00    +0.000 H 
BRANCH   17   16
ATOM    110  H12 UNL A   1       6.179  -7.647  -0.143  1.00  0.00    +0.000 H 
ATOM    111  H13 UNL A   1       5.444  -7.184  -1.694  1.00  0.00    +0.000 H 
ATOM     16  C11 UNL A   1       6.075  -7.880  -1.183  1.00  0.00    +0.000 C 
BRANCH   16   15
ATOM    108  H10 UNL A   1       4.382  -9.171  -1.065  1.00  0.00    +0.000 H 
ATOM    109  H11 UNL A   1       5.549  -9.601  -2.312  1.00  0.00    +0.000 H 
ATOM     15  C10 UNL A   1       5.421  -9.257  -1.307  1.00  0.00    +0.000 C 
BRANCH   15   14
ATOM    107  H9  UNL A   1       6.895 -10.594  -0.712  1.00  0.00    +0.000 H 
ATOM     14  N3  UNL A   1       6.037 -10.217  -0.412  1.00  0.00    +0.000 N 
BRANCH   14   12
ATOM     12  C9  UNL A   1       5.577 -10.666   0.796  1.00  0.00    +0.000 C 
ATOM     13  O2  UNL A   1       6.338 -11.332   1.501  1.00  0.00    +0.000 O 
BRANCH   12   11
ATOM    105  H7  UNL A   1       3.475 -10.656   0.416  1.00  0.00    +0.000 H 
ATOM    106  H8  UNL A   1       3.921 -10.958   2.096  1.00  0.00    +0.000 H 
ATOM     11  C8  UNL A   1       4.130 -10.384   1.218  1.00  0.00    +0.000 C 
BRANCH   11   10
ATOM     10  N2  UNL A   1       3.926  -8.981   1.535  1.00  0.00    +0.000 N 
ATOM    104  H6  UNL A   1       4.558  -8.566   2.166  1.00  0.00    +0.000 H 
BRANCH   10    9
ATOM      7  C6  UNL A   1       1.870  -6.303   0.622  1.00  0.00    +0.000 C 
ATOM      8  N1  UNL A   1       2.910  -6.910   1.304  1.00  0.00    +0.000 N 
ATOM      9  C7  UNL A   1       2.946  -8.196   1.040  1.00  0.00    +0.000 C 
ATOM     87  S1  UNL A   1       1.685  -8.739  -0.007  1.00  0.00    +0.000 S 
ATOM     88  C61 UNL A   1       1.163  -7.126  -0.243  1.00  0.00    +0.000 C 
BRANCH    7    6
ATOM     97  C69 UNL A   1       2.589  -3.934   0.526  1.00  0.00    +0.000 C 
ATOM     98  C70 UNL A   1       2.289  -2.567   0.577  1.00  0.00    +0.000 C 
ATOM      3  C2  UNL A   1       0.993  -2.147   0.887  1.00  0.00    +0.000 C 
ATOM      4  C3  UNL A   1       0.014  -3.090   1.193  1.00  0.00    +0.000 C 
ATOM      5  C4  UNL A   1       0.307  -4.452   1.131  1.00  0.00    +0.000 C 
ATOM    102  H4  UNL A   1      -0.932  -2.780   1.467  1.00  0.00    +0.000 H 
ATOM      6  C5  UNL A   1       1.592  -4.883   0.774  1.00  0.00    +0.000 C 
ATOM    103  H5  UNL A   1      -0.425  -5.146   1.349  1.00  0.00    +0.000 H 
ATOM    142  H44 UNL A   1       3.549  -4.242   0.306  1.00  0.00    +0.000 H 
ATOM    143  H45 UNL A   1       3.025  -1.869   0.386  1.00  0.00    +0.000 H 
BRANCH    3    2
ATOM      2  O1  UNL A   1       0.598  -0.841   0.968  1.00  0.00    +0.000 O 
BRANCH    2    1
ATOM      1  C1  UNL A   1       1.161   0.011  -0.025  1.00  0.00    +0.000 C 
ATOM     99  H1  UNL A   1       0.798   1.008   0.113  1.00  0.00    +0.000 H 
ATOM    100  H2  UNL A   1       0.879  -0.339  -0.997  1.00  0.00    +0.000 H 
ATOM    101  H3  UNL A   1       2.227   0.003   0.061  1.00  0.00    +0.000 H 
ENDBRANCH    2    1
ENDBRANCH    3    2
ENDBRANCH    7    6
BRANCH   88   89
ATOM    135  H37 UNL A   1      -1.298  -8.198  -0.619  1.00  0.00    +0.000 H 
ATOM    136  H38 UNL A   1      -2.946  -7.573  -2.281  1.00  0.00    +0.000 H 
ATOM    140  H42 UNL A   1      -0.312  -4.710  -3.855  1.00  0.00    +0.000 H 
ATOM    141  H43 UNL A   1       1.347  -5.345  -2.208  1.00  0.00    +0.000 H 
ATOM     89  C62 UNL A   1       0.157  -6.808  -1.259  1.00  0.00    +0.000 C 
ATOM     90  C63 UNL A   1      -1.084  -7.452  -1.299  1.00  0.00    +0.000 C 
ATOM     91  C64 UNL A   1      -2.036  -7.088  -2.258  1.00  0.00    +0.000 C 
ATOM     92  C65 UNL A   1      -1.770  -6.076  -3.183  1.00  0.00    +0.000 C 
ATOM     95  C67 UNL A   1      -0.528  -5.447  -3.165  1.00  0.00    +0.000 C 
ATOM     96  C68 UNL A   1       0.427  -5.813  -2.212  1.00  0.00    +0.000 C 
BRANCH   92   93
ATOM     93  O4  UNL A   1      -2.792  -5.799  -4.048  1.00  0.00    +0.000 O 
BRANCH   93   94
ATOM    137  H39 UNL A   1      -3.500  -4.532  -5.491  1.00  0.00    +0.000 H 
ATOM    138  H40 UNL A   1      -1.766  -4.742  -5.468  1.00  0.00    +0.000 H 
ATOM    139  H41 UNL A   1      -2.545  -3.777  -4.238  1.00  0.00    +0.000 H 
ATOM     94  C66 UNL A   1      -2.641  -4.641  -4.862  1.00  0.00    +0.000 C 
ENDBRANCH   93   94
ENDBRANCH   92   93
ENDBRANCH   88   89
ENDBRANCH   10    9
ENDBRANCH   11   10
ENDBRANCH   12   11
ENDBRANCH   14   12
ENDBRANCH   15   14
ENDBRANCH   16   15
ENDBRANCH   17   16
ENDBRANCH   18   17
ENDBRANCH   19   18
ENDBRANCH   20   19
ENDBRANCH   21   20
ENDBRANCH   22   21
ENDBRANCH   24   22
ENDBRANCH   28   27
BRANCH   32   33
ATOM     33  C25 UNL A   1       4.003   4.994  -6.388  1.00  0.00    +0.000 C 
ATOM     34  C26 UNL A   1       5.220   5.535  -6.828  1.00  0.00    +0.000 C 
ATOM     35  F1  UNL A   1       5.834   5.027  -7.907  1.00  0.00    +0.000 F 
ATOM     36  C27 UNL A   1       5.833   6.576  -6.135  1.00  0.00    +0.000 C 
ATOM     37  F2  UNL A   1       7.021   7.043  -6.544  1.00  0.00    +0.000 F 
ATOM     38  C28 UNL A   1       5.226   7.117  -5.012  1.00  0.00    +0.000 C 
ATOM     39  F3  UNL A   1       5.816   8.120  -4.347  1.00  0.00    +0.000 F 
ATOM     40  C29 UNL A   1       4.011   6.614  -4.573  1.00  0.00    +0.000 C 
ATOM     41  F4  UNL A   1       3.417   7.143  -3.494  1.00  0.00    +0.000 F 
ATOM     42  C30 UNL A   1       3.409   5.555  -5.248  1.00  0.00    +0.000 C 
ATOM     43  F5  UNL A   1       2.243   5.077  -4.788  1.00  0.00    +0.000 F 
ENDBRANCH   32   33
BRANCH   49   50
ATOM     50  C36 UNL A   1      -1.973   3.927 -10.277  1.00  0.00    +0.000 C 
ATOM     51  C37 UNL A   1      -3.245   3.854  -9.690  1.00  0.00    +0.000 C 
ATOM     52  F6  UNL A   1      -3.470   3.010  -8.671  1.00  0.00    +0.000 F 
ATOM     53  C38 UNL A   1      -4.300   4.624 -10.171  1.00  0.00    +0.000 C 
ATOM     54  F7  UNL A   1      -5.516   4.508  -9.620  1.00  0.00    +0.000 F 
ATOM     55  C39 UNL A   1      -4.098   5.501 -11.226  1.00  0.00    +0.000 C 
ATOM     56  F8  UNL A   1      -5.113   6.246 -11.684  1.00  0.00    +0.000 F 
ATOM     57  C40 UNL A   1      -2.845   5.599 -11.813  1.00  0.00    +0.000 C 
ATOM     58  F9  UNL A   1      -2.646   6.453 -12.826  1.00  0.00    +0.000 F 
ATOM     59  C41 UNL A   1      -1.794   4.812 -11.351  1.00  0.00    +0.000 C 
ATOM     60  F10 UNL A   1      -0.596   4.921 -11.944  1.00  0.00    +0.000 F 
ENDBRANCH   49   50
BRANCH   64   65
ATOM     65  C45 UNL A   1      -0.463  -2.870 -10.578  1.00  0.00    +0.000 C 
ATOM     66  C46 UNL A   1      -0.551  -3.071 -11.962  1.00  0.00    +0.000 C 
ATOM     67  F11 UNL A   1      -0.040  -2.160 -12.803  1.00  0.00    +0.000 F 
ATOM     68  C47 UNL A   1      -1.188  -4.194 -12.486  1.00  0.00    +0.000 C 
ATOM     69  F12 UNL A   1      -1.284  -4.348 -13.813  1.00  0.00    +0.000 F 
ATOM     70  C48 UNL A   1      -1.727  -5.148 -11.636  1.00  0.00    +0.000 C 
ATOM     71  F13 UNL A   1      -2.329  -6.233 -12.140  1.00  0.00    +0.000 F 
ATOM     72  C49 UNL A   1      -1.645  -4.973 -10.262  1.00  0.00    +0.000 C 
ATOM     73  F14 UNL A   1      -2.154  -5.898  -9.437  1.00  0.00    +0.000 F 
ATOM     74  C50 UNL A   1      -1.030  -3.839  -9.737  1.00  0.00    +0.000 C 
ATOM     75  F15 UNL A   1      -0.967  -3.693  -8.405  1.00  0.00    +0.000 F 
ENDBRANCH   64   65
TORSDOF 23