ROOT
ATOM    131  H30 UNL A   1     -14.395   2.053  -5.143  1.00  0.00    +0.000 H 
ATOM    132  H31 UNL A   1     -16.174   3.140  -3.489  1.00  0.00    +0.000 H 
ATOM    133  H32 UNL A   1     -14.050   0.344  -1.499  1.00  0.00    +0.000 H 
ATOM    134  H33 UNL A   1     -11.284   6.957   2.348  1.00  0.00    +0.000 H 
ATOM    135  H34 UNL A   1     -10.825   7.646  -0.061  1.00  0.00    +0.000 H 
ATOM    136  H35 UNL A   1     -12.374   3.790  -0.171  1.00  0.00    +0.000 H 
ATOM    137  H36 UNL A   1     -11.888   1.438   2.159  1.00  0.00    +0.000 H 
ATOM    138  H37 UNL A   1     -13.492   0.558   0.343  1.00  0.00    +0.000 H 
ATOM    139  H38 UNL A   1      -9.311   1.600  -3.908  1.00  0.00    +0.000 H 
ATOM    140  H39 UNL A   1      -8.601   3.794  -2.773  1.00  0.00    +0.000 H 
ATOM     41  C30 UNL A   1     -10.818   5.383  -1.871  1.00  0.00    +0.000 C 
ATOM     42  C31 UNL A   1     -10.845   4.037  -2.529  1.00  0.00    +0.000 C 
ATOM     43  N9  UNL A   1     -11.873   3.329  -2.879  1.00  0.00    +0.000 N 
ATOM     44  C32 UNL A   1     -11.368   2.108  -3.331  1.00  0.00    +0.000 C 
ATOM     45  C33 UNL A   1     -12.130   0.979  -3.351  1.00  0.00    +0.000 C 
ATOM     57  C40 UNL A   1     -13.533   1.288  -3.308  1.00  0.00    +0.000 C 
ATOM     58  C41 UNL A   1     -14.419   1.972  -4.115  1.00  0.00    +0.000 C 
ATOM     59  C42 UNL A   1     -15.375   2.544  -3.224  1.00  0.00    +0.000 C 
ATOM     60  C43 UNL A   1     -15.035   2.151  -1.928  1.00  0.00    +0.000 C 
ATOM     61  N10 UNL A   1     -14.179   1.102  -2.115  1.00  0.00    +0.000 N 
ATOM     62  C44 UNL A   1     -15.300   2.733  -0.634  1.00  0.00    +0.000 C 
ATOM     74  C51 UNL A   1     -14.576   2.473   0.493  1.00  0.00    +0.000 C 
ATOM     75  N11 UNL A   1     -14.452   3.433   1.484  1.00  0.00    +0.000 N 
ATOM     76  C52 UNL A   1     -13.280   3.213   2.012  1.00  0.00    +0.000 C 
ATOM     77  C53 UNL A   1     -12.408   4.281   2.550  1.00  0.00    +0.000 C 
ATOM     89  C60 UNL A   1     -12.004   5.040   1.506  1.00  0.00    +0.000 C 
ATOM     90  C61 UNL A   1     -11.436   6.370   1.513  1.00  0.00    +0.000 C 
ATOM     91  C62 UNL A   1     -11.140   6.712   0.246  1.00  0.00    +0.000 C 
ATOM     92  C63 UNL A   1     -11.334   5.555  -0.633  1.00  0.00    +0.000 C 
ATOM     93  N12 UNL A   1     -11.980   4.629   0.161  1.00  0.00    +0.000 N 
ATOM     94  C64 UNL A   1     -12.709   1.904   1.743  1.00  0.00    +0.000 C 
ATOM     95  C65 UNL A   1     -13.554   1.481   0.800  1.00  0.00    +0.000 C 
ATOM     96  C66 UNL A   1      -9.945   2.276  -3.455  1.00  0.00    +0.000 C 
ATOM     97  C67 UNL A   1      -9.556   3.426  -2.903  1.00  0.00    +0.000 C 
ENDROOT
BRANCH   41   40
ATOM    129  H28 UNL A   1      -9.237   7.738  -5.479  1.00  0.00    +0.000 H 
ATOM     98  C68 UNL A   1      -8.856   6.891  -1.769  1.00  0.00    +0.000 C 
ATOM     99  C69 UNL A   1      -7.956   7.744  -2.372  1.00  0.00    +0.000 C 
ATOM    130  H29 UNL A   1     -10.925   6.380  -4.369  1.00  0.00    +0.000 H 
ATOM     37  C26 UNL A   1      -8.051   7.972  -3.743  1.00  0.00    +0.000 C 
ATOM     38  C27 UNL A   1      -9.143   7.504  -4.478  1.00  0.00    +0.000 C 
ATOM     39  C28 UNL A   1     -10.102   6.717  -3.845  1.00  0.00    +0.000 C 
ATOM     40  C29 UNL A   1      -9.944   6.388  -2.493  1.00  0.00    +0.000 C 
ATOM    141  H40 UNL A   1      -8.727   6.623  -0.780  1.00  0.00    +0.000 H 
ATOM    142  H41 UNL A   1      -7.221   8.207  -1.815  1.00  0.00    +0.000 H 
BRANCH   37   35
ATOM     35  C25 UNL A   1      -6.949   8.669  -4.432  1.00  0.00    +0.000 C 
ATOM     36  O3  UNL A   1      -7.184   9.511  -5.276  1.00  0.00    +0.000 O 
BRANCH   35   34
ATOM     34  N8  UNL A   1      -5.650   8.325  -4.108  1.00  0.00    +0.000 N 
ATOM    128  H27 UNL A   1      -4.964   9.018  -4.238  1.00  0.00    +0.000 H 
BRANCH   34   33
ATOM     33  C24 UNL A   1      -5.190   7.038  -3.592  1.00  0.00    +0.000 C 
ATOM    126  H25 UNL A   1      -5.747   6.798  -2.711  1.00  0.00    +0.000 H 
ATOM    127  H26 UNL A   1      -5.341   6.299  -4.351  1.00  0.00    +0.000 H 
BRANCH   33   32
ATOM    124  H23 UNL A   1      -3.389   6.079  -3.014  1.00  0.00    +0.000 H 
ATOM    125  H24 UNL A   1      -3.197   7.477  -4.097  1.00  0.00    +0.000 H 
ATOM     32  C23 UNL A   1      -3.707   7.074  -3.247  1.00  0.00    +0.000 C 
BRANCH   32   31
ATOM    122  H21 UNL A   1      -2.313   8.120  -2.033  1.00  0.00    +0.000 H 
ATOM    123  H22 UNL A   1      -3.929   8.882  -2.208  1.00  0.00    +0.000 H 
ATOM     31  C22 UNL A   1      -3.374   7.980  -2.053  1.00  0.00    +0.000 C 
BRANCH   31   30
ATOM    121  H20 UNL A   1      -4.876   7.413  -0.700  1.00  0.00    +0.000 H 
ATOM     30  C21 UNL A   1      -3.807   7.456  -0.674  1.00  0.00    +0.000 C 
ATOM    120  H19 UNL A   1      -3.419   8.122   0.068  1.00  0.00    +0.000 H 
BRANCH   30   29
ATOM     29  C20 UNL A   1      -3.336   6.035  -0.327  1.00  0.00    +0.000 C 
ATOM    118  H17 UNL A   1      -3.690   5.792   0.653  1.00  0.00    +0.000 H 
ATOM    119  H18 UNL A   1      -3.731   5.382  -1.077  1.00  0.00    +0.000 H 
BRANCH   29   28
ATOM    116  H15 UNL A   1      -1.572   4.834  -0.464  1.00  0.00    +0.000 H 
ATOM     28  C19 UNL A   1      -1.813   5.870  -0.346  1.00  0.00    +0.000 C 
ATOM    117  H16 UNL A   1      -1.411   6.433  -1.162  1.00  0.00    +0.000 H 
BRANCH   28   27
ATOM     27  N7  UNL A   1      -1.241   6.357   0.893  1.00  0.00    +0.000 N 
ATOM    115  H14 UNL A   1      -1.207   7.340   0.942  1.00  0.00    +0.000 H 
BRANCH   27   25
ATOM     25  C18 UNL A   1      -0.736   5.745   2.010  1.00  0.00    +0.000 C 
ATOM     26  O2  UNL A   1      -0.367   6.481   2.928  1.00  0.00    +0.000 O 
BRANCH   25   24
ATOM    100  C70 UNL A   1      -1.274   3.297   1.466  1.00  0.00    +0.000 C 
ATOM    101  C71 UNL A   1      -0.924   1.944   1.562  1.00  0.00    +0.000 C 
ATOM    143  H42 UNL A   1      -2.081   3.575   0.886  1.00  0.00    +0.000 H 
ATOM    144  H43 UNL A   1      -1.419   1.240   0.994  1.00  0.00    +0.000 H 
ATOM    113  H12 UNL A   1       1.431   2.196   3.940  1.00  0.00    +0.000 H 
ATOM    114  H13 UNL A   1       0.959   4.554   3.610  1.00  0.00    +0.000 H 
ATOM     21  C14 UNL A   1       0.100   1.550   2.432  1.00  0.00    +0.000 C 
ATOM     22  C15 UNL A   1       0.743   2.494   3.231  1.00  0.00    +0.000 C 
ATOM     23  C16 UNL A   1       0.445   3.849   3.058  1.00  0.00    +0.000 C 
ATOM     24  C17 UNL A   1      -0.542   4.272   2.148  1.00  0.00    +0.000 C 
BRANCH   21   20
ATOM      2  C2  UNL A   1       0.676  -0.728   1.524  1.00  0.00    +0.000 C 
ATOM      3  C3  UNL A   1       0.756  -1.926   2.205  1.00  0.00    +0.000 C 
ATOM     18  N4  UNL A   1       0.721  -1.709   3.550  1.00  0.00    +0.000 N 
ATOM     19  N5  UNL A   1       0.621  -0.398   3.743  1.00  0.00    +0.000 N 
ATOM     20  N6  UNL A   1       0.458   0.190   2.534  1.00  0.00    +0.000 N 
BRANCH    2    1
ATOM      1  C1  UNL A   1       0.920  -0.410   0.098  1.00  0.00    +0.000 C 
ATOM    102  H1  UNL A   1       1.055  -1.319  -0.452  1.00  0.00    +0.000 H 
ATOM    103  H2  UNL A   1       1.800   0.192   0.012  1.00  0.00    +0.000 H 
ATOM    104  H3  UNL A   1       0.082   0.125  -0.297  1.00  0.00    +0.000 H 
ENDBRANCH    2    1
BRANCH    3    4
ATOM      4  C4  UNL A   1       0.954  -3.257   1.644  1.00  0.00    +0.000 C 
ATOM      5  N1  UNL A   1       2.164  -3.707   1.291  1.00  0.00    +0.000 N 
ATOM      6  N2  UNL A   1       1.916  -4.870   0.650  1.00  0.00    +0.000 N 
ATOM     13  C11 UNL A   1       0.574  -5.173   0.636  1.00  0.00    +0.000 C 
ATOM     14  C12 UNL A   1      -0.079  -4.170   1.328  1.00  0.00    +0.000 C 
ATOM    110  H9  UNL A   1       0.137  -5.996   0.193  1.00  0.00    +0.000 H 
BRANCH    6    7
ATOM      7  C5  UNL A   1       2.966  -5.615   0.066  1.00  0.00    +0.000 C 
ATOM      8  C6  UNL A   1       4.222  -5.625   0.684  1.00  0.00    +0.000 C 
ATOM      9  C7  UNL A   1       5.256  -6.383   0.135  1.00  0.00    +0.000 C 
ATOM    105  H4  UNL A   1       4.382  -5.075   1.542  1.00  0.00    +0.000 H 
ATOM     11  C9  UNL A   1       3.812  -7.043  -1.689  1.00  0.00    +0.000 C 
ATOM     12  C10 UNL A   1       2.754  -6.332  -1.118  1.00  0.00    +0.000 C 
ATOM    109  H8  UNL A   1       1.824  -6.335  -1.566  1.00  0.00    +0.000 H 
ATOM     10  C8  UNL A   1       5.055  -7.081  -1.056  1.00  0.00    +0.000 C 
ATOM    106  H5  UNL A   1       6.172  -6.428   0.610  1.00  0.00    +0.000 H 
ATOM    108  H7  UNL A   1       3.673  -7.542  -2.582  1.00  0.00    +0.000 H 
ATOM    107  H6  UNL A   1       5.827  -7.627  -1.470  1.00  0.00    +0.000 H 
ENDBRANCH    6    7
BRANCH   14   15
ATOM    111  H10 UNL A   1      -2.077  -4.963   1.358  1.00  0.00    +0.000 H 
ATOM     15  C13 UNL A   1      -1.492  -4.151   1.607  1.00  0.00    +0.000 C 
BRANCH   15   16
ATOM     16  N3  UNL A   1      -2.028  -3.118   2.169  1.00  0.00    +0.000 N 
BRANCH   16   17
ATOM     17  O1  UNL A   1      -3.392  -3.361   2.373  1.00  0.00    +0.000 O 
ATOM    112  H11 UNL A   1      -3.930  -2.707   2.774  1.00  0.00    +0.000 H 
ENDBRANCH   16   17
ENDBRANCH   15   16
ENDBRANCH   14   15
ENDBRANCH    3    4
ENDBRANCH   21   20
ENDBRANCH   25   24
ENDBRANCH   27   25
ENDBRANCH   28   27
ENDBRANCH   29   28
ENDBRANCH   30   29
ENDBRANCH   31   30
ENDBRANCH   32   31
ENDBRANCH   33   32
ENDBRANCH   34   33
ENDBRANCH   35   34
ENDBRANCH   37   35
ENDBRANCH   41   40
BRANCH   45   46
ATOM     46  C34 UNL A   1     -11.618  -0.409  -3.007  1.00  0.00    +0.000 C 
ATOM     47  C35 UNL A   1     -12.485  -1.515  -3.147  1.00  0.00    +0.000 C 
ATOM     48  F1  UNL A   1     -13.628  -1.405  -3.841  1.00  0.00    +0.000 F 
ATOM     49  C36 UNL A   1     -12.253  -2.728  -2.491  1.00  0.00    +0.000 C 
ATOM     50  F2  UNL A   1     -13.175  -3.700  -2.540  1.00  0.00    +0.000 F 
ATOM     51  C37 UNL A   1     -11.116  -2.905  -1.727  1.00  0.00    +0.000 C 
ATOM     52  F3  UNL A   1     -10.924  -4.040  -1.041  1.00  0.00    +0.000 F 
ATOM     53  C38 UNL A   1     -10.200  -1.879  -1.636  1.00  0.00    +0.000 C 
ATOM     54  F4  UNL A   1      -9.097  -2.027  -0.888  1.00  0.00    +0.000 F 
ATOM     55  C39 UNL A   1     -10.454  -0.649  -2.245  1.00  0.00    +0.000 C 
ATOM     56  F5  UNL A   1      -9.572   0.316  -1.965  1.00  0.00    +0.000 F 
ENDBRANCH   45   46
BRANCH   62   63
ATOM     65  F6  UNL A   1     -14.570   5.549  -0.282  1.00  0.00    +0.000 F 
ATOM     66  C47 UNL A   1     -16.795   6.262  -0.458  1.00  0.00    +0.000 C 
ATOM     67  F7  UNL A   1     -16.399   7.529  -0.272  1.00  0.00    +0.000 F 
ATOM     68  C48 UNL A   1     -18.129   5.987  -0.714  1.00  0.00    +0.000 C 
ATOM     69  F8  UNL A   1     -19.021   6.985  -0.784  1.00  0.00    +0.000 F 
ATOM     70  C49 UNL A   1     -18.534   4.678  -0.924  1.00  0.00    +0.000 C 
ATOM     71  F9  UNL A   1     -19.813   4.412  -1.223  1.00  0.00    +0.000 F 
ATOM     72  C50 UNL A   1     -17.611   3.640  -0.850  1.00  0.00    +0.000 C 
ATOM     73  F10 UNL A   1     -18.032   2.385  -1.077  1.00  0.00    +0.000 F 
ATOM     63  C45 UNL A   1     -16.256   3.889  -0.592  1.00  0.00    +0.000 C 
ATOM     64  C46 UNL A   1     -15.863   5.227  -0.426  1.00  0.00    +0.000 C 
ENDBRANCH   62   63
BRANCH   77   78
ATOM     78  C54 UNL A   1     -11.912   4.295   3.942  1.00  0.00    +0.000 C 
ATOM     79  C55 UNL A   1     -12.678   3.771   4.994  1.00  0.00    +0.000 C 
ATOM     80  F11 UNL A   1     -13.954   3.416   4.786  1.00  0.00    +0.000 F 
ATOM     81  C56 UNL A   1     -12.126   3.545   6.258  1.00  0.00    +0.000 C 
ATOM     82  F12 UNL A   1     -12.871   2.989   7.223  1.00  0.00    +0.000 F 
ATOM     83  C57 UNL A   1     -10.795   3.844   6.506  1.00  0.00    +0.000 C 
ATOM     84  F13 UNL A   1     -10.252   3.576   7.702  1.00  0.00    +0.000 F 
ATOM     85  C58 UNL A   1     -10.020   4.384   5.497  1.00  0.00    +0.000 C 
ATOM     86  F14 UNL A   1      -8.723   4.646   5.714  1.00  0.00    +0.000 F 
ATOM     87  C59 UNL A   1     -10.568   4.600   4.233  1.00  0.00    +0.000 C 
ATOM     88  F15 UNL A   1      -9.737   5.030   3.272  1.00  0.00    +0.000 F 
ENDBRANCH   77   78
TORSDOF 22