ROOT
ATOM    129  H26 UNL A   1       4.413  13.633   3.250  1.00  0.00    +0.000 H 
ATOM    130  H27 UNL A   1       3.094  13.444   5.412  1.00  0.00    +0.000 H 
ATOM    131  H28 UNL A   1       0.876  15.759   2.766  1.00  0.00    +0.000 H 
ATOM    132  H29 UNL A   1       3.395  15.665  -1.588  1.00  0.00    +0.000 H 
ATOM    133  H30 UNL A   1       1.535  17.139  -2.548  1.00  0.00    +0.000 H 
ATOM    134  H31 UNL A   1      -3.566  16.470   6.082  1.00  0.00    +0.000 H 
ATOM    135  H32 UNL A   1      -1.558  15.321   7.180  1.00  0.00    +0.000 H 
ATOM     27  C20 UNL A   1       0.585  14.799   5.379  1.00  0.00    +0.000 C 
ATOM     28  C21 UNL A   1      -0.682  15.555   5.101  1.00  0.00    +0.000 C 
ATOM     29  N3  UNL A   1      -1.076  16.132   3.994  1.00  0.00    +0.000 N 
ATOM     30  C22 UNL A   1      -2.335  16.648   4.265  1.00  0.00    +0.000 C 
ATOM     31  C23 UNL A   1      -3.136  17.384   3.458  1.00  0.00    +0.000 C 
ATOM     43  C30 UNL A   1      -2.797  17.769   2.114  1.00  0.00    +0.000 C 
ATOM     44  C31 UNL A   1      -3.510  18.571   1.240  1.00  0.00    +0.000 C 
ATOM     45  C32 UNL A   1      -2.816  18.619   0.026  1.00  0.00    +0.000 C 
ATOM     46  C33 UNL A   1      -1.647  17.887   0.159  1.00  0.00    +0.000 C 
ATOM     47  N4  UNL A   1      -1.647  17.373   1.446  1.00  0.00    +0.000 N 
ATOM     48  C34 UNL A   1      -0.612  17.663  -0.818  1.00  0.00    +0.000 C 
ATOM     60  C41 UNL A   1       0.532  16.973  -0.595  1.00  0.00    +0.000 C 
ATOM     61  N5  UNL A   1       0.960  16.346   0.567  1.00  0.00    +0.000 N 
ATOM     62  C42 UNL A   1       2.119  15.806   0.280  1.00  0.00    +0.000 C 
ATOM     63  C43 UNL A   1       3.044  15.018   1.167  1.00  0.00    +0.000 C 
ATOM     75  C50 UNL A   1       2.697  14.799   2.450  1.00  0.00    +0.000 C 
ATOM     76  C51 UNL A   1       3.479  14.039   3.419  1.00  0.00    +0.000 C 
ATOM     77  C52 UNL A   1       2.788  13.951   4.567  1.00  0.00    +0.000 C 
ATOM     78  C53 UNL A   1       1.533  14.691   4.428  1.00  0.00    +0.000 C 
ATOM     79  N6  UNL A   1       1.578  15.184   3.148  1.00  0.00    +0.000 N 
ATOM     80  C54 UNL A   1       2.549  16.012  -1.110  1.00  0.00    +0.000 C 
ATOM     81  C55 UNL A   1       1.563  16.759  -1.589  1.00  0.00    +0.000 C 
ATOM     82  C56 UNL A   1      -2.662  16.275   5.625  1.00  0.00    +0.000 C 
ATOM     83  C57 UNL A   1      -1.647  15.652   6.206  1.00  0.00    +0.000 C 
ATOM    126  H23 UNL A   1      -4.400  19.050   1.448  1.00  0.00    +0.000 H 
ATOM    127  H24 UNL A   1      -3.123  19.116  -0.825  1.00  0.00    +0.000 H 
ATOM    128  H25 UNL A   1      -0.936  16.811   1.830  1.00  0.00    +0.000 H 
ENDROOT
BRANCH   27   26
ATOM    136  H33 UNL A   1      -0.830  12.736   6.312  1.00  0.00    +0.000 H 
ATOM    137  H34 UNL A   1      -0.566  11.533   8.399  1.00  0.00    +0.000 H 
ATOM     84  C58 UNL A   1      -0.080  13.002   6.969  1.00  0.00    +0.000 C 
ATOM     85  C59 UNL A   1       0.095  12.285   8.148  1.00  0.00    +0.000 C 
ATOM     23  C16 UNL A   1       1.169  12.586   8.990  1.00  0.00    +0.000 C 
ATOM     24  C17 UNL A   1       1.980  13.694   8.732  1.00  0.00    +0.000 C 
ATOM     25  C18 UNL A   1       1.763  14.454   7.580  1.00  0.00    +0.000 C 
ATOM     26  C19 UNL A   1       0.760  14.086   6.668  1.00  0.00    +0.000 C 
ATOM    124  H21 UNL A   1       2.734  13.949   9.387  1.00  0.00    +0.000 H 
ATOM    125  H22 UNL A   1       2.341  15.289   7.399  1.00  0.00    +0.000 H 
BRANCH   23   21
ATOM     21  C15 UNL A   1       1.471  11.728  10.155  1.00  0.00    +0.000 C 
ATOM     22  O4  UNL A   1       1.739  12.236  11.238  1.00  0.00    +0.000 O 
BRANCH   21   20
ATOM    123  H20 UNL A   1       1.410   9.842  10.842  1.00  0.00    +0.000 H 
ATOM     20  N2  UNL A   1       1.461  10.362  10.007  1.00  0.00    +0.000 N 
BRANCH   20   19
ATOM    121  H18 UNL A   1       0.681   8.911   8.758  1.00  0.00    +0.000 H 
ATOM    122  H19 UNL A   1       1.485  10.262   7.954  1.00  0.00    +0.000 H 
ATOM     19  C14 UNL A   1       1.515   9.582   8.779  1.00  0.00    +0.000 C 
BRANCH   19   18
ATOM     18  C13 UNL A   1       2.803   8.770   8.675  1.00  0.00    +0.000 C 
ATOM    119  H16 UNL A   1       2.849   8.339   7.696  1.00  0.00    +0.000 H 
ATOM    120  H17 UNL A   1       3.609   9.446   8.869  1.00  0.00    +0.000 H 
BRANCH   18   17
ATOM     17  C12 UNL A   1       2.918   7.641   9.702  1.00  0.00    +0.000 C 
ATOM    117  H14 UNL A   1       3.850   7.140   9.541  1.00  0.00    +0.000 H 
ATOM    118  H15 UNL A   1       2.846   8.104  10.664  1.00  0.00    +0.000 H 
BRANCH   17   16
ATOM    115  H12 UNL A   1       2.034   5.816  10.336  1.00  0.00    +0.000 H 
ATOM    116  H13 UNL A   1       0.892   7.115   9.877  1.00  0.00    +0.000 H 
ATOM     16  C11 UNL A   1       1.798   6.596   9.642  1.00  0.00    +0.000 C 
BRANCH   16   15
ATOM    113  H10 UNL A   1       0.743   5.287   8.328  1.00  0.00    +0.000 H 
ATOM    114  H11 UNL A   1       1.404   6.751   7.568  1.00  0.00    +0.000 H 
ATOM     15  C10 UNL A   1       1.576   5.954   8.262  1.00  0.00    +0.000 C 
BRANCH   15   14
ATOM     14  C9  UNL A   1       2.788   5.167   7.752  1.00  0.00    +0.000 C 
ATOM    111  H8  UNL A   1       2.652   4.936   6.716  1.00  0.00    +0.000 H 
ATOM    112  H9  UNL A   1       3.671   5.758   7.876  1.00  0.00    +0.000 H 
BRANCH   14   13
ATOM     13  N1  UNL A   1       2.925   3.937   8.506  1.00  0.00    +0.000 N 
ATOM    110  H7  UNL A   1       3.418   4.055   9.350  1.00  0.00    +0.000 H 
BRANCH   13   11
ATOM     11  C8  UNL A   1       2.520   2.657   8.300  1.00  0.00    +0.000 C 
ATOM     12  O3  UNL A   1       2.599   1.907   9.276  1.00  0.00    +0.000 O 
BRANCH   11   10
ATOM     10  C7  UNL A   1       2.112   2.115   6.947  1.00  0.00    +0.000 C 
BRANCH   10    9
ATOM      9  C6  UNL A   1       1.393   2.841   6.058  1.00  0.00    +0.000 C 
ATOM    109  H6  UNL A   1       1.048   3.749   6.405  1.00  0.00    +0.000 H 
BRANCH    9    8
ATOM      5  C2  UNL A   1       0.548   1.990   1.937  1.00  0.00    +0.000 C 
ATOM    102  C73 UNL A   1       1.273   3.495   3.680  1.00  0.00    +0.000 C 
ATOM      6  C3  UNL A   1       0.254   1.019   2.895  1.00  0.00    +0.000 C 
ATOM    103  C74 UNL A   1       1.033   3.239   2.326  1.00  0.00    +0.000 C 
ATOM      7  C4  UNL A   1       0.477   1.294   4.251  1.00  0.00    +0.000 C 
ATOM      8  C5  UNL A   1       1.031   2.515   4.658  1.00  0.00    +0.000 C 
ATOM    107  H4  UNL A   1      -0.125   0.104   2.607  1.00  0.00    +0.000 H 
ATOM    108  H5  UNL A   1       0.229   0.587   4.960  1.00  0.00    +0.000 H 
ATOM    149  H46 UNL A   1       1.632   4.419   3.966  1.00  0.00    +0.000 H 
ATOM    150  H47 UNL A   1       1.214   3.969   1.619  1.00  0.00    +0.000 H 
BRANCH    5    2
ATOM      2  S1  UNL A   1       0.275   1.650   0.212  1.00  0.00    +0.000 S 
ATOM      3  O1  UNL A   1       0.948   2.689  -0.545  1.00  0.00    +0.000 O 
ATOM      4  O2  UNL A   1      -1.148   1.417   0.060  1.00  0.00    +0.000 O 
BRANCH    2    1
ATOM      1  C1  UNL A   1       1.128   0.128  -0.108  1.00  0.00    +0.000 C 
ATOM    106  H3  UNL A   1       2.169   0.250   0.106  1.00  0.00    +0.000 H 
ATOM    105  H2  UNL A   1       0.724  -0.645   0.512  1.00  0.00    +0.000 H 
ATOM    104  H1  UNL A   1       1.006  -0.140  -1.137  1.00  0.00    +0.000 H 
ENDBRANCH    2    1
ENDBRANCH    5    2
ENDBRANCH    9    8
ENDBRANCH   10    9
BRANCH   10   86
ATOM    101  C72 UNL A   1       3.165   0.244   5.612  1.00  0.00    +0.000 C 
ATOM    138  H35 UNL A   1       1.186   0.018   8.304  1.00  0.00    +0.000 H 
ATOM    139  H36 UNL A   1       1.401  -2.341   7.813  1.00  0.00    +0.000 H 
ATOM    140  H37 UNL A   1       2.632  -3.057   5.856  1.00  0.00    +0.000 H 
ATOM    148  H45 UNL A   1       3.703   0.935   5.064  1.00  0.00    +0.000 H 
ATOM     86  C60 UNL A   1       2.389   0.675   6.696  1.00  0.00    +0.000 C 
ATOM     87  C61 UNL A   1       1.746  -0.286   7.493  1.00  0.00    +0.000 C 
ATOM     88  C62 UNL A   1       1.853  -1.643   7.202  1.00  0.00    +0.000 C 
ATOM     89  C63 UNL A   1       2.573  -2.052   6.084  1.00  0.00    +0.000 C 
ATOM     90  C64 UNL A   1       3.221  -1.117   5.260  1.00  0.00    +0.000 C 
BRANCH   90   91
ATOM     99  C70 UNL A   1       5.689  -1.538   2.417  1.00  0.00    +0.000 C 
ATOM    100  C71 UNL A   1       5.154  -1.202   3.663  1.00  0.00    +0.000 C 
ATOM    141  H38 UNL A   1       2.078  -2.470   3.262  1.00  0.00    +0.000 H 
ATOM    142  H39 UNL A   1       2.990  -3.038   1.090  1.00  0.00    +0.000 H 
ATOM    146  H43 UNL A   1       6.664  -1.292   2.185  1.00  0.00    +0.000 H 
ATOM    147  H44 UNL A   1       5.741  -0.707   4.353  1.00  0.00    +0.000 H 
ATOM     91  C65 UNL A   1       3.829  -1.530   3.988  1.00  0.00    +0.000 C 
ATOM     92  C66 UNL A   1       3.051  -2.213   3.033  1.00  0.00    +0.000 C 
ATOM     93  C67 UNL A   1       3.573  -2.547   1.785  1.00  0.00    +0.000 C 
ATOM     94  C68 UNL A   1       4.893  -2.209   1.487  1.00  0.00    +0.000 C 
BRANCH   94   95
ATOM     97  O5  UNL A   1       4.515  -2.167  -1.076  1.00  0.00    +0.000 O 
ATOM     98  O6  UNL A   1       6.883  -2.085  -0.202  1.00  0.00    +0.000 O 
ATOM     95  S2  UNL A   1       5.525  -2.591  -0.128  1.00  0.00    +0.000 S 
BRANCH   95   96
ATOM    145  H42 UNL A   1       6.074  -4.693  -1.043  1.00  0.00    +0.000 H 
ATOM    144  H41 UNL A   1       6.173  -4.700   0.702  1.00  0.00    +0.000 H 
ATOM    143  H40 UNL A   1       4.614  -4.765  -0.086  1.00  0.00    +0.000 H 
ATOM     96  C69 UNL A   1       5.604  -4.363  -0.140  1.00  0.00    +0.000 C 
ENDBRANCH   95   96
ENDBRANCH   94   95
ENDBRANCH   90   91
ENDBRANCH   10   86
ENDBRANCH   11   10
ENDBRANCH   13   11
ENDBRANCH   14   13
ENDBRANCH   15   14
ENDBRANCH   16   15
ENDBRANCH   17   16
ENDBRANCH   18   17
ENDBRANCH   19   18
ENDBRANCH   20   19
ENDBRANCH   21   20
ENDBRANCH   23   21
ENDBRANCH   27   26
BRANCH   31   32
ATOM     33  C25 UNL A   1      -4.556  18.796   5.013  1.00  0.00    +0.000 C 
ATOM     34  F1  UNL A   1      -3.444  19.329   5.542  1.00  0.00    +0.000 F 
ATOM     35  C26 UNL A   1      -5.793  19.201   5.506  1.00  0.00    +0.000 C 
ATOM     36  F2  UNL A   1      -5.856  20.099   6.499  1.00  0.00    +0.000 F 
ATOM     37  C27 UNL A   1      -6.960  18.667   4.981  1.00  0.00    +0.000 C 
ATOM     38  F3  UNL A   1      -8.151  19.063   5.452  1.00  0.00    +0.000 F 
ATOM     39  C28 UNL A   1      -6.893  17.718   3.972  1.00  0.00    +0.000 C 
ATOM     40  F4  UNL A   1      -8.020  17.211   3.455  1.00  0.00    +0.000 F 
ATOM     41  C29 UNL A   1      -5.656  17.290   3.497  1.00  0.00    +0.000 C 
ATOM     42  F5  UNL A   1      -5.624  16.359   2.531  1.00  0.00    +0.000 F 
ATOM     32  C24 UNL A   1      -4.462  17.821   4.008  1.00  0.00    +0.000 C 
ENDBRANCH   31   32
BRANCH   48   49
ATOM     49  C35 UNL A   1      -0.805  18.254  -2.183  1.00  0.00    +0.000 C 
ATOM     50  C36 UNL A   1      -1.115  17.451  -3.291  1.00  0.00    +0.000 C 
ATOM     51  F6  UNL A   1      -1.176  16.118  -3.162  1.00  0.00    +0.000 F 
ATOM     52  C37 UNL A   1      -1.333  18.017  -4.544  1.00  0.00    +0.000 C 
ATOM     53  F7  UNL A   1      -1.591  17.229  -5.597  1.00  0.00    +0.000 F 
ATOM     54  C38 UNL A   1      -1.276  19.393  -4.707  1.00  0.00    +0.000 C 
ATOM     55  F8  UNL A   1      -1.499  19.936  -5.912  1.00  0.00    +0.000 F 
ATOM     56  C39 UNL A   1      -0.981  20.206  -3.623  1.00  0.00    +0.000 C 
ATOM     57  F9  UNL A   1      -0.938  21.537  -3.776  1.00  0.00    +0.000 F 
ATOM     58  C40 UNL A   1      -0.735  19.642  -2.375  1.00  0.00    +0.000 C 
ATOM     59  F10 UNL A   1      -0.447  20.453  -1.346  1.00  0.00    +0.000 F 
ENDBRANCH   48   49
BRANCH   63   64
ATOM     65  C45 UNL A   1       5.386  15.362   0.331  1.00  0.00    +0.000 C 
ATOM     66  F11 UNL A   1       5.225  16.686   0.474  1.00  0.00    +0.000 F 
ATOM     67  C46 UNL A   1       6.593  14.879  -0.169  1.00  0.00    +0.000 C 
ATOM     68  F12 UNL A   1       7.568  15.735  -0.502  1.00  0.00    +0.000 F 
ATOM     69  C47 UNL A   1       6.782  13.515  -0.335  1.00  0.00    +0.000 C 
ATOM     70  F13 UNL A   1       7.945  13.050  -0.809  1.00  0.00    +0.000 F 
ATOM     71  C48 UNL A   1       5.760  12.634  -0.013  1.00  0.00    +0.000 C 
ATOM     72  F14 UNL A   1       5.944  11.315  -0.156  1.00  0.00    +0.000 F 
ATOM     73  C49 UNL A   1       4.543  13.118   0.461  1.00  0.00    +0.000 C 
ATOM     74  F15 UNL A   1       3.569  12.244   0.755  1.00  0.00    +0.000 F 
ATOM     64  C44 UNL A   1       4.333  14.492   0.648  1.00  0.00    +0.000 C 
ENDBRANCH   63   64
TORSDOF 23