ROOT
ATOM     27  C22 UNL A   1       9.990  -0.762   1.909  1.00  0.00    +0.000 C 
ATOM     28  C23 UNL A   1       9.832  -2.019   1.099  1.00  0.00    +0.000 C 
ATOM     29  N3  UNL A   1       9.865  -3.268   1.493  1.00  0.00    +0.000 N 
ATOM     30  C24 UNL A   1       9.617  -4.030   0.359  1.00  0.00    +0.000 C 
ATOM     31  C25 UNL A   1       9.597  -5.379   0.235  1.00  0.00    +0.000 C 
ATOM     43  C32 UNL A   1       9.861  -6.297   1.312  1.00  0.00    +0.000 C 
ATOM     44  C33 UNL A   1       9.931  -7.679   1.269  1.00  0.00    +0.000 C 
ATOM     45  C34 UNL A   1      10.180  -8.145   2.564  1.00  0.00    +0.000 C 
ATOM     46  C35 UNL A   1      10.311  -7.051   3.404  1.00  0.00    +0.000 C 
ATOM     47  N4  UNL A   1      10.105  -5.924   2.625  1.00  0.00    +0.000 N 
ATOM     48  C36 UNL A   1      10.604  -7.034   4.813  1.00  0.00    +0.000 C 
ATOM     60  C43 UNL A   1      10.694  -5.916   5.573  1.00  0.00    +0.000 C 
ATOM     61  N5  UNL A   1      10.558  -4.588   5.192  1.00  0.00    +0.000 N 
ATOM     62  C44 UNL A   1      10.720  -3.882   6.283  1.00  0.00    +0.000 C 
ATOM     63  C45 UNL A   1      10.721  -2.386   6.458  1.00  0.00    +0.000 C 
ATOM     75  C52 UNL A   1      10.557  -1.598   5.379  1.00  0.00    +0.000 C 
ATOM     76  C53 UNL A   1      10.553  -0.138   5.388  1.00  0.00    +0.000 C 
ATOM     77  C54 UNL A   1      10.332   0.307   4.141  1.00  0.00    +0.000 C 
ATOM     78  C55 UNL A   1      10.210  -0.838   3.237  1.00  0.00    +0.000 C 
ATOM     79  N6  UNL A   1      10.359  -1.927   4.060  1.00  0.00    +0.000 N 
ATOM     80  C56 UNL A   1      10.939  -4.689   7.492  1.00  0.00    +0.000 C 
ATOM     81  C57 UNL A   1      10.963  -5.917   6.995  1.00  0.00    +0.000 C 
ATOM     82  C58 UNL A   1       9.394  -3.106  -0.732  1.00  0.00    +0.000 C 
ATOM     83  C59 UNL A   1       9.578  -1.853  -0.341  1.00  0.00    +0.000 C 
ATOM    116  H27 UNL A   1       9.819  -8.265   0.427  1.00  0.00    +0.000 H 
ATOM    117  H28 UNL A   1      10.252  -9.135   2.846  1.00  0.00    +0.000 H 
ATOM    118  H29 UNL A   1      10.128  -4.997   2.954  1.00  0.00    +0.000 H 
ATOM    119  H30 UNL A   1      10.697   0.456   6.220  1.00  0.00    +0.000 H 
ATOM    120  H31 UNL A   1      10.260   1.299   3.864  1.00  0.00    +0.000 H 
ATOM    121  H32 UNL A   1      10.326  -2.856   3.735  1.00  0.00    +0.000 H 
ATOM    122  H33 UNL A   1      11.047  -4.381   8.471  1.00  0.00    +0.000 H 
ATOM    123  H34 UNL A   1      11.149  -6.766   7.551  1.00  0.00    +0.000 H 
ATOM    124  H35 UNL A   1       9.127  -3.386  -1.689  1.00  0.00    +0.000 H 
ATOM    125  H36 UNL A   1       9.551  -0.987  -0.900  1.00  0.00    +0.000 H 
ENDROOT
BRANCH   27   26
ATOM    114  H25 UNL A   1      11.581   3.365   0.563  1.00  0.00    +0.000 H 
ATOM    115  H26 UNL A   1      11.863   1.156   1.528  1.00  0.00    +0.000 H 
ATOM     84  C60 UNL A   1       8.611   0.957   0.727  1.00  0.00    +0.000 C 
ATOM     85  C61 UNL A   1       8.470   2.196   0.103  1.00  0.00    +0.000 C 
ATOM     23  C18 UNL A   1       9.538   3.097   0.092  1.00  0.00    +0.000 C 
ATOM     24  C19 UNL A   1      10.781   2.713   0.604  1.00  0.00    +0.000 C 
ATOM     25  C20 UNL A   1      10.939   1.447   1.173  1.00  0.00    +0.000 C 
ATOM     26  C21 UNL A   1       9.848   0.568   1.263  1.00  0.00    +0.000 C 
ATOM    126  H37 UNL A   1       7.800   0.322   0.796  1.00  0.00    +0.000 H 
ATOM    127  H38 UNL A   1       7.578   2.447  -0.351  1.00  0.00    +0.000 H 
BRANCH   23   21
ATOM     21  C17 UNL A   1       9.398   4.454  -0.481  1.00  0.00    +0.000 C 
ATOM     22  O3  UNL A   1      10.290   4.908  -1.193  1.00  0.00    +0.000 O 
BRANCH   21   20
ATOM    113  H24 UNL A   1       8.212   6.048  -0.720  1.00  0.00    +0.000 H 
ATOM     20  N2  UNL A   1       8.290   5.213  -0.203  1.00  0.00    +0.000 N 
BRANCH   20   19
ATOM     19  C16 UNL A   1       7.215   4.966   0.741  1.00  0.00    +0.000 C 
ATOM    111  H22 UNL A   1       6.332   4.703   0.196  1.00  0.00    +0.000 H 
ATOM    112  H23 UNL A   1       7.528   4.174   1.389  1.00  0.00    +0.000 H 
BRANCH   19   18
ATOM     18  C15 UNL A   1       6.907   6.181   1.611  1.00  0.00    +0.000 C 
ATOM    109  H20 UNL A   1       6.142   5.905   2.306  1.00  0.00    +0.000 H 
ATOM    110  H21 UNL A   1       7.832   6.452   2.077  1.00  0.00    +0.000 H 
BRANCH   18   17
ATOM     17  C14 UNL A   1       6.434   7.425   0.855  1.00  0.00    +0.000 C 
ATOM    107  H18 UNL A   1       6.191   8.176   1.577  1.00  0.00    +0.000 H 
ATOM    108  H19 UNL A   1       7.238   7.695   0.203  1.00  0.00    +0.000 H 
BRANCH   17   16
ATOM    105  H16 UNL A   1       4.918   8.184  -0.422  1.00  0.00    +0.000 H 
ATOM    106  H17 UNL A   1       5.517   6.542  -0.811  1.00  0.00    +0.000 H 
ATOM     16  C13 UNL A   1       5.212   7.226  -0.048  1.00  0.00    +0.000 C 
BRANCH   16   15
ATOM    103  H14 UNL A   1       3.205   6.530  -0.093  1.00  0.00    +0.000 H 
ATOM     15  C12 UNL A   1       3.994   6.588   0.627  1.00  0.00    +0.000 C 
ATOM    104  H15 UNL A   1       4.312   5.630   0.981  1.00  0.00    +0.000 H 
BRANCH   15   14
ATOM    102  H13 UNL A   1       4.298   7.552   2.491  1.00  0.00    +0.000 H 
ATOM    101  H12 UNL A   1       2.740   6.742   2.340  1.00  0.00    +0.000 H 
ATOM     14  C11 UNL A   1       3.471   7.345   1.844  1.00  0.00    +0.000 C 
BRANCH   14   13
ATOM    100  H11 UNL A   1       3.367   9.131   0.805  1.00  0.00    +0.000 H 
ATOM     13  N1  UNL A   1       2.864   8.605   1.468  1.00  0.00    +0.000 N 
BRANCH   13   11
ATOM     11  C10 UNL A   1       1.700   9.170   1.895  1.00  0.00    +0.000 C 
ATOM     12  O2  UNL A   1       1.502  10.354   1.601  1.00  0.00    +0.000 O 
BRANCH   11    9
ATOM      9  C8  UNL A   1       0.659   8.380   2.699  1.00  0.00    +0.000 C 
ATOM     96  H7  UNL A   1      -0.210   8.983   2.864  1.00  0.00    +0.000 H 
BRANCH    9    8
ATOM    129  H40 UNL A   1       2.135   5.707   6.245  1.00  0.00    +0.000 H 
ATOM    130  H41 UNL A   1       2.990   6.663   8.347  1.00  0.00    +0.000 H 
ATOM      3  C2  UNL A   1       2.928   8.709   8.841  1.00  0.00    +0.000 C 
ATOM      4  C3  UNL A   1       2.616   9.989   8.389  1.00  0.00    +0.000 C 
ATOM      5  C4  UNL A   1       2.082  10.159   7.110  1.00  0.00    +0.000 C 
ATOM      6  C5  UNL A   1       1.858   9.055   6.272  1.00  0.00    +0.000 C 
ATOM      7  C6  UNL A   1       1.346   9.211   4.973  1.00  0.00    +0.000 C 
ATOM      8  C7  UNL A   1       1.126   8.109   4.124  1.00  0.00    +0.000 C 
ATOM     86  C62 UNL A   1       1.387   6.829   4.625  1.00  0.00    +0.000 C 
ATOM     87  C63 UNL A   1       1.922   6.658   5.906  1.00  0.00    +0.000 C 
ATOM     88  C64 UNL A   1       2.172   7.760   6.735  1.00  0.00    +0.000 C 
ATOM     89  C65 UNL A   1       2.727   7.604   8.015  1.00  0.00    +0.000 C 
ATOM     93  H4  UNL A   1       2.780  10.807   8.996  1.00  0.00    +0.000 H 
ATOM     94  H5  UNL A   1       1.848  11.108   6.777  1.00  0.00    +0.000 H 
ATOM     95  H6  UNL A   1       1.125  10.159   4.632  1.00  0.00    +0.000 H 
ATOM    128  H39 UNL A   1       1.183   6.002   4.042  1.00  0.00    +0.000 H 
BRANCH    3    2
ATOM      2  O1  UNL A   1       3.499   8.472  10.061  1.00  0.00    +0.000 O 
BRANCH    2    1
ATOM      1  C1  UNL A   1       2.724   9.001  11.135  1.00  0.00    +0.000 C 
ATOM     90  H1  UNL A   1       3.211   8.790  12.064  1.00  0.00    +0.000 H 
ATOM     91  H2  UNL A   1       1.754   8.550  11.130  1.00  0.00    +0.000 H 
ATOM     92  H3  UNL A   1       2.626  10.060  11.015  1.00  0.00    +0.000 H 
ENDBRANCH    2    1
ENDBRANCH    3    2
ENDBRANCH    9    8
BRANCH    9   10
ATOM     97  H8  UNL A   1       0.887   6.523   1.659  1.00  0.00    +0.000 H 
ATOM     10  C9  UNL A   1       0.098   7.207   1.889  1.00  0.00    +0.000 C 
ATOM     99  H10 UNL A   1      -0.654   6.705   2.462  1.00  0.00    +0.000 H 
ATOM     98  H9  UNL A   1      -0.332   7.575   0.981  1.00  0.00    +0.000 H 
ENDBRANCH    9   10
ENDBRANCH   11    9
ENDBRANCH   13   11
ENDBRANCH   14   13
ENDBRANCH   15   14
ENDBRANCH   16   15
ENDBRANCH   17   16
ENDBRANCH   18   17
ENDBRANCH   19   18
ENDBRANCH   20   19
ENDBRANCH   21   20
ENDBRANCH   23   21
ENDBRANCH   27   26
BRANCH   31   32
ATOM     33  C27 UNL A   1      10.211  -5.891  -2.170  1.00  0.00    +0.000 C 
ATOM     34  F1  UNL A   1      11.372  -5.239  -2.012  1.00  0.00    +0.000 F 
ATOM     35  C28 UNL A   1       9.932  -6.476  -3.402  1.00  0.00    +0.000 C 
ATOM     36  F2  UNL A   1      10.814  -6.373  -4.406  1.00  0.00    +0.000 F 
ATOM     37  C29 UNL A   1       8.742  -7.162  -3.594  1.00  0.00    +0.000 C 
ATOM     38  F3  UNL A   1       8.482  -7.739  -4.776  1.00  0.00    +0.000 F 
ATOM     39  C30 UNL A   1       7.819  -7.247  -2.562  1.00  0.00    +0.000 C 
ATOM     40  F4  UNL A   1       6.675  -7.921  -2.742  1.00  0.00    +0.000 F 
ATOM     41  C31 UNL A   1       8.083  -6.639  -1.337  1.00  0.00    +0.000 C 
ATOM     42  F5  UNL A   1       7.169  -6.734  -0.360  1.00  0.00    +0.000 F 
ATOM     32  C26 UNL A   1       9.288  -5.955  -1.116  1.00  0.00    +0.000 C 
ENDBRANCH   31   32
BRANCH   48   49
ATOM     49  C37 UNL A   1      10.857  -8.349   5.491  1.00  0.00    +0.000 C 
ATOM     50  C38 UNL A   1       9.937  -8.905   6.391  1.00  0.00    +0.000 C 
ATOM     51  F6  UNL A   1       8.812  -8.243   6.701  1.00  0.00    +0.000 F 
ATOM     52  C39 UNL A   1      10.191 -10.126   7.009  1.00  0.00    +0.000 C 
ATOM     53  F7  UNL A   1       9.322 -10.615   7.905  1.00  0.00    +0.000 F 
ATOM     54  C40 UNL A   1      11.350 -10.829   6.714  1.00  0.00    +0.000 C 
ATOM     55  F8  UNL A   1      11.590 -12.006   7.307  1.00  0.00    +0.000 F 
ATOM     56  C41 UNL A   1      12.262 -10.309   5.809  1.00  0.00    +0.000 C 
ATOM     57  F9  UNL A   1      13.376 -10.992   5.513  1.00  0.00    +0.000 F 
ATOM     58  C42 UNL A   1      12.026  -9.074   5.212  1.00  0.00    +0.000 C 
ATOM     59  F10 UNL A   1      12.934  -8.588   4.353  1.00  0.00    +0.000 F 
ENDBRANCH   48   49
BRANCH   63   64
ATOM     65  C47 UNL A   1      12.166  -1.893   8.454  1.00  0.00    +0.000 C 
ATOM     66  F11 UNL A   1      13.181  -2.538   7.860  1.00  0.00    +0.000 F 
ATOM     67  C48 UNL A   1      12.349  -1.391   9.740  1.00  0.00    +0.000 C 
ATOM     68  F12 UNL A   1      13.522  -1.563  10.363  1.00  0.00    +0.000 F 
ATOM     69  C49 UNL A   1      11.309  -0.738  10.385  1.00  0.00    +0.000 C 
ATOM     70  F13 UNL A   1      11.483  -0.261  11.625  1.00  0.00    +0.000 F 
ATOM     71  C50 UNL A   1      10.086  -0.592   9.748  1.00  0.00    +0.000 C 
ATOM     72  F14 UNL A   1       9.084   0.049  10.364  1.00  0.00    +0.000 F 
ATOM     73  C51 UNL A   1       9.894  -1.121   8.473  1.00  0.00    +0.000 C 
ATOM     74  F15 UNL A   1       8.693  -0.985   7.891  1.00  0.00    +0.000 F 
ATOM     64  C46 UNL A   1      10.930  -1.784   7.801  1.00  0.00    +0.000 C 
ENDBRANCH   63   64
TORSDOF 19