ROOT
ATOM    129  H32 UNL A   1      -5.696   5.338  -5.610  1.00  0.00    +0.000 H 
ATOM    130  H33 UNL A   1      -4.424   7.276  -4.519  1.00  0.00    +0.000 H 
ATOM     28  C21 UNL A   1      -1.759   7.577  -5.475  1.00  0.00    +0.000 C 
ATOM     29  C22 UNL A   1      -2.808   6.624  -5.971  1.00  0.00    +0.000 C 
ATOM     30  N4  UNL A   1      -2.735   5.740  -6.934  1.00  0.00    +0.000 N 
ATOM     31  C23 UNL A   1      -3.965   5.096  -6.949  1.00  0.00    +0.000 C 
ATOM     32  C24 UNL A   1      -4.401   4.133  -7.795  1.00  0.00    +0.000 C 
ATOM     44  C31 UNL A   1      -3.625   3.594  -8.881  1.00  0.00    +0.000 C 
ATOM     45  C32 UNL A   1      -4.008   2.673  -9.841  1.00  0.00    +0.000 C 
ATOM     46  C33 UNL A   1      -2.906   2.415 -10.663  1.00  0.00    +0.000 C 
ATOM     47  C34 UNL A   1      -1.848   3.203 -10.239  1.00  0.00    +0.000 C 
ATOM     48  N5  UNL A   1      -2.305   3.925  -9.148  1.00  0.00    +0.000 N 
ATOM     49  C35 UNL A   1      -0.516   3.286 -10.780  1.00  0.00    +0.000 C 
ATOM     61  C42 UNL A   1       0.448   4.134 -10.347  1.00  0.00    +0.000 C 
ATOM     62  N6  UNL A   1       0.389   5.071  -9.325  1.00  0.00    +0.000 N 
ATOM     63  C43 UNL A   1       1.572   5.631  -9.282  1.00  0.00    +0.000 C 
ATOM     64  C44 UNL A   1       2.073   6.720  -8.373  1.00  0.00    +0.000 C 
ATOM     76  C51 UNL A   1       1.241   7.249  -7.456  1.00  0.00    +0.000 C 
ATOM     77  C52 UNL A   1       1.594   8.290  -6.495  1.00  0.00    +0.000 C 
ATOM     78  C53 UNL A   1       0.549   8.504  -5.679  1.00  0.00    +0.000 C 
ATOM     79  C54 UNL A   1      -0.562   7.644  -6.088  1.00  0.00    +0.000 C 
ATOM     80  N7  UNL A   1      -0.071   6.958  -7.171  1.00  0.00    +0.000 N 
ATOM     81  C55 UNL A   1       2.526   5.098 -10.265  1.00  0.00    +0.000 C 
ATOM     82  C56 UNL A   1       1.780   4.210 -10.908  1.00  0.00    +0.000 C 
ATOM     83  C57 UNL A   1      -4.752   5.662  -5.875  1.00  0.00    +0.000 C 
ATOM     84  C58 UNL A   1      -4.104   6.651  -5.276  1.00  0.00    +0.000 C 
ATOM    121  H24 UNL A   1      -4.945   2.250  -9.935  1.00  0.00    +0.000 H 
ATOM    122  H25 UNL A   1      -2.884   1.750 -11.452  1.00  0.00    +0.000 H 
ATOM    123  H26 UNL A   1      -1.772   4.577  -8.638  1.00  0.00    +0.000 H 
ATOM    124  H27 UNL A   1       2.500   8.781  -6.450  1.00  0.00    +0.000 H 
ATOM    125  H28 UNL A   1       0.533   9.169  -4.890  1.00  0.00    +0.000 H 
ATOM    126  H29 UNL A   1      -0.608   6.319  -7.694  1.00  0.00    +0.000 H 
ATOM    127  H30 UNL A   1       3.516   5.349 -10.415  1.00  0.00    +0.000 H 
ATOM    128  H31 UNL A   1       2.108   3.645 -11.707  1.00  0.00    +0.000 H 
ENDROOT
BRANCH   28   27
ATOM    131  H34 UNL A   1      -2.071   6.705  -2.969  1.00  0.00    +0.000 H 
ATOM    132  H35 UNL A   1      -2.473   7.987  -0.952  1.00  0.00    +0.000 H 
ATOM     27  C20 UNL A   1      -2.002   8.384  -4.254  1.00  0.00    +0.000 C 
ATOM     85  C59 UNL A   1      -2.125   7.734  -3.016  1.00  0.00    +0.000 C 
ATOM     86  C60 UNL A   1      -2.320   8.471  -1.850  1.00  0.00    +0.000 C 
ATOM    119  H22 UNL A   1      -2.276  11.555  -3.172  1.00  0.00    +0.000 H 
ATOM     24  C17 UNL A   1      -2.309   9.868  -1.901  1.00  0.00    +0.000 C 
ATOM     25  C18 UNL A   1      -2.232  10.525  -3.132  1.00  0.00    +0.000 C 
ATOM     26  C19 UNL A   1      -2.093   9.784  -4.308  1.00  0.00    +0.000 C 
ATOM    120  H23 UNL A   1      -2.058  10.266  -5.219  1.00  0.00    +0.000 H 
BRANCH   24   22
ATOM     22  C16 UNL A   1      -2.397  10.673  -0.664  1.00  0.00    +0.000 C 
ATOM     23  O4  UNL A   1      -3.133  11.656  -0.629  1.00  0.00    +0.000 O 
BRANCH   22   21
ATOM     21  N3  UNL A   1      -1.652  10.329   0.436  1.00  0.00    +0.000 N 
ATOM    118  H21 UNL A   1      -1.918  10.764   1.278  1.00  0.00    +0.000 H 
BRANCH   21   20
ATOM    116  H19 UNL A   1      -0.776   8.631   1.222  1.00  0.00    +0.000 H 
ATOM     20  C15 UNL A   1      -0.525   9.413   0.536  1.00  0.00    +0.000 C 
ATOM    117  H20 UNL A   1      -0.328   9.025  -0.441  1.00  0.00    +0.000 H 
BRANCH   20   19
ATOM    114  H17 UNL A   1       1.547   9.410   0.983  1.00  0.00    +0.000 H 
ATOM     19  C14 UNL A   1       0.741  10.111   1.028  1.00  0.00    +0.000 C 
ATOM    115  H18 UNL A   1       0.884  10.960   0.393  1.00  0.00    +0.000 H 
BRANCH   19   18
ATOM    113  H16 UNL A   1      -0.181  11.314   2.478  1.00  0.00    +0.000 H 
ATOM     18  C13 UNL A   1       0.658  10.651   2.459  1.00  0.00    +0.000 C 
ATOM    112  H15 UNL A   1       1.588  11.130   2.686  1.00  0.00    +0.000 H 
BRANCH   18   17
ATOM     17  C12 UNL A   1       0.392   9.598   3.542  1.00  0.00    +0.000 C 
ATOM    110  H13 UNL A   1       0.411  10.088   4.493  1.00  0.00    +0.000 H 
ATOM    111  H14 UNL A   1      -0.556   9.162   3.306  1.00  0.00    +0.000 H 
BRANCH   17   16
ATOM    108  H11 UNL A   1       1.079   7.744   4.335  1.00  0.00    +0.000 H 
ATOM    109  H12 UNL A   1       1.413   8.002   2.608  1.00  0.00    +0.000 H 
ATOM     16  C11 UNL A   1       1.396   8.438   3.585  1.00  0.00    +0.000 C 
BRANCH   16   15
ATOM    106  H9  UNL A   1       3.499   8.083   3.658  1.00  0.00    +0.000 H 
ATOM    107  H10 UNL A   1       3.048   9.753   3.331  1.00  0.00    +0.000 H 
ATOM     15  C10 UNL A   1       2.826   8.878   3.905  1.00  0.00    +0.000 C 
BRANCH   15   14
ATOM    105  H8  UNL A   1       2.685  10.105   5.572  1.00  0.00    +0.000 H 
ATOM     14  N2  UNL A   1       2.973   9.201   5.310  1.00  0.00    +0.000 N 
BRANCH   14   12
ATOM     12  C9  UNL A   1       3.458   8.418   6.320  1.00  0.00    +0.000 C 
ATOM     13  O3  UNL A   1       3.312   8.810   7.480  1.00  0.00    +0.000 O 
BRANCH   12   11
ATOM     11  C8  UNL A   1       4.249   7.162   6.006  1.00  0.00    +0.000 C 
ATOM    103  H6  UNL A   1       4.996   7.401   5.278  1.00  0.00    +0.000 H 
ATOM    104  H7  UNL A   1       4.686   6.817   6.920  1.00  0.00    +0.000 H 
BRANCH   11   10
ATOM      7  C6  UNL A   1       2.245   4.486   4.435  1.00  0.00    +0.000 C 
ATOM      8  N1  UNL A   1       1.586   4.753   5.572  1.00  0.00    +0.000 N 
ATOM      9  O2  UNL A   1       2.320   5.722   6.226  1.00  0.00    +0.000 O 
ATOM     10  C7  UNL A   1       3.399   6.070   5.475  1.00  0.00    +0.000 C 
ATOM     87  C61 UNL A   1       3.423   5.288   4.337  1.00  0.00    +0.000 C 
BRANCH    7    6
ATOM     97  C70 UNL A   1       2.131   1.719   1.881  1.00  0.00    +0.000 C 
ATOM      3  C2  UNL A   1       0.821   1.828   1.416  1.00  0.00    +0.000 C 
ATOM      4  C3  UNL A   1      -0.031   2.780   1.982  1.00  0.00    +0.000 C 
ATOM    101  H4  UNL A   1      -1.002   2.863   1.641  1.00  0.00    +0.000 H 
ATOM      5  C4  UNL A   1       0.417   3.620   3.004  1.00  0.00    +0.000 C 
ATOM    102  H5  UNL A   1      -0.227   4.309   3.425  1.00  0.00    +0.000 H 
ATOM      6  C5  UNL A   1       1.737   3.530   3.458  1.00  0.00    +0.000 C 
ATOM    140  H43 UNL A   1       3.555   2.477   3.241  1.00  0.00    +0.000 H 
ATOM    141  H44 UNL A   1       2.765   1.015   1.474  1.00  0.00    +0.000 H 
ATOM     96  C69 UNL A   1       2.585   2.565   2.899  1.00  0.00    +0.000 C 
BRANCH    3    2
ATOM      2  O1  UNL A   1       0.267   1.087   0.408  1.00  0.00    +0.000 O 
BRANCH    2    1
ATOM      1  C1  UNL A   1       0.984  -0.073   0.005  1.00  0.00    +0.000 C 
ATOM     98  H1  UNL A   1       0.453  -0.564  -0.784  1.00  0.00    +0.000 H 
ATOM     99  H2  UNL A   1       1.082  -0.739   0.836  1.00  0.00    +0.000 H 
ATOM    100  H3  UNL A   1       1.956   0.211  -0.342  1.00  0.00    +0.000 H 
ENDBRANCH    2    1
ENDBRANCH    3    2
ENDBRANCH    7    6
BRANCH   87   88
ATOM    133  H36 UNL A   1       2.913   5.768   1.773  1.00  0.00    +0.000 H 
ATOM    134  H37 UNL A   1       4.488   6.000  -0.050  1.00  0.00    +0.000 H 
ATOM    138  H41 UNL A   1       7.675   5.340   2.601  1.00  0.00    +0.000 H 
ATOM    139  H42 UNL A   1       6.100   5.098   4.433  1.00  0.00    +0.000 H 
ATOM     88  C62 UNL A   1       4.379   5.424   3.254  1.00  0.00    +0.000 C 
ATOM     89  C63 UNL A   1       3.925   5.678   1.954  1.00  0.00    +0.000 C 
ATOM     90  C64 UNL A   1       4.834   5.811   0.904  1.00  0.00    +0.000 C 
ATOM     91  C65 UNL A   1       6.205   5.693   1.131  1.00  0.00    +0.000 C 
ATOM     94  C67 UNL A   1       6.663   5.432   2.424  1.00  0.00    +0.000 C 
ATOM     95  C68 UNL A   1       5.753   5.295   3.481  1.00  0.00    +0.000 C 
BRANCH   91   92
ATOM     92  O5  UNL A   1       6.979   5.849   0.016  1.00  0.00    +0.000 O 
BRANCH   92   93
ATOM    137  H40 UNL A   1       8.720   6.490   0.873  1.00  0.00    +0.000 H 
ATOM     93  C66 UNL A   1       8.386   5.742   0.185  1.00  0.00    +0.000 C 
ATOM    135  H38 UNL A   1       8.870   5.884  -0.758  1.00  0.00    +0.000 H 
ATOM    136  H39 UNL A   1       8.627   4.773   0.568  1.00  0.00    +0.000 H 
ENDBRANCH   92   93
ENDBRANCH   91   92
ENDBRANCH   87   88
ENDBRANCH   11   10
ENDBRANCH   12   11
ENDBRANCH   14   12
ENDBRANCH   15   14
ENDBRANCH   16   15
ENDBRANCH   17   16
ENDBRANCH   18   17
ENDBRANCH   19   18
ENDBRANCH   20   19
ENDBRANCH   21   20
ENDBRANCH   22   21
ENDBRANCH   24   22
ENDBRANCH   28   27
BRANCH   32   33
ATOM     33  C25 UNL A   1      -5.785   3.597  -7.582  1.00  0.00    +0.000 C 
ATOM     34  C26 UNL A   1      -6.923   4.360  -7.886  1.00  0.00    +0.000 C 
ATOM     35  F1  UNL A   1      -6.792   5.618  -8.332  1.00  0.00    +0.000 F 
ATOM     36  C27 UNL A   1      -8.202   3.842  -7.701  1.00  0.00    +0.000 C 
ATOM     37  F2  UNL A   1      -9.274   4.604  -7.960  1.00  0.00    +0.000 F 
ATOM     38  C28 UNL A   1      -8.369   2.545  -7.239  1.00  0.00    +0.000 C 
ATOM     39  F3  UNL A   1      -9.601   2.046  -7.069  1.00  0.00    +0.000 F 
ATOM     40  C29 UNL A   1      -7.258   1.767  -6.950  1.00  0.00    +0.000 C 
ATOM     41  F4  UNL A   1      -7.417   0.509  -6.515  1.00  0.00    +0.000 F 
ATOM     42  C30 UNL A   1      -5.977   2.290  -7.109  1.00  0.00    +0.000 C 
ATOM     43  F5  UNL A   1      -4.923   1.517  -6.810  1.00  0.00    +0.000 F 
ENDBRANCH   32   33
BRANCH   49   50
ATOM     50  C36 UNL A   1      -0.169   2.377 -11.920  1.00  0.00    +0.000 C 
ATOM     51  C37 UNL A   1       0.656   1.258 -11.735  1.00  0.00    +0.000 C 
ATOM     52  F6  UNL A   1       1.207   1.017 -10.536  1.00  0.00    +0.000 F 
ATOM     53  C38 UNL A   1       0.942   0.400 -12.793  1.00  0.00    +0.000 C 
ATOM     54  F7  UNL A   1       1.761  -0.644 -12.603  1.00  0.00    +0.000 F 
ATOM     55  C39 UNL A   1       0.389   0.627 -14.044  1.00  0.00    +0.000 C 
ATOM     56  F8  UNL A   1       0.658  -0.206 -15.059  1.00  0.00    +0.000 F 
ATOM     57  C40 UNL A   1      -0.437   1.723 -14.246  1.00  0.00    +0.000 C 
ATOM     58  F9  UNL A   1      -0.980   1.938 -15.453  1.00  0.00    +0.000 F 
ATOM     59  C41 UNL A   1      -0.706   2.597 -13.197  1.00  0.00    +0.000 C 
ATOM     60  F10 UNL A   1      -1.503   3.652 -13.423  1.00  0.00    +0.000 F 
ENDBRANCH   49   50
BRANCH   64   65
ATOM     65  C45 UNL A   1       3.466   7.221  -8.483  1.00  0.00    +0.000 C 
ATOM     66  C46 UNL A   1       3.864   7.998  -9.579  1.00  0.00    +0.000 C 
ATOM     67  F11 UNL A   1       2.988   8.272 -10.557  1.00  0.00    +0.000 F 
ATOM     68  C47 UNL A   1       5.171   8.464  -9.694  1.00  0.00    +0.000 C 
ATOM     69  F12 UNL A   1       5.536   9.173 -10.771  1.00  0.00    +0.000 F 
ATOM     70  C48 UNL A   1       6.099   8.184  -8.701  1.00  0.00    +0.000 C 
ATOM     71  F13 UNL A   1       7.356   8.637  -8.809  1.00  0.00    +0.000 F 
ATOM     72  C49 UNL A   1       5.725   7.428  -7.601  1.00  0.00    +0.000 C 
ATOM     73  F14 UNL A   1       6.616   7.165  -6.635  1.00  0.00    +0.000 F 
ATOM     74  C50 UNL A   1       4.424   6.941  -7.497  1.00  0.00    +0.000 C 
ATOM     75  F15 UNL A   1       4.091   6.203  -6.428  1.00  0.00    +0.000 F 
ENDBRANCH   64   65
TORSDOF 22