ROOT
ATOM     27  C21 UNL A   1       2.421  11.066  -6.464  1.00  0.00    +0.000 C 
ATOM     28  C22 UNL A   1       2.031  12.449  -6.029  1.00  0.00    +0.000 C 
ATOM     29  N3  UNL A   1       1.132  13.254  -6.537  1.00  0.00    +0.000 N 
ATOM     30  C23 UNL A   1       1.148  14.390  -5.740  1.00  0.00    +0.000 C 
ATOM     31  C24 UNL A   1       0.441  15.536  -5.888  1.00  0.00    +0.000 C 
ATOM     43  C31 UNL A   1      -0.505  15.778  -6.946  1.00  0.00    +0.000 C 
ATOM     44  C32 UNL A   1      -1.220  16.931  -7.219  1.00  0.00    +0.000 C 
ATOM     45  C33 UNL A   1      -2.056  16.680  -8.313  1.00  0.00    +0.000 C 
ATOM     46  C34 UNL A   1      -1.831  15.384  -8.749  1.00  0.00    +0.000 C 
ATOM     47  N4  UNL A   1      -0.876  14.843  -7.902  1.00  0.00    +0.000 N 
ATOM     48  C35 UNL A   1      -2.441  14.687  -9.853  1.00  0.00    +0.000 C 
ATOM     60  C42 UNL A   1      -2.127  13.429 -10.246  1.00  0.00    +0.000 C 
ATOM     61  N5  UNL A   1      -1.204  12.550  -9.697  1.00  0.00    +0.000 N 
ATOM     62  C43 UNL A   1      -1.278  11.456 -10.415  1.00  0.00    +0.000 C 
ATOM     63  C44 UNL A   1      -0.498  10.179 -10.275  1.00  0.00    +0.000 C 
ATOM     75  C51 UNL A   1       0.458  10.087  -9.331  1.00  0.00    +0.000 C 
ATOM     76  C52 UNL A   1       1.290   8.914  -9.085  1.00  0.00    +0.000 C 
ATOM     77  C53 UNL A   1       2.076   9.149  -8.023  1.00  0.00    +0.000 C 
ATOM     78  C54 UNL A   1       1.826  10.506  -7.535  1.00  0.00    +0.000 C 
ATOM     79  N6  UNL A   1       0.872  10.998  -8.391  1.00  0.00    +0.000 N 
ATOM     80  C55 UNL A   1      -2.270  11.512 -11.497  1.00  0.00    +0.000 C 
ATOM     81  C56 UNL A   1      -2.737  12.746 -11.369  1.00  0.00    +0.000 C 
ATOM     82  C57 UNL A   1       2.109  14.149  -4.684  1.00  0.00    +0.000 C 
ATOM     83  C58 UNL A   1       2.727  12.989  -4.852  1.00  0.00    +0.000 C 
ATOM    109  H24 UNL A   1      -1.149  17.823  -6.705  1.00  0.00    +0.000 H 
ATOM    110  H25 UNL A   1      -2.727  17.347  -8.726  1.00  0.00    +0.000 H 
ATOM    111  H26 UNL A   1      -0.514  13.930  -7.969  1.00  0.00    +0.000 H 
ATOM    112  H27 UNL A   1       1.276   8.043  -9.639  1.00  0.00    +0.000 H 
ATOM    113  H28 UNL A   1       2.748   8.481  -7.616  1.00  0.00    +0.000 H 
ATOM    114  H29 UNL A   1       0.519  11.916  -8.336  1.00  0.00    +0.000 H 
ATOM    115  H30 UNL A   1      -2.534  10.783 -12.178  1.00  0.00    +0.000 H 
ATOM    116  H31 UNL A   1      -3.445  13.167 -11.990  1.00  0.00    +0.000 H 
ATOM    117  H32 UNL A   1       2.290  14.798  -3.902  1.00  0.00    +0.000 H 
ATOM    118  H33 UNL A   1       3.494  12.573  -4.301  1.00  0.00    +0.000 H 
ENDROOT
BRANCH   27   26
ATOM    107  H22 UNL A   1       6.378   8.742  -5.916  1.00  0.00    +0.000 H 
ATOM    108  H23 UNL A   1       4.923  10.256  -7.135  1.00  0.00    +0.000 H 
ATOM     84  C59 UNL A   1       3.052   9.845  -4.380  1.00  0.00    +0.000 C 
ATOM     85  C60 UNL A   1       3.922   9.038  -3.650  1.00  0.00    +0.000 C 
ATOM    120  H35 UNL A   1       3.697   8.783  -2.676  1.00  0.00    +0.000 H 
ATOM     23  C17 UNL A   1       5.101   8.575  -4.241  1.00  0.00    +0.000 C 
ATOM     24  C18 UNL A   1       5.478   9.036  -5.506  1.00  0.00    +0.000 C 
ATOM     25  C19 UNL A   1       4.634   9.895  -6.213  1.00  0.00    +0.000 C 
ATOM    119  H34 UNL A   1       2.151  10.133  -3.966  1.00  0.00    +0.000 H 
ATOM     26  C20 UNL A   1       3.393  10.270  -5.673  1.00  0.00    +0.000 C 
BRANCH   23   21
ATOM     21  C16 UNL A   1       5.972   7.597  -3.552  1.00  0.00    +0.000 C 
ATOM     22  O4  UNL A   1       7.189   7.761  -3.556  1.00  0.00    +0.000 O 
BRANCH   21   20
ATOM    106  H21 UNL A   1       6.060   5.960  -2.405  1.00  0.00    +0.000 H 
ATOM     20  N2  UNL A   1       5.429   6.495  -2.938  1.00  0.00    +0.000 N 
BRANCH   20   19
ATOM    105  H20 UNL A   1       3.521   6.570  -3.684  1.00  0.00    +0.000 H 
ATOM     19  C15 UNL A   1       4.061   6.000  -2.957  1.00  0.00    +0.000 C 
ATOM    104  H19 UNL A   1       3.643   6.111  -1.978  1.00  0.00    +0.000 H 
BRANCH   19   18
ATOM     18  C14 UNL A   1       3.970   4.531  -3.363  1.00  0.00    +0.000 C 
ATOM    102  H17 UNL A   1       2.935   4.267  -3.420  1.00  0.00    +0.000 H 
ATOM    103  H18 UNL A   1       4.486   4.451  -4.297  1.00  0.00    +0.000 H 
BRANCH   18   17
ATOM     17  C13 UNL A   1       4.657   3.546  -2.414  1.00  0.00    +0.000 C 
ATOM    100  H15 UNL A   1       4.506   2.559  -2.798  1.00  0.00    +0.000 H 
ATOM    101  H16 UNL A   1       5.685   3.842  -2.378  1.00  0.00    +0.000 H 
BRANCH   17   16
ATOM     98  H13 UNL A   1       4.692   2.815  -0.423  1.00  0.00    +0.000 H 
ATOM     99  H14 UNL A   1       4.342   4.564  -0.610  1.00  0.00    +0.000 H 
ATOM     16  C12 UNL A   1       4.162   3.571  -0.965  1.00  0.00    +0.000 C 
BRANCH   16   15
ATOM     97  H12 UNL A   1       2.155   4.100  -1.308  1.00  0.00    +0.000 H 
ATOM     15  C11 UNL A   1       2.660   3.323  -0.773  1.00  0.00    +0.000 C 
ATOM     96  H11 UNL A   1       2.452   3.331   0.277  1.00  0.00    +0.000 H 
BRANCH   15   14
ATOM     94  H9  UNL A   1       1.095   1.938  -1.189  1.00  0.00    +0.000 H 
ATOM     14  C10 UNL A   1       2.151   2.001  -1.349  1.00  0.00    +0.000 C 
ATOM     95  H10 UNL A   1       2.384   1.983  -2.394  1.00  0.00    +0.000 H 
BRANCH   14   13
ATOM     13  N1  UNL A   1       2.788   0.860  -0.726  1.00  0.00    +0.000 N 
ATOM     93  H8  UNL A   1       3.718   0.643  -0.967  1.00  0.00    +0.000 H 
BRANCH   13    2
ATOM      1  O1  UNL A   1       0.958   0.197   0.490  1.00  0.00    +0.000 O 
ATOM      2  C1  UNL A   1       2.139   0.073   0.186  1.00  0.00    +0.000 C 
BRANCH    2    3
ATOM      3  C2  UNL A   1       2.935  -1.022   0.797  1.00  0.00    +0.000 C 
ATOM     86  H1  UNL A   1       2.415  -1.837   1.158  1.00  0.00    +0.000 H 
BRANCH    3    4
ATOM      4  C3  UNL A   1       4.272  -1.045   0.921  1.00  0.00    +0.000 C 
ATOM     87  H2  UNL A   1       4.824  -0.286   0.493  1.00  0.00    +0.000 H 
BRANCH    4    5
ATOM      5  C4  UNL A   1       4.979  -2.113   1.644  1.00  0.00    +0.000 C 
ATOM      6  C5  UNL A   1       4.624  -3.468   1.515  1.00  0.00    +0.000 C 
ATOM      7  C6  UNL A   1       5.301  -4.459   2.236  1.00  0.00    +0.000 C 
ATOM      8  C7  UNL A   1       6.343  -4.092   3.076  1.00  0.00    +0.000 C 
ATOM     10  C8  UNL A   1       6.718  -2.756   3.186  1.00  0.00    +0.000 C 
ATOM     12  C9  UNL A   1       6.053  -1.767   2.474  1.00  0.00    +0.000 C 
ATOM     88  H3  UNL A   1       3.855  -3.735   0.881  1.00  0.00    +0.000 H 
ATOM     89  H4  UNL A   1       5.029  -5.450   2.143  1.00  0.00    +0.000 H 
ATOM     92  H7  UNL A   1       6.348  -0.781   2.555  1.00  0.00    +0.000 H 
BRANCH    8    9
ATOM      9  O2  UNL A   1       7.030  -5.009   3.821  1.00  0.00    +0.000 O 
ATOM     90  H5  UNL A   1       6.804  -5.917   3.772  1.00  0.00    +0.000 H 
ENDBRANCH    8    9
BRANCH   10   11
ATOM     11  O3  UNL A   1       7.747  -2.403   4.011  1.00  0.00    +0.000 O 
ATOM     91  H6  UNL A   1       8.205  -3.061   4.497  1.00  0.00    +0.000 H 
ENDBRANCH   10   11
ENDBRANCH    4    5
ENDBRANCH    3    4
ENDBRANCH    2    3
ENDBRANCH   13    2
ENDBRANCH   14   13
ENDBRANCH   15   14
ENDBRANCH   16   15
ENDBRANCH   17   16
ENDBRANCH   18   17
ENDBRANCH   19   18
ENDBRANCH   20   19
ENDBRANCH   21   20
ENDBRANCH   23   21
ENDBRANCH   27   26
BRANCH   31   32
ATOM     33  C26 UNL A   1       1.873  17.340  -4.828  1.00  0.00    +0.000 C 
ATOM     34  F1  UNL A   1       2.867  17.049  -5.682  1.00  0.00    +0.000 F 
ATOM     35  C27 UNL A   1       2.080  18.332  -3.873  1.00  0.00    +0.000 C 
ATOM     36  F2  UNL A   1       3.258  18.968  -3.814  1.00  0.00    +0.000 F 
ATOM     37  C28 UNL A   1       1.075  18.650  -2.972  1.00  0.00    +0.000 C 
ATOM     38  F3  UNL A   1       1.274  19.606  -2.054  1.00  0.00    +0.000 F 
ATOM     39  C29 UNL A   1      -0.134  17.971  -3.017  1.00  0.00    +0.000 C 
ATOM     40  F4  UNL A   1      -1.110  18.286  -2.154  1.00  0.00    +0.000 F 
ATOM     41  C30 UNL A   1      -0.332  16.958  -3.952  1.00  0.00    +0.000 C 
ATOM     42  F5  UNL A   1      -1.505  16.307  -3.958  1.00  0.00    +0.000 F 
ATOM     32  C25 UNL A   1       0.669  16.620  -4.874  1.00  0.00    +0.000 C 
ENDBRANCH   31   32
BRANCH   48   49
ATOM     49  C36 UNL A   1      -3.493  15.409 -10.643  1.00  0.00    +0.000 C 
ATOM     50  C37 UNL A   1      -4.849  15.070 -10.535  1.00  0.00    +0.000 C 
ATOM     51  F6  UNL A   1      -5.229  14.047  -9.754  1.00  0.00    +0.000 F 
ATOM     52  C38 UNL A   1      -5.819  15.760 -11.258  1.00  0.00    +0.000 C 
ATOM     53  F7  UNL A   1      -7.105  15.393 -11.171  1.00  0.00    +0.000 F 
ATOM     54  C39 UNL A   1      -5.455  16.817 -12.078  1.00  0.00    +0.000 C 
ATOM     55  F8  UNL A   1      -6.390  17.484 -12.768  1.00  0.00    +0.000 F 
ATOM     56  C40 UNL A   1      -4.120  17.178 -12.189  1.00  0.00    +0.000 C 
ATOM     57  F9  UNL A   1      -3.768  18.206 -12.974  1.00  0.00    +0.000 F 
ATOM     58  C41 UNL A   1      -3.145  16.474 -11.488  1.00  0.00    +0.000 C 
ATOM     59  F10 UNL A   1      -1.862  16.839 -11.623  1.00  0.00    +0.000 F 
ENDBRANCH   48   49
BRANCH   63   64
ATOM     65  C46 UNL A   1      -0.352   9.049 -12.512  1.00  0.00    +0.000 C 
ATOM     66  F11 UNL A   1       0.225  10.149 -13.016  1.00  0.00    +0.000 F 
ATOM     67  C47 UNL A   1      -0.567   7.955 -13.347  1.00  0.00    +0.000 C 
ATOM     68  F12 UNL A   1      -0.201   8.016 -14.635  1.00  0.00    +0.000 F 
ATOM     69  C48 UNL A   1      -1.165   6.806 -12.851  1.00  0.00    +0.000 C 
ATOM     70  F13 UNL A   1      -1.360   5.750 -13.652  1.00  0.00    +0.000 F 
ATOM     71  C49 UNL A   1      -1.563   6.755 -11.523  1.00  0.00    +0.000 C 
ATOM     72  F14 UNL A   1      -2.128   5.642 -11.036  1.00  0.00    +0.000 F 
ATOM     73  C50 UNL A   1      -1.371   7.857 -10.693  1.00  0.00    +0.000 C 
ATOM     74  F15 UNL A   1      -1.766   7.781  -9.414  1.00  0.00    +0.000 F 
ATOM     64  C45 UNL A   1      -0.753   9.022 -11.169  1.00  0.00    +0.000 C 
ENDBRANCH   63   64
TORSDOF 19