ROOT
ATOM    129  H34 UNL A   1      -4.045 -10.939   5.327  1.00  0.00    +0.000 H 
ATOM    130  H35 UNL A   1      -7.646 -11.219   7.385  1.00  0.00    +0.000 H 
ATOM    131  H36 UNL A   1      -6.449 -11.289  12.267  1.00  0.00    +0.000 H 
ATOM    132  H37 UNL A   1      -8.951 -11.545  12.744  1.00  0.00    +0.000 H 
ATOM    133  H38 UNL A   1     -10.989 -10.788   2.936  1.00  0.00    +0.000 H 
ATOM    134  H39 UNL A   1      -8.493 -10.993   2.405  1.00  0.00    +0.000 H 
ATOM     37  C28 UNL A   1      -6.828 -11.017   4.718  1.00  0.00    +0.000 C 
ATOM     38  C29 UNL A   1      -8.331 -11.031   4.667  1.00  0.00    +0.000 C 
ATOM     39  N5  UNL A   1      -9.193 -11.060   5.652  1.00  0.00    +0.000 N 
ATOM     40  C30 UNL A   1     -10.447 -11.011   5.058  1.00  0.00    +0.000 C 
ATOM     41  C31 UNL A   1     -11.665 -11.069   5.649  1.00  0.00    +0.000 C 
ATOM     53  C38 UNL A   1     -11.872 -11.205   7.067  1.00  0.00    +0.000 C 
ATOM     54  C39 UNL A   1     -13.065 -11.336   7.757  1.00  0.00    +0.000 C 
ATOM     55  C40 UNL A   1     -12.775 -11.402   9.124  1.00  0.00    +0.000 C 
ATOM     56  C41 UNL A   1     -11.399 -11.355   9.283  1.00  0.00    +0.000 C 
ATOM     57  N6  UNL A   1     -10.858 -11.229   8.013  1.00  0.00    +0.000 N 
ATOM     58  C42 UNL A   1     -10.634 -11.420  10.501  1.00  0.00    +0.000 C 
ATOM     70  C49 UNL A   1      -9.281 -11.374  10.574  1.00  0.00    +0.000 C 
ATOM     71  N7  UNL A   1      -8.355 -11.268   9.546  1.00  0.00    +0.000 N 
ATOM     72  C50 UNL A   1      -7.178 -11.252  10.121  1.00  0.00    +0.000 C 
ATOM     73  C51 UNL A   1      -5.814 -11.178   9.490  1.00  0.00    +0.000 C 
ATOM     85  C58 UNL A   1      -5.710 -11.146   8.148  1.00  0.00    +0.000 C 
ATOM     86  C59 UNL A   1      -4.460 -11.081   7.397  1.00  0.00    +0.000 C 
ATOM     87  C60 UNL A   1      -4.741 -11.014   6.085  1.00  0.00    +0.000 C 
ATOM     88  C61 UNL A   1      -6.192 -11.066   5.903  1.00  0.00    +0.000 C 
ATOM     89  N8  UNL A   1      -6.685 -11.155   7.181  1.00  0.00    +0.000 N 
ATOM     90  C62 UNL A   1      -7.226 -11.320  11.588  1.00  0.00    +0.000 C 
ATOM     91  C63 UNL A   1      -8.528 -11.432  11.810  1.00  0.00    +0.000 C 
ATOM     92  C64 UNL A   1     -10.235 -10.905   3.631  1.00  0.00    +0.000 C 
ATOM     93  C65 UNL A   1      -8.946 -10.978   3.332  1.00  0.00    +0.000 C 
ATOM    125  H30 UNL A   1     -14.006 -11.378   7.336  1.00  0.00    +0.000 H 
ATOM    126  H31 UNL A   1     -13.468 -11.474   9.886  1.00  0.00    +0.000 H 
ATOM    127  H32 UNL A   1      -9.896 -11.166   7.813  1.00  0.00    +0.000 H 
ATOM    128  H33 UNL A   1      -3.514 -11.085   7.807  1.00  0.00    +0.000 H 
ENDROOT
BRANCH   37   36
ATOM     33  C24 UNL A   1      -4.524 -10.554   1.131  1.00  0.00    +0.000 C 
ATOM     34  C25 UNL A   1      -4.452 -11.752   1.849  1.00  0.00    +0.000 C 
ATOM     35  C26 UNL A   1      -5.220 -11.919   3.005  1.00  0.00    +0.000 C 
ATOM     36  C27 UNL A   1      -6.040 -10.877   3.467  1.00  0.00    +0.000 C 
ATOM    135  H40 UNL A   1      -6.713  -8.913   3.064  1.00  0.00    +0.000 H 
ATOM    136  H41 UNL A   1      -5.516  -8.697   0.967  1.00  0.00    +0.000 H 
ATOM    123  H28 UNL A   1      -3.833 -12.512   1.526  1.00  0.00    +0.000 H 
ATOM    124  H29 UNL A   1      -5.183 -12.811   3.521  1.00  0.00    +0.000 H 
ATOM     94  C66 UNL A   1      -6.119  -9.688   2.728  1.00  0.00    +0.000 C 
ATOM     95  C67 UNL A   1      -5.401  -9.546   1.542  1.00  0.00    +0.000 C 
BRANCH   33   31
ATOM     31  C23 UNL A   1      -3.705 -10.405  -0.095  1.00  0.00    +0.000 C 
ATOM     32  O3  UNL A   1      -3.557 -11.359  -0.846  1.00  0.00    +0.000 O 
BRANCH   31   30
ATOM    122  H27 UNL A   1      -2.877  -9.068  -1.340  1.00  0.00    +0.000 H 
ATOM     30  N4  UNL A   1      -3.121  -9.197  -0.395  1.00  0.00    +0.000 N 
BRANCH   30   29
ATOM    121  H26 UNL A   1      -3.249  -8.289   1.444  1.00  0.00    +0.000 H 
ATOM     29  C22 UNL A   1      -2.813  -8.084   0.489  1.00  0.00    +0.000 C 
ATOM    120  H25 UNL A   1      -3.213  -7.186   0.067  1.00  0.00    +0.000 H 
BRANCH   29   28
ATOM     28  C21 UNL A   1      -1.308  -7.910   0.684  1.00  0.00    +0.000 C 
ATOM    118  H23 UNL A   1      -1.154  -7.141   1.412  1.00  0.00    +0.000 H 
ATOM    119  H24 UNL A   1      -0.933  -8.865   0.988  1.00  0.00    +0.000 H 
BRANCH   28   27
ATOM     27  C20 UNL A   1      -0.530  -7.529  -0.583  1.00  0.00    +0.000 C 
ATOM    116  H21 UNL A   1       0.499  -7.414  -0.315  1.00  0.00    +0.000 H 
ATOM    117  H22 UNL A   1      -0.709  -8.316  -1.285  1.00  0.00    +0.000 H 
BRANCH   27   26
ATOM     26  C19 UNL A   1      -0.984  -6.238  -1.275  1.00  0.00    +0.000 C 
ATOM    115  H20 UNL A   1      -2.002  -6.390  -1.567  1.00  0.00    +0.000 H 
ATOM    114  H19 UNL A   1      -0.335  -6.058  -2.107  1.00  0.00    +0.000 H 
BRANCH   26   25
ATOM     25  C18 UNL A   1      -0.966  -4.999  -0.376  1.00  0.00    +0.000 C 
ATOM    113  H18 UNL A   1      -1.428  -5.282   0.547  1.00  0.00    +0.000 H 
ATOM    112  H17 UNL A   1      -1.490  -4.213  -0.878  1.00  0.00    +0.000 H 
BRANCH   25   24
ATOM    110  H15 UNL A   1       0.448  -4.113   0.972  1.00  0.00    +0.000 H 
ATOM    111  H16 UNL A   1       1.138  -5.304  -0.112  1.00  0.00    +0.000 H 
ATOM     24  C17 UNL A   1       0.445  -4.493  -0.029  1.00  0.00    +0.000 C 
BRANCH   24   23
ATOM    109  H14 UNL A   1       1.448  -3.697  -1.670  1.00  0.00    +0.000 H 
ATOM     23  N3  UNL A   1       0.836  -3.439  -0.943  1.00  0.00    +0.000 N 
BRANCH   23   21
ATOM     21  C16 UNL A   1       0.448  -2.117  -0.911  1.00  0.00    +0.000 C 
ATOM     22  O2  UNL A   1       0.367  -1.495  -1.969  1.00  0.00    +0.000 O 
BRANCH   21    2
ATOM      2  C2  UNL A   1       0.310  -1.318   0.375  1.00  0.00    +0.000 C 
BRANCH    2    1
ATOM      1  C1  UNL A   1       1.186  -0.089   0.421  1.00  0.00    +0.000 C 
ATOM     98  H3  UNL A   1       2.212  -0.380   0.335  1.00  0.00    +0.000 H 
ATOM     97  H2  UNL A   1       0.930   0.562  -0.389  1.00  0.00    +0.000 H 
ATOM     96  H1  UNL A   1       1.037   0.421   1.350  1.00  0.00    +0.000 H 
ENDBRANCH    2    1
BRANCH    2    3
ATOM      3  N1  UNL A   1      -0.496  -1.514   1.379  1.00  0.00    +0.000 N 
BRANCH    3    4
ATOM      4  O1  UNL A   1      -1.276  -2.658   1.254  1.00  0.00    +0.000 O 
BRANCH    4    5
ATOM     99  H4  UNL A   1      -2.165  -4.059   2.435  1.00  0.00    +0.000 H 
ATOM    100  H5  UNL A   1      -2.649  -2.343   2.682  1.00  0.00    +0.000 H 
ATOM      5  C3  UNL A   1      -1.854  -3.038   2.514  1.00  0.00    +0.000 C 
BRANCH    5    6
ATOM    101  H6  UNL A   1      -0.097  -4.848   3.530  1.00  0.00    +0.000 H 
ATOM      6  C4  UNL A   1      -0.954  -2.923   3.734  1.00  0.00    +0.000 C 
ATOM      7  C5  UNL A   1      -0.150  -4.007   4.125  1.00  0.00    +0.000 C 
ATOM      8  C6  UNL A   1       0.577  -3.953   5.315  1.00  0.00    +0.000 C 
ATOM    102  H7  UNL A   1       1.184  -4.742   5.586  1.00  0.00    +0.000 H 
ATOM     10  C8  UNL A   1      -0.297  -1.741   5.743  1.00  0.00    +0.000 C 
ATOM     11  C9  UNL A   1      -0.960  -1.741   4.511  1.00  0.00    +0.000 C 
ATOM    104  H9  UNL A   1      -0.385  -0.926   6.370  1.00  0.00    +0.000 H 
ATOM      9  C7  UNL A   1       0.482  -2.832   6.135  1.00  0.00    +0.000 C 
ATOM    103  H8  UNL A   1       0.988  -2.808   7.034  1.00  0.00    +0.000 H 
BRANCH   11   12
ATOM    105  H10 UNL A   1      -2.200  -0.783   3.198  1.00  0.00    +0.000 H 
ATOM     12  N2  UNL A   1      -1.724  -0.640   4.048  1.00  0.00    +0.000 N 
BRANCH   12   13
ATOM    106  H11 UNL A   1      -4.416   2.628   5.695  1.00  0.00    +0.000 H 
ATOM    107  H12 UNL A   1      -2.574   4.170   6.037  1.00  0.00    +0.000 H 
ATOM    108  H13 UNL A   1      -0.320   3.506   5.439  1.00  0.00    +0.000 H 
ATOM     13  C10 UNL A   1      -1.899   0.636   4.637  1.00  0.00    +0.000 C 
ATOM     14  C11 UNL A   1      -3.207   1.064   4.951  1.00  0.00    +0.000 C 
ATOM     15 Cl1  UNL A   1      -4.574   0.026   4.708  1.00  0.00    +0.000 Cl
ATOM     16  C12 UNL A   1      -3.452   2.343   5.459  1.00  0.00    +0.000 C 
ATOM     17  C13 UNL A   1      -2.398   3.231   5.647  1.00  0.00    +0.000 C 
ATOM     18  C14 UNL A   1      -1.103   2.845   5.308  1.00  0.00    +0.000 C 
ATOM     19  C15 UNL A   1      -0.855   1.568   4.789  1.00  0.00    +0.000 C 
ATOM     20 Cl2  UNL A   1       0.769   1.221   4.304  1.00  0.00    +0.000 Cl
ENDBRANCH   12   13
ENDBRANCH   11   12
ENDBRANCH    5    6
ENDBRANCH    4    5
ENDBRANCH    3    4
ENDBRANCH    2    3
ENDBRANCH   21    2
ENDBRANCH   23   21
ENDBRANCH   24   23
ENDBRANCH   25   24
ENDBRANCH   26   25
ENDBRANCH   27   26
ENDBRANCH   28   27
ENDBRANCH   29   28
ENDBRANCH   30   29
ENDBRANCH   31   30
ENDBRANCH   33   31
ENDBRANCH   37   36
BRANCH   41   42
ATOM     42  C32 UNL A   1     -12.872 -10.989   4.760  1.00  0.00    +0.000 C 
ATOM     43  C33 UNL A   1     -13.228 -12.047   3.910  1.00  0.00    +0.000 C 
ATOM     44  F1  UNL A   1     -12.461 -13.146   3.842  1.00  0.00    +0.000 F 
ATOM     45  C34 UNL A   1     -14.355 -11.964   3.096  1.00  0.00    +0.000 C 
ATOM     46  F2  UNL A   1     -14.649 -12.967   2.258  1.00  0.00    +0.000 F 
ATOM     47  C35 UNL A   1     -15.165 -10.839   3.142  1.00  0.00    +0.000 C 
ATOM     48  F3  UNL A   1     -16.253 -10.764   2.362  1.00  0.00    +0.000 F 
ATOM     49  C36 UNL A   1     -14.844  -9.791   3.990  1.00  0.00    +0.000 C 
ATOM     50  F4  UNL A   1     -15.633  -8.709   4.044  1.00  0.00    +0.000 F 
ATOM     51  C37 UNL A   1     -13.702  -9.859   4.785  1.00  0.00    +0.000 C 
ATOM     52  F5  UNL A   1     -13.411  -8.822   5.585  1.00  0.00    +0.000 F 
ENDBRANCH   41   42
BRANCH   58   59
ATOM     65  F8  UNL A   1     -13.544 -12.005  15.306  1.00  0.00    +0.000 F 
ATOM     66  C47 UNL A   1     -12.761 -12.920  13.274  1.00  0.00    +0.000 C 
ATOM     67  F9  UNL A   1     -13.381 -14.078  13.541  1.00  0.00    +0.000 F 
ATOM     68  C48 UNL A   1     -12.025 -12.780  12.101  1.00  0.00    +0.000 C 
ATOM     69  F10 UNL A   1     -11.945 -13.823  11.261  1.00  0.00    +0.000 F 
ATOM     59  C43 UNL A   1     -11.385 -11.571  11.791  1.00  0.00    +0.000 C 
ATOM     60  C44 UNL A   1     -11.504 -10.510  12.700  1.00  0.00    +0.000 C 
ATOM     61  F6  UNL A   1     -10.896  -9.339  12.455  1.00  0.00    +0.000 F 
ATOM     62  C45 UNL A   1     -12.219 -10.662  13.885  1.00  0.00    +0.000 C 
ATOM     63  F7  UNL A   1     -12.283  -9.649  14.761  1.00  0.00    +0.000 F 
ATOM     64  C46 UNL A   1     -12.852 -11.863  14.168  1.00  0.00    +0.000 C 
ENDBRANCH   58   59
BRANCH   73   74
ATOM     74  C52 UNL A   1      -4.588 -11.175  10.327  1.00  0.00    +0.000 C 
ATOM     75  C53 UNL A   1      -4.189 -12.326  11.020  1.00  0.00    +0.000 C 
ATOM     76  F11 UNL A   1      -4.933 -13.440  10.949  1.00  0.00    +0.000 F 
ATOM     77  C54 UNL A   1      -3.047 -12.328  11.817  1.00  0.00    +0.000 C 
ATOM     78  F12 UNL A   1      -2.712 -13.430  12.501  1.00  0.00    +0.000 F 
ATOM     79  C55 UNL A   1      -2.267 -11.186  11.916  1.00  0.00    +0.000 C 
ATOM     80  F13 UNL A   1      -1.166 -11.189  12.679  1.00  0.00    +0.000 F 
ATOM     81  C56 UNL A   1      -2.632 -10.039  11.227  1.00  0.00    +0.000 C 
ATOM     82  F14 UNL A   1      -1.873  -8.938  11.309  1.00  0.00    +0.000 F 
ATOM     83  C57 UNL A   1      -3.788 -10.029  10.449  1.00  0.00    +0.000 C 
ATOM     84  F15 UNL A   1      -4.124  -8.904   9.801  1.00  0.00    +0.000 F 
ENDBRANCH   73   74
TORSDOF 22