ROOT
ATOM     19  C15 UNL A   1      13.504  -1.333   0.909  1.00  0.00    +0.000 C 
ATOM     20  C16 UNL A   1      14.110  -2.610   0.400  1.00  0.00    +0.000 C 
ATOM     21  N3  UNL A   1      14.888  -3.461   1.022  1.00  0.00    +0.000 N 
ATOM     22  C17 UNL A   1      15.145  -4.476   0.110  1.00  0.00    +0.000 C 
ATOM     23  C18 UNL A   1      15.953  -5.554   0.251  1.00  0.00    +0.000 C 
ATOM     35  C25 UNL A   1      16.708  -5.856   1.439  1.00  0.00    +0.000 C 
ATOM     36  C26 UNL A   1      17.578  -6.908   1.667  1.00  0.00    +0.000 C 
ATOM     37  C27 UNL A   1      18.059  -6.803   2.977  1.00  0.00    +0.000 C 
ATOM     38  C28 UNL A   1      17.518  -5.665   3.552  1.00  0.00    +0.000 C 
ATOM     39  N4  UNL A   1      16.683  -5.099   2.601  1.00  0.00    +0.000 N 
ATOM     40  C29 UNL A   1      17.746  -5.129   4.868  1.00  0.00    +0.000 C 
ATOM     52  C36 UNL A   1      17.168  -4.007   5.362  1.00  0.00    +0.000 C 
ATOM     53  N5  UNL A   1      16.260  -3.152   4.754  1.00  0.00    +0.000 N 
ATOM     54  C37 UNL A   1      15.977  -2.234   5.645  1.00  0.00    +0.000 C 
ATOM     55  C38 UNL A   1      15.068  -1.043   5.524  1.00  0.00    +0.000 C 
ATOM     67  C45 UNL A   1      14.449  -0.803   4.353  1.00  0.00    +0.000 C 
ATOM     68  C46 UNL A   1      13.574   0.331   4.074  1.00  0.00    +0.000 C 
ATOM     69  C47 UNL A   1      13.134   0.243   2.808  1.00  0.00    +0.000 C 
ATOM     70  C48 UNL A   1      13.715  -0.945   2.181  1.00  0.00    +0.000 C 
ATOM     71  N6  UNL A   1      14.473  -1.510   3.176  1.00  0.00    +0.000 N 
ATOM     72  C49 UNL A   1      16.666  -2.413   6.930  1.00  0.00    +0.000 C 
ATOM     73  C50 UNL A   1      17.411  -3.482   6.690  1.00  0.00    +0.000 C 
ATOM     74  C51 UNL A   1      14.397  -4.165  -1.090  1.00  0.00    +0.000 C 
ATOM     75  C52 UNL A   1      13.785  -2.995  -0.982  1.00  0.00    +0.000 C 
ATOM    119  H21 UNL A   1      17.829  -7.643   0.988  1.00  0.00    +0.000 H 
ATOM    120  H22 UNL A   1      18.706  -7.462   3.437  1.00  0.00    +0.000 H 
ATOM    121  H23 UNL A   1      16.152  -4.280   2.731  1.00  0.00    +0.000 H 
ATOM    122  H24 UNL A   1      13.332   1.079   4.742  1.00  0.00    +0.000 H 
ATOM    123  H25 UNL A   1      12.489   0.907   2.351  1.00  0.00    +0.000 H 
ATOM    124  H26 UNL A   1      14.985  -2.342   3.056  1.00  0.00    +0.000 H 
ATOM    125  H27 UNL A   1      16.590  -1.853   7.794  1.00  0.00    +0.000 H 
ATOM    126  H28 UNL A   1      18.079  -3.889   7.363  1.00  0.00    +0.000 H 
ATOM    127  H29 UNL A   1      14.347  -4.776  -1.920  1.00  0.00    +0.000 H 
ATOM    128  H30 UNL A   1      13.226  -2.486  -1.685  1.00  0.00    +0.000 H 
ENDROOT
BRANCH   19   18
ATOM    129  H31 UNL A   1      11.064  -1.906  -0.078  1.00  0.00    +0.000 H 
ATOM    130  H32 UNL A   1       9.695  -0.578  -1.576  1.00  0.00    +0.000 H 
ATOM     76  C53 UNL A   1      11.391  -0.977  -0.387  1.00  0.00    +0.000 C 
ATOM     77  C54 UNL A   1      10.585  -0.199  -1.218  1.00  0.00    +0.000 C 
ATOM     15  C11 UNL A   1      10.985   1.096  -1.566  1.00  0.00    +0.000 C 
ATOM     16  C12 UNL A   1      12.239   1.571  -1.170  1.00  0.00    +0.000 C 
ATOM     17  C13 UNL A   1      13.070   0.768  -0.389  1.00  0.00    +0.000 C 
ATOM     18  C14 UNL A   1      12.643  -0.503   0.030  1.00  0.00    +0.000 C 
ATOM    117  H19 UNL A   1      12.549   2.513  -1.454  1.00  0.00    +0.000 H 
ATOM    118  H20 UNL A   1      14.005   1.110  -0.117  1.00  0.00    +0.000 H 
BRANCH   15   13
ATOM     13  C10 UNL A   1      10.125   1.977  -2.390  1.00  0.00    +0.000 C 
ATOM     14  O2  UNL A   1      10.631   2.658  -3.277  1.00  0.00    +0.000 O 
BRANCH   13   12
ATOM    116  H18 UNL A   1       8.256   2.490  -2.868  1.00  0.00    +0.000 H 
ATOM     12  N2  UNL A   1       8.779   2.044  -2.163  1.00  0.00    +0.000 N 
BRANCH   12   11
ATOM    114  H16 UNL A   1       7.361   0.768  -1.369  1.00  0.00    +0.000 H 
ATOM     11  C9  UNL A   1       8.005   1.554  -1.032  1.00  0.00    +0.000 C 
ATOM    115  H17 UNL A   1       8.691   1.202  -0.290  1.00  0.00    +0.000 H 
BRANCH   11   10
ATOM    113  H15 UNL A   1       7.826   3.441  -0.141  1.00  0.00    +0.000 H 
ATOM     10  C8  UNL A   1       7.152   2.651  -0.400  1.00  0.00    +0.000 C 
ATOM    112  H14 UNL A   1       6.646   2.232   0.445  1.00  0.00    +0.000 H 
BRANCH   10    9
ATOM      9  C7  UNL A   1       6.102   3.268  -1.326  1.00  0.00    +0.000 C 
ATOM    110  H12 UNL A   1       5.533   3.975  -0.759  1.00  0.00    +0.000 H 
ATOM    111  H13 UNL A   1       6.642   3.710  -2.138  1.00  0.00    +0.000 H 
BRANCH    9    8
ATOM    108  H10 UNL A   1       4.397   2.821  -2.507  1.00  0.00    +0.000 H 
ATOM    109  H11 UNL A   1       5.720   1.618  -2.564  1.00  0.00    +0.000 H 
ATOM      8  C6  UNL A   1       5.128   2.269  -1.954  1.00  0.00    +0.000 C 
BRANCH    8    7
ATOM    106  H8  UNL A   1       3.730   0.730  -1.507  1.00  0.00    +0.000 H 
ATOM    107  H9  UNL A   1       5.141   0.828  -0.420  1.00  0.00    +0.000 H 
ATOM      7  C5  UNL A   1       4.390   1.368  -0.957  1.00  0.00    +0.000 C 
BRANCH    7    6
ATOM    105  H7  UNL A   1       4.198   2.829   0.586  1.00  0.00    +0.000 H 
ATOM      6  C4  UNL A   1       3.563   2.125   0.090  1.00  0.00    +0.000 C 
ATOM    104  H6  UNL A   1       3.162   1.425   0.793  1.00  0.00    +0.000 H 
BRANCH    6    5
ATOM      5  N1  UNL A   1       2.473   2.844  -0.539  1.00  0.00    +0.000 N 
ATOM    103  H5  UNL A   1       2.655   3.775  -0.804  1.00  0.00    +0.000 H 
BRANCH    5    3
ATOM      3  C3  UNL A   1       1.218   2.365  -0.803  1.00  0.00    +0.000 C 
ATOM      4  O1  UNL A   1       0.653   2.801  -1.807  1.00  0.00    +0.000 O 
BRANCH    3    2
ATOM      2  C2  UNL A   1       0.585   1.350   0.166  1.00  0.00    +0.000 C 
ATOM    102  H4  UNL A   1       0.938   1.563   1.153  1.00  0.00    +0.000 H 
BRANCH    2    1
ATOM      1  C1  UNL A   1       1.027  -0.061  -0.257  1.00  0.00    +0.000 C 
ATOM     99  H1  UNL A   1       2.094  -0.093  -0.330  1.00  0.00    +0.000 H 
ATOM    100  H2  UNL A   1       0.597  -0.299  -1.208  1.00  0.00    +0.000 H 
ATOM    101  H3  UNL A   1       0.697  -0.772   0.471  1.00  0.00    +0.000 H 
ENDBRANCH    2    1
BRANCH    2   78
ATOM    131  H33 UNL A   1      -1.046   3.540  -0.091  1.00  0.00    +0.000 H 
ATOM    132  H34 UNL A   1      -3.467   3.672  -0.120  1.00  0.00    +0.000 H 
ATOM    133  H35 UNL A   1      -6.163   3.111  -0.313  1.00  0.00    +0.000 H 
ATOM    134  H36 UNL A   1      -8.706  -0.047   0.766  1.00  0.00    +0.000 H 
ATOM    135  H37 UNL A   1      -6.791  -1.422   1.377  1.00  0.00    +0.000 H 
ATOM    138  H40 UNL A   1      -1.248  -0.522   0.936  1.00  0.00    +0.000 H 
ATOM     78  C55 UNL A   1      -0.943   1.473   0.292  1.00  0.00    +0.000 C 
ATOM     79  C56 UNL A   1      -1.603   2.687   0.076  1.00  0.00    +0.000 C 
ATOM     80  C57 UNL A   1      -3.002   2.773   0.081  1.00  0.00    +0.000 C 
ATOM     81  C58 UNL A   1      -3.772   1.626   0.359  1.00  0.00    +0.000 C 
ATOM     82  C59 UNL A   1      -5.167   1.354   0.356  1.00  0.00    +0.000 C 
ATOM     83  C60 UNL A   1      -6.289   2.144   0.027  1.00  0.00    +0.000 C 
ATOM     84  C61 UNL A   1      -7.567   1.612   0.165  1.00  0.00    +0.000 C 
ATOM     85 Cl1  UNL A   1      -8.935   2.571  -0.252  1.00  0.00    +0.000 Cl
ATOM     86  C62 UNL A   1      -7.750   0.325   0.651  1.00  0.00    +0.000 C 
ATOM     87  C63 UNL A   1      -6.651  -0.476   0.990  1.00  0.00    +0.000 C 
ATOM     88  C64 UNL A   1      -5.350   0.033   0.791  1.00  0.00    +0.000 C 
ATOM     89  N7  UNL A   1      -4.084  -0.515   1.018  1.00  0.00    +0.000 N 
ATOM     97  C69 UNL A   1      -3.119   0.453   0.713  1.00  0.00    +0.000 C 
ATOM     98  C70 UNL A   1      -1.713   0.363   0.678  1.00  0.00    +0.000 C 
BRANCH   89   90
ATOM     90  C65 UNL A   1      -3.765  -1.815   1.492  1.00  0.00    +0.000 C 
ATOM     91  O3  UNL A   1      -2.758  -1.891   2.209  1.00  0.00    +0.000 O 
BRANCH   90   92
ATOM    136  H38 UNL A   1      -5.554  -2.593  -0.672  1.00  0.00    +0.000 H 
ATOM    137  H39 UNL A   1      -5.154  -6.069   1.489  1.00  0.00    +0.000 H 
ATOM     92  C66 UNL A   1      -4.493  -3.030   1.152  1.00  0.00    +0.000 C 
ATOM     93  C67 UNL A   1      -5.292  -3.279   0.053  1.00  0.00    +0.000 C 
ATOM     94  O4  UNL A   1      -5.676  -4.589   0.089  1.00  0.00    +0.000 O 
ATOM     95  C68 UNL A   1      -5.067  -5.082   1.199  1.00  0.00    +0.000 C 
ATOM     96  N8  UNL A   1      -4.360  -4.209   1.872  1.00  0.00    +0.000 N 
ENDBRANCH   90   92
ENDBRANCH   89   90
ENDBRANCH    2   78
ENDBRANCH    3    2
ENDBRANCH    5    3
ENDBRANCH    6    5
ENDBRANCH    7    6
ENDBRANCH    8    7
ENDBRANCH    9    8
ENDBRANCH   10    9
ENDBRANCH   11   10
ENDBRANCH   12   11
ENDBRANCH   13   12
ENDBRANCH   15   13
ENDBRANCH   19   18
BRANCH   23   24
ATOM     33  C24 UNL A   1      15.528  -7.773  -0.876  1.00  0.00    +0.000 C 
ATOM     34  F5  UNL A   1      14.844  -8.180   0.203  1.00  0.00    +0.000 F 
ATOM     24  C19 UNL A   1      16.078  -6.483  -0.921  1.00  0.00    +0.000 C 
ATOM     25  C20 UNL A   1      16.788  -6.111  -2.072  1.00  0.00    +0.000 C 
ATOM     26  F1  UNL A   1      17.323  -4.884  -2.168  1.00  0.00    +0.000 F 
ATOM     27  C21 UNL A   1      16.926  -6.988  -3.144  1.00  0.00    +0.000 C 
ATOM     28  F2  UNL A   1      17.577  -6.597  -4.249  1.00  0.00    +0.000 F 
ATOM     29  C22 UNL A   1      16.384  -8.262  -3.075  1.00  0.00    +0.000 C 
ATOM     30  F3  UNL A   1      16.526  -9.110  -4.104  1.00  0.00    +0.000 F 
ATOM     31  C23 UNL A   1      15.690  -8.657  -1.940  1.00  0.00    +0.000 C 
ATOM     32  F4  UNL A   1      15.175  -9.892  -1.868  1.00  0.00    +0.000 F 
ENDBRANCH   23   24
BRANCH   40   41
ATOM     41  C30 UNL A   1      18.707  -5.851   5.766  1.00  0.00    +0.000 C 
ATOM     42  C31 UNL A   1      18.261  -6.586   6.874  1.00  0.00    +0.000 C 
ATOM     43  F6  UNL A   1      16.954  -6.629   7.174  1.00  0.00    +0.000 F 
ATOM     44  C32 UNL A   1      19.163  -7.241   7.707  1.00  0.00    +0.000 C 
ATOM     45  F7  UNL A   1      18.720  -7.894   8.790  1.00  0.00    +0.000 F 
ATOM     46  C33 UNL A   1      20.521  -7.202   7.429  1.00  0.00    +0.000 C 
ATOM     47  F8  UNL A   1      21.389  -7.832   8.233  1.00  0.00    +0.000 F 
ATOM     48  C34 UNL A   1      20.982  -6.501   6.324  1.00  0.00    +0.000 C 
ATOM     49  F9  UNL A   1      22.293  -6.471   6.050  1.00  0.00    +0.000 F 
ATOM     50  C35 UNL A   1      20.084  -5.823   5.504  1.00  0.00    +0.000 C 
ATOM     51  F10 UNL A   1      20.560  -5.139   4.453  1.00  0.00    +0.000 F 
ENDBRANCH   40   41
BRANCH   55   56
ATOM     65  C44 UNL A   1      13.648  -0.064   7.355  1.00  0.00    +0.000 C 
ATOM     66  F15 UNL A   1      12.627  -0.844   6.972  1.00  0.00    +0.000 F 
ATOM     56  C39 UNL A   1      14.869  -0.118   6.669  1.00  0.00    +0.000 C 
ATOM     57  C40 UNL A   1      15.902   0.723   7.105  1.00  0.00    +0.000 C 
ATOM     58  F11 UNL A   1      17.095   0.692   6.492  1.00  0.00    +0.000 F 
ATOM     59  C41 UNL A   1      15.729   1.567   8.200  1.00  0.00    +0.000 C 
ATOM     60  F12 UNL A   1      16.747   2.326   8.626  1.00  0.00    +0.000 F 
ATOM     61  C42 UNL A   1      14.510   1.608   8.861  1.00  0.00    +0.000 C 
ATOM     62  F13 UNL A   1      14.343   2.419   9.913  1.00  0.00    +0.000 F 
ATOM     63  C43 UNL A   1      13.467   0.800   8.433  1.00  0.00    +0.000 C 
ATOM     64  F14 UNL A   1      12.283   0.846   9.060  1.00  0.00    +0.000 F 
ENDBRANCH   55   56
TORSDOF 19