ROOT
ATOM     19  C15 UNL A   1      12.933  -1.524  -1.490  1.00  0.00    +0.000 C 
ATOM     20  C16 UNL A   1      13.669  -1.055  -2.712  1.00  0.00    +0.000 C 
ATOM     21  N3  UNL A   1      14.180  -1.760  -3.689  1.00  0.00    +0.000 N 
ATOM     22  C17 UNL A   1      14.703  -0.839  -4.586  1.00  0.00    +0.000 C 
ATOM     23  C18 UNL A   1      15.367  -1.077  -5.742  1.00  0.00    +0.000 C 
ATOM     35  C25 UNL A   1      15.687  -2.388  -6.242  1.00  0.00    +0.000 C 
ATOM     36  C26 UNL A   1      16.467  -2.726  -7.334  1.00  0.00    +0.000 C 
ATOM     37  C27 UNL A   1      16.447  -4.118  -7.470  1.00  0.00    +0.000 C 
ATOM     38  C28 UNL A   1      15.686  -4.647  -6.441  1.00  0.00    +0.000 C 
ATOM     39  N4  UNL A   1      15.236  -3.575  -5.687  1.00  0.00    +0.000 N 
ATOM     40  C29 UNL A   1      15.377  -6.026  -6.170  1.00  0.00    +0.000 C 
ATOM     52  C36 UNL A   1      14.695  -6.470  -5.087  1.00  0.00    +0.000 C 
ATOM     53  N5  UNL A   1      14.149  -5.738  -4.043  1.00  0.00    +0.000 N 
ATOM     54  C37 UNL A   1      13.576  -6.612  -3.252  1.00  0.00    +0.000 C 
ATOM     55  C38 UNL A   1      12.836  -6.382  -1.964  1.00  0.00    +0.000 C 
ATOM     67  C45 UNL A   1      12.726  -5.130  -1.480  1.00  0.00    +0.000 C 
ATOM     68  C46 UNL A   1      12.021  -4.758  -0.258  1.00  0.00    +0.000 C 
ATOM     69  C47 UNL A   1      12.024  -3.420  -0.142  1.00  0.00    +0.000 C 
ATOM     70  C48 UNL A   1      12.767  -2.842  -1.264  1.00  0.00    +0.000 C 
ATOM     71  N6  UNL A   1      13.186  -3.936  -1.982  1.00  0.00    +0.000 N 
ATOM     72  C49 UNL A   1      13.683  -8.003  -3.719  1.00  0.00    +0.000 C 
ATOM     73  C50 UNL A   1      14.402  -7.862  -4.824  1.00  0.00    +0.000 C 
ATOM     74  C51 UNL A   1      14.424   0.477  -4.054  1.00  0.00    +0.000 C 
ATOM     75  C52 UNL A   1      13.831   0.399  -2.870  1.00  0.00    +0.000 C 
ATOM    111  H21 UNL A   1      16.975  -2.066  -7.942  1.00  0.00    +0.000 H 
ATOM    112  H22 UNL A   1      16.919  -4.658  -8.212  1.00  0.00    +0.000 H 
ATOM    113  H23 UNL A   1      14.679  -3.647  -4.878  1.00  0.00    +0.000 H 
ATOM    114  H24 UNL A   1      11.589  -5.416   0.409  1.00  0.00    +0.000 H 
ATOM    115  H25 UNL A   1      11.575  -2.884   0.617  1.00  0.00    +0.000 H 
ATOM    116  H26 UNL A   1      13.760  -3.871  -2.779  1.00  0.00    +0.000 H 
ATOM    117  H27 UNL A   1      13.299  -8.862  -3.297  1.00  0.00    +0.000 H 
ATOM    118  H28 UNL A   1      14.712  -8.646  -5.420  1.00  0.00    +0.000 H 
ATOM    119  H29 UNL A   1      14.655   1.361  -4.534  1.00  0.00    +0.000 H 
ATOM    120  H30 UNL A   1      13.556   1.158  -2.228  1.00  0.00    +0.000 H 
ENDROOT
BRANCH   19   18
ATOM     76  C53 UNL A   1      11.193   0.205  -1.041  1.00  0.00    +0.000 C 
ATOM    109  H19 UNL A   1      12.302   0.521   2.610  1.00  0.00    +0.000 H 
ATOM     77  C54 UNL A   1      10.516   1.065  -0.180  1.00  0.00    +0.000 C 
ATOM     15  C11 UNL A   1      10.876   1.121   1.169  1.00  0.00    +0.000 C 
ATOM     16  C12 UNL A   1      12.000   0.427   1.627  1.00  0.00    +0.000 C 
ATOM     17  C13 UNL A   1      12.713  -0.392   0.749  1.00  0.00    +0.000 C 
ATOM    110  H20 UNL A   1      13.556  -0.888   1.079  1.00  0.00    +0.000 H 
ATOM     18  C14 UNL A   1      12.286  -0.545  -0.580  1.00  0.00    +0.000 C 
ATOM    121  H31 UNL A   1      10.890   0.119  -2.024  1.00  0.00    +0.000 H 
ATOM    122  H32 UNL A   1       9.751   1.659  -0.537  1.00  0.00    +0.000 H 
BRANCH   15   13
ATOM     13  C10 UNL A   1      10.072   1.897   2.137  1.00  0.00    +0.000 C 
ATOM     14  O2  UNL A   1      10.632   2.635   2.942  1.00  0.00    +0.000 O 
BRANCH   13   12
ATOM    108  H18 UNL A   1       8.220   2.429   2.689  1.00  0.00    +0.000 H 
ATOM     12  N2  UNL A   1       8.705   1.767   2.146  1.00  0.00    +0.000 N 
BRANCH   12   11
ATOM    106  H16 UNL A   1       7.238   1.299   0.770  1.00  0.00    +0.000 H 
ATOM     11  C9  UNL A   1       7.872   0.787   1.464  1.00  0.00    +0.000 C 
ATOM    107  H17 UNL A   1       8.521   0.097   0.967  1.00  0.00    +0.000 H 
BRANCH   11   10
ATOM    105  H15 UNL A   1       7.657  -0.388   3.185  1.00  0.00    +0.000 H 
ATOM     10  C8  UNL A   1       7.000  -0.008   2.431  1.00  0.00    +0.000 C 
ATOM    104  H14 UNL A   1       6.503  -0.776   1.876  1.00  0.00    +0.000 H 
BRANCH   10    9
ATOM      9  C7  UNL A   1       5.936   0.814   3.163  1.00  0.00    +0.000 C 
ATOM    102  H12 UNL A   1       5.370   0.148   3.780  1.00  0.00    +0.000 H 
ATOM    103  H13 UNL A   1       6.466   1.562   3.715  1.00  0.00    +0.000 H 
BRANCH    9    8
ATOM    100  H10 UNL A   1       4.221   2.030   2.879  1.00  0.00    +0.000 H 
ATOM    101  H11 UNL A   1       5.549   2.264   1.699  1.00  0.00    +0.000 H 
ATOM      8  C6  UNL A   1       4.958   1.567   2.256  1.00  0.00    +0.000 C 
BRANCH    8    7
ATOM     98  H8  UNL A   1       3.563   1.339   0.666  1.00  0.00    +0.000 H 
ATOM     99  H9  UNL A   1       4.982   0.260   0.605  1.00  0.00    +0.000 H 
ATOM      7  C5  UNL A   1       4.226   0.706   1.217  1.00  0.00    +0.000 C 
BRANCH    7    6
ATOM     97  H7  UNL A   1       4.056  -1.053   2.406  1.00  0.00    +0.000 H 
ATOM      6  C4  UNL A   1       3.409  -0.444   1.810  1.00  0.00    +0.000 C 
ATOM     96  H6  UNL A   1       2.985  -1.020   1.014  1.00  0.00    +0.000 H 
BRANCH    6    5
ATOM      5  N1  UNL A   1       2.343   0.061   2.650  1.00  0.00    +0.000 N 
ATOM     95  H5  UNL A   1       2.605   0.283   3.572  1.00  0.00    +0.000 H 
BRANCH    5    3
ATOM      3  C3  UNL A   1       1.029   0.273   2.350  1.00  0.00    +0.000 C 
ATOM      4  O1  UNL A   1       0.396   0.999   3.120  1.00  0.00    +0.000 O 
BRANCH    3    2
ATOM      2  C2  UNL A   1       0.407  -0.397   1.117  1.00  0.00    +0.000 C 
ATOM     94  H4  UNL A   1       0.833  -1.377   1.065  1.00  0.00    +0.000 H 
BRANCH    2    1
ATOM      1  C1  UNL A   1       0.760   0.332  -0.182  1.00  0.00    +0.000 C 
ATOM     91  H1  UNL A   1       1.823   0.424  -0.261  1.00  0.00    +0.000 H 
ATOM     92  H2  UNL A   1       0.317   1.306  -0.176  1.00  0.00    +0.000 H 
ATOM     93  H3  UNL A   1       0.386  -0.225  -1.016  1.00  0.00    +0.000 H 
ENDBRANCH    2    1
BRANCH    2   78
ATOM    134  H44 UNL A   1      -3.452  -2.914   1.665  1.00  0.00    +0.000 H 
ATOM     78  C55 UNL A   1      -1.101  -0.540   1.253  1.00  0.00    +0.000 C 
ATOM     79  C56 UNL A   1      -1.954   0.572   1.232  1.00  0.00    +0.000 C 
ATOM     80  C57 UNL A   1      -3.336   0.406   1.346  1.00  0.00    +0.000 C 
ATOM     81  C58 UNL A   1      -3.900  -0.866   1.477  1.00  0.00    +0.000 C 
ATOM     88  C64 UNL A   1      -3.057  -1.970   1.536  1.00  0.00    +0.000 C 
ATOM     89  C65 UNL A   1      -1.678  -1.801   1.421  1.00  0.00    +0.000 C 
ATOM     90  F16 UNL A   1      -0.898  -2.892   1.462  1.00  0.00    +0.000 F 
ATOM    123  H33 UNL A   1      -1.558   1.519   1.131  1.00  0.00    +0.000 H 
ATOM    124  H34 UNL A   1      -3.950   1.235   1.334  1.00  0.00    +0.000 H 
BRANCH   81   82
ATOM     82  O3  UNL A   1      -5.259  -0.864   1.552  1.00  0.00    +0.000 O 
BRANCH   82   83
ATOM    129  H39 UNL A   1      -7.543  -4.143   0.172  1.00  0.00    +0.000 H 
ATOM    130  H40 UNL A   1      -5.406  -5.014   2.052  1.00  0.00    +0.000 H 
ATOM    131  H41 UNL A   1      -7.104  -4.887   2.354  1.00  0.00    +0.000 H 
ATOM    132  H42 UNL A   1      -6.822  -2.791   3.227  1.00  0.00    +0.000 H 
ATOM    133  H43 UNL A   1      -5.119  -2.982   3.083  1.00  0.00    +0.000 H 
ATOM     83  C59 UNL A   1      -6.046  -2.031   1.372  1.00  0.00    +0.000 C 
ATOM     84  C60 UNL A   1      -5.818  -2.844   0.100  1.00  0.00    +0.000 C 
ATOM     85  C61 UNL A   1      -6.501  -4.165   0.414  1.00  0.00    +0.000 C 
ATOM     86  C62 UNL A   1      -6.266  -4.394   1.906  1.00  0.00    +0.000 C 
ATOM     87  C63 UNL A   1      -6.038  -3.021   2.536  1.00  0.00    +0.000 C 
ATOM    125  H35 UNL A   1      -7.000  -1.551   1.298  1.00  0.00    +0.000 H 
ATOM    126  H36 UNL A   1      -4.773  -2.984  -0.084  1.00  0.00    +0.000 H 
ATOM    127  H37 UNL A   1      -6.201  -2.369  -0.779  1.00  0.00    +0.000 H 
ATOM    128  H38 UNL A   1      -6.066  -4.957  -0.160  1.00  0.00    +0.000 H 
ENDBRANCH   82   83
ENDBRANCH   81   82
ENDBRANCH    2   78
ENDBRANCH    3    2
ENDBRANCH    5    3
ENDBRANCH    6    5
ENDBRANCH    7    6
ENDBRANCH    8    7
ENDBRANCH    9    8
ENDBRANCH   10    9
ENDBRANCH   11   10
ENDBRANCH   12   11
ENDBRANCH   13   12
ENDBRANCH   15   13
ENDBRANCH   19   18
BRANCH   23   24
ATOM     33  C24 UNL A   1      15.192   0.383  -7.784  1.00  0.00    +0.000 C 
ATOM     34  F5  UNL A   1      14.152  -0.354  -8.202  1.00  0.00    +0.000 F 
ATOM     24  C19 UNL A   1      15.809   0.102  -6.555  1.00  0.00    +0.000 C 
ATOM     25  C20 UNL A   1      16.895   0.898  -6.167  1.00  0.00    +0.000 C 
ATOM     26  F1  UNL A   1      17.514   0.672  -4.998  1.00  0.00    +0.000 F 
ATOM     27  C21 UNL A   1      17.342   1.941  -6.974  1.00  0.00    +0.000 C 
ATOM     28  F2  UNL A   1      18.368   2.704  -6.573  1.00  0.00    +0.000 F 
ATOM     29  C22 UNL A   1      16.727   2.192  -8.192  1.00  0.00    +0.000 C 
ATOM     30  F3  UNL A   1      17.170   3.185  -8.975  1.00  0.00    +0.000 F 
ATOM     31  C23 UNL A   1      15.654   1.413  -8.598  1.00  0.00    +0.000 C 
ATOM     32  F4  UNL A   1      15.067   1.646  -9.780  1.00  0.00    +0.000 F 
ENDBRANCH   23   24
BRANCH   40   41
ATOM     41  C30 UNL A   1      15.853  -7.054  -7.152  1.00  0.00    +0.000 C 
ATOM     42  C31 UNL A   1      14.963  -7.684  -8.034  1.00  0.00    +0.000 C 
ATOM     43  F6  UNL A   1      13.649  -7.420  -7.968  1.00  0.00    +0.000 F 
ATOM     44  C32 UNL A   1      15.418  -8.610  -8.967  1.00  0.00    +0.000 C 
ATOM     45  F7  UNL A   1      14.546  -9.226  -9.777  1.00  0.00    +0.000 F 
ATOM     46  C33 UNL A   1      16.771  -8.904  -9.054  1.00  0.00    +0.000 C 
ATOM     47  F8  UNL A   1      17.208  -9.789  -9.961  1.00  0.00    +0.000 F 
ATOM     48  C34 UNL A   1      17.669  -8.285  -8.197  1.00  0.00    +0.000 C 
ATOM     49  F9  UNL A   1      18.978  -8.561  -8.287  1.00  0.00    +0.000 F 
ATOM     50  C35 UNL A   1      17.215  -7.377  -7.246  1.00  0.00    +0.000 C 
ATOM     51  F10 UNL A   1      18.105  -6.798  -6.426  1.00  0.00    +0.000 F 
ENDBRANCH   40   41
BRANCH   55   56
ATOM     65  C44 UNL A   1      10.828  -7.685  -1.185  1.00  0.00    +0.000 C 
ATOM     66  F15 UNL A   1      10.024  -6.797  -1.788  1.00  0.00    +0.000 F 
ATOM     56  C39 UNL A   1      12.220  -7.519  -1.233  1.00  0.00    +0.000 C 
ATOM     57  C40 UNL A   1      13.014  -8.473  -0.583  1.00  0.00    +0.000 C 
ATOM     58  F11 UNL A   1      14.351  -8.368  -0.622  1.00  0.00    +0.000 F 
ATOM     59  C41 UNL A   1      12.442  -9.564   0.068  1.00  0.00    +0.000 C 
ATOM     60  F12 UNL A   1      13.226 -10.487   0.639  1.00  0.00    +0.000 F 
ATOM     61  C42 UNL A   1      11.062  -9.705   0.107  1.00  0.00    +0.000 C 
ATOM     62  F13 UNL A   1      10.512 -10.754   0.732  1.00  0.00    +0.000 F 
ATOM     63  C43 UNL A   1      10.255  -8.761  -0.511  1.00  0.00    +0.000 C 
ATOM     64  F14 UNL A   1       8.922  -8.888  -0.465  1.00  0.00    +0.000 F 
ENDBRANCH   55   56
TORSDOF 19