ROOT
ATOM    129  H38 UNL A   1       2.444 -11.606  -9.408  1.00  0.00    +0.000 H 
ATOM    130  H39 UNL A   1       3.545 -10.791  -7.245  1.00  0.00    +0.000 H 
ATOM     33  C24 UNL A   1       2.302 -11.786  -4.881  1.00  0.00    +0.000 C 
ATOM     34  C25 UNL A   1       1.997 -12.158  -6.306  1.00  0.00    +0.000 C 
ATOM     35  N5  UNL A   1       1.115 -13.006  -6.771  1.00  0.00    +0.000 N 
ATOM     36  C26 UNL A   1       1.212 -12.932  -8.155  1.00  0.00    +0.000 C 
ATOM     37  C27 UNL A   1       0.549 -13.655  -9.088  1.00  0.00    +0.000 C 
ATOM     49  C34 UNL A   1      -0.415 -14.681  -8.787  1.00  0.00    +0.000 C 
ATOM     50  C35 UNL A   1      -1.096 -15.509  -9.662  1.00  0.00    +0.000 C 
ATOM     51  C36 UNL A   1      -1.956 -16.321  -8.917  1.00  0.00    +0.000 C 
ATOM     52  C37 UNL A   1      -1.775 -16.034  -7.574  1.00  0.00    +0.000 C 
ATOM     53  N6  UNL A   1      -0.831 -15.021  -7.509  1.00  0.00    +0.000 N 
ATOM     54  C38 UNL A   1      -2.415 -16.637  -6.434  1.00  0.00    +0.000 C 
ATOM     66  C45 UNL A   1      -2.184 -16.295  -5.143  1.00  0.00    +0.000 C 
ATOM     67  N7  UNL A   1      -1.308 -15.346  -4.636  1.00  0.00    +0.000 N 
ATOM     68  C46 UNL A   1      -1.452 -15.382  -3.333  1.00  0.00    +0.000 C 
ATOM     69  C47 UNL A   1      -0.729 -14.592  -2.275  1.00  0.00    +0.000 C 
ATOM     81  C54 UNL A   1       0.230 -13.721  -2.642  1.00  0.00    +0.000 C 
ATOM     82  C55 UNL A   1       1.011 -12.888  -1.732  1.00  0.00    +0.000 C 
ATOM     83  C56 UNL A   1       1.825 -12.098  -2.450  1.00  0.00    +0.000 C 
ATOM     84  C57 UNL A   1       1.651 -12.396  -3.872  1.00  0.00    +0.000 C 
ATOM     85  N8  UNL A   1       0.698 -13.385  -3.889  1.00  0.00    +0.000 N 
ATOM     86  C58 UNL A   1      -2.466 -16.340  -2.869  1.00  0.00    +0.000 C 
ATOM     87  C59 UNL A   1      -2.850 -16.899  -4.008  1.00  0.00    +0.000 C 
ATOM     88  C60 UNL A   1       2.206 -11.924  -8.456  1.00  0.00    +0.000 C 
ATOM     89  C61 UNL A   1       2.769 -11.463  -7.348  1.00  0.00    +0.000 C 
ATOM    121  H30 UNL A   1      -0.989 -15.523 -10.689  1.00  0.00    +0.000 H 
ATOM    122  H31 UNL A   1      -2.614 -17.017  -9.302  1.00  0.00    +0.000 H 
ATOM    123  H32 UNL A   1      -0.505 -14.605  -6.678  1.00  0.00    +0.000 H 
ATOM    124  H33 UNL A   1       0.947 -12.905  -0.702  1.00  0.00    +0.000 H 
ATOM    125  H34 UNL A   1       2.470 -11.393  -2.061  1.00  0.00    +0.000 H 
ATOM    126  H35 UNL A   1       0.380 -13.813  -4.717  1.00  0.00    +0.000 H 
ATOM    127  H36 UNL A   1      -2.793 -16.527  -1.909  1.00  0.00    +0.000 H 
ATOM    128  H37 UNL A   1      -3.537 -17.666  -4.077  1.00  0.00    +0.000 H 
ENDROOT
BRANCH   33   32
ATOM    131  H40 UNL A   1       2.082  -9.188  -5.494  1.00  0.00    +0.000 H 
ATOM    132  H41 UNL A   1       3.664  -7.395  -5.099  1.00  0.00    +0.000 H 
ATOM    119  H28 UNL A   1       6.194 -10.066  -3.061  1.00  0.00    +0.000 H 
ATOM    120  H29 UNL A   1       4.722 -11.904  -3.650  1.00  0.00    +0.000 H 
ATOM     90  C62 UNL A   1       2.965  -9.381  -4.994  1.00  0.00    +0.000 C 
ATOM     91  C63 UNL A   1       3.852  -8.340  -4.729  1.00  0.00    +0.000 C 
ATOM     29  C20 UNL A   1       4.996  -8.577  -3.964  1.00  0.00    +0.000 C 
ATOM     30  C21 UNL A   1       5.323  -9.882  -3.582  1.00  0.00    +0.000 C 
ATOM     31  C22 UNL A   1       4.467 -10.938  -3.909  1.00  0.00    +0.000 C 
ATOM     32  C23 UNL A   1       3.262 -10.691  -4.586  1.00  0.00    +0.000 C 
BRANCH   29   27
ATOM     27  C19 UNL A   1       5.888  -7.469  -3.555  1.00  0.00    +0.000 C 
ATOM     28  O5  UNL A   1       7.105  -7.612  -3.631  1.00  0.00    +0.000 O 
BRANCH   27   26
ATOM     26  N4  UNL A   1       5.360  -6.297  -3.070  1.00  0.00    +0.000 N 
ATOM    118  H27 UNL A   1       6.008  -5.568  -2.941  1.00  0.00    +0.000 H 
BRANCH   26   25
ATOM     25  C18 UNL A   1       3.985  -5.972  -2.720  1.00  0.00    +0.000 C 
ATOM    116  H25 UNL A   1       3.626  -5.227  -3.400  1.00  0.00    +0.000 H 
ATOM    117  H26 UNL A   1       3.415  -6.875  -2.783  1.00  0.00    +0.000 H 
BRANCH   25   24
ATOM    114  H23 UNL A   1       2.806  -5.309  -1.092  1.00  0.00    +0.000 H 
ATOM    115  H24 UNL A   1       4.321  -6.162  -0.664  1.00  0.00    +0.000 H 
ATOM     24  C17 UNL A   1       3.848  -5.440  -1.297  1.00  0.00    +0.000 C 
BRANCH   24   23
ATOM    113  H22 UNL A   1       5.586  -4.281  -1.247  1.00  0.00    +0.000 H 
ATOM     23  C16 UNL A   1       4.553  -4.113  -1.026  1.00  0.00    +0.000 C 
ATOM    112  H21 UNL A   1       4.365  -3.843  -0.007  1.00  0.00    +0.000 H 
BRANCH   23   22
ATOM    110  H19 UNL A   1       4.662  -2.074  -1.587  1.00  0.00    +0.000 H 
ATOM     22  C15 UNL A   1       4.123  -2.941  -1.910  1.00  0.00    +0.000 C 
ATOM    111  H20 UNL A   1       4.338  -3.246  -2.912  1.00  0.00    +0.000 H 
BRANCH   22   21
ATOM    109  H18 UNL A   1       2.115  -3.474  -2.223  1.00  0.00    +0.000 H 
ATOM    108  H17 UNL A   1       2.479  -1.753  -2.544  1.00  0.00    +0.000 H 
ATOM     21  C14 UNL A   1       2.629  -2.593  -1.899  1.00  0.00    +0.000 C 
BRANCH   21   20
ATOM    106  H15 UNL A   1       1.001  -2.102  -0.622  1.00  0.00    +0.000 H 
ATOM    107  H16 UNL A   1       2.294  -3.055   0.133  1.00  0.00    +0.000 H 
ATOM     20  C13 UNL A   1       2.057  -2.245  -0.525  1.00  0.00    +0.000 C 
BRANCH   20   19
ATOM    105  H14 UNL A   1       3.523  -1.100   0.464  1.00  0.00    +0.000 H 
ATOM     19  N3  UNL A   1       2.634  -1.043   0.045  1.00  0.00    +0.000 N 
BRANCH   19    2
ATOM      1  O1  UNL A   1       0.899   0.356  -0.507  1.00  0.00    +0.000 O 
ATOM      2  C1  UNL A   1       1.990   0.174   0.027  1.00  0.00    +0.000 C 
BRANCH    2    3
ATOM      3  C2  UNL A   1       2.767   1.335   0.664  1.00  0.00    +0.000 C 
ATOM     92  H1  UNL A   1       2.081   1.920   1.242  1.00  0.00    +0.000 H 
ATOM     93  H2  UNL A   1       3.208   1.887  -0.139  1.00  0.00    +0.000 H 
BRANCH    3    4
ATOM      4  N1  UNL A   1       3.860   0.919   1.536  1.00  0.00    +0.000 N 
ATOM     94  H3  UNL A   1       3.599   0.371   2.311  1.00  0.00    +0.000 H 
BRANCH    4    5
ATOM      5  C3  UNL A   1       5.195   1.184   1.428  1.00  0.00    +0.000 C 
ATOM      6  O2  UNL A   1       5.926   0.880   2.371  1.00  0.00    +0.000 O 
BRANCH    5    7
ATOM     95  H4  UNL A   1       6.798   2.021   0.280  1.00  0.00    +0.000 H 
ATOM      7  C4  UNL A   1       5.759   1.801   0.148  1.00  0.00    +0.000 C 
ATOM     96  H5  UNL A   1       5.241   2.709  -0.081  1.00  0.00    +0.000 H 
BRANCH    7    8
ATOM     97  H6  UNL A   1       6.043  -0.020  -0.826  1.00  0.00    +0.000 H 
ATOM      8  N2  UNL A   1       5.595   0.850  -0.932  1.00  0.00    +0.000 N 
BRANCH    8    9
ATOM      9  C5  UNL A   1       4.886   1.033  -2.077  1.00  0.00    +0.000 C 
ATOM     10  O3  UNL A   1       4.573   0.075  -2.769  1.00  0.00    +0.000 O 
BRANCH    9   11
ATOM     11  O4  UNL A   1       4.570   2.325  -2.320  1.00  0.00    +0.000 O 
BRANCH   11   12
ATOM     98  H7  UNL A   1       3.323   3.511  -3.435  1.00  0.00    +0.000 H 
ATOM     99  H8  UNL A   1       3.049   1.772  -3.562  1.00  0.00    +0.000 H 
ATOM     12  C6  UNL A   1       3.783   2.548  -3.502  1.00  0.00    +0.000 C 
BRANCH   12   13
ATOM    100  H9  UNL A   1       4.171   0.478  -5.199  1.00  0.00    +0.000 H 
ATOM    101  H10 UNL A   1       5.618   0.329  -7.132  1.00  0.00    +0.000 H 
ATOM    102  H11 UNL A   1       6.877   2.272  -7.856  1.00  0.00    +0.000 H 
ATOM    103  H12 UNL A   1       6.693   4.358  -6.633  1.00  0.00    +0.000 H 
ATOM    104  H13 UNL A   1       5.294   4.495  -4.657  1.00  0.00    +0.000 H 
ATOM     13  C7  UNL A   1       4.622   2.494  -4.756  1.00  0.00    +0.000 C 
ATOM     14  C8  UNL A   1       4.718   1.302  -5.491  1.00  0.00    +0.000 C 
ATOM     15  C9  UNL A   1       5.544   1.217  -6.611  1.00  0.00    +0.000 C 
ATOM     16  C10 UNL A   1       6.267   2.331  -7.025  1.00  0.00    +0.000 C 
ATOM     17  C11 UNL A   1       6.166   3.529  -6.317  1.00  0.00    +0.000 C 
ATOM     18  C12 UNL A   1       5.354   3.609  -5.183  1.00  0.00    +0.000 C 
ENDBRANCH   12   13
ENDBRANCH   11   12
ENDBRANCH    9   11
ENDBRANCH    8    9
ENDBRANCH    7    8
ENDBRANCH    5    7
ENDBRANCH    4    5
ENDBRANCH    3    4
ENDBRANCH    2    3
ENDBRANCH   19    2
ENDBRANCH   20   19
ENDBRANCH   21   20
ENDBRANCH   22   21
ENDBRANCH   23   22
ENDBRANCH   24   23
ENDBRANCH   25   24
ENDBRANCH   26   25
ENDBRANCH   27   26
ENDBRANCH   29   27
ENDBRANCH   33   32
BRANCH   37   38
ATOM     38  C28 UNL A   1       0.845 -13.367 -10.531  1.00  0.00    +0.000 C 
ATOM     39  C29 UNL A   1       2.069 -13.725 -11.116  1.00  0.00    +0.000 C 
ATOM     40  F1  UNL A   1       3.033 -14.290 -10.372  1.00  0.00    +0.000 F 
ATOM     41  C30 UNL A   1       2.322 -13.473 -12.462  1.00  0.00    +0.000 C 
ATOM     42  F2  UNL A   1       3.515 -13.784 -12.987  1.00  0.00    +0.000 F 
ATOM     43  C31 UNL A   1       1.346 -12.891 -13.256  1.00  0.00    +0.000 C 
ATOM     44  F3  UNL A   1       1.587 -12.658 -14.554  1.00  0.00    +0.000 F 
ATOM     45  C32 UNL A   1       0.121 -12.546 -12.704  1.00  0.00    +0.000 C 
ATOM     46  F4  UNL A   1      -0.828 -11.996 -13.474  1.00  0.00    +0.000 F 
ATOM     47  C33 UNL A   1      -0.124 -12.770 -11.352  1.00  0.00    +0.000 C 
ATOM     48  F5  UNL A   1      -1.314 -12.414 -10.845  1.00  0.00    +0.000 F 
ENDBRANCH   37   38
BRANCH   54   55
ATOM     65  F10 UNL A   1      -1.637 -19.214  -7.338  1.00  0.00    +0.000 F 
ATOM     55  C39 UNL A   1      -3.395 -17.745  -6.690  1.00  0.00    +0.000 C 
ATOM     56  C40 UNL A   1      -4.775 -17.563  -6.522  1.00  0.00    +0.000 C 
ATOM     57  F6  UNL A   1      -5.251 -16.394  -6.065  1.00  0.00    +0.000 F 
ATOM     58  C41 UNL A   1      -5.670 -18.596  -6.788  1.00  0.00    +0.000 C 
ATOM     59  F7  UNL A   1      -6.981 -18.414  -6.579  1.00  0.00    +0.000 F 
ATOM     60  C42 UNL A   1      -5.206 -19.816  -7.258  1.00  0.00    +0.000 C 
ATOM     61  F8  UNL A   1      -6.070 -20.806  -7.522  1.00  0.00    +0.000 F 
ATOM     62  C43 UNL A   1      -3.846 -20.012  -7.447  1.00  0.00    +0.000 C 
ATOM     63  F9  UNL A   1      -3.398 -21.186  -7.913  1.00  0.00    +0.000 F 
ATOM     64  C44 UNL A   1      -2.947 -18.991  -7.154  1.00  0.00    +0.000 C 
ENDBRANCH   54   55
BRANCH   69   70
ATOM     70  C48 UNL A   1      -1.049 -14.785  -0.836  1.00  0.00    +0.000 C 
ATOM     71  C49 UNL A   1      -0.723 -15.982  -0.183  1.00  0.00    +0.000 C 
ATOM     72  F11 UNL A   1      -0.121 -16.971  -0.860  1.00  0.00    +0.000 F 
ATOM     73  C50 UNL A   1      -1.054 -16.186   1.155  1.00  0.00    +0.000 C 
ATOM     74  F12 UNL A   1      -0.776 -17.358   1.740  1.00  0.00    +0.000 F 
ATOM     75  C51 UNL A   1      -1.691 -15.186   1.874  1.00  0.00    +0.000 C 
ATOM     76  F13 UNL A   1      -2.010 -15.382   3.160  1.00  0.00    +0.000 F 
ATOM     77  C52 UNL A   1      -2.004 -13.985   1.255  1.00  0.00    +0.000 C 
ATOM     78  F14 UNL A   1      -2.607 -13.011   1.950  1.00  0.00    +0.000 F 
ATOM     79  C53 UNL A   1      -1.698 -13.791  -0.091  1.00  0.00    +0.000 C 
ATOM     80  F15 UNL A   1      -2.028 -12.626  -0.668  1.00  0.00    +0.000 F 
ENDBRANCH   69   70
TORSDOF 23