ROOT
ATOM     34  C25 UNL A   1       5.340  -2.267   4.437  1.00  0.00    +0.000 C 
ATOM     35  C26 UNL A   1       5.971  -3.626   4.326  1.00  0.00    +0.000 C 
ATOM     36  N5  UNL A   1       6.772  -4.233   5.168  1.00  0.00    +0.000 N 
ATOM     37  C27 UNL A   1       7.057  -5.468   4.602  1.00  0.00    +0.000 C 
ATOM     38  C28 UNL A   1       7.869  -6.446   5.073  1.00  0.00    +0.000 C 
ATOM     50  C35 UNL A   1       8.605  -6.368   6.310  1.00  0.00    +0.000 C 
ATOM     51  C36 UNL A   1       9.457  -7.306   6.870  1.00  0.00    +0.000 C 
ATOM     52  C37 UNL A   1       9.921  -6.805   8.091  1.00  0.00    +0.000 C 
ATOM     53  C38 UNL A   1       9.391  -5.538   8.273  1.00  0.00    +0.000 C 
ATOM     54  N6  UNL A   1       8.578  -5.287   7.179  1.00  0.00    +0.000 N 
ATOM     55  C39 UNL A   1       9.612  -4.622   9.362  1.00  0.00    +0.000 C 
ATOM     67  C46 UNL A   1       9.058  -3.390   9.469  1.00  0.00    +0.000 C 
ATOM     68  N7  UNL A   1       8.174  -2.755   8.611  1.00  0.00    +0.000 N 
ATOM     69  C47 UNL A   1       7.895  -1.603   9.170  1.00  0.00    +0.000 C 
ATOM     70  C48 UNL A   1       6.996  -0.507   8.679  1.00  0.00    +0.000 C 
ATOM     82  C55 UNL A   1       6.346  -0.667   7.512  1.00  0.00    +0.000 C 
ATOM     83  C56 UNL A   1       5.459   0.317   6.904  1.00  0.00    +0.000 C 
ATOM     84  C57 UNL A   1       4.971  -0.186   5.761  1.00  0.00    +0.000 C 
ATOM     85  C58 UNL A   1       5.554  -1.510   5.531  1.00  0.00    +0.000 C 
ATOM     86  N8  UNL A   1       6.334  -1.726   6.637  1.00  0.00    +0.000 N 
ATOM     87  C59 UNL A   1       8.573  -1.377  10.453  1.00  0.00    +0.000 C 
ATOM     88  C60 UNL A   1       9.298  -2.480  10.570  1.00  0.00    +0.000 C 
ATOM     89  C61 UNL A   1       6.319  -5.541   3.358  1.00  0.00    +0.000 C 
ATOM     90  C62 UNL A   1       5.663  -4.412   3.122  1.00  0.00    +0.000 C 
ATOM    117  H25 UNL A   1       9.706  -8.218   6.457  1.00  0.00    +0.000 H 
ATOM    118  H26 UNL A   1      10.550  -7.296   8.745  1.00  0.00    +0.000 H 
ATOM    119  H27 UNL A   1       8.058  -4.463   7.038  1.00  0.00    +0.000 H 
ATOM    120  H28 UNL A   1       5.242   1.249   7.290  1.00  0.00    +0.000 H 
ATOM    121  H29 UNL A   1       4.293   0.285   5.142  1.00  0.00    +0.000 H 
ATOM    122  H30 UNL A   1       6.836  -2.559   6.790  1.00  0.00    +0.000 H 
ATOM    123  H31 UNL A   1       8.502  -0.572  11.095  1.00  0.00    +0.000 H 
ATOM    124  H32 UNL A   1       9.951  -2.667  11.347  1.00  0.00    +0.000 H 
ATOM    125  H33 UNL A   1       6.305  -6.364   2.736  1.00  0.00    +0.000 H 
ATOM    126  H34 UNL A   1       5.087  -4.153   2.306  1.00  0.00    +0.000 H 
ENDROOT
BRANCH   34   33
ATOM     33  C24 UNL A   1       4.521  -1.699   3.336  1.00  0.00    +0.000 C 
ATOM    127  H35 UNL A   1       2.901  -3.050   3.495  1.00  0.00    +0.000 H 
ATOM    115  H23 UNL A   1       4.509   0.956   1.276  1.00  0.00    +0.000 H 
ATOM    116  H24 UNL A   1       5.908  -0.159   2.908  1.00  0.00    +0.000 H 
ATOM     91  C63 UNL A   1       3.274  -2.236   2.983  1.00  0.00    +0.000 C 
ATOM     92  C64 UNL A   1       2.534  -1.670   1.939  1.00  0.00    +0.000 C 
ATOM     32  C23 UNL A   1       4.983  -0.551   2.669  1.00  0.00    +0.000 C 
ATOM     30  C21 UNL A   1       3.017  -0.538   1.274  1.00  0.00    +0.000 C 
ATOM     31  C22 UNL A   1       4.207   0.061   1.692  1.00  0.00    +0.000 C 
ATOM    128  H36 UNL A   1       1.633  -2.088   1.659  1.00  0.00    +0.000 H 
BRANCH   30    2
ATOM      1  O1  UNL A   1       1.028   0.099   0.205  1.00  0.00    +0.000 O 
ATOM      2  C1  UNL A   1       2.251   0.012   0.133  1.00  0.00    +0.000 C 
BRANCH    2    3
ATOM      3  N1  UNL A   1       2.907   0.394  -1.013  1.00  0.00    +0.000 N 
ATOM     93  H1  UNL A   1       2.349   0.834  -1.694  1.00  0.00    +0.000 H 
BRANCH    3    4
ATOM      4  C2  UNL A   1       4.309   0.239  -1.359  1.00  0.00    +0.000 C 
ATOM     94  H2  UNL A   1       4.774  -0.389  -0.627  1.00  0.00    +0.000 H 
ATOM     95  H3  UNL A   1       4.744   1.217  -1.380  1.00  0.00    +0.000 H 
BRANCH    4    5
ATOM     97  H5  UNL A   1       5.575  -0.514  -2.840  1.00  0.00    +0.000 H 
ATOM      5  C3  UNL A   1       4.519  -0.381  -2.733  1.00  0.00    +0.000 C 
ATOM     96  H4  UNL A   1       3.965  -1.296  -2.771  1.00  0.00    +0.000 H 
BRANCH    5    6
ATOM     98  H6  UNL A   1       3.019   0.600  -3.860  1.00  0.00    +0.000 H 
ATOM     99  H7  UNL A   1       4.420  -0.028  -4.791  1.00  0.00    +0.000 H 
ATOM      6  C4  UNL A   1       4.082   0.484  -3.914  1.00  0.00    +0.000 C 
BRANCH    6    7
ATOM    100  H8  UNL A   1       4.299   2.461  -3.180  1.00  0.00    +0.000 H 
ATOM    101  H9  UNL A   1       4.464   2.256  -4.957  1.00  0.00    +0.000 H 
ATOM      7  C5  UNL A   1       4.704   1.882  -3.984  1.00  0.00    +0.000 C 
BRANCH    7    8
ATOM    102  H10 UNL A   1       6.511   1.655  -2.893  1.00  0.00    +0.000 H 
ATOM    103  H11 UNL A   1       6.502   2.952  -4.129  1.00  0.00    +0.000 H 
ATOM      8  C6  UNL A   1       6.233   1.946  -3.884  1.00  0.00    +0.000 C 
BRANCH    8    9
ATOM      9  C7  UNL A   1       6.992   1.056  -4.867  1.00  0.00    +0.000 C 
ATOM    105  H13 UNL A   1       8.039   1.175  -4.679  1.00  0.00    +0.000 H 
ATOM    104  H12 UNL A   1       6.685   0.041  -4.722  1.00  0.00    +0.000 H 
BRANCH    9   10
ATOM     10  N2  UNL A   1       6.740   1.429  -6.247  1.00  0.00    +0.000 N 
ATOM    106  H14 UNL A   1       5.824   1.276  -6.576  1.00  0.00    +0.000 H 
BRANCH   10   11
ATOM     11  C8  UNL A   1       7.621   1.970  -7.149  1.00  0.00    +0.000 C 
ATOM     12  O2  UNL A   1       7.207   2.561  -8.144  1.00  0.00    +0.000 O 
BRANCH   11   13
ATOM    107  H15 UNL A   1       9.031  -0.248  -6.588  1.00  0.00    +0.000 H 
ATOM    108  H16 UNL A   1      11.443  -0.428  -6.257  1.00  0.00    +0.000 H 
ATOM     13  C9  UNL A   1       9.074   1.840  -6.941  1.00  0.00    +0.000 C 
ATOM     14  C10 UNL A   1       9.633   0.587  -6.660  1.00  0.00    +0.000 C 
ATOM     15  C11 UNL A   1      11.005   0.479  -6.479  1.00  0.00    +0.000 C 
ATOM     16  C12 UNL A   1      11.764   1.626  -6.608  1.00  0.00    +0.000 C 
ATOM     17  N3  UNL A   1      11.250   2.837  -6.914  1.00  0.00    +0.000 N 
ATOM     18  C13 UNL A   1       9.911   2.950  -7.113  1.00  0.00    +0.000 C 
ATOM    109  H17 UNL A   1      12.783   1.553  -6.462  1.00  0.00    +0.000 H 
BRANCH   18   19
ATOM     19  N4  UNL A   1       9.358   4.235  -7.371  1.00  0.00    +0.000 N 
ATOM    110  H18 UNL A   1       8.396   4.364  -7.207  1.00  0.00    +0.000 H 
BRANCH   19   20
ATOM    111  H19 UNL A   1       9.019   6.743  -6.706  1.00  0.00    +0.000 H 
ATOM    112  H20 UNL A   1      10.204   8.684  -7.543  1.00  0.00    +0.000 H 
ATOM    113  H21 UNL A   1      11.920   8.424  -9.235  1.00  0.00    +0.000 H 
ATOM    114  H22 UNL A   1      11.271   4.269  -9.239  1.00  0.00    +0.000 H 
ATOM     20  C14 UNL A   1      10.102   5.341  -7.850  1.00  0.00    +0.000 C 
ATOM     21  C15 UNL A   1       9.768   6.624  -7.406  1.00  0.00    +0.000 C 
ATOM     22  C16 UNL A   1      10.437   7.745  -7.901  1.00  0.00    +0.000 C 
ATOM     23  C17 UNL A   1      11.420   7.595  -8.879  1.00  0.00    +0.000 C 
ATOM     24  C18 UNL A   1      11.732   6.324  -9.381  1.00  0.00    +0.000 C 
ATOM     25  C19 UNL A   1      12.782   6.164 -10.450  1.00  0.00    +0.000 C 
ATOM     26  F1  UNL A   1      12.556   6.970 -11.526  1.00  0.00    +0.000 F 
ATOM     27  F2  UNL A   1      14.031   6.481 -10.007  1.00  0.00    +0.000 F 
ATOM     28  F3  UNL A   1      12.874   4.900 -10.950  1.00  0.00    +0.000 F 
ATOM     29  C20 UNL A   1      11.058   5.207  -8.864  1.00  0.00    +0.000 C 
ENDBRANCH   19   20
ENDBRANCH   18   19
ENDBRANCH   11   13
ENDBRANCH   10   11
ENDBRANCH    9   10
ENDBRANCH    8    9
ENDBRANCH    7    8
ENDBRANCH    6    7
ENDBRANCH    5    6
ENDBRANCH    4    5
ENDBRANCH    3    4
ENDBRANCH    2    3
ENDBRANCH   30    2
ENDBRANCH   34   33
BRANCH   38   39
ATOM     39  C29 UNL A   1       8.008  -7.694   4.250  1.00  0.00    +0.000 C 
ATOM     40  C30 UNL A   1       8.748  -7.705   3.058  1.00  0.00    +0.000 C 
ATOM     41  F4  UNL A   1       9.291  -6.571   2.591  1.00  0.00    +0.000 F 
ATOM     42  C31 UNL A   1       8.911  -8.879   2.326  1.00  0.00    +0.000 C 
ATOM     43  F5  UNL A   1       9.594  -8.858   1.174  1.00  0.00    +0.000 F 
ATOM     44  C32 UNL A   1       8.362 -10.067   2.784  1.00  0.00    +0.000 C 
ATOM     45  F6  UNL A   1       8.530 -11.198   2.085  1.00  0.00    +0.000 F 
ATOM     46  C33 UNL A   1       7.636 -10.082   3.966  1.00  0.00    +0.000 C 
ATOM     47  F7  UNL A   1       7.114 -11.232   4.415  1.00  0.00    +0.000 F 
ATOM     48  C34 UNL A   1       7.450  -8.905   4.687  1.00  0.00    +0.000 C 
ATOM     49  F8  UNL A   1       6.740  -8.951   5.824  1.00  0.00    +0.000 F 
ENDBRANCH   38   39
BRANCH   55   56
ATOM     65  C45 UNL A   1      11.921  -5.114  10.247  1.00  0.00    +0.000 C 
ATOM     66  F13 UNL A   1      12.433  -4.800   9.048  1.00  0.00    +0.000 F 
ATOM     56  C40 UNL A   1      10.537  -5.045  10.464  1.00  0.00    +0.000 C 
ATOM     57  C41 UNL A   1      10.051  -5.388  11.735  1.00  0.00    +0.000 C 
ATOM     58  F9  UNL A   1       8.736  -5.319  11.995  1.00  0.00    +0.000 F 
ATOM     59  C42 UNL A   1      10.921  -5.755  12.758  1.00  0.00    +0.000 C 
ATOM     60  F10 UNL A   1      10.439  -6.027  13.978  1.00  0.00    +0.000 F 
ATOM     61  C43 UNL A   1      12.286  -5.818  12.521  1.00  0.00    +0.000 C 
ATOM     62  F11 UNL A   1      13.122  -6.168  13.508  1.00  0.00    +0.000 F 
ATOM     63  C44 UNL A   1      12.785  -5.507  11.265  1.00  0.00    +0.000 C 
ATOM     64  F12 UNL A   1      14.103  -5.575  11.033  1.00  0.00    +0.000 F 
ENDBRANCH   55   56
BRANCH   70   71
ATOM     71  C49 UNL A   1       6.811   0.744   9.457  1.00  0.00    +0.000 C 
ATOM     72  C50 UNL A   1       7.850   1.673   9.595  1.00  0.00    +0.000 C 
ATOM     73  F14 UNL A   1       9.048   1.425   9.045  1.00  0.00    +0.000 F 
ATOM     74  C51 UNL A   1       7.673   2.845  10.327  1.00  0.00    +0.000 C 
ATOM     75  F15 UNL A   1       8.695   3.699  10.479  1.00  0.00    +0.000 F 
ATOM     76  C52 UNL A   1       6.445   3.124  10.909  1.00  0.00    +0.000 C 
ATOM     77  F16 UNL A   1       6.273   4.256  11.605  1.00  0.00    +0.000 F 
ATOM     78  C53 UNL A   1       5.397   2.227  10.772  1.00  0.00    +0.000 C 
ATOM     79  F17 UNL A   1       4.204   2.500  11.317  1.00  0.00    +0.000 F 
ATOM     80  C54 UNL A   1       5.583   1.041  10.067  1.00  0.00    +0.000 C 
ATOM     81  F18 UNL A   1       4.555   0.186   9.957  1.00  0.00    +0.000 F 
ENDBRANCH   70   71
TORSDOF 17