ROOT
ATOM    129  H38 UNL A   1       2.144  -3.603   9.699  1.00  0.00    +0.000 H 
ATOM     33  C26 UNL A   1       3.771  -5.923  10.351  1.00  0.00    +0.000 C 
ATOM     34  C27 UNL A   1       2.399  -5.513  10.907  1.00  0.00    +0.000 C 
ATOM     35  N4  UNL A   1       1.667  -6.067  11.828  1.00  0.00    +0.000 N 
ATOM     36  C28 UNL A   1       0.449  -5.356  11.883  1.00  0.00    +0.000 C 
ATOM     37  C29 UNL A   1      -0.671  -5.821  12.508  1.00  0.00    +0.000 C 
ATOM     49  C36 UNL A   1      -0.417  -7.067  13.145  1.00  0.00    +0.000 C 
ATOM     50  C37 UNL A   1       0.211  -7.421  14.308  1.00  0.00    +0.000 C 
ATOM     51  C38 UNL A   1       0.682  -8.731  14.073  1.00  0.00    +0.000 C 
ATOM     52  C39 UNL A   1       0.267  -9.146  12.803  1.00  0.00    +0.000 C 
ATOM     53  N5  UNL A   1      -0.648  -8.201  12.408  1.00  0.00    +0.000 N 
ATOM     54  C40 UNL A   1       0.692 -10.117  11.820  1.00  0.00    +0.000 C 
ATOM     66  C47 UNL A   1       1.767 -10.885  12.126  1.00  0.00    +0.000 C 
ATOM     67  N6  UNL A   1       2.740 -11.106  11.177  1.00  0.00    +0.000 N 
ATOM     68  C48 UNL A   1       3.836 -10.887  11.841  1.00  0.00    +0.000 C 
ATOM     69  C49 UNL A   1       5.157 -10.635  11.236  1.00  0.00    +0.000 C 
ATOM     81  C56 UNL A   1       5.108  -9.356  10.749  1.00  0.00    +0.000 C 
ATOM     82  C57 UNL A   1       6.137  -8.635  10.025  1.00  0.00    +0.000 C 
ATOM     83  C58 UNL A   1       5.735  -7.371   9.792  1.00  0.00    +0.000 C 
ATOM     84  C59 UNL A   1       4.400  -7.133  10.368  1.00  0.00    +0.000 C 
ATOM     85  N7  UNL A   1       4.079  -8.385  10.861  1.00  0.00    +0.000 N 
ATOM     86  C60 UNL A   1       3.707 -10.817  13.303  1.00  0.00    +0.000 C 
ATOM     87  C61 UNL A   1       2.400 -11.028  13.413  1.00  0.00    +0.000 C 
ATOM     88  C62 UNL A   1       0.614  -4.198  11.058  1.00  0.00    +0.000 C 
ATOM     89  C63 UNL A   1       1.771  -4.264  10.398  1.00  0.00    +0.000 C 
ATOM    120  H29 UNL A   1       0.317  -6.857  15.165  1.00  0.00    +0.000 H 
ATOM    121  H30 UNL A   1       1.243  -9.293  14.732  1.00  0.00    +0.000 H 
ATOM    122  H31 UNL A   1      -1.343  -8.316  11.721  1.00  0.00    +0.000 H 
ATOM    123  H32 UNL A   1       7.044  -9.032   9.732  1.00  0.00    +0.000 H 
ATOM    124  H33 UNL A   1       6.287  -6.665   9.280  1.00  0.00    +0.000 H 
ATOM    125  H34 UNL A   1       3.202  -8.587  11.260  1.00  0.00    +0.000 H 
ATOM    126  H35 UNL A   1       4.422 -10.652  14.029  1.00  0.00    +0.000 H 
ATOM    127  H36 UNL A   1       1.910 -11.259  14.292  1.00  0.00    +0.000 H 
ATOM    128  H37 UNL A   1      -0.065  -3.425  10.984  1.00  0.00    +0.000 H 
ENDROOT
BRANCH   33   32
ATOM    130  H39 UNL A   1       3.972  -5.295   7.723  1.00  0.00    +0.000 H 
ATOM    131  H40 UNL A   1       4.928  -3.286   6.749  1.00  0.00    +0.000 H 
ATOM    118  H27 UNL A   1       6.146  -2.013  10.573  1.00  0.00    +0.000 H 
ATOM    119  H28 UNL A   1       5.244  -4.044  11.544  1.00  0.00    +0.000 H 
ATOM     90  C64 UNL A   1       4.422  -4.591   8.328  1.00  0.00    +0.000 C 
ATOM     91  C65 UNL A   1       4.959  -3.431   7.771  1.00  0.00    +0.000 C 
ATOM     29  C22 UNL A   1       5.540  -2.465   8.597  1.00  0.00    +0.000 C 
ATOM     30  C23 UNL A   1       5.667  -2.703   9.973  1.00  0.00    +0.000 C 
ATOM     31  C24 UNL A   1       5.148  -3.867  10.532  1.00  0.00    +0.000 C 
ATOM     32  C25 UNL A   1       4.496  -4.796   9.714  1.00  0.00    +0.000 C 
BRANCH   29   27
ATOM     27  C21 UNL A   1       6.117  -1.205   8.070  1.00  0.00    +0.000 C 
ATOM     28  O4  UNL A   1       7.136  -0.759   8.559  1.00  0.00    +0.000 O 
BRANCH   27   26
ATOM     26  N3  UNL A   1       5.503  -0.514   7.048  1.00  0.00    +0.000 N 
ATOM    117  H26 UNL A   1       6.093   0.045   6.492  1.00  0.00    +0.000 H 
BRANCH   26   25
ATOM     25  C20 UNL A   1       4.096  -0.507   6.685  1.00  0.00    +0.000 C 
ATOM    115  H24 UNL A   1       3.825  -1.474   6.315  1.00  0.00    +0.000 H 
ATOM    116  H25 UNL A   1       3.522  -0.263   7.554  1.00  0.00    +0.000 H 
BRANCH   25   24
ATOM    113  H22 UNL A   1       2.757   0.553   5.422  1.00  0.00    +0.000 H 
ATOM    114  H23 UNL A   1       4.180   1.472   5.978  1.00  0.00    +0.000 H 
ATOM     24  C19 UNL A   1       3.811   0.539   5.606  1.00  0.00    +0.000 C 
BRANCH   24   23
ATOM    111  H20 UNL A   1       4.338   1.120   3.631  1.00  0.00    +0.000 H 
ATOM     23  C18 UNL A   1       4.528   0.285   4.272  1.00  0.00    +0.000 C 
ATOM    112  H21 UNL A   1       5.562   0.155   4.514  1.00  0.00    +0.000 H 
BRANCH   23   22
ATOM    110  H19 UNL A   1       4.303  -1.798   4.200  1.00  0.00    +0.000 H 
ATOM    109  H18 UNL A   1       4.660  -1.037   2.618  1.00  0.00    +0.000 H 
ATOM     22  C17 UNL A   1       4.105  -0.987   3.531  1.00  0.00    +0.000 C 
BRANCH   22   21
ATOM    107  H16 UNL A   1       2.453  -2.002   2.659  1.00  0.00    +0.000 H 
ATOM    108  H17 UNL A   1       2.086  -1.025   4.112  1.00  0.00    +0.000 H 
ATOM     21  C16 UNL A   1       2.614  -1.083   3.183  1.00  0.00    +0.000 C 
BRANCH   21   20
ATOM    105  H14 UNL A   1       1.026  -0.074   2.179  1.00  0.00    +0.000 H 
ATOM    106  H15 UNL A   1       2.289   0.982   2.812  1.00  0.00    +0.000 H 
ATOM     20  C15 UNL A   1       2.079   0.058   2.315  1.00  0.00    +0.000 C 
BRANCH   20   19
ATOM     19  N2  UNL A   1       2.720   0.087   1.016  1.00  0.00    +0.000 N 
ATOM    104  H13 UNL A   1       3.702   0.134   0.975  1.00  0.00    +0.000 H 
BRANCH   19    2
ATOM      1  O1  UNL A   1       0.786  -0.055  -0.217  1.00  0.00    +0.000 O 
ATOM      2  C1  UNL A   1       2.009   0.052  -0.167  1.00  0.00    +0.000 C 
BRANCH    2    3
ATOM      3  C2  UNL A   1       2.870   0.055  -1.426  1.00  0.00    +0.000 C 
ATOM     92  H1  UNL A   1       2.232   0.050  -2.285  1.00  0.00    +0.000 H 
ATOM     93  H2  UNL A   1       3.492  -0.816  -1.410  1.00  0.00    +0.000 H 
BRANCH    3    4
ATOM      4  C3  UNL A   1       3.756   1.269  -1.482  1.00  0.00    +0.000 C 
ATOM      5  C4  UNL A   1       3.367   2.599  -1.455  1.00  0.00    +0.000 C 
ATOM      6  C5  UNL A   1       4.527   3.390  -1.338  1.00  0.00    +0.000 C 
ATOM      7  C6  UNL A   1       5.599   2.530  -1.302  1.00  0.00    +0.000 C 
ATOM      8  N1  UNL A   1       5.146   1.237  -1.478  1.00  0.00    +0.000 N 
ATOM     94  H3  UNL A   1       2.398   2.949  -1.511  1.00  0.00    +0.000 H 
ATOM     95  H4  UNL A   1       4.565   4.421  -1.288  1.00  0.00    +0.000 H 
ATOM     96  H5  UNL A   1       6.584   2.806  -1.166  1.00  0.00    +0.000 H 
BRANCH    8    9
ATOM     97  H6  UNL A   1       7.321   0.717  -0.073  1.00  0.00    +0.000 H 
ATOM     98  H7  UNL A   1       8.743  -1.247  -0.245  1.00  0.00    +0.000 H 
ATOM     99  H8  UNL A   1       4.923  -0.754  -3.214  1.00  0.00    +0.000 H 
ATOM    100  H9  UNL A   1       6.953  -4.637  -4.454  1.00  0.00    +0.000 H 
ATOM    101  H10 UNL A   1       6.546  -4.638  -2.742  1.00  0.00    +0.000 H 
ATOM    102  H11 UNL A   1       8.899  -3.226  -3.948  1.00  0.00    +0.000 H 
ATOM    103  H12 UNL A   1       8.957  -4.768  -3.107  1.00  0.00    +0.000 H 
ATOM      9  C7  UNL A   1       5.995   0.109  -1.607  1.00  0.00    +0.000 C 
ATOM     10  C8  UNL A   1       7.112  -0.015  -0.770  1.00  0.00    +0.000 C 
ATOM     11  C9  UNL A   1       7.941  -1.133  -0.883  1.00  0.00    +0.000 C 
ATOM     12  C10 UNL A   1       7.685  -2.094  -1.860  1.00  0.00    +0.000 C 
ATOM     13  C11 UNL A   1       6.582  -1.958  -2.708  1.00  0.00    +0.000 C 
ATOM     14  C12 UNL A   1       5.735  -0.857  -2.586  1.00  0.00    +0.000 C 
ATOM     15  O2  UNL A   1       6.279  -2.856  -3.700  1.00  0.00    +0.000 O 
ATOM     16  C13 UNL A   1       6.997  -4.084  -3.539  1.00  0.00    +0.000 C 
ATOM     17  C14 UNL A   1       8.453  -3.828  -3.184  1.00  0.00    +0.000 C 
ATOM     18  O3  UNL A   1       8.559  -3.147  -1.929  1.00  0.00    +0.000 O 
ENDBRANCH    8    9
ENDBRANCH    3    4
ENDBRANCH    2    3
ENDBRANCH   19    2
ENDBRANCH   20   19
ENDBRANCH   21   20
ENDBRANCH   22   21
ENDBRANCH   23   22
ENDBRANCH   24   23
ENDBRANCH   25   24
ENDBRANCH   26   25
ENDBRANCH   27   26
ENDBRANCH   29   27
ENDBRANCH   33   32
BRANCH   37   38
ATOM     38  C30 UNL A   1      -2.108  -5.374  12.442  1.00  0.00    +0.000 C 
ATOM     39  C31 UNL A   1      -2.983  -5.757  13.490  1.00  0.00    +0.000 C 
ATOM     40  F1  UNL A   1      -2.498  -6.173  14.671  1.00  0.00    +0.000 F 
ATOM     41  C32 UNL A   1      -4.366  -5.800  13.323  1.00  0.00    +0.000 C 
ATOM     42  F2  UNL A   1      -5.142  -6.300  14.296  1.00  0.00    +0.000 F 
ATOM     43  C33 UNL A   1      -4.929  -5.392  12.131  1.00  0.00    +0.000 C 
ATOM     44  F3  UNL A   1      -6.251  -5.495  11.940  1.00  0.00    +0.000 F 
ATOM     45  C34 UNL A   1      -4.110  -4.910  11.123  1.00  0.00    +0.000 C 
ATOM     46  F4  UNL A   1      -4.654  -4.507   9.966  1.00  0.00    +0.000 F 
ATOM     47  C35 UNL A   1      -2.718  -4.912  11.268  1.00  0.00    +0.000 C 
ATOM     48  F5  UNL A   1      -1.988  -4.551  10.205  1.00  0.00    +0.000 F 
ENDBRANCH   37   38
BRANCH   54   55
ATOM     65  F10 UNL A   1       1.124  -7.827  10.064  1.00  0.00    +0.000 F 
ATOM     55  C41 UNL A   1       0.391 -10.069  10.338  1.00  0.00    +0.000 C 
ATOM     56  C42 UNL A   1      -0.072 -11.217   9.680  1.00  0.00    +0.000 C 
ATOM     57  F6  UNL A   1      -0.365 -12.319  10.386  1.00  0.00    +0.000 F 
ATOM     58  C43 UNL A   1      -0.236 -11.246   8.293  1.00  0.00    +0.000 C 
ATOM     59  F7  UNL A   1      -0.676 -12.363   7.697  1.00  0.00    +0.000 F 
ATOM     60  C44 UNL A   1       0.048 -10.127   7.526  1.00  0.00    +0.000 C 
ATOM     61  F8  UNL A   1      -0.120 -10.153   6.196  1.00  0.00    +0.000 F 
ATOM     62  C45 UNL A   1       0.498  -8.978   8.144  1.00  0.00    +0.000 C 
ATOM     63  F9  UNL A   1       0.762  -7.880   7.419  1.00  0.00    +0.000 F 
ATOM     64  C46 UNL A   1       0.672  -8.958   9.527  1.00  0.00    +0.000 C 
ENDBRANCH   54   55
BRANCH   69   70
ATOM     70  C50 UNL A   1       6.197 -11.733  11.374  1.00  0.00    +0.000 C 
ATOM     71  C51 UNL A   1       7.444 -11.773  10.735  1.00  0.00    +0.000 C 
ATOM     72  F11 UNL A   1       7.753 -10.920   9.755  1.00  0.00    +0.000 F 
ATOM     73  C52 UNL A   1       8.423 -12.734  11.051  1.00  0.00    +0.000 C 
ATOM     74  F12 UNL A   1       9.608 -12.703  10.424  1.00  0.00    +0.000 F 
ATOM     75  C53 UNL A   1       8.189 -13.709  12.002  1.00  0.00    +0.000 C 
ATOM     76  F13 UNL A   1       9.140 -14.592  12.334  1.00  0.00    +0.000 F 
ATOM     77  C54 UNL A   1       6.949 -13.772  12.587  1.00  0.00    +0.000 C 
ATOM     78  F14 UNL A   1       6.675 -14.723  13.492  1.00  0.00    +0.000 F 
ATOM     79  C55 UNL A   1       5.972 -12.833  12.252  1.00  0.00    +0.000 C 
ATOM     80  F15 UNL A   1       4.779 -13.047  12.823  1.00  0.00    +0.000 F 
ENDBRANCH   69   70
TORSDOF 17