ROOT
ATOM    129  H36 UNL A   1      -1.816   8.761  -8.349  1.00  0.00    +0.000 H 
ATOM    130  H37 UNL A   1      -1.580   8.592 -10.910  1.00  0.00    +0.000 H 
ATOM    131  H38 UNL A   1      -0.601   2.751 -11.241  1.00  0.00    +0.000 H 
ATOM    132  H39 UNL A   1       0.712   3.153  -9.055  1.00  0.00    +0.000 H 
ATOM     35  C29 UNL A   1       2.638   5.277  -9.319  1.00  0.00    +0.000 C 
ATOM     36  C30 UNL A   1       1.574   4.866 -10.271  1.00  0.00    +0.000 C 
ATOM     37  N5  UNL A   1       1.373   5.317 -11.465  1.00  0.00    +0.000 N 
ATOM     38  C31 UNL A   1       0.234   4.664 -11.929  1.00  0.00    +0.000 C 
ATOM     39  C32 UNL A   1      -0.591   5.273 -12.825  1.00  0.00    +0.000 C 
ATOM     51  C39 UNL A   1       0.070   6.402 -13.435  1.00  0.00    +0.000 C 
ATOM     52  C40 UNL A   1       1.173   6.585 -14.242  1.00  0.00    +0.000 C 
ATOM     53  C41 UNL A   1       1.746   7.824 -13.820  1.00  0.00    +0.000 C 
ATOM     54  C42 UNL A   1       0.930   8.371 -12.829  1.00  0.00    +0.000 C 
ATOM     55  N6  UNL A   1      -0.215   7.627 -12.890  1.00  0.00    +0.000 N 
ATOM     56  C43 UNL A   1       1.159   9.383 -11.821  1.00  0.00    +0.000 C 
ATOM     68  C50 UNL A   1       0.382   9.585 -10.716  1.00  0.00    +0.000 C 
ATOM     69  N7  UNL A   1       0.919  10.178  -9.584  1.00  0.00    +0.000 N 
ATOM     70  C51 UNL A   1       0.241   9.667  -8.593  1.00  0.00    +0.000 C 
ATOM     71  C52 UNL A   1       0.848   9.305  -7.291  1.00  0.00    +0.000 C 
ATOM     83  C59 UNL A   1       1.700   8.279  -7.537  1.00  0.00    +0.000 C 
ATOM     84  C60 UNL A   1       2.816   7.799  -6.756  1.00  0.00    +0.000 C 
ATOM     85  C61 UNL A   1       3.390   6.780  -7.425  1.00  0.00    +0.000 C 
ATOM     86  C62 UNL A   1       2.566   6.411  -8.583  1.00  0.00    +0.000 C 
ATOM     87  N8  UNL A   1       1.634   7.422  -8.658  1.00  0.00    +0.000 N 
ATOM     88  C63 UNL A   1      -1.029   9.060  -8.946  1.00  0.00    +0.000 C 
ATOM     89  C64 UNL A   1      -0.881   9.002 -10.272  1.00  0.00    +0.000 C 
ATOM     90  C65 UNL A   1       0.019   3.552 -11.043  1.00  0.00    +0.000 C 
ATOM     91  C66 UNL A   1       0.737   3.704  -9.927  1.00  0.00    +0.000 C 
ATOM    123  H30 UNL A   1       1.513   5.960 -14.990  1.00  0.00    +0.000 H 
ATOM    124  H31 UNL A   1       2.616   8.242 -14.186  1.00  0.00    +0.000 H 
ATOM    125  H32 UNL A   1      -1.104   7.925 -12.589  1.00  0.00    +0.000 H 
ATOM    126  H33 UNL A   1       3.120   8.171  -5.843  1.00  0.00    +0.000 H 
ATOM    127  H34 UNL A   1       4.279   6.326  -7.162  1.00  0.00    +0.000 H 
ATOM    128  H35 UNL A   1       0.999   7.534  -9.402  1.00  0.00    +0.000 H 
ENDROOT
BRANCH   35   34
ATOM     33  C27 UNL A   1       4.355   3.632 -10.100  1.00  0.00    +0.000 C 
ATOM     34  C28 UNL A   1       3.635   4.244  -9.061  1.00  0.00    +0.000 C 
ATOM    133  H40 UNL A   1       3.154   4.179  -7.011  1.00  0.00    +0.000 H 
ATOM    134  H41 UNL A   1       5.004   2.718  -6.468  1.00  0.00    +0.000 H 
ATOM    121  H28 UNL A   1       5.678   2.048 -10.561  1.00  0.00    +0.000 H 
ATOM    122  H29 UNL A   1       4.271   3.979 -11.068  1.00  0.00    +0.000 H 
ATOM     92  C67 UNL A   1       3.771   3.808  -7.750  1.00  0.00    +0.000 C 
ATOM     93  C68 UNL A   1       4.729   2.881  -7.450  1.00  0.00    +0.000 C 
ATOM     31  C25 UNL A   1       5.332   2.158  -8.473  1.00  0.00    +0.000 C 
ATOM     32  C26 UNL A   1       5.184   2.550  -9.808  1.00  0.00    +0.000 C 
BRANCH   31   29
ATOM     29  C24 UNL A   1       6.078   0.947  -8.091  1.00  0.00    +0.000 C 
ATOM     30  O2  UNL A   1       7.093   0.625  -8.703  1.00  0.00    +0.000 O 
BRANCH   29   28
ATOM     28  N4  UNL A   1       5.612   0.189  -7.030  1.00  0.00    +0.000 N 
ATOM    120  H27 UNL A   1       6.281  -0.320  -6.518  1.00  0.00    +0.000 H 
BRANCH   28   27
ATOM     27  C23 UNL A   1       4.216   0.072  -6.596  1.00  0.00    +0.000 C 
ATOM    118  H25 UNL A   1       3.864   1.044  -6.319  1.00  0.00    +0.000 H 
ATOM    119  H26 UNL A   1       3.661  -0.337  -7.414  1.00  0.00    +0.000 H 
BRANCH   27   26
ATOM     26  C22 UNL A   1       4.035  -0.865  -5.411  1.00  0.00    +0.000 C 
ATOM    116  H23 UNL A   1       2.989  -0.943  -5.205  1.00  0.00    +0.000 H 
ATOM    117  H24 UNL A   1       4.480  -1.797  -5.692  1.00  0.00    +0.000 H 
BRANCH   26   25
ATOM     25  C21 UNL A   1       4.744  -0.416  -4.126  1.00  0.00    +0.000 C 
ATOM    114  H21 UNL A   1       4.569  -1.165  -3.382  1.00  0.00    +0.000 H 
ATOM    115  H22 UNL A   1       5.769  -0.288  -4.404  1.00  0.00    +0.000 H 
BRANCH   25   24
ATOM    113  H20 UNL A   1       4.533   1.659  -4.292  1.00  0.00    +0.000 H 
ATOM    112  H19 UNL A   1       4.864   1.076  -2.622  1.00  0.00    +0.000 H 
ATOM     24  C20 UNL A   1       4.320   0.936  -3.533  1.00  0.00    +0.000 C 
BRANCH   24   23
ATOM    111  H18 UNL A   1       2.311   1.013  -4.148  1.00  0.00    +0.000 H 
ATOM    110  H17 UNL A   1       2.694   2.060  -2.752  1.00  0.00    +0.000 H 
ATOM     23  C19 UNL A   1       2.830   1.105  -3.217  1.00  0.00    +0.000 C 
BRANCH   23   22
ATOM    108  H15 UNL A   1       1.215   0.255  -2.131  1.00  0.00    +0.000 H 
ATOM    109  H16 UNL A   1       2.389  -0.908  -2.767  1.00  0.00    +0.000 H 
ATOM     22  C18 UNL A   1       2.251   0.041  -2.293  1.00  0.00    +0.000 C 
BRANCH   22   21
ATOM    107  H14 UNL A   1       3.880  -0.235  -0.974  1.00  0.00    +0.000 H 
ATOM     21  N3  UNL A   1       2.922  -0.009  -1.006  1.00  0.00    +0.000 N 
BRANCH   21    2
ATOM      1  O1  UNL A   1       1.128   0.752   0.196  1.00  0.00    +0.000 O 
ATOM      2  C1  UNL A   1       2.252   0.253   0.173  1.00  0.00    +0.000 C 
BRANCH    2    3
ATOM      3  C2  UNL A   1       3.010  -0.021   1.455  1.00  0.00    +0.000 C 
ATOM     94  H1  UNL A   1       2.300  -0.071   2.254  1.00  0.00    +0.000 H 
ATOM     95  H2  UNL A   1       3.715   0.777   1.559  1.00  0.00    +0.000 H 
BRANCH    3    4
ATOM      4  N1  UNL A   1       3.789  -1.250   1.466  1.00  0.00    +0.000 N 
ATOM      5  C3  UNL A   1       5.136  -1.290   1.720  1.00  0.00    +0.000 C 
ATOM      6  N2  UNL A   1       5.586  -2.520   1.780  1.00  0.00    +0.000 N 
ATOM      7  C4  UNL A   1       4.489  -3.313   1.558  1.00  0.00    +0.000 C 
ATOM     14  C11 UNL A   1       3.341  -2.554   1.365  1.00  0.00    +0.000 C 
ATOM     96  H3  UNL A   1       5.724  -0.452   1.849  1.00  0.00    +0.000 H 
BRANCH    7    8
ATOM     97  H4  UNL A   1       5.332  -4.914   3.515  1.00  0.00    +0.000 H 
ATOM     98  H5  UNL A   1       5.259  -7.339   3.587  1.00  0.00    +0.000 H 
ATOM     99  H6  UNL A   1       4.448  -8.589   1.672  1.00  0.00    +0.000 H 
ATOM    100  H7  UNL A   1       3.731  -7.418  -0.328  1.00  0.00    +0.000 H 
ATOM    101  H8  UNL A   1       3.786  -4.995  -0.397  1.00  0.00    +0.000 H 
ATOM      8  C5  UNL A   1       4.537  -4.762   1.564  1.00  0.00    +0.000 C 
ATOM      9  C6  UNL A   1       4.979  -5.443   2.703  1.00  0.00    +0.000 C 
ATOM     10  C7  UNL A   1       4.943  -6.839   2.742  1.00  0.00    +0.000 C 
ATOM     11  C8  UNL A   1       4.481  -7.558   1.639  1.00  0.00    +0.000 C 
ATOM     12  C9  UNL A   1       4.063  -6.885   0.492  1.00  0.00    +0.000 C 
ATOM     13  C10 UNL A   1       4.093  -5.491   0.454  1.00  0.00    +0.000 C 
ENDBRANCH    7    8
BRANCH   14   15
ATOM    102  H9  UNL A   1       1.725  -3.801   3.094  1.00  0.00    +0.000 H 
ATOM    103  H10 UNL A   1      -0.506  -4.668   2.702  1.00  0.00    +0.000 H 
ATOM    104  H11 UNL A   1      -1.589  -4.319   0.560  1.00  0.00    +0.000 H 
ATOM    105  H12 UNL A   1      -0.410  -3.164  -1.217  1.00  0.00    +0.000 H 
ATOM    106  H13 UNL A   1       1.856  -2.390  -0.858  1.00  0.00    +0.000 H 
ATOM     15  C12 UNL A   1       1.961  -2.989   1.159  1.00  0.00    +0.000 C 
ATOM     16  C13 UNL A   1       1.276  -3.666   2.175  1.00  0.00    +0.000 C 
ATOM     17  C14 UNL A   1      -0.012  -4.161   1.951  1.00  0.00    +0.000 C 
ATOM     18  C15 UNL A   1      -0.631  -3.971   0.717  1.00  0.00    +0.000 C 
ATOM     19  C16 UNL A   1       0.047  -3.310  -0.303  1.00  0.00    +0.000 C 
ATOM     20  C17 UNL A   1       1.344  -2.846  -0.087  1.00  0.00    +0.000 C 
ENDBRANCH   14   15
ENDBRANCH    3    4
ENDBRANCH    2    3
ENDBRANCH   21    2
ENDBRANCH   22   21
ENDBRANCH   23   22
ENDBRANCH   24   23
ENDBRANCH   25   24
ENDBRANCH   26   25
ENDBRANCH   27   26
ENDBRANCH   28   27
ENDBRANCH   29   28
ENDBRANCH   31   29
ENDBRANCH   35   34
BRANCH   39   40
ATOM     40  C33 UNL A   1      -2.105   5.162 -12.818  1.00  0.00    +0.000 C 
ATOM     41  C34 UNL A   1      -2.835   5.816 -13.835  1.00  0.00    +0.000 C 
ATOM     42  F1  UNL A   1      -2.216   6.278 -14.931  1.00  0.00    +0.000 F 
ATOM     43  C35 UNL A   1      -4.197   6.102 -13.704  1.00  0.00    +0.000 C 
ATOM     44  F2  UNL A   1      -4.814   6.845 -14.633  1.00  0.00    +0.000 F 
ATOM     45  C36 UNL A   1      -4.896   5.690 -12.586  1.00  0.00    +0.000 C 
ATOM     46  F3  UNL A   1      -6.185   6.019 -12.426  1.00  0.00    +0.000 F 
ATOM     47  C37 UNL A   1      -4.239   4.977 -11.608  1.00  0.00    +0.000 C 
ATOM     48  F4  UNL A   1      -4.895   4.585 -10.506  1.00  0.00    +0.000 F 
ATOM     49  C38 UNL A   1      -2.869   4.735 -11.710  1.00  0.00    +0.000 C 
ATOM     50  F5  UNL A   1      -2.320   4.170 -10.631  1.00  0.00    +0.000 F 
ENDBRANCH   39   40
BRANCH   56   57
ATOM     65  F9  UNL A   1       4.037  12.400 -14.290  1.00  0.00    +0.000 F 
ATOM     66  C49 UNL A   1       2.654  10.990 -12.994  1.00  0.00    +0.000 C 
ATOM     67  F10 UNL A   1       1.670  11.165 -13.890  1.00  0.00    +0.000 F 
ATOM     57  C44 UNL A   1       2.460  10.135 -11.900  1.00  0.00    +0.000 C 
ATOM     58  C45 UNL A   1       3.543   9.954 -11.022  1.00  0.00    +0.000 C 
ATOM     59  F6  UNL A   1       3.464   9.088 -10.004  1.00  0.00    +0.000 F 
ATOM     60  C46 UNL A   1       4.748  10.630 -11.213  1.00  0.00    +0.000 C 
ATOM     61  F7  UNL A   1       5.763  10.454 -10.353  1.00  0.00    +0.000 F 
ATOM     62  C47 UNL A   1       4.913  11.462 -12.309  1.00  0.00    +0.000 C 
ATOM     63  F8  UNL A   1       6.083  12.081 -12.516  1.00  0.00    +0.000 F 
ATOM     64  C48 UNL A   1       3.869  11.633 -13.204  1.00  0.00    +0.000 C 
ENDBRANCH   56   57
BRANCH   71   72
ATOM     72  C53 UNL A   1       0.301   9.783  -6.001  1.00  0.00    +0.000 C 
ATOM     73  C54 UNL A   1      -0.325  11.037  -5.900  1.00  0.00    +0.000 C 
ATOM     74  F11 UNL A   1      -0.222  11.923  -6.902  1.00  0.00    +0.000 F 
ATOM     75  C55 UNL A   1      -1.131  11.370  -4.806  1.00  0.00    +0.000 C 
ATOM     76  F12 UNL A   1      -1.768  12.549  -4.778  1.00  0.00    +0.000 F 
ATOM     77  C56 UNL A   1      -1.327  10.461  -3.780  1.00  0.00    +0.000 C 
ATOM     78  F13 UNL A   1      -2.155  10.751  -2.766  1.00  0.00    +0.000 F 
ATOM     79  C57 UNL A   1      -0.696   9.231  -3.832  1.00  0.00    +0.000 C 
ATOM     80  F14 UNL A   1      -0.909   8.329  -2.863  1.00  0.00    +0.000 F 
ATOM     81  C58 UNL A   1       0.107   8.897  -4.924  1.00  0.00    +0.000 C 
ATOM     82  F15 UNL A   1       0.610   7.655  -4.960  1.00  0.00    +0.000 F 
ENDBRANCH   71   72
TORSDOF 18