ROOT
ATOM    141  H46 UNL A   1     -15.494   9.690 -29.551  1.00  0.00    +0.000 H 
ATOM    142  H47 UNL A   1     -17.939  10.462 -29.078  1.00  0.00    +0.000 H 
ATOM    143  H48 UNL A   1     -16.689   8.089 -25.922  1.00  0.00    +0.000 H 
ATOM    144  H49 UNL A   1     -18.003   4.964 -20.522  1.00  0.00    +0.000 H 
ATOM    145  H50 UNL A   1     -15.590   4.291 -20.940  1.00  0.00    +0.000 H 
ATOM    146  H51 UNL A   1     -16.803   6.705 -24.100  1.00  0.00    +0.000 H 
ATOM    147  H52 UNL A   1     -21.470   8.212 -22.957  1.00  0.00    +0.000 H 
ATOM    148  H53 UNL A   1     -21.460   9.500 -25.170  1.00  0.00    +0.000 H 
ATOM    149  H54 UNL A   1     -11.911   6.813 -26.780  1.00  0.00    +0.000 H 
ATOM    150  H55 UNL A   1     -12.012   5.232 -24.768  1.00  0.00    +0.000 H 
ATOM     37  C32 UNL A   1     -14.472   5.356 -23.337  1.00  0.00    +0.000 C 
ATOM     38  C33 UNL A   1     -14.116   6.065 -24.612  1.00  0.00    +0.000 C 
ATOM     39  N3  UNL A   1     -14.842   6.879 -25.336  1.00  0.00    +0.000 N 
ATOM     40  C34 UNL A   1     -14.026   7.282 -26.384  1.00  0.00    +0.000 C 
ATOM     41  C35 UNL A   1     -14.332   8.087 -27.429  1.00  0.00    +0.000 C 
ATOM     53  C42 UNL A   1     -15.623   8.688 -27.644  1.00  0.00    +0.000 C 
ATOM     54  C43 UNL A   1     -16.051   9.455 -28.714  1.00  0.00    +0.000 C 
ATOM     55  C44 UNL A   1     -17.367   9.858 -28.466  1.00  0.00    +0.000 C 
ATOM     56  C45 UNL A   1     -17.773   9.310 -27.260  1.00  0.00    +0.000 C 
ATOM     57  N4  UNL A   1     -16.694   8.592 -26.768  1.00  0.00    +0.000 N 
ATOM     58  C46 UNL A   1     -19.047   9.435 -26.601  1.00  0.00    +0.000 C 
ATOM     70  C53 UNL A   1     -19.383   8.822 -25.440  1.00  0.00    +0.000 C 
ATOM     71  N5  UNL A   1     -18.618   7.979 -24.647  1.00  0.00    +0.000 N 
ATOM     72  C54 UNL A   1     -19.376   7.658 -23.627  1.00  0.00    +0.000 C 
ATOM     73  C55 UNL A   1     -19.067   6.759 -22.463  1.00  0.00    +0.000 C 
ATOM     85  C62 UNL A   1     -17.868   6.150 -22.398  1.00  0.00    +0.000 C 
ATOM     86  C63 UNL A   1     -17.429   5.263 -21.326  1.00  0.00    +0.000 C 
ATOM     87  C64 UNL A   1     -16.157   4.897 -21.553  1.00  0.00    +0.000 C 
ATOM     88  C65 UNL A   1     -15.703   5.497 -22.809  1.00  0.00    +0.000 C 
ATOM     89  N6  UNL A   1     -16.793   6.205 -23.252  1.00  0.00    +0.000 N 
ATOM     90  C66 UNL A   1     -20.707   8.280 -23.649  1.00  0.00    +0.000 C 
ATOM     91  C67 UNL A   1     -20.671   8.953 -24.791  1.00  0.00    +0.000 C 
ATOM     92  C68 UNL A   1     -12.737   6.654 -26.183  1.00  0.00    +0.000 C 
ATOM     93  C69 UNL A   1     -12.756   5.849 -25.130  1.00  0.00    +0.000 C 
ENDROOT
BRANCH   37   36
ATOM     33  C28 UNL A   1     -11.637   3.151 -21.007  1.00  0.00    +0.000 C 
ATOM     34  C29 UNL A   1     -12.681   2.473 -21.644  1.00  0.00    +0.000 C 
ATOM     35  C30 UNL A   1     -13.576   3.177 -22.451  1.00  0.00    +0.000 C 
ATOM     36  C31 UNL A   1     -13.452   4.568 -22.601  1.00  0.00    +0.000 C 
ATOM    139  H44 UNL A   1     -12.789   1.454 -21.517  1.00  0.00    +0.000 H 
ATOM    140  H45 UNL A   1     -14.333   2.674 -22.940  1.00  0.00    +0.000 H 
ATOM    151  H56 UNL A   1     -12.253   6.246 -22.127  1.00  0.00    +0.000 H 
ATOM    152  H57 UNL A   1     -10.610   4.992 -20.860  1.00  0.00    +0.000 H 
ATOM     94  C70 UNL A   1     -12.366   5.227 -22.004  1.00  0.00    +0.000 C 
ATOM     95  C71 UNL A   1     -11.439   4.514 -21.245  1.00  0.00    +0.000 C 
BRANCH   33   31
ATOM     31  C27 UNL A   1     -10.758   2.400 -20.085  1.00  0.00    +0.000 C 
ATOM     32  O3  UNL A   1     -10.338   1.294 -20.412  1.00  0.00    +0.000 O 
BRANCH   31   30
ATOM    138  H43 UNL A   1      -9.739   2.438 -18.362  1.00  0.00    +0.000 H 
ATOM     30  N2  UNL A   1     -10.435   2.926 -18.858  1.00  0.00    +0.000 N 
BRANCH   30   29
ATOM    137  H42 UNL A   1     -11.782   4.470 -18.774  1.00  0.00    +0.000 H 
ATOM     29  C26 UNL A   1     -10.971   4.098 -18.183  1.00  0.00    +0.000 C 
ATOM    136  H41 UNL A   1     -10.190   4.824 -18.084  1.00  0.00    +0.000 H 
BRANCH   29   28
ATOM     28  C25 UNL A   1     -11.518   3.777 -16.796  1.00  0.00    +0.000 C 
ATOM    134  H39 UNL A   1     -11.977   4.663 -16.407  1.00  0.00    +0.000 H 
ATOM    135  H40 UNL A   1     -12.202   2.965 -16.926  1.00  0.00    +0.000 H 
BRANCH   28   27
ATOM     27  C24 UNL A   1     -10.478   3.299 -15.781  1.00  0.00    +0.000 C 
ATOM    132  H37 UNL A   1     -10.978   3.129 -14.850  1.00  0.00    +0.000 H 
ATOM    133  H38 UNL A   1     -10.040   2.418 -16.202  1.00  0.00    +0.000 H 
BRANCH   27   26
ATOM     26  C23 UNL A   1      -9.316   4.264 -15.522  1.00  0.00    +0.000 C 
ATOM    130  H35 UNL A   1      -8.709   3.848 -14.745  1.00  0.00    +0.000 H 
ATOM    131  H36 UNL A   1      -8.809   4.369 -16.459  1.00  0.00    +0.000 H 
BRANCH   26   25
ATOM     25  C22 UNL A   1      -9.714   5.685 -15.100  1.00  0.00    +0.000 C 
ATOM    129  H34 UNL A   1     -10.286   6.092 -15.908  1.00  0.00    +0.000 H 
ATOM    128  H33 UNL A   1      -8.820   6.237 -14.899  1.00  0.00    +0.000 H 
BRANCH   25   24
ATOM    126  H31 UNL A   1     -10.875   6.776 -13.683  1.00  0.00    +0.000 H 
ATOM    127  H32 UNL A   1     -11.477   5.159 -14.039  1.00  0.00    +0.000 H 
ATOM     24  C21 UNL A   1     -10.607   5.756 -13.861  1.00  0.00    +0.000 C 
BRANCH   24   23
ATOM    125  H30 UNL A   1      -9.763   4.266 -12.685  1.00  0.00    +0.000 H 
ATOM     23  N1  UNL A   1      -9.931   5.236 -12.689  1.00  0.00    +0.000 N 
BRANCH   23   21
ATOM     21  C20 UNL A   1      -9.498   5.921 -11.591  1.00  0.00    +0.000 C 
ATOM     22  O2  UNL A   1      -8.861   5.317 -10.726  1.00  0.00    +0.000 O 
BRANCH   21   20
ATOM    124  H29 UNL A   1      -9.383   7.714 -10.543  1.00  0.00    +0.000 H 
ATOM    123  H28 UNL A   1     -10.914   7.490 -11.483  1.00  0.00    +0.000 H 
ATOM     20  C19 UNL A   1      -9.847   7.409 -11.457  1.00  0.00    +0.000 C 
BRANCH   20   19
ATOM     19  O1  UNL A   1      -9.330   8.301 -12.437  1.00  0.00    +0.000 O 
BRANCH   19   18
ATOM    121  H26 UNL A   1      -7.553   7.320 -12.700  1.00  0.00    +0.000 H 
ATOM     18  C18 UNL A   1      -7.904   8.314 -12.518  1.00  0.00    +0.000 C 
ATOM    122  H27 UNL A   1      -7.609   8.963 -13.316  1.00  0.00    +0.000 H 
BRANCH   18   17
ATOM     17  C17 UNL A   1      -7.309   8.819 -11.240  1.00  0.00    +0.000 C 
ATOM    120  H25 UNL A   1      -7.534   9.779 -10.937  1.00  0.00    +0.000 H 
BRANCH   17   16
ATOM    119  H24 UNL A   1      -6.192   7.162 -10.840  1.00  0.00    +0.000 H 
ATOM     16  C16 UNL A   1      -6.495   8.077 -10.473  1.00  0.00    +0.000 C 
BRANCH   16   15
ATOM    117  H22 UNL A   1      -4.928   8.397  -9.101  1.00  0.00    +0.000 H 
ATOM    118  H23 UNL A   1      -6.306   9.495  -8.943  1.00  0.00    +0.000 H 
ATOM     15  C15 UNL A   1      -5.995   8.486  -9.116  1.00  0.00    +0.000 C 
BRANCH   15   14
ATOM    115  H20 UNL A   1      -6.260   8.016  -7.050  1.00  0.00    +0.000 H 
ATOM    116  H21 UNL A   1      -7.643   7.634  -8.091  1.00  0.00    +0.000 H 
ATOM     14  C14 UNL A   1      -6.578   7.616  -7.990  1.00  0.00    +0.000 C 
BRANCH   14   13
ATOM    114  H19 UNL A   1      -6.491   5.612  -8.861  1.00  0.00    +0.000 H 
ATOM     13  C13 UNL A   1      -6.143   6.178  -8.071  1.00  0.00    +0.000 C 
BRANCH   13   12
ATOM    113  H18 UNL A   1      -5.011   6.133  -6.372  1.00  0.00    +0.000 H 
ATOM     12  C12 UNL A   1      -5.331   5.582  -7.183  1.00  0.00    +0.000 C 
BRANCH   12   11
ATOM     11  C11 UNL A   1      -4.861   4.161  -7.303  1.00  0.00    +0.000 C 
ATOM    111  H16 UNL A   1      -5.211   3.601  -6.461  1.00  0.00    +0.000 H 
ATOM    112  H17 UNL A   1      -5.248   3.741  -8.208  1.00  0.00    +0.000 H 
BRANCH   11   10
ATOM     10  C10 UNL A   1      -3.361   4.109  -7.343  1.00  0.00    +0.000 C 
ATOM    110  H15 UNL A   1      -2.879   4.616  -8.102  1.00  0.00    +0.000 H 
BRANCH   10    9
ATOM      9  C9  UNL A   1      -2.607   3.445  -6.452  1.00  0.00    +0.000 C 
ATOM    109  H14 UNL A   1      -3.090   2.906  -5.717  1.00  0.00    +0.000 H 
BRANCH    9    8
ATOM    107  H12 UNL A   1      -0.759   2.433  -6.581  1.00  0.00    +0.000 H 
ATOM    108  H13 UNL A   1      -0.759   4.049  -7.263  1.00  0.00    +0.000 H 
ATOM      8  C8  UNL A   1      -1.106   3.437  -6.457  1.00  0.00    +0.000 C 
BRANCH    8    7
ATOM    106  H11 UNL A   1      -0.817   4.960  -4.918  1.00  0.00    +0.000 H 
ATOM      7  C7  UNL A   1      -0.574   3.988  -5.165  1.00  0.00    +0.000 C 
BRANCH    7    6
ATOM    105  H10 UNL A   1       0.461   2.332  -4.570  1.00  0.00    +0.000 H 
ATOM      6  C6  UNL A   1       0.198   3.296  -4.311  1.00  0.00    +0.000 C 
BRANCH    6    5
ATOM      5  C5  UNL A   1       0.701   3.834  -3.003  1.00  0.00    +0.000 C 
ATOM    103  H8  UNL A   1       1.771   3.841  -3.014  1.00  0.00    +0.000 H 
ATOM    104  H9  UNL A   1       0.324   4.827  -2.873  1.00  0.00    +0.000 H 
BRANCH    5    4
ATOM      4  C4  UNL A   1       0.225   2.985  -1.859  1.00  0.00    +0.000 C 
ATOM    102  H7  UNL A   1      -0.792   2.904  -1.708  1.00  0.00    +0.000 H 
BRANCH    4    3
ATOM      3  C3  UNL A   1       1.040   2.324  -1.021  1.00  0.00    +0.000 C 
ATOM    101  H6  UNL A   1       2.058   2.409  -1.166  1.00  0.00    +0.000 H 
BRANCH    3    2
ATOM      2  C2  UNL A   1       0.558   1.467   0.113  1.00  0.00    +0.000 C 
ATOM     99  H4  UNL A   1       0.938   1.860   1.033  1.00  0.00    +0.000 H 
ATOM    100  H5  UNL A   1      -0.512   1.475   0.112  1.00  0.00    +0.000 H 
BRANCH    2    1
ATOM      1  C1  UNL A   1       1.028   0.029  -0.043  1.00  0.00    +0.000 C 
ATOM     98  H3  UNL A   1       0.648  -0.373  -0.959  1.00  0.00    +0.000 H 
ATOM     97  H2  UNL A   1       2.098   0.003  -0.059  1.00  0.00    +0.000 H 
ATOM     96  H1  UNL A   1       0.669  -0.555   0.779  1.00  0.00    +0.000 H 
ENDBRANCH    2    1
ENDBRANCH    3    2
ENDBRANCH    4    3
ENDBRANCH    5    4
ENDBRANCH    6    5
ENDBRANCH    7    6
ENDBRANCH    8    7
ENDBRANCH    9    8
ENDBRANCH   10    9
ENDBRANCH   11   10
ENDBRANCH   12   11
ENDBRANCH   13   12
ENDBRANCH   14   13
ENDBRANCH   15   14
ENDBRANCH   16   15
ENDBRANCH   17   16
ENDBRANCH   18   17
ENDBRANCH   19   18
ENDBRANCH   20   19
ENDBRANCH   21   20
ENDBRANCH   23   21
ENDBRANCH   24   23
ENDBRANCH   25   24
ENDBRANCH   26   25
ENDBRANCH   27   26
ENDBRANCH   28   27
ENDBRANCH   29   28
ENDBRANCH   30   29
ENDBRANCH   31   30
ENDBRANCH   33   31
ENDBRANCH   37   36
BRANCH   41   42
ATOM     42  C36 UNL A   1     -13.252   8.366 -28.432  1.00  0.00    +0.000 C 
ATOM     43  C37 UNL A   1     -12.826   7.386 -29.341  1.00  0.00    +0.000 C 
ATOM     44  F1  UNL A   1     -13.342   6.149 -29.291  1.00  0.00    +0.000 F 
ATOM     45  C38 UNL A   1     -11.843   7.667 -30.286  1.00  0.00    +0.000 C 
ATOM     46  F2  UNL A   1     -11.424   6.705 -31.120  1.00  0.00    +0.000 F 
ATOM     47  C39 UNL A   1     -11.291   8.937 -30.361  1.00  0.00    +0.000 C 
ATOM     48  F3  UNL A   1     -10.352   9.208 -31.278  1.00  0.00    +0.000 F 
ATOM     49  C40 UNL A   1     -11.709   9.925 -29.482  1.00  0.00    +0.000 C 
ATOM     50  F4  UNL A   1     -11.184  11.156 -29.560  1.00  0.00    +0.000 F 
ATOM     51  C41 UNL A   1     -12.673   9.641 -28.519  1.00  0.00    +0.000 C 
ATOM     52  F5  UNL A   1     -13.051  10.614 -27.676  1.00  0.00    +0.000 F 
ENDBRANCH   41   42
BRANCH   58   59
ATOM     65  F8  UNL A   1     -22.920  12.682 -29.120  1.00  0.00    +0.000 F 
ATOM     66  C51 UNL A   1     -21.676  10.675 -29.054  1.00  0.00    +0.000 C 
ATOM     67  F9  UNL A   1     -22.265  10.257 -30.183  1.00  0.00    +0.000 F 
ATOM     68  C52 UNL A   1     -20.737   9.866 -28.421  1.00  0.00    +0.000 C 
ATOM     69  F10 UNL A   1     -20.448   8.670 -28.955  1.00  0.00    +0.000 F 
ATOM     59  C47 UNL A   1     -20.091  10.292 -27.250  1.00  0.00    +0.000 C 
ATOM     60  C48 UNL A   1     -20.426  11.552 -26.733  1.00  0.00    +0.000 C 
ATOM     61  F6  UNL A   1     -19.849  11.994 -25.606  1.00  0.00    +0.000 F 
ATOM     62  C49 UNL A   1     -21.384  12.347 -27.356  1.00  0.00    +0.000 C 
ATOM     63  F7  UNL A   1     -21.718  13.531 -26.824  1.00  0.00    +0.000 F 
ATOM     64  C50 UNL A   1     -22.003  11.912 -28.519  1.00  0.00    +0.000 C 
ENDBRANCH   58   59
BRANCH   73   74
ATOM     74  C56 UNL A   1     -20.072   6.527 -21.395  1.00  0.00    +0.000 C 
ATOM     75  C57 UNL A   1     -21.219   5.762 -21.645  1.00  0.00    +0.000 C 
ATOM     76  F11 UNL A   1     -21.429   5.250 -22.866  1.00  0.00    +0.000 F 
ATOM     77  C58 UNL A   1     -22.174   5.553 -20.652  1.00  0.00    +0.000 C 
ATOM     78  F12 UNL A   1     -23.281   4.851 -20.928  1.00  0.00    +0.000 F 
ATOM     79  C59 UNL A   1     -21.986   6.083 -19.384  1.00  0.00    +0.000 C 
ATOM     80  F13 UNL A   1     -22.903   5.878 -18.428  1.00  0.00    +0.000 F 
ATOM     81  C60 UNL A   1     -20.851   6.831 -19.110  1.00  0.00    +0.000 C 
ATOM     82  F14 UNL A   1     -20.661   7.334 -17.883  1.00  0.00    +0.000 F 
ATOM     83  C61 UNL A   1     -19.908   7.061 -20.109  1.00  0.00    +0.000 C 
ATOM     84  F15 UNL A   1     -18.825   7.797 -19.820  1.00  0.00    +0.000 F 
ENDBRANCH   73   74
TORSDOF 34