ROOT
ATOM    135  H36 UNL A   1      -9.166   2.333  -6.327  1.00  0.00    +0.000 H 
ATOM    136  H37 UNL A   1     -10.013   0.065  -7.435  1.00  0.00    +0.000 H 
ATOM    137  H38 UNL A   1      -6.145   0.689  -8.426  1.00  0.00    +0.000 H 
ATOM    138  H39 UNL A   1      -5.670  -6.330  -4.213  1.00  0.00    +0.000 H 
ATOM    139  H40 UNL A   1      -7.006  -4.852  -2.623  1.00  0.00    +0.000 H 
ATOM    140  H41 UNL A   1      -5.939  -2.489  -5.864  1.00  0.00    +0.000 H 
ATOM    141  H42 UNL A   1      -3.236  -2.725  -7.590  1.00  0.00    +0.000 H 
ATOM    142  H43 UNL A   1      -4.855  -0.776  -8.085  1.00  0.00    +0.000 H 
ATOM    143  H44 UNL A   1      -4.848   2.089  -3.264  1.00  0.00    +0.000 H 
ATOM    144  H45 UNL A   1      -4.801  -0.241  -2.163  1.00  0.00    +0.000 H 
ATOM     39  C34 UNL A   1      -6.776  -2.018  -3.256  1.00  0.00    +0.000 C 
ATOM     40  C35 UNL A   1      -6.393  -0.660  -3.728  1.00  0.00    +0.000 C 
ATOM     41  N3  UNL A   1      -6.932   0.034  -4.675  1.00  0.00    +0.000 N 
ATOM     42  C36 UNL A   1      -6.184   1.206  -4.768  1.00  0.00    +0.000 C 
ATOM     43  C37 UNL A   1      -6.133   1.917  -5.929  1.00  0.00    +0.000 C 
ATOM     55  C44 UNL A   1      -7.207   1.536  -6.812  1.00  0.00    +0.000 C 
ATOM     56  C45 UNL A   1      -8.586   1.586  -6.739  1.00  0.00    +0.000 C 
ATOM     57  C46 UNL A   1      -9.033   0.381  -7.357  1.00  0.00    +0.000 C 
ATOM     58  C47 UNL A   1      -7.913  -0.296  -7.837  1.00  0.00    +0.000 C 
ATOM     59  N4  UNL A   1      -6.921   0.651  -7.822  1.00  0.00    +0.000 N 
ATOM     60  C48 UNL A   1      -7.690  -1.672  -8.202  1.00  0.00    +0.000 C 
ATOM     72  C55 UNL A   1      -6.468  -2.274  -8.263  1.00  0.00    +0.000 C 
ATOM     73  N5  UNL A   1      -6.361  -3.654  -8.204  1.00  0.00    +0.000 N 
ATOM     74  C56 UNL A   1      -5.189  -3.866  -7.677  1.00  0.00    +0.000 C 
ATOM     75  C57 UNL A   1      -4.939  -4.922  -6.671  1.00  0.00    +0.000 C 
ATOM     87  C64 UNL A   1      -5.569  -4.553  -5.529  1.00  0.00    +0.000 C 
ATOM     88  C65 UNL A   1      -5.896  -5.333  -4.359  1.00  0.00    +0.000 C 
ATOM     89  C66 UNL A   1      -6.546  -4.533  -3.490  1.00  0.00    +0.000 C 
ATOM     90  C67 UNL A   1      -6.502  -3.141  -3.959  1.00  0.00    +0.000 C 
ATOM     91  N6  UNL A   1      -5.997  -3.242  -5.233  1.00  0.00    +0.000 N 
ATOM     92  C68 UNL A   1      -4.257  -2.752  -7.734  1.00  0.00    +0.000 C 
ATOM     93  C69 UNL A   1      -5.116  -1.772  -8.029  1.00  0.00    +0.000 C 
ATOM     94  C70 UNL A   1      -5.365   1.256  -3.586  1.00  0.00    +0.000 C 
ATOM     95  C71 UNL A   1      -5.368   0.075  -2.966  1.00  0.00    +0.000 C 
ENDROOT
BRANCH   39   38
ATOM     97  C73 UNL A   1      -6.899  -3.017   0.290  1.00  0.00    +0.000 C 
ATOM     35  C30 UNL A   1      -7.888  -2.182   0.795  1.00  0.00    +0.000 C 
ATOM     36  C31 UNL A   1      -8.635  -1.358  -0.054  1.00  0.00    +0.000 C 
ATOM    133  H34 UNL A   1      -9.403  -0.778   0.318  1.00  0.00    +0.000 H 
ATOM     37  C32 UNL A   1      -8.321  -1.336  -1.411  1.00  0.00    +0.000 C 
ATOM     38  C33 UNL A   1      -7.224  -2.080  -1.870  1.00  0.00    +0.000 C 
ATOM    134  H35 UNL A   1      -8.888  -0.780  -2.070  1.00  0.00    +0.000 H 
ATOM    145  H46 UNL A   1      -5.593  -3.296  -1.316  1.00  0.00    +0.000 H 
ATOM    146  H47 UNL A   1      -6.492  -3.757   0.883  1.00  0.00    +0.000 H 
ATOM     96  C72 UNL A   1      -6.468  -2.853  -0.997  1.00  0.00    +0.000 C 
BRANCH   35   33
ATOM     33  C29 UNL A   1      -8.090  -2.168   2.258  1.00  0.00    +0.000 C 
ATOM     34  O2  UNL A   1      -9.196  -2.037   2.730  1.00  0.00    +0.000 O 
BRANCH   33   32
ATOM    132  H33 UNL A   1      -7.118  -2.704   3.957  1.00  0.00    +0.000 H 
ATOM     32  N2  UNL A   1      -6.970  -2.312   3.067  1.00  0.00    +0.000 N 
BRANCH   32   31
ATOM    130  H31 UNL A   1      -5.276  -2.520   1.893  1.00  0.00    +0.000 H 
ATOM    131  H32 UNL A   1      -5.577  -0.896   2.522  1.00  0.00    +0.000 H 
ATOM     31  C28 UNL A   1      -5.593  -1.944   2.736  1.00  0.00    +0.000 C 
BRANCH   31   30
ATOM    129  H30 UNL A   1      -5.035  -1.686   4.740  1.00  0.00    +0.000 H 
ATOM     30  C27 UNL A   1      -4.637  -2.197   3.889  1.00  0.00    +0.000 C 
ATOM    128  H29 UNL A   1      -3.669  -1.838   3.608  1.00  0.00    +0.000 H 
BRANCH   30   29
ATOM     29  C26 UNL A   1      -4.508  -3.678   4.280  1.00  0.00    +0.000 C 
ATOM    126  H27 UNL A   1      -3.922  -3.727   5.175  1.00  0.00    +0.000 H 
ATOM    127  H28 UNL A   1      -5.513  -4.030   4.384  1.00  0.00    +0.000 H 
BRANCH   29   28
ATOM    124  H25 UNL A   1      -3.701  -5.562   3.715  1.00  0.00    +0.000 H 
ATOM     28  C25 UNL A   1      -3.858  -4.612   3.248  1.00  0.00    +0.000 C 
ATOM    125  H26 UNL A   1      -4.532  -4.645   2.417  1.00  0.00    +0.000 H 
BRANCH   28   27
ATOM    122  H23 UNL A   1      -2.101  -4.935   2.101  1.00  0.00    +0.000 H 
ATOM     27  C24 UNL A   1      -2.518  -4.139   2.682  1.00  0.00    +0.000 C 
ATOM    123  H24 UNL A   1      -2.725  -3.263   2.104  1.00  0.00    +0.000 H 
BRANCH   27   26
ATOM    121  H22 UNL A   1      -1.994  -3.121   4.457  1.00  0.00    +0.000 H 
ATOM     26  C23 UNL A   1      -1.492  -3.731   3.736  1.00  0.00    +0.000 C 
ATOM    120  H21 UNL A   1      -0.698  -3.200   3.254  1.00  0.00    +0.000 H 
BRANCH   26   25
ATOM     25  N1  UNL A   1      -0.933  -4.863   4.436  1.00  0.00    +0.000 N 
ATOM    119  H20 UNL A   1      -1.569  -5.384   4.978  1.00  0.00    +0.000 H 
BRANCH   25   23
ATOM     23  C22 UNL A   1       0.358  -5.309   4.449  1.00  0.00    +0.000 C 
ATOM     24  O1  UNL A   1       0.633  -6.232   5.220  1.00  0.00    +0.000 O 
BRANCH   23   22
ATOM    118  H19 UNL A   1       2.334  -5.193   3.744  1.00  0.00    +0.000 H 
ATOM    117  H18 UNL A   1       1.518  -3.620   3.905  1.00  0.00    +0.000 H 
ATOM     22  C21 UNL A   1       1.430  -4.641   3.597  1.00  0.00    +0.000 C 
BRANCH   22   21
ATOM      2  C2  UNL A   1       0.602  -1.474   0.339  1.00  0.00    +0.000 C 
ATOM     99  C74 UNL A   1       1.261  -2.109   1.599  1.00  0.00    +0.000 C 
ATOM      4  C4  UNL A   1       0.757  -2.575  -0.763  1.00  0.00    +0.000 C 
ATOM      5  C5  UNL A   1       0.831  -3.815   0.047  1.00  0.00    +0.000 C 
ATOM     98  N7  UNL A   1       1.106  -3.538   1.357  1.00  0.00    +0.000 N 
ATOM      6  C6  UNL A   1       0.705  -5.171  -0.074  1.00  0.00    +0.000 C 
ATOM    106  H7  UNL A   1       1.650  -2.430  -1.334  1.00  0.00    +0.000 H 
ATOM    107  H8  UNL A   1      -0.033  -2.578  -1.484  1.00  0.00    +0.000 H 
ATOM     13  C13 UNL A   1       0.914  -5.722   1.241  1.00  0.00    +0.000 C 
ATOM    147  H48 UNL A   1       0.752  -1.811   2.492  1.00  0.00    +0.000 H 
ATOM    148  H49 UNL A   1       2.278  -1.810   1.741  1.00  0.00    +0.000 H 
ATOM     21  C20 UNL A   1       1.137  -4.666   2.126  1.00  0.00    +0.000 C 
BRANCH    2    1
ATOM      1  C1  UNL A   1       1.292  -0.167  -0.049  1.00  0.00    +0.000 C 
ATOM    100  H1  UNL A   1       0.817   0.244  -0.915  1.00  0.00    +0.000 H 
ATOM    101  H2  UNL A   1       2.322  -0.357  -0.263  1.00  0.00    +0.000 H 
ATOM    102  H3  UNL A   1       1.219   0.529   0.761  1.00  0.00    +0.000 H 
ENDBRANCH    2    1
BRANCH    2    3
ATOM    105  H6  UNL A   1      -1.399  -2.103   0.809  1.00  0.00    +0.000 H 
ATOM      3  C3  UNL A   1      -0.893  -1.188   0.582  1.00  0.00    +0.000 C 
ATOM    103  H4  UNL A   1      -1.320  -0.753  -0.298  1.00  0.00    +0.000 H 
ATOM    104  H5  UNL A   1      -0.997  -0.509   1.402  1.00  0.00    +0.000 H 
ENDBRANCH    2    3
BRANCH    6    7
ATOM      7  C7  UNL A   1       0.458  -5.908  -1.294  1.00  0.00    +0.000 C 
ATOM      8  C8  UNL A   1       1.430  -5.950  -2.296  1.00  0.00    +0.000 C 
ATOM      9  C9  UNL A   1       1.319  -6.885  -3.324  1.00  0.00    +0.000 C 
ATOM     10  C10 UNL A   1       0.234  -7.764  -3.361  1.00  0.00    +0.000 C 
ATOM     11  C11 UNL A   1      -0.770  -7.681  -2.398  1.00  0.00    +0.000 C 
ATOM     12  C12 UNL A   1      -0.657  -6.755  -1.365  1.00  0.00    +0.000 C 
ATOM    108  H9  UNL A   1       2.225  -5.292  -2.276  1.00  0.00    +0.000 H 
ATOM    109  H10 UNL A   1       2.041  -6.928  -4.061  1.00  0.00    +0.000 H 
ATOM    111  H12 UNL A   1      -1.592  -8.303  -2.451  1.00  0.00    +0.000 H 
ATOM    112  H13 UNL A   1      -1.397  -6.691  -0.649  1.00  0.00    +0.000 H 
ATOM    110  H11 UNL A   1       0.175  -8.479  -4.103  1.00  0.00    +0.000 H 
ENDBRANCH    6    7
BRANCH   13   14
ATOM     14  C14 UNL A   1       0.926  -7.142   1.575  1.00  0.00    +0.000 C 
ATOM     15  C15 UNL A   1       1.891  -7.979   0.994  1.00  0.00    +0.000 C 
ATOM     16  C16 UNL A   1       1.824  -9.364   1.163  1.00  0.00    +0.000 C 
ATOM    113  H14 UNL A   1       2.657  -7.567   0.438  1.00  0.00    +0.000 H 
ATOM     17  C17 UNL A   1       0.798  -9.917   1.926  1.00  0.00    +0.000 C 
ATOM     19  C18 UNL A   1      -0.164  -9.097   2.513  1.00  0.00    +0.000 C 
ATOM     20  C19 UNL A   1      -0.108  -7.714   2.322  1.00  0.00    +0.000 C 
ATOM    116  H17 UNL A   1      -0.835  -7.110   2.737  1.00  0.00    +0.000 H 
ATOM    114  H15 UNL A   1       2.531  -9.975   0.725  1.00  0.00    +0.000 H 
ATOM    115  H16 UNL A   1      -0.915  -9.511   3.087  1.00  0.00    +0.000 H 
ATOM     18 Cl1  UNL A   1       0.698 -11.624   2.118  1.00  0.00    +0.000 Cl
ENDBRANCH   13   14
ENDBRANCH   22   21
ENDBRANCH   23   22
ENDBRANCH   25   23
ENDBRANCH   26   25
ENDBRANCH   27   26
ENDBRANCH   28   27
ENDBRANCH   29   28
ENDBRANCH   30   29
ENDBRANCH   31   30
ENDBRANCH   32   31
ENDBRANCH   33   32
ENDBRANCH   35   33
ENDBRANCH   39   38
BRANCH   43   44
ATOM     44  C38 UNL A   1      -4.925   2.683  -6.422  1.00  0.00    +0.000 C 
ATOM     45  C39 UNL A   1      -5.037   3.455  -7.598  1.00  0.00    +0.000 C 
ATOM     46  F1  UNL A   1      -6.239   3.721  -8.130  1.00  0.00    +0.000 F 
ATOM     47  C40 UNL A   1      -3.915   3.896  -8.306  1.00  0.00    +0.000 C 
ATOM     48  F2  UNL A   1      -4.072   4.514  -9.484  1.00  0.00    +0.000 F 
ATOM     49  C41 UNL A   1      -2.642   3.637  -7.835  1.00  0.00    +0.000 C 
ATOM     50  F3  UNL A   1      -1.565   4.004  -8.542  1.00  0.00    +0.000 F 
ATOM     51  C42 UNL A   1      -2.490   2.952  -6.650  1.00  0.00    +0.000 C 
ATOM     52  F4  UNL A   1      -1.263   2.678  -6.183  1.00  0.00    +0.000 F 
ATOM     53  C43 UNL A   1      -3.605   2.464  -5.970  1.00  0.00    +0.000 C 
ATOM     54  F5  UNL A   1      -3.328   1.685  -4.919  1.00  0.00    +0.000 F 
ENDBRANCH   43   44
BRANCH   60   61
ATOM     65  F7  UNL A   1     -10.683  -5.233  -6.535  1.00  0.00    +0.000 F 
ATOM     66  C52 UNL A   1     -11.301  -4.028  -8.467  1.00  0.00    +0.000 C 
ATOM     67  F8  UNL A   1     -12.453  -4.709  -8.542  1.00  0.00    +0.000 F 
ATOM     68  C53 UNL A   1     -11.015  -3.040  -9.397  1.00  0.00    +0.000 C 
ATOM     69  F9  UNL A   1     -11.902  -2.751 -10.359  1.00  0.00    +0.000 F 
ATOM     70  C54 UNL A   1      -9.823  -2.325  -9.321  1.00  0.00    +0.000 C 
ATOM     71  F10 UNL A   1      -9.587  -1.363 -10.226  1.00  0.00    +0.000 F 
ATOM     61  C49 UNL A   1      -8.899  -2.563  -8.298  1.00  0.00    +0.000 C 
ATOM     62  C50 UNL A   1      -9.227  -3.547  -7.348  1.00  0.00    +0.000 C 
ATOM     63  F6  UNL A   1      -8.440  -3.768  -6.288  1.00  0.00    +0.000 F 
ATOM     64  C51 UNL A   1     -10.404  -4.289  -7.446  1.00  0.00    +0.000 C 
ENDBRANCH   60   61
BRANCH   75   76
ATOM     76  C58 UNL A   1      -3.794  -5.841  -6.803  1.00  0.00    +0.000 C 
ATOM     77  C59 UNL A   1      -3.517  -6.503  -8.009  1.00  0.00    +0.000 C 
ATOM     78  F11 UNL A   1      -4.433  -6.524  -8.988  1.00  0.00    +0.000 F 
ATOM     79  C60 UNL A   1      -2.263  -7.069  -8.258  1.00  0.00    +0.000 C 
ATOM     80  F12 UNL A   1      -2.009  -7.651  -9.438  1.00  0.00    +0.000 F 
ATOM     81  C61 UNL A   1      -1.247  -6.947  -7.326  1.00  0.00    +0.000 C 
ATOM     82  F13 UNL A   1      -0.017  -7.408  -7.591  1.00  0.00    +0.000 F 
ATOM     83  C62 UNL A   1      -1.494  -6.280  -6.141  1.00  0.00    +0.000 C 
ATOM     84  F14 UNL A   1      -0.482  -6.001  -5.318  1.00  0.00    +0.000 F 
ATOM     85  C63 UNL A   1      -2.757  -5.773  -5.860  1.00  0.00    +0.000 C 
ATOM     86  F15 UNL A   1      -2.917  -5.093  -4.714  1.00  0.00    +0.000 F 
ENDBRANCH   75   76
TORSDOF 20