REMARK  Name = 
REMARK  15 active torsions:
REMARK  status: ('A' for Active; 'I' for Inactive)
REMARK    1  A    between atoms: C_2  and  C_3
REMARK    2  A    between atoms: C_3  and  C_4
REMARK    3  A    between atoms: N_7  and  C_8
REMARK    4  A    between atoms: N_14  and  C_15
REMARK    5  A    between atoms: C_15  and  C_16
REMARK    6  A    between atoms: C_16  and  C_17
REMARK    7  A    between atoms: C_17  and  C_18
REMARK    8  A    between atoms: C_18  and  C_19
REMARK    9  A    between atoms: C_19  and  C_20
REMARK   10  A    between atoms: C_20  and  N_21
REMARK   11  A    between atoms: C_22  and  C_24
REMARK   12  A    between atoms: C_27  and  C_28
REMARK   13  A    between atoms: C_32  and  C_33
REMARK   14  A    between atoms: C_49  and  C_50
REMARK   15  A    between atoms: C_64  and  C_65
REMARK                            x       y       z     vdW  Elec       q    Type
REMARK                         _______ _______ _______ _____ _____    ______ ____
ROOT
ATOM      1  C   UNL     1      16.992  -3.096  -5.603  0.00  0.00    +0.000 C 
ATOM      2  C   UNL     1      17.533  -1.801  -6.113  0.00  0.00    +0.000 C 
ATOM      3  N   UNL     1      18.767  -1.372  -6.109  0.00  0.00    +0.000 NA
ATOM      4  C   UNL     1      18.727  -0.118  -6.691  0.00  0.00    +0.000 C 
ATOM      5  C   UNL     1      19.747   0.747  -6.880  0.00  0.00    +0.000 C 
ATOM      6  C   UNL     1      21.109   0.490  -6.505  0.00  0.00    +0.000 A 
ATOM      7  C   UNL     1      22.198   1.335  -6.628  0.00  0.00    +0.000 A 
ATOM      8  C   UNL     1      23.337   0.646  -6.200  0.00  0.00    +0.000 A 
ATOM      9  C   UNL     1      22.952  -0.610  -5.764  0.00  0.00    +0.000 A 
ATOM     10  N   UNL     1      21.575  -0.699  -5.951  0.00  0.00    +0.000 N 
ATOM     11  C   UNL     1      23.787  -1.652  -5.234  0.00  0.00    +0.000 C 
ATOM     12  C   UNL     1      23.327  -2.849  -4.806  0.00  0.00    +0.000 C 
ATOM     13  N   UNL     1      22.019  -3.299  -4.782  0.00  0.00    +0.000 NA
ATOM     14  C   UNL     1      22.073  -4.514  -4.295  0.00  0.00    +0.000 C 
ATOM     15  C   UNL     1      20.956  -5.465  -4.032  0.00  0.00    +0.000 C 
ATOM     16  C   UNL     1      19.697  -5.112  -4.347  0.00  0.00    +0.000 A 
ATOM     17  C   UNL     1      18.522  -5.946  -4.114  0.00  0.00    +0.000 A 
ATOM     18  C   UNL     1      17.433  -5.302  -4.559  0.00  0.00    +0.000 A 
ATOM     19  C   UNL     1      17.838  -4.004  -5.091  0.00  0.00    +0.000 A 
ATOM     20  N   UNL     1      19.203  -3.969  -4.928  0.00  0.00    +0.000 N 
ATOM     21  C   UNL     1      23.426  -4.974  -3.958  0.00  0.00    +0.000 C 
ATOM     22  C   UNL     1      24.154  -3.912  -4.279  0.00  0.00    +0.000 C 
ATOM     23  C   UNL     1      17.353   0.137  -7.063  0.00  0.00    +0.000 C 
ATOM     24  C   UNL     1      16.566  -0.867  -6.704  0.00  0.00    +0.000 C 
ATOM     25  H   UNL     1      20.998  -1.513  -5.726  0.00  0.00    +0.000 HD
ATOM     26  H   UNL     1      19.786  -3.169  -5.191  0.00  0.00    +0.000 HD
ENDROOT
BRANCH   5  27
ATOM     27  C   UNL     1      19.417   2.059  -7.518  0.00  0.00    +0.000 A 
ATOM     28  C   UNL     1      19.051   3.166  -6.740  0.00  0.00    +0.000 A 
ATOM     29  F   UNL     1      18.969   3.055  -5.406  0.00  0.00    +0.000 F 
ATOM     30  C   UNL     1      18.747   4.386  -7.335  0.00  0.00    +0.000 A 
ATOM     31  F   UNL     1      18.370   5.426  -6.577  0.00  0.00    +0.000 F 
ATOM     32  C   UNL     1      18.818   4.526  -8.714  0.00  0.00    +0.000 A 
ATOM     33  F   UNL     1      18.509   5.698  -9.286  0.00  0.00    +0.000 F 
ATOM     34  C   UNL     1      19.187   3.444  -9.500  0.00  0.00    +0.000 A 
ATOM     35  F   UNL     1      19.246   3.576 -10.833  0.00  0.00    +0.000 F 
ATOM     36  C   UNL     1      19.480   2.217  -8.909  0.00  0.00    +0.000 A 
ATOM     37  F   UNL     1      19.803   1.178  -9.692  0.00  0.00    +0.000 F 
ENDBRANCH   5  27
BRANCH  11  38
ATOM     38  C   UNL     1      25.263  -1.418  -5.137  0.00  0.00    +0.000 A 
ATOM     39  C   UNL     1      26.118  -1.743  -6.199  0.00  0.00    +0.000 A 
ATOM     40  F   UNL     1      25.618  -2.266  -7.329  0.00  0.00    +0.000 F 
ATOM     41  C   UNL     1      27.494  -1.548  -6.096  0.00  0.00    +0.000 A 
ATOM     42  F   UNL     1      28.296  -1.895  -7.111  0.00  0.00    +0.000 F 
ATOM     43  C   UNL     1      28.039  -1.010  -4.937  0.00  0.00    +0.000 A 
ATOM     44  F   UNL     1      29.365  -0.836  -4.837  0.00  0.00    +0.000 F 
ATOM     45  C   UNL     1      27.206  -0.666  -3.882  0.00  0.00    +0.000 A 
ATOM     46  F   UNL     1      27.730  -0.149  -2.761  0.00  0.00    +0.000 F 
ATOM     47  C   UNL     1      25.832  -0.868  -3.979  0.00  0.00    +0.000 A 
ATOM     48  F   UNL     1      25.051  -0.545  -2.937  0.00  0.00    +0.000 F 
ENDBRANCH  11  38
BRANCH  15  49
ATOM     49  C   UNL     1      21.201  -6.790  -3.421  0.00  0.00    +0.000 A 
ATOM     50  C   UNL     1      21.418  -7.922  -4.215  0.00  0.00    +0.000 A 
ATOM     51  F   UNL     1      21.502  -7.801  -5.547  0.00  0.00    +0.000 F 
ATOM     52  C   UNL     1      21.544  -9.185  -3.638  0.00  0.00    +0.000 A 
ATOM     53  F   UNL     1      21.734 -10.259  -4.416  0.00  0.00    +0.000 F 
ATOM     54  C   UNL     1      21.462  -9.329  -2.261  0.00  0.00    +0.000 A 
ATOM     55  F   UNL     1      21.572 -10.546  -1.707  0.00  0.00    +0.000 F 
ATOM     56  C   UNL     1      21.270  -8.214  -1.457  0.00  0.00    +0.000 A 
ATOM     57  F   UNL     1      21.205  -8.347  -0.125  0.00  0.00    +0.000 F 
ATOM     58  C   UNL     1      21.143  -6.952  -2.033  0.00  0.00    +0.000 A 
ATOM     59  F   UNL     1      20.950  -5.882  -1.248  0.00  0.00    +0.000 F 
ENDBRANCH  15  49
BRANCH   1  63
ATOM     60  C   UNL     1      12.763  -3.673  -5.873  0.00  0.00    +0.000 A 
ATOM     61  C   UNL     1      13.325  -3.166  -4.694  0.00  0.00    +0.000 A 
ATOM     62  C   UNL     1      14.710  -3.014  -4.590  0.00  0.00    +0.000 A 
ATOM     63  C   UNL     1      15.540  -3.371  -5.663  0.00  0.00    +0.000 A 
ATOM     64  C   UNL     1      14.979  -3.940  -6.813  0.00  0.00    +0.000 A 
ATOM     65  C   UNL     1      13.594  -4.090  -6.919  0.00  0.00    +0.000 A 
BRANCH  60  67
ATOM     66  N   UNL     1      10.534  -2.823  -5.402  0.00  0.00    +0.000 N 
ATOM     67  C   UNL     1      11.295  -3.759  -6.088  0.00  0.00    +0.000 C 
ATOM     68  O   UNL     1      10.869  -4.587  -6.887  0.00  0.00    +0.000 OA
ATOM     69  H   UNL     1      10.991  -2.139  -4.806  0.00  0.00    +0.000 HD
BRANCH  66  70
ATOM     70  C   UNL     1       9.092  -2.695  -5.576  0.00  0.00    +0.000 C 
BRANCH  70  71
ATOM     71  C   UNL     1       8.327  -3.544  -4.567  0.00  0.00    +0.000 C 
BRANCH  71  72
ATOM     72  C   UNL     1       6.816  -3.407  -4.767  0.00  0.00    +0.000 C 
BRANCH  72  73
ATOM     73  C   UNL     1       6.038  -4.256  -3.760  0.00  0.00    +0.000 C 
BRANCH  73  74
ATOM     74  C   UNL     1       4.524  -4.127  -3.953  0.00  0.00    +0.000 C 
BRANCH  74  75
ATOM     75  C   UNL     1       3.772  -4.986  -2.937  0.00  0.00    +0.000 C 
BRANCH  75  78
ATOM     76  O   UNL     1       1.999  -3.079  -1.797  0.00  0.00    +0.000 OA
ATOM     77  C   UNL     1       1.554  -3.959  -2.529  0.00  0.00    +0.000 C 
ATOM     78  N   UNL     1       2.335  -4.929  -3.116  0.00  0.00    +0.000 N 
ATOM     79  H   UNL     1       1.908  -5.569  -3.771  0.00  0.00    +0.000 HD
BRANCH  77  80
ATOM     80  C   UNL     1       0.068  -4.062  -2.878  0.00  0.00    +0.000 C 
BRANCH  80  81
ATOM     81  C   UNL     1      -0.338  -3.233  -4.072  0.00  0.00    +0.000 A 
ATOM     82  C   UNL     1      -0.182  -1.794  -3.992  0.00  0.00    +0.000 A 
ATOM     83  C   UNL     1      -0.637  -1.010  -4.979  0.00  0.00    +0.000 A 
ATOM     84  N   UNL     1      -1.233  -1.542  -6.105  0.00  0.00    +0.000 N 
ATOM     85  C   UNL     1      -1.408  -2.902  -6.280  0.00  0.00    +0.000 A 
ATOM     86  O   UNL     1      -1.908  -3.410  -7.276  0.00  0.00    +0.000 OA
ATOM     87  C   UNL     1      -0.922  -3.765  -5.162  0.00  0.00    +0.000 A 
BRANCH  84  88
ATOM     88  C   UNL     1      -1.800  -0.695  -7.117  0.00  0.00    +0.000 C 
ATOM     89  F   UNL     1      -3.089  -0.399  -6.797  0.00  0.00    +0.000 F 
ATOM     90  F   UNL     1      -1.146   0.493  -7.201  0.00  0.00    +0.000 F 
ENDBRANCH  84  88
ENDBRANCH  80  81
ENDBRANCH  77  80
ENDBRANCH  75  78
ENDBRANCH  74  75
ENDBRANCH  73  74
ENDBRANCH  72  73
ENDBRANCH  71  72
ENDBRANCH  70  71
ENDBRANCH  66  70
ENDBRANCH  60  67
ENDBRANCH   1  63
TORSDOF 15
