ROOT
ATOM    140  H46 UNL A   1     -21.497  18.062   7.710  1.00  0.00    +0.000 H 
ATOM    141  H47 UNL A   1     -22.333  17.992  10.178  1.00  0.00    +0.000 H 
ATOM    142  H48 UNL A   1     -19.774  14.793   9.580  1.00  0.00    +0.000 H 
ATOM    143  H49 UNL A   1     -16.984   9.482  11.762  1.00  0.00    +0.000 H 
ATOM    144  H50 UNL A   1     -16.113   9.600   9.380  1.00  0.00    +0.000 H 
ATOM    145  H51 UNL A   1     -18.609  12.869   9.982  1.00  0.00    +0.000 H 
ATOM    146  H52 UNL A   1     -20.182  12.563  14.739  1.00  0.00    +0.000 H 
ATOM    147  H53 UNL A   1     -21.696  14.561  14.227  1.00  0.00    +0.000 H 
ATOM    148  H54 UNL A   1     -17.936  15.156   4.932  1.00  0.00    +0.000 H 
ATOM    149  H55 UNL A   1     -16.830  12.868   5.238  1.00  0.00    +0.000 H 
ATOM     36  C31 UNL A   1     -17.131  11.789   7.863  1.00  0.00    +0.000 C 
ATOM     37  C32 UNL A   1     -17.729  13.052   7.312  1.00  0.00    +0.000 C 
ATOM     38  N3  UNL A   1     -18.509  13.923   7.902  1.00  0.00    +0.000 N 
ATOM     39  C33 UNL A   1     -18.763  14.907   6.957  1.00  0.00    +0.000 C 
ATOM     40  C34 UNL A   1     -19.585  15.980   7.053  1.00  0.00    +0.000 C 
ATOM     52  C41 UNL A   1     -20.345  16.314   8.230  1.00  0.00    +0.000 C 
ATOM     53  C42 UNL A   1     -21.228  17.364   8.420  1.00  0.00    +0.000 C 
ATOM     54  C43 UNL A   1     -21.691  17.314   9.739  1.00  0.00    +0.000 C 
ATOM     55  C44 UNL A   1     -21.143  16.201  10.354  1.00  0.00    +0.000 C 
ATOM     56  N4  UNL A   1     -20.310  15.603   9.421  1.00  0.00    +0.000 N 
ATOM     57  C45 UNL A   1     -21.364  15.716  11.693  1.00  0.00    +0.000 C 
ATOM     69  C52 UNL A   1     -20.790  14.607  12.222  1.00  0.00    +0.000 C 
ATOM     70  N5  UNL A   1     -19.889  13.725  11.640  1.00  0.00    +0.000 N 
ATOM     71  C53 UNL A   1     -19.601  12.842  12.566  1.00  0.00    +0.000 C 
ATOM     72  C54 UNL A   1     -18.701  11.638  12.486  1.00  0.00    +0.000 C 
ATOM     84  C61 UNL A   1     -18.085  11.363  11.321  1.00  0.00    +0.000 C 
ATOM     85  C62 UNL A   1     -17.215  10.217  11.076  1.00  0.00    +0.000 C 
ATOM     86  C63 UNL A   1     -16.764  10.274   9.813  1.00  0.00    +0.000 C 
ATOM     87  C64 UNL A   1     -17.342  11.443   9.148  1.00  0.00    +0.000 C 
ATOM     88  N6  UNL A   1     -18.101  12.038  10.125  1.00  0.00    +0.000 N 
ATOM     89  C65 UNL A   1     -20.273  13.080  13.851  1.00  0.00    +0.000 C 
ATOM     90  C66 UNL A   1     -21.026  14.133  13.569  1.00  0.00    +0.000 C 
ATOM     91  C67 UNL A   1     -18.000  14.567   5.776  1.00  0.00    +0.000 C 
ATOM     92  C68 UNL A   1     -17.392  13.398   5.922  1.00  0.00    +0.000 C 
ENDROOT
BRANCH   36   35
ATOM     33  C28 UNL A   1     -15.885   8.754   5.969  1.00  0.00    +0.000 C 
ATOM     34  C29 UNL A   1     -16.710   9.610   6.698  1.00  0.00    +0.000 C 
ATOM     35  C30 UNL A   1     -16.287  10.913   7.010  1.00  0.00    +0.000 C 
ATOM    138  H44 UNL A   1     -16.186   7.787   5.772  1.00  0.00    +0.000 H 
ATOM    139  H45 UNL A   1     -17.639   9.284   7.010  1.00  0.00    +0.000 H 
ATOM    150  H56 UNL A   1     -14.731  12.320   6.747  1.00  0.00    +0.000 H 
ATOM    151  H57 UNL A   1     -13.396  10.899   5.304  1.00  0.00    +0.000 H 
ATOM     93  C69 UNL A   1     -15.055  11.367   6.520  1.00  0.00    +0.000 C 
ATOM     94  C70 UNL A   1     -14.264  10.536   5.728  1.00  0.00    +0.000 C 
ATOM     32  C27 UNL A   1     -14.648   9.210   5.507  1.00  0.00    +0.000 C 
BRANCH   32   30
ATOM     30  C26 UNL A   1     -13.787   8.259   4.768  1.00  0.00    +0.000 C 
ATOM     31  O2  UNL A   1     -14.285   7.488   3.962  1.00  0.00    +0.000 O 
BRANCH   30   29
ATOM    137  H43 UNL A   1     -11.928   7.607   4.431  1.00  0.00    +0.000 H 
ATOM     29  N2  UNL A   1     -12.436   8.217   5.013  1.00  0.00    +0.000 N 
BRANCH   29   28
ATOM     28  C25 UNL A   1     -11.642   8.932   5.996  1.00  0.00    +0.000 C 
ATOM    135  H41 UNL A   1     -11.179   9.770   5.518  1.00  0.00    +0.000 H 
ATOM    136  H42 UNL A   1     -12.301   9.237   6.782  1.00  0.00    +0.000 H 
BRANCH   28   27
ATOM     27  C24 UNL A   1     -10.553   8.065   6.621  1.00  0.00    +0.000 C 
ATOM    133  H39 UNL A   1      -9.972   8.684   7.272  1.00  0.00    +0.000 H 
ATOM    134  H40 UNL A   1     -11.062   7.270   7.124  1.00  0.00    +0.000 H 
BRANCH   27   26
ATOM     26  C23 UNL A   1      -9.598   7.395   5.630  1.00  0.00    +0.000 C 
ATOM    131  H37 UNL A   1      -8.785   6.979   6.188  1.00  0.00    +0.000 H 
ATOM    132  H38 UNL A   1     -10.184   6.667   5.109  1.00  0.00    +0.000 H 
BRANCH   26   25
ATOM     25  C22 UNL A   1      -9.010   8.309   4.550  1.00  0.00    +0.000 C 
ATOM    130  H36 UNL A   1      -9.846   8.754   4.052  1.00  0.00    +0.000 H 
ATOM    129  H35 UNL A   1      -8.396   7.711   3.909  1.00  0.00    +0.000 H 
BRANCH   25   24
ATOM    128  H34 UNL A   1      -8.727  10.001   5.806  1.00  0.00    +0.000 H 
ATOM    127  H33 UNL A   1      -7.909  10.114   4.247  1.00  0.00    +0.000 H 
ATOM     24  C21 UNL A   1      -8.158   9.474   5.069  1.00  0.00    +0.000 C 
BRANCH   24   23
ATOM    125  H31 UNL A   1      -6.917   9.193   6.771  1.00  0.00    +0.000 H 
ATOM    126  H32 UNL A   1      -6.787   7.936   5.533  1.00  0.00    +0.000 H 
ATOM     23  C20 UNL A   1      -6.870   8.986   5.722  1.00  0.00    +0.000 C 
BRANCH   23   22
ATOM    124  H30 UNL A   1      -5.807  10.047   4.288  1.00  0.00    +0.000 H 
ATOM     22  N1  UNL A   1      -5.690   9.629   5.172  1.00  0.00    +0.000 N 
BRANCH   22   20
ATOM     20  C19 UNL A   1      -4.446   9.734   5.709  1.00  0.00    +0.000 C 
ATOM     21  O1  UNL A   1      -3.498   9.544   4.939  1.00  0.00    +0.000 O 
BRANCH   20   19
ATOM    122  H28 UNL A   1      -4.363   9.124   7.713  1.00  0.00    +0.000 H 
ATOM     19  C18 UNL A   1      -4.166  10.026   7.173  1.00  0.00    +0.000 C 
ATOM    123  H29 UNL A   1      -3.157  10.382   7.167  1.00  0.00    +0.000 H 
BRANCH   19   18
ATOM    121  H27 UNL A   1      -5.097  11.843   7.096  1.00  0.00    +0.000 H 
ATOM     18  C17 UNL A   1      -4.923  11.131   7.876  1.00  0.00    +0.000 C 
ATOM    120  H26 UNL A   1      -4.319  11.441   8.702  1.00  0.00    +0.000 H 
BRANCH   18   17
ATOM     17  C16 UNL A   1      -6.322  10.872   8.428  1.00  0.00    +0.000 C 
ATOM    118  H24 UNL A   1      -6.608  11.797   8.883  1.00  0.00    +0.000 H 
ATOM    119  H25 UNL A   1      -6.768  10.463   7.546  1.00  0.00    +0.000 H 
BRANCH   17   16
ATOM     16  S1  UNL A   1      -6.852   9.574   9.633  1.00  0.00    +0.000 S 
BRANCH   16   15
ATOM    116  H22 UNL A   1      -4.803   8.429   9.164  1.00  0.00    +0.000 H 
ATOM    117  H23 UNL A   1      -5.712   7.738  10.568  1.00  0.00    +0.000 H 
ATOM     15  C15 UNL A   1      -5.741   8.103   9.562  1.00  0.00    +0.000 C 
BRANCH   15   14
ATOM    114  H20 UNL A   1      -6.073   6.005   9.310  1.00  0.00    +0.000 H 
ATOM    115  H21 UNL A   1      -7.224   7.089   8.455  1.00  0.00    +0.000 H 
ATOM     14  C14 UNL A   1      -6.206   6.885   8.716  1.00  0.00    +0.000 C 
BRANCH   14   13
ATOM    113  H19 UNL A   1      -4.920   7.465   7.070  1.00  0.00    +0.000 H 
ATOM     13  C13 UNL A   1      -5.488   6.673   7.410  1.00  0.00    +0.000 C 
BRANCH   13   12
ATOM     12  C12 UNL A   1      -5.499   5.574   6.633  1.00  0.00    +0.000 C 
ATOM    112  H18 UNL A   1      -5.846   4.690   7.035  1.00  0.00    +0.000 H 
BRANCH   12   11
ATOM     11  C11 UNL A   1      -5.024   5.578   5.191  1.00  0.00    +0.000 C 
ATOM    110  H16 UNL A   1      -5.171   4.597   4.791  1.00  0.00    +0.000 H 
ATOM    111  H17 UNL A   1      -5.596   6.333   4.692  1.00  0.00    +0.000 H 
BRANCH   11   10
ATOM     10  C10 UNL A   1      -3.584   5.949   4.994  1.00  0.00    +0.000 C 
ATOM    109  H15 UNL A   1      -3.156   6.619   5.651  1.00  0.00    +0.000 H 
BRANCH   10    9
ATOM      9  C9  UNL A   1      -2.824   5.451   4.004  1.00  0.00    +0.000 C 
ATOM    108  H14 UNL A   1      -3.267   4.809   3.328  1.00  0.00    +0.000 H 
BRANCH    9    8
ATOM    106  H12 UNL A   1      -1.163   5.958   2.787  1.00  0.00    +0.000 H 
ATOM    107  H13 UNL A   1      -1.109   6.646   4.384  1.00  0.00    +0.000 H 
ATOM      8  C8  UNL A   1      -1.366   5.773   3.821  1.00  0.00    +0.000 C 
BRANCH    8    7
ATOM    105  H11 UNL A   1      -0.626   4.344   5.291  1.00  0.00    +0.000 H 
ATOM      7  C7  UNL A   1      -0.562   4.599   4.293  1.00  0.00    +0.000 C 
BRANCH    7    6
ATOM      6  C6  UNL A   1       0.235   3.858   3.510  1.00  0.00    +0.000 C 
ATOM    104  H10 UNL A   1       0.446   4.200   2.559  1.00  0.00    +0.000 H 
BRANCH    6    5
ATOM      5  C5  UNL A   1       0.837   2.554   3.949  1.00  0.00    +0.000 C 
ATOM    102  H8  UNL A   1       1.902   2.604   3.864  1.00  0.00    +0.000 H 
ATOM    103  H9  UNL A   1       0.575   2.360   4.968  1.00  0.00    +0.000 H 
BRANCH    5    4
ATOM      4  C4  UNL A   1       0.311   1.455   3.070  1.00  0.00    +0.000 C 
ATOM    101  H7  UNL A   1      -0.705   1.278   3.074  1.00  0.00    +0.000 H 
BRANCH    4    3
ATOM      3  C3  UNL A   1       1.078   0.688   2.281  1.00  0.00    +0.000 C 
ATOM    100  H6  UNL A   1       2.102   0.802   2.336  1.00  0.00    +0.000 H 
BRANCH    3    2
ATOM      2  C2  UNL A   1       0.527  -0.326   1.322  1.00  0.00    +0.000 C 
ATOM     99  H5  UNL A   1      -0.541  -0.307   1.375  1.00  0.00    +0.000 H 
ATOM     98  H4  UNL A   1       0.893  -1.296   1.586  1.00  0.00    +0.000 H 
BRANCH    2    1
ATOM      1  C1  UNL A   1       0.955  -0.000  -0.102  1.00  0.00    +0.000 C 
ATOM     97  H3  UNL A   1       0.589   0.969  -0.371  1.00  0.00    +0.000 H 
ATOM     95  H1  UNL A   1       0.554  -0.732  -0.771  1.00  0.00    +0.000 H 
ATOM     96  H2  UNL A   1       2.023  -0.007  -0.164  1.00  0.00    +0.000 H 
ENDBRANCH    2    1
ENDBRANCH    3    2
ENDBRANCH    4    3
ENDBRANCH    5    4
ENDBRANCH    6    5
ENDBRANCH    7    6
ENDBRANCH    8    7
ENDBRANCH    9    8
ENDBRANCH   10    9
ENDBRANCH   11   10
ENDBRANCH   12   11
ENDBRANCH   13   12
ENDBRANCH   14   13
ENDBRANCH   15   14
ENDBRANCH   16   15
ENDBRANCH   17   16
ENDBRANCH   18   17
ENDBRANCH   19   18
ENDBRANCH   20   19
ENDBRANCH   22   20
ENDBRANCH   23   22
ENDBRANCH   24   23
ENDBRANCH   25   24
ENDBRANCH   26   25
ENDBRANCH   27   26
ENDBRANCH   28   27
ENDBRANCH   29   28
ENDBRANCH   30   29
ENDBRANCH   32   30
ENDBRANCH   36   35
BRANCH   40   41
ATOM     41  C35 UNL A   1     -19.721  16.864   5.846  1.00  0.00    +0.000 C 
ATOM     42  C36 UNL A   1     -20.382  16.424   4.689  1.00  0.00    +0.000 C 
ATOM     43  F1  UNL A   1     -20.849  15.168   4.615  1.00  0.00    +0.000 F 
ATOM     44  C37 UNL A   1     -20.538  17.262   3.587  1.00  0.00    +0.000 C 
ATOM     45  F2  UNL A   1     -21.135  16.804   2.478  1.00  0.00    +0.000 F 
ATOM     46  C38 UNL A   1     -20.069  18.566   3.634  1.00  0.00    +0.000 C 
ATOM     47  F3  UNL A   1     -20.233  19.376   2.579  1.00  0.00    +0.000 F 
ATOM     48  C39 UNL A   1     -19.427  19.028   4.772  1.00  0.00    +0.000 C 
ATOM     49  F4  UNL A   1     -18.986  20.293   4.824  1.00  0.00    +0.000 F 
ATOM     50  C40 UNL A   1     -19.242  18.183   5.864  1.00  0.00    +0.000 C 
ATOM     51  F5  UNL A   1     -18.607  18.658   6.946  1.00  0.00    +0.000 F 
ENDBRANCH   40   41
BRANCH   57   58
ATOM     65  C50 UNL A   1     -24.589  17.188  13.081  1.00  0.00    +0.000 C 
ATOM     66  F9  UNL A   1     -25.893  17.207  12.769  1.00  0.00    +0.000 F 
ATOM     67  C51 UNL A   1     -23.693  16.491  12.276  1.00  0.00    +0.000 C 
ATOM     68  F10 UNL A   1     -24.165  15.836  11.204  1.00  0.00    +0.000 F 
ATOM     58  C46 UNL A   1     -22.321  16.472  12.570  1.00  0.00    +0.000 C 
ATOM     59  C47 UNL A   1     -21.882  17.183  13.697  1.00  0.00    +0.000 C 
ATOM     60  F6  UNL A   1     -20.583  17.186  14.031  1.00  0.00    +0.000 F 
ATOM     61  C48 UNL A   1     -22.787  17.848  14.521  1.00  0.00    +0.000 C 
ATOM     62  F7  UNL A   1     -22.352  18.463  15.630  1.00  0.00    +0.000 F 
ATOM     63  C49 UNL A   1     -24.138  17.855  14.210  1.00  0.00    +0.000 C 
ATOM     64  F8  UNL A   1     -25.006  18.495  15.004  1.00  0.00    +0.000 F 
ENDBRANCH   57   58
BRANCH   72   73
ATOM     73  C55 UNL A   1     -18.498  10.757  13.667  1.00  0.00    +0.000 C 
ATOM     74  C56 UNL A   1     -19.550   9.997  14.198  1.00  0.00    +0.000 C 
ATOM     75  F11 UNL A   1     -20.766  10.050  13.633  1.00  0.00    +0.000 F 
ATOM     76  C57 UNL A   1     -19.374   9.224  15.344  1.00  0.00    +0.000 C 
ATOM     77  F12 UNL A   1     -20.414   8.560  15.867  1.00  0.00    +0.000 F 
ATOM     78  C58 UNL A   1     -18.132   9.162  15.958  1.00  0.00    +0.000 C 
ATOM     79  F13 UNL A   1     -17.964   8.420  17.061  1.00  0.00    +0.000 F 
ATOM     80  C59 UNL A   1     -17.068   9.878  15.432  1.00  0.00    +0.000 C 
ATOM     81  F14 UNL A   1     -15.862   9.807  16.011  1.00  0.00    +0.000 F 
ATOM     82  C60 UNL A   1     -17.253  10.680  14.308  1.00  0.00    +0.000 C 
ATOM     83  F15 UNL A   1     -16.210  11.380  13.838  1.00  0.00    +0.000 F 
ENDBRANCH   72   73
TORSDOF 33