ROOT
ATOM     30  C25 UNL A   1      -9.575  -3.915   7.512  1.00  0.00    +0.000 C 
ATOM     31  C26 UNL A   1      -8.742  -5.131   7.806  1.00  0.00    +0.000 C 
ATOM     32  N4  UNL A   1      -9.053  -6.398   7.688  1.00  0.00    +0.000 N 
ATOM     33  C27 UNL A   1      -7.911  -7.102   8.045  1.00  0.00    +0.000 C 
ATOM     34  C28 UNL A   1      -7.739  -8.443   8.138  1.00  0.00    +0.000 C 
ATOM     46  C35 UNL A   1      -8.769  -9.413   7.872  1.00  0.00    +0.000 C 
ATOM     47  C36 UNL A   1      -8.711 -10.790   7.996  1.00  0.00    +0.000 C 
ATOM     48  C37 UNL A   1      -9.942 -11.318   7.592  1.00  0.00    +0.000 C 
ATOM     49  C38 UNL A   1     -10.780 -10.268   7.256  1.00  0.00    +0.000 C 
ATOM     50  N5  UNL A   1     -10.046  -9.105   7.429  1.00  0.00    +0.000 N 
ATOM     51  C39 UNL A   1     -12.149 -10.319   6.810  1.00  0.00    +0.000 C 
ATOM     63  C46 UNL A   1     -12.911  -9.238   6.511  1.00  0.00    +0.000 C 
ATOM     64  N6  UNL A   1     -12.575  -7.893   6.565  1.00  0.00    +0.000 N 
ATOM     65  C47 UNL A   1     -13.641  -7.239   6.171  1.00  0.00    +0.000 C 
ATOM     66  C48 UNL A   1     -13.857  -5.755   6.057  1.00  0.00    +0.000 C 
ATOM     78  C55 UNL A   1     -12.864  -4.916   6.410  1.00  0.00    +0.000 C 
ATOM     79  C56 UNL A   1     -12.929  -3.458   6.356  1.00  0.00    +0.000 C 
ATOM     80  C57 UNL A   1     -11.744  -2.954   6.735  1.00  0.00    +0.000 C 
ATOM     81  C58 UNL A   1     -10.847  -4.054   7.090  1.00  0.00    +0.000 C 
ATOM     82  N7  UNL A   1     -11.600  -5.181   6.876  1.00  0.00    +0.000 N 
ATOM     83  C59 UNL A   1     -14.769  -8.103   5.795  1.00  0.00    +0.000 C 
ATOM     84  C60 UNL A   1     -14.284  -9.309   6.056  1.00  0.00    +0.000 C 
ATOM     85  C61 UNL A   1      -6.886  -6.124   8.340  1.00  0.00    +0.000 C 
ATOM     86  C62 UNL A   1      -7.367  -4.891   8.270  1.00  0.00    +0.000 C 
ATOM    119  H28 UNL A   1      -7.899 -11.334   8.329  1.00  0.00    +0.000 H 
ATOM    120  H29 UNL A   1     -10.184 -12.321   7.551  1.00  0.00    +0.000 H 
ATOM    121  H30 UNL A   1     -10.382  -8.195   7.261  1.00  0.00    +0.000 H 
ATOM    122  H31 UNL A   1     -13.753  -2.905   6.074  1.00  0.00    +0.000 H 
ATOM    123  H32 UNL A   1     -11.504  -1.951   6.770  1.00  0.00    +0.000 H 
ATOM    124  H33 UNL A   1     -11.267  -6.092   7.041  1.00  0.00    +0.000 H 
ATOM    125  H34 UNL A   1     -15.696  -7.840   5.424  1.00  0.00    +0.000 H 
ATOM    126  H35 UNL A   1     -14.817 -10.186   5.949  1.00  0.00    +0.000 H 
ATOM    127  H36 UNL A   1      -5.909  -6.356   8.575  1.00  0.00    +0.000 H 
ATOM    128  H37 UNL A   1      -6.899  -3.997   8.484  1.00  0.00    +0.000 H 
ENDROOT
BRANCH   30   29
ATOM    129  H38 UNL A   1      -7.628  -2.847   6.015  1.00  0.00    +0.000 H 
ATOM    130  H39 UNL A   1      -6.566  -0.679   6.231  1.00  0.00    +0.000 H 
ATOM    117  H26 UNL A   1      -9.216   0.317   9.343  1.00  0.00    +0.000 H 
ATOM    118  H27 UNL A   1     -10.147  -1.924   9.263  1.00  0.00    +0.000 H 
ATOM     87  C63 UNL A   1      -7.952  -2.185   6.737  1.00  0.00    +0.000 C 
ATOM     88  C64 UNL A   1      -7.367  -0.924   6.834  1.00  0.00    +0.000 C 
ATOM     26  C21 UNL A   1      -7.865   0.010   7.747  1.00  0.00    +0.000 C 
ATOM     27  C22 UNL A   1      -8.874  -0.359   8.642  1.00  0.00    +0.000 C 
ATOM     28  C23 UNL A   1      -9.418  -1.645   8.587  1.00  0.00    +0.000 C 
ATOM     29  C24 UNL A   1      -8.980  -2.559   7.617  1.00  0.00    +0.000 C 
BRANCH   26   24
ATOM     25  O2  UNL A   1      -7.126   1.898   8.920  1.00  0.00    +0.000 O 
ATOM     24  C20 UNL A   1      -7.307   1.379   7.826  1.00  0.00    +0.000 C 
BRANCH   24   23
ATOM    116  H25 UNL A   1      -6.380   2.831   6.803  1.00  0.00    +0.000 H 
ATOM     23  N3  UNL A   1      -6.988   2.067   6.680  1.00  0.00    +0.000 N 
BRANCH   23   22
ATOM    114  H23 UNL A   1      -6.554   1.737   4.688  1.00  0.00    +0.000 H 
ATOM    115  H24 UNL A   1      -8.002   0.932   5.300  1.00  0.00    +0.000 H 
ATOM     22  C19 UNL A   1      -7.419   1.829   5.311  1.00  0.00    +0.000 C 
BRANCH   22   21
ATOM    113  H22 UNL A   1      -9.076   3.099   5.493  1.00  0.00    +0.000 H 
ATOM     21  C18 UNL A   1      -8.290   2.965   4.780  1.00  0.00    +0.000 C 
ATOM    112  H21 UNL A   1      -8.643   2.687   3.808  1.00  0.00    +0.000 H 
BRANCH   21   20
ATOM     20  C17 UNL A   1      -7.583   4.319   4.659  1.00  0.00    +0.000 C 
ATOM    110  H19 UNL A   1      -8.287   5.024   4.269  1.00  0.00    +0.000 H 
ATOM    111  H20 UNL A   1      -7.233   4.554   5.643  1.00  0.00    +0.000 H 
BRANCH   20   19
ATOM     19  C16 UNL A   1      -6.341   4.344   3.757  1.00  0.00    +0.000 C 
ATOM    108  H17 UNL A   1      -6.006   5.357   3.685  1.00  0.00    +0.000 H 
ATOM    109  H18 UNL A   1      -5.631   3.688   4.214  1.00  0.00    +0.000 H 
BRANCH   19   18
ATOM     18  C15 UNL A   1      -6.553   3.813   2.335  1.00  0.00    +0.000 C 
ATOM    107  H16 UNL A   1      -6.976   2.835   2.429  1.00  0.00    +0.000 H 
ATOM    106  H15 UNL A   1      -5.608   3.807   1.833  1.00  0.00    +0.000 H 
BRANCH   18   17
ATOM     17  C14 UNL A   1      -7.534   4.641   1.502  1.00  0.00    +0.000 C 
ATOM    105  H14 UNL A   1      -8.264   5.056   2.166  1.00  0.00    +0.000 H 
ATOM    104  H13 UNL A   1      -7.992   4.005   0.773  1.00  0.00    +0.000 H 
BRANCH   17   16
ATOM    103  H12 UNL A   1      -6.762   6.548   1.366  1.00  0.00    +0.000 H 
ATOM     16  N2  UNL A   1      -6.875   5.736   0.821  1.00  0.00    +0.000 N 
BRANCH   16   14
ATOM     14  C13 UNL A   1      -6.385   5.833  -0.446  1.00  0.00    +0.000 C 
ATOM     15  O1  UNL A   1      -5.659   6.806  -0.683  1.00  0.00    +0.000 O 
BRANCH   14   12
ATOM     99  H8  UNL A   1      -6.371   5.280  -2.470  1.00  0.00    +0.000 H 
ATOM     12  C11 UNL A   1      -6.704   4.825  -1.560  1.00  0.00    +0.000 C 
BRANCH   12   11
ATOM     97  H6  UNL A   1      -5.776   0.468  -0.166  1.00  0.00    +0.000 H 
ATOM     98  H7  UNL A   1      -7.238   2.369  -0.410  1.00  0.00    +0.000 H 
ATOM    131  H40 UNL A   1      -4.268   4.366  -2.592  1.00  0.00    +0.000 H 
ATOM    132  H41 UNL A   1      -2.859   2.412  -2.467  1.00  0.00    +0.000 H 
ATOM      8  C7  UNL A   1      -4.172   1.263  -1.281  1.00  0.00    +0.000 C 
ATOM      9  C8  UNL A   1      -5.449   1.290  -0.698  1.00  0.00    +0.000 C 
ATOM     10  C9  UNL A   1      -6.291   2.402  -0.819  1.00  0.00    +0.000 C 
ATOM     11  C10 UNL A   1      -5.870   3.556  -1.483  1.00  0.00    +0.000 C 
ATOM     89  C65 UNL A   1      -4.601   3.534  -2.080  1.00  0.00    +0.000 C 
ATOM     90  C66 UNL A   1      -3.776   2.404  -1.995  1.00  0.00    +0.000 C 
BRANCH    8    7
ATOM      3  C3  UNL A   1      -1.085  -0.927  -0.825  1.00  0.00    +0.000 C 
ATOM      4  C4  UNL A   1      -1.717  -2.166  -0.824  1.00  0.00    +0.000 C 
ATOM      5  N1  UNL A   1      -3.050  -2.341  -0.959  1.00  0.00    +0.000 N 
ATOM    133  H42 UNL A   1      -1.462   1.141  -1.004  1.00  0.00    +0.000 H 
ATOM      7  C6  UNL A   1      -3.289   0.086  -1.134  1.00  0.00    +0.000 C 
ATOM      6  C5  UNL A   1      -3.791  -1.218  -1.116  1.00  0.00    +0.000 C 
ATOM     91  C67 UNL A   1      -1.896   0.204  -0.989  1.00  0.00    +0.000 C 
ATOM     95  H4  UNL A   1      -1.129  -3.006  -0.712  1.00  0.00    +0.000 H 
ATOM     96  H5  UNL A   1      -4.810  -1.335  -1.231  1.00  0.00    +0.000 H 
BRANCH    3    2
ATOM      2  C2  UNL A   1       0.376  -0.853  -0.718  1.00  0.00    +0.000 C 
ATOM     94  H3  UNL A   1       0.932  -1.570  -1.208  1.00  0.00    +0.000 H 
BRANCH    2    1
ATOM      1  C1  UNL A   1       1.034   0.085  -0.025  1.00  0.00    +0.000 C 
ATOM     92  H1  UNL A   1       2.066   0.074   0.006  1.00  0.00    +0.000 H 
ATOM     93  H2  UNL A   1       0.510   0.818   0.478  1.00  0.00    +0.000 H 
ENDBRANCH    2    1
ENDBRANCH    3    2
ENDBRANCH    8    7
ENDBRANCH   12   11
BRANCH   12   13
ATOM    101  H10 UNL A   1      -8.332   4.011  -2.685  1.00  0.00    +0.000 H 
ATOM    100  H9  UNL A   1      -8.659   4.182  -0.977  1.00  0.00    +0.000 H 
ATOM     13  C12 UNL A   1      -8.199   4.638  -1.828  1.00  0.00    +0.000 C 
ATOM    102  H11 UNL A   1      -8.650   5.591  -2.010  1.00  0.00    +0.000 H 
ENDBRANCH   12   13
ENDBRANCH   14   12
ENDBRANCH   16   14
ENDBRANCH   17   16
ENDBRANCH   18   17
ENDBRANCH   19   18
ENDBRANCH   20   19
ENDBRANCH   21   20
ENDBRANCH   22   21
ENDBRANCH   23   22
ENDBRANCH   24   23
ENDBRANCH   26   24
ENDBRANCH   30   29
BRANCH   34   35
ATOM     35  C29 UNL A   1      -6.384  -8.940   8.549  1.00  0.00    +0.000 C 
ATOM     36  C30 UNL A   1      -5.912  -8.782   9.861  1.00  0.00    +0.000 C 
ATOM     37  F1  UNL A   1      -6.656  -8.139  10.773  1.00  0.00    +0.000 F 
ATOM     38  C31 UNL A   1      -4.654  -9.250  10.231  1.00  0.00    +0.000 C 
ATOM     39  F2  UNL A   1      -4.204  -9.045  11.476  1.00  0.00    +0.000 F 
ATOM     40  C32 UNL A   1      -3.859  -9.914   9.308  1.00  0.00    +0.000 C 
ATOM     41  F3  UNL A   1      -2.650 -10.368   9.667  1.00  0.00    +0.000 F 
ATOM     42  C33 UNL A   1      -4.315 -10.101   8.012  1.00  0.00    +0.000 C 
ATOM     43  F4  UNL A   1      -3.553 -10.753   7.123  1.00  0.00    +0.000 F 
ATOM     44  C34 UNL A   1      -5.561  -9.609   7.631  1.00  0.00    +0.000 C 
ATOM     45  F5  UNL A   1      -5.968  -9.793   6.366  1.00  0.00    +0.000 F 
ENDBRANCH   34   35
BRANCH   51   52
ATOM     52  C40 UNL A   1     -12.793 -11.667   6.686  1.00  0.00    +0.000 C 
ATOM     53  C41 UNL A   1     -13.054 -12.243   5.434  1.00  0.00    +0.000 C 
ATOM     54  F6  UNL A   1     -12.775 -11.568   4.309  1.00  0.00    +0.000 F 
ATOM     55  C42 UNL A   1     -13.637 -13.504   5.335  1.00  0.00    +0.000 C 
ATOM     56  F7  UNL A   1     -13.917 -14.018   4.130  1.00  0.00    +0.000 F 
ATOM     57  C43 UNL A   1     -13.942 -14.222   6.482  1.00  0.00    +0.000 C 
ATOM     58  F8  UNL A   1     -14.499 -15.437   6.385  1.00  0.00    +0.000 F 
ATOM     59  C44 UNL A   1     -13.678 -13.677   7.730  1.00  0.00    +0.000 C 
ATOM     60  F9  UNL A   1     -13.963 -14.374   8.839  1.00  0.00    +0.000 F 
ATOM     61  C45 UNL A   1     -13.119 -12.407   7.832  1.00  0.00    +0.000 C 
ATOM     62  F10 UNL A   1     -12.885 -11.900   9.053  1.00  0.00    +0.000 F 
ENDBRANCH   51   52
BRANCH   66   67
ATOM     67  C49 UNL A   1     -15.157  -5.209   5.593  1.00  0.00    +0.000 C 
ATOM     68  C50 UNL A   1     -16.300  -5.298   6.399  1.00  0.00    +0.000 C 
ATOM     69  F11 UNL A   1     -16.230  -5.903   7.594  1.00  0.00    +0.000 F 
ATOM     70  C51 UNL A   1     -17.527  -4.801   5.966  1.00  0.00    +0.000 C 
ATOM     71  F12 UNL A   1     -18.612  -4.935   6.740  1.00  0.00    +0.000 F 
ATOM     72  C52 UNL A   1     -17.628  -4.181   4.730  1.00  0.00    +0.000 C 
ATOM     73  F13 UNL A   1     -18.807  -3.698   4.315  1.00  0.00    +0.000 F 
ATOM     74  C53 UNL A   1     -16.507  -4.068   3.921  1.00  0.00    +0.000 C 
ATOM     75  F14 UNL A   1     -16.599  -3.458   2.731  1.00  0.00    +0.000 F 
ATOM     76  C54 UNL A   1     -15.285  -4.587   4.343  1.00  0.00    +0.000 C 
ATOM     77  F15 UNL A   1     -14.219  -4.472   3.537  1.00  0.00    +0.000 F 
ENDBRANCH   66   67
TORSDOF 20