ROOT
ATOM    140  H42 UNL A   1      -1.042 -13.566  20.238  1.00  0.00    +0.000 H 
ATOM    141  H43 UNL A   1      -2.907 -15.381  20.083  1.00  0.00    +0.000 H 
ATOM    142  H44 UNL A   1      -3.974 -12.208  17.646  1.00  0.00    +0.000 H 
ATOM    143  H45 UNL A   1      -8.238  -9.378  13.826  1.00  0.00    +0.000 H 
ATOM    144  H46 UNL A   1      -6.368  -7.659  13.896  1.00  0.00    +0.000 H 
ATOM    145  H47 UNL A   1      -5.233 -10.869  16.281  1.00  0.00    +0.000 H 
ATOM    146  H48 UNL A   1      -8.924 -14.257  15.893  1.00  0.00    +0.000 H 
ATOM    147  H49 UNL A   1      -7.631 -15.672  17.589  1.00  0.00    +0.000 H 
ATOM    148  H50 UNL A   1      -0.229  -8.885  17.732  1.00  0.00    +0.000 H 
ATOM    149  H51 UNL A   1      -1.711  -7.247  16.438  1.00  0.00    +0.000 H 
ATOM     40  C31 UNL A   1      -4.182  -8.374  15.581  1.00  0.00    +0.000 C 
ATOM     41  C32 UNL A   1      -3.146  -9.002  16.470  1.00  0.00    +0.000 C 
ATOM     42  N5  UNL A   1      -3.148 -10.180  17.044  1.00  0.00    +0.000 N 
ATOM     43  C33 UNL A   1      -1.937 -10.274  17.716  1.00  0.00    +0.000 C 
ATOM     44  C34 UNL A   1      -1.490 -11.268  18.521  1.00  0.00    +0.000 C 
ATOM     56  C41 UNL A   1      -2.234 -12.465  18.817  1.00  0.00    +0.000 C 
ATOM     57  C42 UNL A   1      -1.894 -13.509  19.659  1.00  0.00    +0.000 C 
ATOM     58  C43 UNL A   1      -2.904 -14.475  19.588  1.00  0.00    +0.000 C 
ATOM     59  C44 UNL A   1      -3.899 -14.009  18.744  1.00  0.00    +0.000 C 
ATOM     60  N6  UNL A   1      -3.472 -12.777  18.273  1.00  0.00    +0.000 N 
ATOM     61  C45 UNL A   1      -5.145 -14.641  18.390  1.00  0.00    +0.000 C 
ATOM     73  C52 UNL A   1      -6.079 -14.111  17.562  1.00  0.00    +0.000 C 
ATOM     74  N7  UNL A   1      -6.063 -12.894  16.894  1.00  0.00    +0.000 N 
ATOM     75  C53 UNL A   1      -7.182 -12.841  16.213  1.00  0.00    +0.000 C 
ATOM     76  C54 UNL A   1      -7.709 -11.741  15.334  1.00  0.00    +0.000 C 
ATOM     88  C61 UNL A   1      -6.975 -10.624  15.167  1.00  0.00    +0.000 C 
ATOM     89  C62 UNL A   1      -7.356  -9.473  14.353  1.00  0.00    +0.000 C 
ATOM     90  C63 UNL A   1      -6.373  -8.560  14.400  1.00  0.00    +0.000 C 
ATOM     91  C64 UNL A   1      -5.310  -9.045  15.281  1.00  0.00    +0.000 C 
ATOM     92  N8  UNL A   1      -5.749 -10.283  15.681  1.00  0.00    +0.000 N 
ATOM     93  C65 UNL A   1      -8.024 -14.038  16.349  1.00  0.00    +0.000 C 
ATOM     94  C66 UNL A   1      -7.326 -14.761  17.213  1.00  0.00    +0.000 C 
ATOM     95  C67 UNL A   1      -1.199  -9.063  17.430  1.00  0.00    +0.000 C 
ATOM     96  C68 UNL A   1      -1.933  -8.212  16.728  1.00  0.00    +0.000 C 
ENDROOT
BRANCH   40   39
ATOM     97  C69 UNL A   1      -2.882  -6.866  14.074  1.00  0.00    +0.000 C 
ATOM     98  C70 UNL A   1      -2.619  -5.612  13.528  1.00  0.00    +0.000 C 
ATOM     36  C27 UNL A   1      -3.478  -4.542  13.791  1.00  0.00    +0.000 C 
ATOM     37  C28 UNL A   1      -4.524  -4.697  14.706  1.00  0.00    +0.000 C 
ATOM     38  C29 UNL A   1      -4.740  -5.935  15.314  1.00  0.00    +0.000 C 
ATOM     39  C30 UNL A   1      -3.939  -7.038  14.980  1.00  0.00    +0.000 C 
ATOM    138  H40 UNL A   1      -5.136  -3.897  14.931  1.00  0.00    +0.000 H 
ATOM    139  H41 UNL A   1      -5.493  -6.040  16.012  1.00  0.00    +0.000 H 
ATOM    150  H52 UNL A   1      -2.296  -7.673  13.810  1.00  0.00    +0.000 H 
ATOM    151  H53 UNL A   1      -1.790  -5.473  12.929  1.00  0.00    +0.000 H 
BRANCH   36   34
ATOM     34  C26 UNL A   1      -3.291  -3.223  13.144  1.00  0.00    +0.000 C 
ATOM     35  O5  UNL A   1      -3.452  -2.198  13.800  1.00  0.00    +0.000 O 
BRANCH   34   33
ATOM     33  N4  UNL A   1      -2.959  -3.139  11.816  1.00  0.00    +0.000 N 
ATOM    137  H39 UNL A   1      -2.718  -2.238  11.502  1.00  0.00    +0.000 H 
BRANCH   33   32
ATOM    136  H38 UNL A   1      -3.348  -5.060  11.219  1.00  0.00    +0.000 H 
ATOM    135  H37 UNL A   1      -1.888  -4.339  10.525  1.00  0.00    +0.000 H 
ATOM     32  C25 UNL A   1      -2.909  -4.178  10.802  1.00  0.00    +0.000 C 
BRANCH   32   31
ATOM    133  H35 UNL A   1      -3.655  -4.644   8.879  1.00  0.00    +0.000 H 
ATOM    134  H36 UNL A   1      -4.693  -3.588   9.887  1.00  0.00    +0.000 H 
ATOM     31  C24 UNL A   1      -3.702  -3.814   9.553  1.00  0.00    +0.000 C 
BRANCH   31   30
ATOM    131  H33 UNL A   1      -3.830  -2.445   7.941  1.00  0.00    +0.000 H 
ATOM    132  H34 UNL A   1      -3.278  -1.768   9.511  1.00  0.00    +0.000 H 
ATOM     30  C23 UNL A   1      -3.214  -2.570   8.806  1.00  0.00    +0.000 C 
BRANCH   30   29
ATOM    129  H31 UNL A   1      -1.600  -1.754   7.695  1.00  0.00    +0.000 H 
ATOM    130  H32 UNL A   1      -1.165  -2.572   9.236  1.00  0.00    +0.000 H 
ATOM     29  C22 UNL A   1      -1.751  -2.594   8.341  1.00  0.00    +0.000 C 
BRANCH   29   28
ATOM     28  C21 UNL A   1      -1.301  -3.851   7.586  1.00  0.00    +0.000 C 
ATOM    127  H29 UNL A   1      -0.302  -3.692   7.237  1.00  0.00    +0.000 H 
ATOM    128  H30 UNL A   1      -1.378  -4.665   8.277  1.00  0.00    +0.000 H 
BRANCH   28   27
ATOM     27  C20 UNL A   1      -2.170  -4.215   6.390  1.00  0.00    +0.000 C 
ATOM    125  H27 UNL A   1      -2.014  -5.247   6.158  1.00  0.00    +0.000 H 
ATOM    126  H28 UNL A   1      -3.185  -4.011   6.663  1.00  0.00    +0.000 H 
BRANCH   27   26
ATOM     26  N3  UNL A   1      -1.879  -3.430   5.208  1.00  0.00    +0.000 N 
ATOM    124  H26 UNL A   1      -1.218  -2.703   5.269  1.00  0.00    +0.000 H 
BRANCH   26   24
ATOM     25  O4  UNL A   1      -3.193  -2.763   3.528  1.00  0.00    +0.000 O 
ATOM     24  C19 UNL A   1      -2.499  -3.669   4.004  1.00  0.00    +0.000 C 
BRANCH   24   16
ATOM    116  H18 UNL A   1      -2.042  -4.808   2.298  1.00  0.00    +0.000 H 
ATOM     16  C11 UNL A   1      -2.378  -5.047   3.285  1.00  0.00    +0.000 C 
BRANCH   16   15
ATOM    115  H17 UNL A   1      -1.559  -6.566   4.484  1.00  0.00    +0.000 H 
ATOM     15  N2  UNL A   1      -1.312  -5.952   3.755  1.00  0.00    +0.000 N 
BRANCH   15   13
ATOM     13  C10 UNL A   1      -0.022  -6.046   3.303  1.00  0.00    +0.000 C 
ATOM     14  O3  UNL A   1       0.839  -6.404   4.112  1.00  0.00    +0.000 O 
BRANCH   13   12
ATOM      8  N1  UNL A   1       1.170  -4.609   1.602  1.00  0.00    +0.000 N 
ATOM      9  C6  UNL A   1       2.401  -4.945   0.922  1.00  0.00    +0.000 C 
ATOM     10  C7  UNL A   1       2.114  -6.288   0.277  1.00  0.00    +0.000 C 
ATOM     11  C8  UNL A   1       1.130  -6.944   1.241  1.00  0.00    +0.000 C 
ATOM     12  C9  UNL A   1       0.312  -5.773   1.819  1.00  0.00    +0.000 C 
ATOM    108  H10 UNL A   1       3.210  -5.023   1.618  1.00  0.00    +0.000 H 
ATOM    109  H11 UNL A   1       2.693  -4.202   0.210  1.00  0.00    +0.000 H 
ATOM    110  H12 UNL A   1       3.008  -6.869   0.189  1.00  0.00    +0.000 H 
ATOM    111  H13 UNL A   1       1.726  -6.198  -0.716  1.00  0.00    +0.000 H 
ATOM    112  H14 UNL A   1       1.652  -7.461   2.019  1.00  0.00    +0.000 H 
ATOM    114  H16 UNL A   1      -0.641  -5.625   1.357  1.00  0.00    +0.000 H 
ATOM    113  H15 UNL A   1       0.512  -7.671   0.757  1.00  0.00    +0.000 H 
BRANCH    8    6
ATOM      6  C5  UNL A   1       0.690  -3.350   1.839  1.00  0.00    +0.000 C 
ATOM      7  O2  UNL A   1      -0.247  -3.149   2.590  1.00  0.00    +0.000 O 
BRANCH    6    5
ATOM      1  C1  UNL A   1       1.453  -0.277   0.016  1.00  0.00    +0.000 C 
ATOM      2  C2  UNL A   1       0.774  -1.027   1.170  1.00  0.00    +0.000 C 
ATOM     99  H1  UNL A   1       1.115   0.738   0.002  1.00  0.00    +0.000 H 
ATOM    100  H2  UNL A   1       1.204  -0.749  -0.912  1.00  0.00    +0.000 H 
ATOM    101  H3  UNL A   1       2.514  -0.297   0.152  1.00  0.00    +0.000 H 
ATOM      3  C3  UNL A   1       1.181  -0.385   2.500  1.00  0.00    +0.000 C 
ATOM      4  C4  UNL A   1      -0.747  -0.938   0.942  1.00  0.00    +0.000 C 
ATOM      5  O1  UNL A   1       1.296  -2.384   1.103  1.00  0.00    +0.000 O 
ATOM    102  H4  UNL A   1       0.796   0.613   2.547  1.00  0.00    +0.000 H 
ATOM    103  H5  UNL A   1       2.248  -0.359   2.572  1.00  0.00    +0.000 H 
ATOM    104  H6  UNL A   1       0.783  -0.959   3.310  1.00  0.00    +0.000 H 
ATOM    105  H7  UNL A   1      -1.058   0.084   1.005  1.00  0.00    +0.000 H 
ATOM    106  H8  UNL A   1      -1.254  -1.512   1.689  1.00  0.00    +0.000 H 
ATOM    107  H9  UNL A   1      -0.985  -1.324  -0.028  1.00  0.00    +0.000 H 
ENDBRANCH    6    5
ENDBRANCH    8    6
ENDBRANCH   13   12
ENDBRANCH   15   13
ENDBRANCH   16   15
BRANCH   16   17
ATOM     17  C12 UNL A   1      -3.758  -5.736   3.206  1.00  0.00    +0.000 C 
ATOM    117  H19 UNL A   1      -3.642  -6.637   2.640  1.00  0.00    +0.000 H 
ATOM    118  H20 UNL A   1      -4.414  -5.020   2.757  1.00  0.00    +0.000 H 
BRANCH   17   18
ATOM     18  C13 UNL A   1      -4.392  -6.098   4.529  1.00  0.00    +0.000 C 
ATOM     19  C14 UNL A   1      -5.164  -5.157   5.226  1.00  0.00    +0.000 C 
ATOM     20  C15 UNL A   1      -5.687  -5.458   6.484  1.00  0.00    +0.000 C 
ATOM     21  C16 UNL A   1      -5.473  -6.716   7.043  1.00  0.00    +0.000 C 
ATOM     22  C17 UNL A   1      -4.746  -7.675   6.338  1.00  0.00    +0.000 C 
ATOM     23  C18 UNL A   1      -4.205  -7.368   5.088  1.00  0.00    +0.000 C 
ATOM    119  H21 UNL A   1      -5.346  -4.232   4.805  1.00  0.00    +0.000 H 
ATOM    120  H22 UNL A   1      -6.232  -4.750   7.000  1.00  0.00    +0.000 H 
ATOM    122  H24 UNL A   1      -4.608  -8.614   6.742  1.00  0.00    +0.000 H 
ATOM    123  H25 UNL A   1      -3.663  -8.080   4.575  1.00  0.00    +0.000 H 
ATOM    121  H23 UNL A   1      -5.851  -6.938   7.977  1.00  0.00    +0.000 H 
ENDBRANCH   17   18
ENDBRANCH   16   17
ENDBRANCH   24   16
ENDBRANCH   26   24
ENDBRANCH   27   26
ENDBRANCH   28   27
ENDBRANCH   29   28
ENDBRANCH   30   29
ENDBRANCH   31   30
ENDBRANCH   32   31
ENDBRANCH   33   32
ENDBRANCH   34   33
ENDBRANCH   36   34
ENDBRANCH   40   39
BRANCH   44   45
ATOM     45  C35 UNL A   1      -0.129 -11.098  19.135  1.00  0.00    +0.000 C 
ATOM     46  C36 UNL A   1       0.122 -10.119  20.110  1.00  0.00    +0.000 C 
ATOM     47  F1  UNL A   1      -0.860  -9.295  20.507  1.00  0.00    +0.000 F 
ATOM     48  C37 UNL A   1       1.396  -9.946  20.644  1.00  0.00    +0.000 C 
ATOM     49  F2  UNL A   1       1.624  -8.963  21.525  1.00  0.00    +0.000 F 
ATOM     50  C38 UNL A   1       2.434 -10.775  20.247  1.00  0.00    +0.000 C 
ATOM     51  F3  UNL A   1       3.661 -10.607  20.761  1.00  0.00    +0.000 F 
ATOM     52  C39 UNL A   1       2.203 -11.771  19.310  1.00  0.00    +0.000 C 
ATOM     53  F4  UNL A   1       3.203 -12.581  18.937  1.00  0.00    +0.000 F 
ATOM     54  C40 UNL A   1       0.938 -11.924  18.749  1.00  0.00    +0.000 C 
ATOM     55  F5  UNL A   1       0.754 -12.881  17.827  1.00  0.00    +0.000 F 
ENDBRANCH   44   45
BRANCH   61   62
ATOM     65  C48 UNL A   1      -5.711 -18.388  18.837  1.00  0.00    +0.000 C 
ATOM     66  F7  UNL A   1      -5.740 -19.497  18.085  1.00  0.00    +0.000 F 
ATOM     67  C49 UNL A   1      -5.970 -18.467  20.197  1.00  0.00    +0.000 C 
ATOM     68  F8  UNL A   1      -6.227 -19.654  20.764  1.00  0.00    +0.000 F 
ATOM     69  C50 UNL A   1      -5.970 -17.315  20.968  1.00  0.00    +0.000 C 
ATOM     70  F9  UNL A   1      -6.206 -17.391  22.285  1.00  0.00    +0.000 F 
ATOM     71  C51 UNL A   1      -5.726 -16.079  20.377  1.00  0.00    +0.000 C 
ATOM     72  F10 UNL A   1      -5.747 -14.980  21.146  1.00  0.00    +0.000 F 
ATOM     62  C46 UNL A   1      -5.451 -15.976  19.004  1.00  0.00    +0.000 C 
ATOM     63  C47 UNL A   1      -5.437 -17.157  18.247  1.00  0.00    +0.000 C 
ATOM     64  F6  UNL A   1      -5.195 -17.110  16.928  1.00  0.00    +0.000 F 
ENDBRANCH   61   62
BRANCH   76   77
ATOM     77  C55 UNL A   1      -9.040 -11.853  14.684  1.00  0.00    +0.000 C 
ATOM     78  C56 UNL A   1     -10.214 -11.812  15.448  1.00  0.00    +0.000 C 
ATOM     79  F11 UNL A   1     -10.140 -11.702  16.783  1.00  0.00    +0.000 F 
ATOM     80  C57 UNL A   1     -11.468 -11.919  14.850  1.00  0.00    +0.000 C 
ATOM     81  F12 UNL A   1     -12.572 -11.914  15.608  1.00  0.00    +0.000 F 
ATOM     82  C58 UNL A   1     -11.572 -12.041  13.472  1.00  0.00    +0.000 C 
ATOM     83  F13 UNL A   1     -12.778 -12.135  12.896  1.00  0.00    +0.000 F 
ATOM     84  C59 UNL A   1     -10.425 -12.071  12.694  1.00  0.00    +0.000 C 
ATOM     85  F14 UNL A   1     -10.523 -12.175  11.362  1.00  0.00    +0.000 F 
ATOM     86  C60 UNL A   1      -9.170 -11.992  13.294  1.00  0.00    +0.000 C 
ATOM     87  F15 UNL A   1      -8.077 -12.032  12.518  1.00  0.00    +0.000 F 
ENDBRANCH   76   77
TORSDOF 22