ROOT
ATOM    129  H29 UNL A   1     -18.354   1.323  -6.818  1.00  0.00    +0.000 H 
ATOM    130  H30 UNL A   1     -18.281  -0.284  -8.809  1.00  0.00    +0.000 H 
ATOM    131  H31 UNL A   1     -10.855   5.074 -12.961  1.00  0.00    +0.000 H 
ATOM    132  H32 UNL A   1     -10.727   6.527 -10.857  1.00  0.00    +0.000 H 
ATOM     28  C22 UNL A   1     -12.751   5.948  -8.925  1.00  0.00    +0.000 C 
ATOM     29  C23 UNL A   1     -12.479   5.233 -10.225  1.00  0.00    +0.000 C 
ATOM     30  N3  UNL A   1     -13.087   4.194 -10.742  1.00  0.00    +0.000 N 
ATOM     31  C24 UNL A   1     -12.460   3.950 -11.958  1.00  0.00    +0.000 C 
ATOM     32  C25 UNL A   1     -12.694   2.954 -12.846  1.00  0.00    +0.000 C 
ATOM     44  C32 UNL A   1     -13.686   1.925 -12.670  1.00  0.00    +0.000 C 
ATOM     45  C33 UNL A   1     -13.982   0.862 -13.506  1.00  0.00    +0.000 C 
ATOM     46  C34 UNL A   1     -15.054   0.154 -12.953  1.00  0.00    +0.000 C 
ATOM     47  C35 UNL A   1     -15.388   0.740 -11.743  1.00  0.00    +0.000 C 
ATOM     48  N4  UNL A   1     -14.542   1.828 -11.583  1.00  0.00    +0.000 N 
ATOM     49  C36 UNL A   1     -16.408   0.344 -10.806  1.00  0.00    +0.000 C 
ATOM     61  C43 UNL A   1     -16.639   0.943  -9.612  1.00  0.00    +0.000 C 
ATOM     62  N5  UNL A   1     -15.993   2.033  -9.046  1.00  0.00    +0.000 N 
ATOM     63  C44 UNL A   1     -16.597   2.257  -7.905  1.00  0.00    +0.000 C 
ATOM     64  C45 UNL A   1     -16.310   3.308  -6.869  1.00  0.00    +0.000 C 
ATOM     76  C52 UNL A   1     -15.344   4.216  -7.104  1.00  0.00    +0.000 C 
ATOM     77  C53 UNL A   1     -14.969   5.298  -6.199  1.00  0.00    +0.000 C 
ATOM     78  C54 UNL A   1     -14.035   6.057  -6.790  1.00  0.00    +0.000 C 
ATOM     79  C55 UNL A   1     -13.693   5.473  -8.087  1.00  0.00    +0.000 C 
ATOM     80  N6  UNL A   1     -14.521   4.383  -8.190  1.00  0.00    +0.000 N 
ATOM     81  C56 UNL A   1     -17.708   1.338  -7.623  1.00  0.00    +0.000 C 
ATOM     82  C57 UNL A   1     -17.664   0.532  -8.675  1.00  0.00    +0.000 C 
ATOM     83  C58 UNL A   1     -11.448   4.970 -12.122  1.00  0.00    +0.000 C 
ATOM     84  C59 UNL A   1     -11.380   5.753 -11.055  1.00  0.00    +0.000 C 
ATOM    123  H23 UNL A   1     -13.496   0.631 -14.387  1.00  0.00    +0.000 H 
ATOM    124  H24 UNL A   1     -15.517  -0.666 -13.374  1.00  0.00    +0.000 H 
ATOM    125  H25 UNL A   1     -14.549   2.440 -10.812  1.00  0.00    +0.000 H 
ATOM    126  H26 UNL A   1     -15.360   5.454  -5.256  1.00  0.00    +0.000 H 
ATOM    127  H27 UNL A   1     -13.623   6.916  -6.392  1.00  0.00    +0.000 H 
ATOM    128  H28 UNL A   1     -14.524   3.780  -8.967  1.00  0.00    +0.000 H 
ENDROOT
BRANCH   28   27
ATOM    122  H22 UNL A   1     -11.148   6.236  -6.792  1.00  0.00    +0.000 H 
ATOM    133  H33 UNL A   1     -12.602   8.401 -10.097  1.00  0.00    +0.000 H 
ATOM    134  H34 UNL A   1     -11.018  10.181  -9.617  1.00  0.00    +0.000 H 
ATOM     85  C60 UNL A   1     -11.943   8.305  -9.309  1.00  0.00    +0.000 C 
ATOM     86  C61 UNL A   1     -11.050   9.341  -9.019  1.00  0.00    +0.000 C 
ATOM     24  C18 UNL A   1     -10.199   9.235  -7.914  1.00  0.00    +0.000 C 
ATOM     25  C19 UNL A   1     -10.319   8.152  -7.042  1.00  0.00    +0.000 C 
ATOM     26  C20 UNL A   1     -11.136   7.080  -7.386  1.00  0.00    +0.000 C 
ATOM     27  C21 UNL A   1     -11.945   7.135  -8.532  1.00  0.00    +0.000 C 
ATOM    121  H21 UNL A   1      -9.803   8.146  -6.148  1.00  0.00    +0.000 H 
BRANCH   24   22
ATOM     22  C17 UNL A   1      -9.142  10.253  -7.720  1.00  0.00    +0.000 C 
ATOM     23  O4  UNL A   1      -9.411  11.443  -7.851  1.00  0.00    +0.000 O 
BRANCH   22   21
ATOM     21  N2  UNL A   1      -7.854   9.855  -7.440  1.00  0.00    +0.000 N 
ATOM    120  H20 UNL A   1      -7.220  10.585  -7.255  1.00  0.00    +0.000 H 
BRANCH   21   20
ATOM     20  C16 UNL A   1      -7.293   8.514  -7.378  1.00  0.00    +0.000 C 
ATOM    118  H18 UNL A   1      -7.006   8.314  -6.367  1.00  0.00    +0.000 H 
ATOM    119  H19 UNL A   1      -8.047   7.841  -7.728  1.00  0.00    +0.000 H 
BRANCH   20   19
ATOM     19  C15 UNL A   1      -6.073   8.325  -8.271  1.00  0.00    +0.000 C 
ATOM    116  H16 UNL A   1      -5.801   7.290  -8.238  1.00  0.00    +0.000 H 
ATOM    117  H17 UNL A   1      -6.368   8.668  -9.240  1.00  0.00    +0.000 H 
BRANCH   19   18
ATOM     18  C14 UNL A   1      -4.840   9.146  -7.899  1.00  0.00    +0.000 C 
ATOM    115  H15 UNL A   1      -5.136  10.168  -8.008  1.00  0.00    +0.000 H 
ATOM    114  H14 UNL A   1      -4.042   8.843  -8.544  1.00  0.00    +0.000 H 
BRANCH   18   17
ATOM     17  C13 UNL A   1      -4.346   9.018  -6.457  1.00  0.00    +0.000 C 
ATOM    113  H13 UNL A   1      -5.136   9.418  -5.856  1.00  0.00    +0.000 H 
ATOM    112  H12 UNL A   1      -3.417   9.544  -6.386  1.00  0.00    +0.000 H 
BRANCH   17   16
ATOM    110  H10 UNL A   1      -3.653   7.691  -4.968  1.00  0.00    +0.000 H 
ATOM    111  H11 UNL A   1      -5.089   7.153  -5.926  1.00  0.00    +0.000 H 
ATOM     16  C12 UNL A   1      -4.118   7.603  -5.928  1.00  0.00    +0.000 C 
BRANCH   16   15
ATOM    108  H8  UNL A   1      -3.153   5.746  -6.233  1.00  0.00    +0.000 H 
ATOM    109  H9  UNL A   1      -3.763   6.569  -7.706  1.00  0.00    +0.000 H 
ATOM     15  C11 UNL A   1      -3.257   6.667  -6.769  1.00  0.00    +0.000 C 
BRANCH   15   14
ATOM    107  H7  UNL A   1      -1.829   8.128  -7.069  1.00  0.00    +0.000 H 
ATOM     14  N1  UNL A   1      -1.928   7.148  -7.087  1.00  0.00    +0.000 N 
BRANCH   14   12
ATOM     12  C10 UNL A   1      -0.781   6.456  -7.410  1.00  0.00    +0.000 C 
ATOM     13  O3  UNL A   1       0.188   7.075  -7.845  1.00  0.00    +0.000 O 
BRANCH   12   11
ATOM    135  H35 UNL A   1      -2.532   4.339  -7.801  1.00  0.00    +0.000 H 
ATOM    136  H36 UNL A   1      -2.389   2.178  -6.702  1.00  0.00    +0.000 H 
ATOM      9  C7  UNL A   1       0.711   3.263  -6.103  1.00  0.00    +0.000 C 
ATOM    105  H5  UNL A   1       1.629   2.907  -5.796  1.00  0.00    +0.000 H 
ATOM      8  C6  UNL A   1      -0.425   2.470  -5.991  1.00  0.00    +0.000 C 
ATOM     10  C8  UNL A   1       0.591   4.549  -6.638  1.00  0.00    +0.000 C 
ATOM    106  H6  UNL A   1       1.415   5.170  -6.670  1.00  0.00    +0.000 H 
ATOM     11  C9  UNL A   1      -0.643   5.000  -7.131  1.00  0.00    +0.000 C 
ATOM     87  C62 UNL A   1      -1.690   4.088  -7.260  1.00  0.00    +0.000 C 
ATOM     88  C63 UNL A   1      -1.595   2.835  -6.657  1.00  0.00    +0.000 C 
BRANCH    8    7
ATOM      7  O2  UNL A   1      -0.448   1.286  -5.319  1.00  0.00    +0.000 O 
BRANCH    7    6
ATOM      2  C2  UNL A   1       0.470   0.396  -1.305  1.00  0.00    +0.000 C 
ATOM      3  C3  UNL A   1       0.150  -0.599  -2.134  1.00  0.00    +0.000 C 
ATOM    100  O7  UNL A   1       0.416   1.721  -1.682  1.00  0.00    +0.000 O 
ATOM      4  C4  UNL A   1      -0.221  -0.277  -3.518  1.00  0.00    +0.000 C 
ATOM      5  O1  UNL A   1      -0.567  -1.186  -4.269  1.00  0.00    +0.000 O 
ATOM      6  C5  UNL A   1      -0.171   1.154  -3.963  1.00  0.00    +0.000 C 
ATOM    104  H4  UNL A   1       0.164  -1.578  -1.808  1.00  0.00    +0.000 H 
ATOM     89  C64 UNL A   1       0.086   2.070  -2.990  1.00  0.00    +0.000 C 
BRANCH    2    1
ATOM      1  C1  UNL A   1       0.898   0.170   0.110  1.00  0.00    +0.000 C 
ATOM    101  H1  UNL A   1       0.912  -0.880   0.314  1.00  0.00    +0.000 H 
ATOM    102  H2  UNL A   1       0.210   0.654   0.772  1.00  0.00    +0.000 H 
ATOM    103  H3  UNL A   1       1.878   0.575   0.255  1.00  0.00    +0.000 H 
ENDBRANCH    2    1
BRANCH   89   90
ATOM     98  C70 UNL A   1      -1.067   5.647  -3.490  1.00  0.00    +0.000 C 
ATOM     99  C71 UNL A   1      -1.099   4.260  -3.309  1.00  0.00    +0.000 C 
ATOM    137  H37 UNL A   1       2.178   3.731  -2.826  1.00  0.00    +0.000 H 
ATOM    138  H38 UNL A   1       2.245   6.132  -3.190  1.00  0.00    +0.000 H 
ATOM    142  H42 UNL A   1      -1.944   6.170  -3.644  1.00  0.00    +0.000 H 
ATOM    143  H43 UNL A   1      -2.003   3.762  -3.316  1.00  0.00    +0.000 H 
ATOM     90  C65 UNL A   1       0.091   3.541  -3.119  1.00  0.00    +0.000 C 
ATOM     91  C66 UNL A   1       1.306   4.242  -3.032  1.00  0.00    +0.000 C 
ATOM     92  C67 UNL A   1       1.345   5.627  -3.224  1.00  0.00    +0.000 C 
ATOM     93  C68 UNL A   1       0.156   6.321  -3.461  1.00  0.00    +0.000 C 
BRANCH   93   94
ATOM     97  O6  UNL A   1      -1.087   8.478  -4.281  1.00  0.00    +0.000 O 
ATOM     94  S1  UNL A   1       0.230   8.060  -3.832  1.00  0.00    +0.000 S 
ATOM     96  O5  UNL A   1       1.409   8.277  -4.644  1.00  0.00    +0.000 O 
BRANCH   94   95
ATOM    139  H39 UNL A   1       1.476   8.532  -1.892  1.00  0.00    +0.000 H 
ATOM    140  H40 UNL A   1      -0.241   8.496  -1.567  1.00  0.00    +0.000 H 
ATOM    141  H41 UNL A   1       0.470   9.881  -2.360  1.00  0.00    +0.000 H 
ATOM     95  C69 UNL A   1       0.511   8.817  -2.257  1.00  0.00    +0.000 C 
ENDBRANCH   94   95
ENDBRANCH   93   94
ENDBRANCH   89   90
ENDBRANCH    7    6
ENDBRANCH    8    7
ENDBRANCH   12   11
ENDBRANCH   14   12
ENDBRANCH   15   14
ENDBRANCH   16   15
ENDBRANCH   17   16
ENDBRANCH   18   17
ENDBRANCH   19   18
ENDBRANCH   20   19
ENDBRANCH   21   20
ENDBRANCH   22   21
ENDBRANCH   24   22
ENDBRANCH   28   27
BRANCH   32   33
ATOM     33  C26 UNL A   1     -11.867   2.920 -14.101  1.00  0.00    +0.000 C 
ATOM     34  C27 UNL A   1     -10.508   2.573 -14.079  1.00  0.00    +0.000 C 
ATOM     35  F1  UNL A   1      -9.889   2.340 -12.911  1.00  0.00    +0.000 F 
ATOM     36  C28 UNL A   1      -9.769   2.489 -15.257  1.00  0.00    +0.000 C 
ATOM     37  F2  UNL A   1      -8.463   2.190 -15.207  1.00  0.00    +0.000 F 
ATOM     38  C29 UNL A   1     -10.380   2.715 -16.481  1.00  0.00    +0.000 C 
ATOM     39  F3  UNL A   1      -9.672   2.614 -17.614  1.00  0.00    +0.000 F 
ATOM     40  C30 UNL A   1     -11.725   3.048 -16.529  1.00  0.00    +0.000 C 
ATOM     41  F4  UNL A   1     -12.322   3.251 -17.711  1.00  0.00    +0.000 F 
ATOM     42  C31 UNL A   1     -12.459   3.164 -15.351  1.00  0.00    +0.000 C 
ATOM     43  F5  UNL A   1     -13.757   3.492 -15.431  1.00  0.00    +0.000 F 
ENDBRANCH   32   33
BRANCH   49   50
ATOM     50  C37 UNL A   1     -17.276  -0.827 -11.171  1.00  0.00    +0.000 C 
ATOM     51  C38 UNL A   1     -18.627  -0.659 -11.506  1.00  0.00    +0.000 C 
ATOM     52  F6  UNL A   1     -19.194   0.555 -11.439  1.00  0.00    +0.000 F 
ATOM     53  C39 UNL A   1     -19.413  -1.746 -11.880  1.00  0.00    +0.000 C 
ATOM     54  F7  UNL A   1     -20.713  -1.569 -12.152  1.00  0.00    +0.000 F 
ATOM     55  C40 UNL A   1     -18.855  -3.013 -11.962  1.00  0.00    +0.000 C 
ATOM     56  F8  UNL A   1     -19.609  -4.056 -12.337  1.00  0.00    +0.000 F 
ATOM     57  C41 UNL A   1     -17.517  -3.200 -11.651  1.00  0.00    +0.000 C 
ATOM     58  F9  UNL A   1     -16.972  -4.421 -11.747  1.00  0.00    +0.000 F 
ATOM     59  C42 UNL A   1     -16.737  -2.121 -11.244  1.00  0.00    +0.000 C 
ATOM     60  F10 UNL A   1     -15.448  -2.336 -10.942  1.00  0.00    +0.000 F 
ENDBRANCH   49   50
BRANCH   64   65
ATOM     65  C46 UNL A   1     -17.074   3.360  -5.595  1.00  0.00    +0.000 C 
ATOM     66  C47 UNL A   1     -16.937   2.351  -4.633  1.00  0.00    +0.000 C 
ATOM     67  F11 UNL A   1     -16.142   1.298  -4.875  1.00  0.00    +0.000 F 
ATOM     68  C48 UNL A   1     -17.638   2.404  -3.430  1.00  0.00    +0.000 C 
ATOM     69  F12 UNL A   1     -17.516   1.408  -2.542  1.00  0.00    +0.000 F 
ATOM     70  C49 UNL A   1     -18.465   3.482  -3.153  1.00  0.00    +0.000 C 
ATOM     71  F13 UNL A   1     -19.125   3.542  -1.988  1.00  0.00    +0.000 F 
ATOM     72  C50 UNL A   1     -18.610   4.497  -4.086  1.00  0.00    +0.000 C 
ATOM     73  F14 UNL A   1     -19.393   5.550  -3.815  1.00  0.00    +0.000 F 
ATOM     74  C51 UNL A   1     -17.936   4.428  -5.302  1.00  0.00    +0.000 C 
ATOM     75  F15 UNL A   1     -18.101   5.421  -6.189  1.00  0.00    +0.000 F 
ENDBRANCH   64   65
TORSDOF 21