ROOT
ATOM    129  H39 UNL A   1      -9.198 -11.672 -11.572  1.00  0.00    +0.000 H 
ATOM    130  H40 UNL A   1     -13.896 -10.232 -10.506  1.00  0.00    +0.000 H 
ATOM    131  H41 UNL A   1     -14.293 -10.101 -13.032  1.00  0.00    +0.000 H 
ATOM    132  H42 UNL A   1      -4.738 -12.682 -14.771  1.00  0.00    +0.000 H 
ATOM    133  H43 UNL A   1      -4.420 -13.171 -12.278  1.00  0.00    +0.000 H 
ATOM     31  C26 UNL A   1      -6.680 -12.497 -10.680  1.00  0.00    +0.000 C 
ATOM     32  C27 UNL A   1      -6.563 -12.435 -12.176  1.00  0.00    +0.000 C 
ATOM     33  N3  UNL A   1      -7.455 -12.069 -13.061  1.00  0.00    +0.000 N 
ATOM     34  C28 UNL A   1      -6.825 -12.169 -14.294  1.00  0.00    +0.000 C 
ATOM     35  C29 UNL A   1      -7.346 -11.960 -15.526  1.00  0.00    +0.000 C 
ATOM     47  C36 UNL A   1      -8.708 -11.572 -15.776  1.00  0.00    +0.000 C 
ATOM     48  C37 UNL A   1      -9.339 -11.371 -16.991  1.00  0.00    +0.000 C 
ATOM     49  C38 UNL A   1     -10.657 -10.976 -16.740  1.00  0.00    +0.000 C 
ATOM     50  C39 UNL A   1     -10.858 -10.969 -15.369  1.00  0.00    +0.000 C 
ATOM     51  N4  UNL A   1      -9.653 -11.331 -14.790  1.00  0.00    +0.000 N 
ATOM     52  C40 UNL A   1     -12.060 -10.652 -14.642  1.00  0.00    +0.000 C 
ATOM     64  C47 UNL A   1     -12.186 -10.684 -13.293  1.00  0.00    +0.000 C 
ATOM     65  N5  UNL A   1     -11.236 -11.015 -12.337  1.00  0.00    +0.000 N 
ATOM     66  C48 UNL A   1     -11.831 -10.885 -11.177  1.00  0.00    +0.000 C 
ATOM     67  C49 UNL A   1     -11.283 -11.132  -9.799  1.00  0.00    +0.000 C 
ATOM     79  C56 UNL A   1     -10.006 -11.535  -9.658  1.00  0.00    +0.000 C 
ATOM     80  C57 UNL A   1      -9.340 -11.817  -8.390  1.00  0.00    +0.000 C 
ATOM     81  C58 UNL A   1      -8.067 -12.170  -8.632  1.00  0.00    +0.000 C 
ATOM     82  C59 UNL A   1      -7.839 -12.171 -10.077  1.00  0.00    +0.000 C 
ATOM     83  N6  UNL A   1      -9.042 -11.775 -10.606  1.00  0.00    +0.000 N 
ATOM     84  C60 UNL A   1     -13.228 -10.435 -11.265  1.00  0.00    +0.000 C 
ATOM     85  C61 UNL A   1     -13.403 -10.359 -12.578  1.00  0.00    +0.000 C 
ATOM     86  C62 UNL A   1      -5.461 -12.582 -14.042  1.00  0.00    +0.000 C 
ATOM     87  C63 UNL A   1      -5.264 -12.815 -12.753  1.00  0.00    +0.000 C 
ATOM    124  H34 UNL A   1      -8.911 -11.492 -17.922  1.00  0.00    +0.000 H 
ATOM    125  H35 UNL A   1     -11.360 -10.731 -17.454  1.00  0.00    +0.000 H 
ATOM    126  H36 UNL A   1      -9.491 -11.406 -13.821  1.00  0.00    +0.000 H 
ATOM    127  H37 UNL A   1      -9.777 -11.755  -7.457  1.00  0.00    +0.000 H 
ATOM    128  H38 UNL A   1      -7.363 -12.403  -7.915  1.00  0.00    +0.000 H 
ENDROOT
BRANCH   31   30
ATOM    134  H44 UNL A   1      -4.413 -11.119 -10.315  1.00  0.00    +0.000 H 
ATOM    135  H45 UNL A   1      -2.437 -11.761  -9.065  1.00  0.00    +0.000 H 
ATOM    123  H33 UNL A   1      -6.271 -14.737  -9.213  1.00  0.00    +0.000 H 
ATOM     88  C64 UNL A   1      -4.396 -12.014  -9.801  1.00  0.00    +0.000 C 
ATOM     89  C65 UNL A   1      -3.274 -12.363  -9.053  1.00  0.00    +0.000 C 
ATOM    122  H32 UNL A   1      -4.364 -15.287  -7.815  1.00  0.00    +0.000 H 
ATOM     27  C22 UNL A   1      -3.285 -13.532  -8.286  1.00  0.00    +0.000 C 
ATOM     28  C23 UNL A   1      -4.374 -14.406  -8.352  1.00  0.00    +0.000 C 
ATOM     29  C24 UNL A   1      -5.475 -14.083  -9.147  1.00  0.00    +0.000 C 
ATOM     30  C25 UNL A   1      -5.504 -12.873  -9.858  1.00  0.00    +0.000 C 
BRANCH   27   25
ATOM     25  C21 UNL A   1      -2.143 -13.884  -7.416  1.00  0.00    +0.000 C 
ATOM     26  O3  UNL A   1      -1.719 -15.037  -7.405  1.00  0.00    +0.000 O 
BRANCH   25   24
ATOM    121  H31 UNL A   1      -0.700 -13.178  -6.221  1.00  0.00    +0.000 H 
ATOM     24  N2  UNL A   1      -1.566 -12.929  -6.618  1.00  0.00    +0.000 N 
BRANCH   24   23
ATOM    119  H29 UNL A   1      -1.355 -10.877  -6.642  1.00  0.00    +0.000 H 
ATOM     23  C20 UNL A   1      -2.051 -11.603  -6.276  1.00  0.00    +0.000 C 
ATOM    120  H30 UNL A   1      -3.014 -11.480  -6.724  1.00  0.00    +0.000 H 
BRANCH   23   22
ATOM    118  H28 UNL A   1      -2.831 -12.219  -4.433  1.00  0.00    +0.000 H 
ATOM    117  H27 UNL A   1      -2.631 -10.450  -4.597  1.00  0.00    +0.000 H 
ATOM     22  C19 UNL A   1      -2.208 -11.417  -4.770  1.00  0.00    +0.000 C 
BRANCH   22   21
ATOM    115  H25 UNL A   1      -1.139 -11.328  -2.940  1.00  0.00    +0.000 H 
ATOM    116  H26 UNL A   1      -0.526 -12.501  -4.149  1.00  0.00    +0.000 H 
ATOM     21  C18 UNL A   1      -0.908 -11.518  -3.967  1.00  0.00    +0.000 C 
BRANCH   21   20
ATOM    113  H23 UNL A   1       0.997 -10.627  -3.671  1.00  0.00    +0.000 H 
ATOM    114  H24 UNL A   1       0.492 -10.841  -5.376  1.00  0.00    +0.000 H 
ATOM     20  C17 UNL A   1       0.205 -10.550  -4.387  1.00  0.00    +0.000 C 
BRANCH   20   19
ATOM     19  C16 UNL A   1      -0.208  -9.079  -4.480  1.00  0.00    +0.000 C 
ATOM    111  H21 UNL A   1       0.650  -8.507  -4.763  1.00  0.00    +0.000 H 
ATOM    112  H22 UNL A   1      -0.998  -9.027  -5.200  1.00  0.00    +0.000 H 
BRANCH   19   18
ATOM     18  C15 UNL A   1      -0.762  -8.500  -3.180  1.00  0.00    +0.000 C 
ATOM    109  H19 UNL A   1      -1.281  -7.590  -3.398  1.00  0.00    +0.000 H 
ATOM    110  H20 UNL A   1      -1.423  -9.223  -2.747  1.00  0.00    +0.000 H 
BRANCH   18   17
ATOM     17  N1  UNL A   1       0.294  -8.223  -2.224  1.00  0.00    +0.000 N 
ATOM    108  H18 UNL A   1       0.775  -9.023  -1.912  1.00  0.00    +0.000 H 
BRANCH   17   15
ATOM     15  C14 UNL A   1       0.745  -7.051  -1.679  1.00  0.00    +0.000 C 
ATOM     16  O2  UNL A   1       1.698  -7.150  -0.900  1.00  0.00    +0.000 O 
BRANCH   15   13
ATOM      2  C2  UNL A   1       0.571  -1.012  -0.933  1.00  0.00    +0.000 C 
ATOM      3  C3  UNL A   1       0.875  -2.372  -0.671  1.00  0.00    +0.000 C 
ATOM      5  C5  UNL A   1       0.514  -3.355  -1.612  1.00  0.00    +0.000 C 
ATOM      6  C6  UNL A   1      -0.095  -3.003  -2.830  1.00  0.00    +0.000 C 
ATOM      7  C7  UNL A   1      -0.442  -1.659  -3.077  1.00  0.00    +0.000 C 
ATOM    101  H11 UNL A   1      -0.066  -3.743  -4.808  1.00  0.00    +0.000 H 
ATOM      9  C9  UNL A   1      -0.107  -0.687  -2.122  1.00  0.00    +0.000 C 
ATOM    102  H12 UNL A   1      -1.472  -4.215  -3.860  1.00  0.00    +0.000 H 
ATOM     11  C10 UNL A   1      -0.413  -4.065  -3.848  1.00  0.00    +0.000 C 
ATOM     12  C11 UNL A   1       0.253  -5.379  -3.498  1.00  0.00    +0.000 C 
ATOM     13  C12 UNL A   1       0.074  -5.686  -2.010  1.00  0.00    +0.000 C 
ATOM    103  H13 UNL A   1       1.298  -5.315  -3.722  1.00  0.00    +0.000 H 
ATOM    104  H14 UNL A   1      -0.198  -6.161  -4.072  1.00  0.00    +0.000 H 
ATOM     90  O4  UNL A   1       0.787  -4.662  -1.276  1.00  0.00    +0.000 O 
BRANCH    2    1
ATOM      1  C1  UNL A   1       0.997   0.041   0.059  1.00  0.00    +0.000 C 
ATOM     91  H1  UNL A   1       1.493  -0.426   0.884  1.00  0.00    +0.000 H 
ATOM     92  H2  UNL A   1       0.136   0.568   0.412  1.00  0.00    +0.000 H 
ATOM     93  H3  UNL A   1       1.666   0.728  -0.416  1.00  0.00    +0.000 H 
ENDBRANCH    2    1
BRANCH    3    4
ATOM      4  C4  UNL A   1       1.562  -2.765   0.615  1.00  0.00    +0.000 C 
ATOM     94  H4  UNL A   1       1.756  -1.889   1.198  1.00  0.00    +0.000 H 
ATOM     95  H5  UNL A   1       2.487  -3.255   0.391  1.00  0.00    +0.000 H 
ATOM     96  H6  UNL A   1       0.932  -3.429   1.169  1.00  0.00    +0.000 H 
ENDBRANCH    3    4
BRANCH    7    8
ATOM     97  H7  UNL A   1      -1.323  -2.161  -4.940  1.00  0.00    +0.000 H 
ATOM     98  H8  UNL A   1      -0.567  -0.586  -4.902  1.00  0.00    +0.000 H 
ATOM     99  H9  UNL A   1      -2.103  -0.837  -4.108  1.00  0.00    +0.000 H 
ATOM      8  C8  UNL A   1      -1.161  -1.284  -4.349  1.00  0.00    +0.000 C 
ENDBRANCH    7    8
BRANCH    9   10
ATOM     10  O1  UNL A   1      -0.471   0.603  -2.403  1.00  0.00    +0.000 O 
ATOM    100  H10 UNL A   1      -0.270   1.289  -1.796  1.00  0.00    +0.000 H 
ENDBRANCH    9   10
BRANCH   13   14
ATOM    105  H15 UNL A   1      -1.932  -6.459  -1.974  1.00  0.00    +0.000 H 
ATOM    106  H16 UNL A   1      -1.821  -4.755  -1.602  1.00  0.00    +0.000 H 
ATOM    107  H17 UNL A   1      -1.342  -5.942  -0.412  1.00  0.00    +0.000 H 
ATOM     14  C13 UNL A   1      -1.365  -5.713  -1.457  1.00  0.00    +0.000 C 
ENDBRANCH   13   14
ENDBRANCH   15   13
ENDBRANCH   17   15
ENDBRANCH   18   17
ENDBRANCH   19   18
ENDBRANCH   20   19
ENDBRANCH   21   20
ENDBRANCH   22   21
ENDBRANCH   23   22
ENDBRANCH   24   23
ENDBRANCH   25   24
ENDBRANCH   27   25
ENDBRANCH   31   30
BRANCH   35   36
ATOM     36  C30 UNL A   1      -6.440 -12.158 -16.704  1.00  0.00    +0.000 C 
ATOM     37  C31 UNL A   1      -6.039 -13.441 -17.108  1.00  0.00    +0.000 C 
ATOM     38  F1  UNL A   1      -6.417 -14.518 -16.404  1.00  0.00    +0.000 F 
ATOM     39  C32 UNL A   1      -5.221 -13.618 -18.221  1.00  0.00    +0.000 C 
ATOM     40  F2  UNL A   1      -4.820 -14.850 -18.565  1.00  0.00    +0.000 F 
ATOM     41  C33 UNL A   1      -4.814 -12.523 -18.967  1.00  0.00    +0.000 C 
ATOM     42  F3  UNL A   1      -4.035 -12.696 -20.043  1.00  0.00    +0.000 F 
ATOM     43  C34 UNL A   1      -5.210 -11.247 -18.594  1.00  0.00    +0.000 C 
ATOM     44  F4  UNL A   1      -4.826 -10.188 -19.320  1.00  0.00    +0.000 F 
ATOM     45  C35 UNL A   1      -6.007 -11.063 -17.466  1.00  0.00    +0.000 C 
ATOM     46  F5  UNL A   1      -6.365  -9.817 -17.125  1.00  0.00    +0.000 F 
ENDBRANCH   35   36
BRANCH   52   53
ATOM     53  C41 UNL A   1     -13.270 -10.269 -15.440  1.00  0.00    +0.000 C 
ATOM     54  C42 UNL A   1     -13.705  -8.938 -15.512  1.00  0.00    +0.000 C 
ATOM     55  F6  UNL A   1     -13.088  -7.987 -14.796  1.00  0.00    +0.000 F 
ATOM     56  C43 UNL A   1     -14.794  -8.585 -16.305  1.00  0.00    +0.000 C 
ATOM     57  F7  UNL A   1     -15.212  -7.312 -16.336  1.00  0.00    +0.000 F 
ATOM     58  C44 UNL A   1     -15.449  -9.549 -17.058  1.00  0.00    +0.000 C 
ATOM     59  F8  UNL A   1     -16.488  -9.204 -17.831  1.00  0.00    +0.000 F 
ATOM     60  C45 UNL A   1     -15.030 -10.870 -17.006  1.00  0.00    +0.000 C 
ATOM     61  F9  UNL A   1     -15.654 -11.799 -17.742  1.00  0.00    +0.000 F 
ATOM     62  C46 UNL A   1     -13.957 -11.230 -16.196  1.00  0.00    +0.000 C 
ATOM     63  F10 UNL A   1     -13.574 -12.515 -16.165  1.00  0.00    +0.000 F 
ENDBRANCH   52   53
BRANCH   67   68
ATOM     68  C50 UNL A   1     -12.140 -10.974  -8.597  1.00  0.00    +0.000 C 
ATOM     69  C51 UNL A   1     -13.163 -11.892  -8.323  1.00  0.00    +0.000 C 
ATOM     70  F11 UNL A   1     -13.401 -12.900  -9.175  1.00  0.00    +0.000 F 
ATOM     71  C52 UNL A   1     -13.962 -11.762  -7.190  1.00  0.00    +0.000 C 
ATOM     72  F12 UNL A   1     -14.951 -12.637  -6.967  1.00  0.00    +0.000 F 
ATOM     73  C53 UNL A   1     -13.739 -10.725  -6.297  1.00  0.00    +0.000 C 
ATOM     74  F13 UNL A   1     -14.501 -10.606  -5.201  1.00  0.00    +0.000 F 
ATOM     75  C54 UNL A   1     -12.728  -9.808  -6.543  1.00  0.00    +0.000 C 
ATOM     76  F14 UNL A   1     -12.502  -8.811  -5.676  1.00  0.00    +0.000 F 
ATOM     77  C55 UNL A   1     -11.943  -9.924  -7.689  1.00  0.00    +0.000 C 
ATOM     78  F15 UNL A   1     -10.974  -9.022  -7.904  1.00  0.00    +0.000 F 
ENDBRANCH   67   68
TORSDOF 20