ROOT
ATOM    129  H32 UNL A   1     -10.154   4.610  -3.253  1.00  0.00    +0.000 H 
ATOM    130  H33 UNL A   1      -8.708   4.031  -5.314  1.00  0.00    +0.000 H 
ATOM     35  C24 UNL A   1     -10.287   3.883  -7.712  1.00  0.00    +0.000 C 
ATOM     36  C25 UNL A   1     -10.681   4.392  -6.379  1.00  0.00    +0.000 C 
ATOM     37  N5  UNL A   1     -11.856   4.771  -6.002  1.00  0.00    +0.000 N 
ATOM     38  C26 UNL A   1     -11.708   5.204  -4.689  1.00  0.00    +0.000 C 
ATOM     39  C27 UNL A   1     -12.506   6.194  -4.198  1.00  0.00    +0.000 C 
ATOM     51  C34 UNL A   1     -13.659   6.382  -5.051  1.00  0.00    +0.000 C 
ATOM     52  C35 UNL A   1     -14.699   5.578  -5.477  1.00  0.00    +0.000 C 
ATOM     53  C36 UNL A   1     -14.927   5.952  -6.836  1.00  0.00    +0.000 C 
ATOM     54  C37 UNL A   1     -14.070   7.011  -7.141  1.00  0.00    +0.000 C 
ATOM     55  N6  UNL A   1     -13.639   7.448  -5.918  1.00  0.00    +0.000 N 
ATOM     56  C38 UNL A   1     -13.600   7.559  -8.391  1.00  0.00    +0.000 C 
ATOM     68  C45 UNL A   1     -12.460   8.297  -8.539  1.00  0.00    +0.000 C 
ATOM     69  N7  UNL A   1     -11.833   8.393  -9.773  1.00  0.00    +0.000 N 
ATOM     70  C46 UNL A   1     -10.573   8.587  -9.489  1.00  0.00    +0.000 C 
ATOM     71  C47 UNL A   1      -9.463   7.936 -10.230  1.00  0.00    +0.000 C 
ATOM     83  C54 UNL A   1      -9.547   6.608  -9.964  1.00  0.00    +0.000 C 
ATOM     84  C55 UNL A   1      -8.988   5.478 -10.667  1.00  0.00    +0.000 C 
ATOM     85  C56 UNL A   1      -9.360   4.353 -10.025  1.00  0.00    +0.000 C 
ATOM     86  C57 UNL A   1     -10.027   4.695  -8.762  1.00  0.00    +0.000 C 
ATOM     87  N8  UNL A   1     -10.211   6.056  -8.845  1.00  0.00    +0.000 N 
ATOM     88  C58 UNL A   1     -10.299   9.057  -8.141  1.00  0.00    +0.000 C 
ATOM     89  C59 UNL A   1     -11.478   8.786  -7.574  1.00  0.00    +0.000 C 
ATOM     90  C60 UNL A   1     -10.445   4.683  -4.241  1.00  0.00    +0.000 C 
ATOM     91  C61 UNL A   1      -9.702   4.307  -5.284  1.00  0.00    +0.000 C 
ATOM    121  H24 UNL A   1     -15.203   4.862  -4.930  1.00  0.00    +0.000 H 
ATOM    122  H25 UNL A   1     -15.605   5.516  -7.479  1.00  0.00    +0.000 H 
ATOM    123  H26 UNL A   1     -13.362   8.367  -5.697  1.00  0.00    +0.000 H 
ATOM    124  H27 UNL A   1      -8.403   5.523 -11.517  1.00  0.00    +0.000 H 
ATOM    125  H28 UNL A   1      -9.199   3.393 -10.369  1.00  0.00    +0.000 H 
ATOM    126  H29 UNL A   1     -10.741   6.581  -8.203  1.00  0.00    +0.000 H 
ATOM    127  H30 UNL A   1      -9.445   9.476  -7.741  1.00  0.00    +0.000 H 
ATOM    128  H31 UNL A   1     -11.673   8.908  -6.568  1.00  0.00    +0.000 H 
ENDROOT
BRANCH   35   34
ATOM     33  C22 UNL A   1     -10.851   1.473  -7.319  1.00  0.00    +0.000 C 
ATOM     34  C23 UNL A   1      -9.952   2.468  -7.730  1.00  0.00    +0.000 C 
ATOM    131  H34 UNL A   1      -7.954   2.891  -8.249  1.00  0.00    +0.000 H 
ATOM    132  H35 UNL A   1      -7.492   0.585  -8.835  1.00  0.00    +0.000 H 
ATOM    119  H22 UNL A   1     -11.035  -0.594  -6.912  1.00  0.00    +0.000 H 
ATOM    120  H23 UNL A   1     -11.817   1.718  -7.050  1.00  0.00    +0.000 H 
ATOM     92  C62 UNL A   1      -8.658   2.150  -8.109  1.00  0.00    +0.000 C 
ATOM     93  C63 UNL A   1      -8.333   0.839  -8.292  1.00  0.00    +0.000 C 
ATOM     31  C20 UNL A   1      -9.137  -0.153  -7.747  1.00  0.00    +0.000 C 
ATOM     32  C21 UNL A   1     -10.420   0.149  -7.279  1.00  0.00    +0.000 C 
BRANCH   31   29
ATOM     29  C19 UNL A   1      -8.570  -1.509  -7.660  1.00  0.00    +0.000 C 
ATOM     30  O6  UNL A   1      -9.297  -2.491  -7.754  1.00  0.00    +0.000 O 
BRANCH   29   28
ATOM     28  N4  UNL A   1      -7.206  -1.652  -7.481  1.00  0.00    +0.000 N 
ATOM    118  H21 UNL A   1      -6.807  -2.479  -7.834  1.00  0.00    +0.000 H 
BRANCH   28   27
ATOM     27  C18 UNL A   1      -6.282  -0.718  -6.826  1.00  0.00    +0.000 C 
ATOM    116  H19 UNL A   1      -6.342   0.230  -7.319  1.00  0.00    +0.000 H 
ATOM    117  H20 UNL A   1      -6.567  -0.637  -5.798  1.00  0.00    +0.000 H 
BRANCH   27   26
ATOM     26  C17 UNL A   1      -4.846  -1.210  -6.880  1.00  0.00    +0.000 C 
ATOM    115  H18 UNL A   1      -4.834  -2.192  -6.455  1.00  0.00    +0.000 H 
ATOM    114  H17 UNL A   1      -4.232  -0.523  -6.335  1.00  0.00    +0.000 H 
BRANCH   26   25
ATOM     25  C16 UNL A   1      -4.290  -1.330  -8.308  1.00  0.00    +0.000 C 
ATOM    113  H16 UNL A   1      -5.035  -1.864  -8.860  1.00  0.00    +0.000 H 
ATOM    112  H15 UNL A   1      -3.344  -1.826  -8.248  1.00  0.00    +0.000 H 
BRANCH   25   24
ATOM    110  H13 UNL A   1      -3.565  -0.235  -9.981  1.00  0.00    +0.000 H 
ATOM    111  H14 UNL A   1      -5.056   0.403  -9.218  1.00  0.00    +0.000 H 
ATOM     24  C15 UNL A   1      -4.080  -0.011  -9.070  1.00  0.00    +0.000 C 
BRANCH   24   23
ATOM    108  H11 UNL A   1      -3.162   1.910  -8.963  1.00  0.00    +0.000 H 
ATOM    109  H12 UNL A   1      -3.814   1.300  -7.430  1.00  0.00    +0.000 H 
ATOM     23  C14 UNL A   1      -3.275   1.060  -8.323  1.00  0.00    +0.000 C 
BRANCH   23   22
ATOM    106  H9  UNL A   1      -1.514   1.210  -7.117  1.00  0.00    +0.000 H 
ATOM    107  H10 UNL A   1      -1.951  -0.429  -7.552  1.00  0.00    +0.000 H 
ATOM     22  C13 UNL A   1      -1.883   0.580  -7.900  1.00  0.00    +0.000 C 
BRANCH   22   21
ATOM    105  H8  UNL A   1      -1.082  -0.116  -9.657  1.00  0.00    +0.000 H 
ATOM     21  N3  UNL A   1      -0.975   0.635  -9.030  1.00  0.00    +0.000 N 
BRANCH   21   19
ATOM     19  C12 UNL A   1       0.004   1.523  -9.400  1.00  0.00    +0.000 C 
ATOM     20  O5  UNL A   1       0.573   1.333 -10.474  1.00  0.00    +0.000 O 
BRANCH   19   18
ATOM    133  H36 UNL A   1      -1.362   3.106  -7.580  1.00  0.00    +0.000 H 
ATOM    134  H37 UNL A   1      -0.367   4.539  -5.897  1.00  0.00    +0.000 H 
ATOM    103  H6  UNL A   1       3.315   4.328  -7.911  1.00  0.00    +0.000 H 
ATOM    104  H7  UNL A   1       2.390   2.640  -9.394  1.00  0.00    +0.000 H 
ATOM     15  C8  UNL A   1       1.569   4.492  -6.734  1.00  0.00    +0.000 C 
ATOM     16  C9  UNL A   1       2.346   3.997  -7.780  1.00  0.00    +0.000 C 
ATOM     17  C10 UNL A   1       1.801   3.046  -8.650  1.00  0.00    +0.000 C 
ATOM     18  C11 UNL A   1       0.463   2.637  -8.524  1.00  0.00    +0.000 C 
ATOM     94  C64 UNL A   1      -0.345   3.277  -7.585  1.00  0.00    +0.000 C 
ATOM     95  C65 UNL A   1       0.217   4.147  -6.652  1.00  0.00    +0.000 C 
BRANCH   15   14
ATOM    102  H5  UNL A   1       2.611   6.414  -2.837  1.00  0.00    +0.000 H 
ATOM      9  C5  UNL A   1       2.078   5.135  -4.384  1.00  0.00    +0.000 C 
ATOM     10  C6  UNL A   1       2.537   6.263  -3.855  1.00  0.00    +0.000 C 
ATOM     11  O3  UNL A   1       2.912   7.226  -4.791  1.00  0.00    +0.000 O 
ATOM     12  C7  UNL A   1       2.637   6.578  -5.996  1.00  0.00    +0.000 C 
ATOM     13  O4  UNL A   1       2.795   7.114  -7.085  1.00  0.00    +0.000 O 
ATOM     14  N2  UNL A   1       2.134   5.306  -5.738  1.00  0.00    +0.000 N 
BRANCH    9    8
ATOM     97  C67 UNL A   1       0.332   2.673  -2.115  1.00  0.00    +0.000 C 
ATOM    100  H3  UNL A   1       2.516   0.621  -3.636  1.00  0.00    +0.000 H 
ATOM      5  C1  UNL A   1       1.003   1.490  -2.445  1.00  0.00    +0.000 C 
ATOM      6  C2  UNL A   1       2.025   1.496  -3.394  1.00  0.00    +0.000 C 
ATOM      7  C3  UNL A   1       2.378   2.697  -4.014  1.00  0.00    +0.000 C 
ATOM    136  H39 UNL A   1      -0.427   2.659  -1.417  1.00  0.00    +0.000 H 
ATOM    101  H4  UNL A   1       3.137   2.705  -4.713  1.00  0.00    +0.000 H 
ATOM    135  H38 UNL A   1       0.211   4.749  -2.482  1.00  0.00    +0.000 H 
ATOM      8  C4  UNL A   1       1.712   3.896  -3.700  1.00  0.00    +0.000 C 
ATOM     96  C66 UNL A   1       0.695   3.873  -2.736  1.00  0.00    +0.000 C 
BRANCH    5    2
ATOM      2  S1  UNL A   1       0.499  -0.032  -1.696  1.00  0.00    +0.000 S 
ATOM      3  O1  UNL A   1       1.198  -1.131  -2.335  1.00  0.00    +0.000 O 
ATOM      4  O2  UNL A   1      -0.928  -0.017  -1.530  1.00  0.00    +0.000 O 
BRANCH    2    1
ATOM      1  N1  UNL A   1       1.164   0.092  -0.160  1.00  0.00    +0.000 N 
ATOM     98  H1  UNL A   1       0.936  -0.744   0.378  1.00  0.00    +0.000 H 
ATOM     99  H2  UNL A   1       0.783   0.913   0.310  1.00  0.00    +0.000 H 
ENDBRANCH    2    1
ENDBRANCH    5    2
ENDBRANCH    9    8
ENDBRANCH   15   14
ENDBRANCH   19   18
ENDBRANCH   21   19
ENDBRANCH   22   21
ENDBRANCH   23   22
ENDBRANCH   24   23
ENDBRANCH   25   24
ENDBRANCH   26   25
ENDBRANCH   27   26
ENDBRANCH   28   27
ENDBRANCH   29   28
ENDBRANCH   31   29
ENDBRANCH   35   34
BRANCH   39   40
ATOM     40  C28 UNL A   1     -12.048   7.274  -3.236  1.00  0.00    +0.000 C 
ATOM     41  C29 UNL A   1     -12.987   8.249  -2.834  1.00  0.00    +0.000 C 
ATOM     42  F1  UNL A   1     -14.301   8.055  -3.028  1.00  0.00    +0.000 F 
ATOM     43  C30 UNL A   1     -12.598   9.491  -2.327  1.00  0.00    +0.000 C 
ATOM     44  F2  UNL A   1     -13.521  10.437  -2.108  1.00  0.00    +0.000 F 
ATOM     45  C31 UNL A   1     -11.262   9.778  -2.128  1.00  0.00    +0.000 C 
ATOM     46  F3  UNL A   1     -10.879  10.993  -1.716  1.00  0.00    +0.000 F 
ATOM     47  C32 UNL A   1     -10.320   8.812  -2.400  1.00  0.00    +0.000 C 
ATOM     48  F4  UNL A   1      -9.017   9.071  -2.216  1.00  0.00    +0.000 F 
ATOM     49  C33 UNL A   1     -10.701   7.590  -2.953  1.00  0.00    +0.000 C 
ATOM     50  F5  UNL A   1      -9.682   6.791  -3.283  1.00  0.00    +0.000 F 
ENDBRANCH   39   40
BRANCH   56   57
ATOM     65  F9  UNL A   1     -17.688   7.269 -10.982  1.00  0.00    +0.000 F 
ATOM     66  C44 UNL A   1     -15.641   7.454  -9.817  1.00  0.00    +0.000 C 
ATOM     67  F10 UNL A   1     -16.241   8.265  -8.931  1.00  0.00    +0.000 F 
ATOM     57  C39 UNL A   1     -14.300   7.093  -9.638  1.00  0.00    +0.000 C 
ATOM     58  C40 UNL A   1     -13.742   6.197 -10.567  1.00  0.00    +0.000 C 
ATOM     59  F6  UNL A   1     -12.496   5.732 -10.410  1.00  0.00    +0.000 F 
ATOM     60  C41 UNL A   1     -14.485   5.719 -11.646  1.00  0.00    +0.000 C 
ATOM     61  F7  UNL A   1     -13.927   4.873 -12.525  1.00  0.00    +0.000 F 
ATOM     62  C42 UNL A   1     -15.812   6.088 -11.793  1.00  0.00    +0.000 C 
ATOM     63  F8  UNL A   1     -16.541   5.596 -12.805  1.00  0.00    +0.000 F 
ATOM     64  C43 UNL A   1     -16.392   6.947 -10.873  1.00  0.00    +0.000 C 
ENDBRANCH   56   57
BRANCH   71   72
ATOM     72  C48 UNL A   1      -8.345   8.700 -10.829  1.00  0.00    +0.000 C 
ATOM     73  C49 UNL A   1      -8.534  10.006 -11.308  1.00  0.00    +0.000 C 
ATOM     74  F11 UNL A   1      -9.774  10.500 -11.446  1.00  0.00    +0.000 F 
ATOM     75  C50 UNL A   1      -7.454  10.852 -11.582  1.00  0.00    +0.000 C 
ATOM     76  F12 UNL A   1      -7.675  12.114 -11.975  1.00  0.00    +0.000 F 
ATOM     77  C51 UNL A   1      -6.154  10.412 -11.390  1.00  0.00    +0.000 C 
ATOM     78  F13 UNL A   1      -5.121  11.243 -11.586  1.00  0.00    +0.000 F 
ATOM     79  C52 UNL A   1      -5.933   9.120 -10.950  1.00  0.00    +0.000 C 
ATOM     80  F14 UNL A   1      -4.682   8.696 -10.722  1.00  0.00    +0.000 F 
ATOM     81  C53 UNL A   1      -7.011   8.277 -10.673  1.00  0.00    +0.000 C 
ATOM     82  F15 UNL A   1      -6.728   7.073 -10.155  1.00  0.00    +0.000 F 
ENDBRANCH   71   72
TORSDOF 19