ROOT
ATOM    129  H39 UNL A   1       1.220   2.289  -9.958  1.00  0.00    +0.000 H 
ATOM     29  C23 UNL A   1       2.588   4.223 -11.571  1.00  0.00    +0.000 C 
ATOM     30  C24 UNL A   1       1.920   2.975 -12.005  1.00  0.00    +0.000 C 
ATOM     31  N4  UNL A   1       1.906   2.462 -13.189  1.00  0.00    +0.000 N 
ATOM     32  C25 UNL A   1       1.133   1.309 -13.095  1.00  0.00    +0.000 C 
ATOM     33  C26 UNL A   1       0.524   0.782 -14.192  1.00  0.00    +0.000 C 
ATOM     45  C33 UNL A   1       1.079   1.331 -15.404  1.00  0.00    +0.000 C 
ATOM     46  C34 UNL A   1       2.307   1.261 -16.030  1.00  0.00    +0.000 C 
ATOM     47  C35 UNL A   1       2.519   2.560 -16.582  1.00  0.00    +0.000 C 
ATOM     48  C36 UNL A   1       1.388   3.336 -16.319  1.00  0.00    +0.000 C 
ATOM     49  N5  UNL A   1       0.440   2.415 -15.953  1.00  0.00    +0.000 N 
ATOM     50  C37 UNL A   1       1.175   4.767 -16.283  1.00  0.00    +0.000 C 
ATOM     62  C44 UNL A   1       0.109   5.388 -15.695  1.00  0.00    +0.000 C 
ATOM     63  N6  UNL A   1       0.181   6.723 -15.320  1.00  0.00    +0.000 N 
ATOM     64  C45 UNL A   1      -0.666   6.841 -14.333  1.00  0.00    +0.000 C 
ATOM     65  C46 UNL A   1      -0.416   7.682 -13.134  1.00  0.00    +0.000 C 
ATOM     77  C53 UNL A   1       0.637   7.120 -12.492  1.00  0.00    +0.000 C 
ATOM     78  C54 UNL A   1       1.550   7.683 -11.526  1.00  0.00    +0.000 C 
ATOM     79  C55 UNL A   1       2.469   6.743 -11.226  1.00  0.00    +0.000 C 
ATOM     80  C56 UNL A   1       2.090   5.455 -11.826  1.00  0.00    +0.000 C 
ATOM     81  N7  UNL A   1       1.037   5.777 -12.646  1.00  0.00    +0.000 N 
ATOM     82  C57 UNL A   1      -1.643   5.773 -14.214  1.00  0.00    +0.000 C 
ATOM     83  C58 UNL A   1      -1.083   4.874 -15.026  1.00  0.00    +0.000 C 
ATOM     84  C59 UNL A   1       0.951   1.056 -11.689  1.00  0.00    +0.000 C 
ATOM     85  C60 UNL A   1       1.323   2.117 -10.970  1.00  0.00    +0.000 C 
ATOM    120  H30 UNL A   1       2.936   0.445 -16.087  1.00  0.00    +0.000 H 
ATOM    121  H31 UNL A   1       3.363   2.873 -17.088  1.00  0.00    +0.000 H 
ATOM    122  H32 UNL A   1      -0.534   2.514 -16.064  1.00  0.00    +0.000 H 
ATOM    123  H33 UNL A   1       1.507   8.636 -11.134  1.00  0.00    +0.000 H 
ATOM    124  H34 UNL A   1       3.316   6.904 -10.657  1.00  0.00    +0.000 H 
ATOM    125  H35 UNL A   1       0.612   5.144 -13.268  1.00  0.00    +0.000 H 
ATOM    126  H36 UNL A   1      -2.514   5.723 -13.663  1.00  0.00    +0.000 H 
ATOM    127  H37 UNL A   1      -1.451   3.920 -15.165  1.00  0.00    +0.000 H 
ATOM    128  H38 UNL A   1       0.584   0.177 -11.293  1.00  0.00    +0.000 H 
ENDROOT
BRANCH   29   28
ATOM    130  H40 UNL A   1       2.668   5.017  -9.103  1.00  0.00    +0.000 H 
ATOM    131  H41 UNL A   1       4.733   5.444  -7.894  1.00  0.00    +0.000 H 
ATOM     28  C22 UNL A   1       3.697   4.029 -10.655  1.00  0.00    +0.000 C 
ATOM     86  C61 UNL A   1       3.575   4.642  -9.422  1.00  0.00    +0.000 C 
ATOM     87  C62 UNL A   1       4.686   4.736  -8.643  1.00  0.00    +0.000 C 
ATOM    118  H28 UNL A   1       6.657   2.524 -10.216  1.00  0.00    +0.000 H 
ATOM     25  C19 UNL A   1       5.755   3.879  -8.857  1.00  0.00    +0.000 C 
ATOM     26  C20 UNL A   1       5.851   3.144 -10.042  1.00  0.00    +0.000 C 
ATOM     27  C21 UNL A   1       4.830   3.268 -10.982  1.00  0.00    +0.000 C 
ATOM    119  H29 UNL A   1       4.906   2.809 -11.903  1.00  0.00    +0.000 H 
BRANCH   25   23
ATOM     23  C18 UNL A   1       6.754   3.773  -7.777  1.00  0.00    +0.000 C 
ATOM     24  O3  UNL A   1       7.925   3.583  -8.034  1.00  0.00    +0.000 O 
BRANCH   23   22
ATOM    117  H27 UNL A   1       6.995   4.178  -5.810  1.00  0.00    +0.000 H 
ATOM     22  N3  UNL A   1       6.314   3.906  -6.467  1.00  0.00    +0.000 N 
BRANCH   22   21
ATOM    115  H25 UNL A   1       4.304   4.410  -6.382  1.00  0.00    +0.000 H 
ATOM    116  H26 UNL A   1       4.675   2.691  -6.176  1.00  0.00    +0.000 H 
ATOM     21  C17 UNL A   1       4.963   3.693  -5.938  1.00  0.00    +0.000 C 
BRANCH   21   20
ATOM    113  H23 UNL A   1       3.889   3.669  -4.114  1.00  0.00    +0.000 H 
ATOM    114  H24 UNL A   1       5.578   3.134  -4.009  1.00  0.00    +0.000 H 
ATOM     20  C16 UNL A   1       4.897   3.844  -4.429  1.00  0.00    +0.000 C 
BRANCH   20   19
ATOM     19  C15 UNL A   1       5.327   5.234  -3.939  1.00  0.00    +0.000 C 
ATOM    111  H21 UNL A   1       5.317   5.221  -2.869  1.00  0.00    +0.000 H 
ATOM    112  H22 UNL A   1       6.293   5.401  -4.370  1.00  0.00    +0.000 H 
BRANCH   19   18
ATOM     18  C14 UNL A   1       4.462   6.418  -4.402  1.00  0.00    +0.000 C 
ATOM    109  H19 UNL A   1       4.833   7.304  -3.930  1.00  0.00    +0.000 H 
ATOM    110  H20 UNL A   1       4.534   6.440  -5.469  1.00  0.00    +0.000 H 
BRANCH   18   17
ATOM     17  C13 UNL A   1       2.970   6.299  -4.078  1.00  0.00    +0.000 C 
ATOM    107  H17 UNL A   1       2.470   7.165  -4.459  1.00  0.00    +0.000 H 
ATOM    108  H18 UNL A   1       2.617   5.398  -4.535  1.00  0.00    +0.000 H 
BRANCH   17   16
ATOM    105  H15 UNL A   1       1.716   5.756  -2.437  1.00  0.00    +0.000 H 
ATOM    106  H16 UNL A   1       3.434   5.579  -2.127  1.00  0.00    +0.000 H 
ATOM     16  C12 UNL A   1       2.683   6.191  -2.580  1.00  0.00    +0.000 C 
BRANCH   16   15
ATOM     15  N2  UNL A   1       2.711   7.497  -1.965  1.00  0.00    +0.000 N 
ATOM    104  H14 UNL A   1       3.601   7.916  -1.939  1.00  0.00    +0.000 H 
BRANCH   15   13
ATOM     13  C11 UNL A   1       1.721   8.245  -1.416  1.00  0.00    +0.000 C 
ATOM     14  O2  UNL A   1       2.015   9.383  -1.042  1.00  0.00    +0.000 O 
BRANCH   13   12
ATOM     12  C10 UNL A   1       0.334   7.687  -1.156  1.00  0.00    +0.000 C 
ATOM    102  H12 UNL A   1       0.471   6.723  -0.711  1.00  0.00    +0.000 H 
ATOM    103  H13 UNL A   1      -0.124   8.452  -0.564  1.00  0.00    +0.000 H 
BRANCH   12   11
ATOM     11  C9  UNL A   1      -0.664   7.501  -2.306  1.00  0.00    +0.000 C 
ATOM    100  H10 UNL A   1      -1.637   7.510  -1.861  1.00  0.00    +0.000 H 
ATOM    101  H11 UNL A   1      -0.387   8.292  -2.971  1.00  0.00    +0.000 H 
BRANCH   11   10
ATOM     10  C8  UNL A   1      -0.625   6.274  -3.233  1.00  0.00    +0.000 C 
ATOM     99  H9  UNL A   1       0.385   6.280  -3.586  1.00  0.00    +0.000 H 
ATOM     98  H8  UNL A   1      -1.413   6.406  -3.944  1.00  0.00    +0.000 H 
BRANCH   10    9
ATOM      2  C2  UNL A   1       0.423   0.650  -1.079  1.00  0.00    +0.000 C 
ATOM      3  C3  UNL A   1       0.038   0.279  -2.375  1.00  0.00    +0.000 C 
ATOM      4  C4  UNL A   1      -0.443   1.249  -3.272  1.00  0.00    +0.000 C 
ATOM      6  C6  UNL A   1      -0.463   2.564  -2.823  1.00  0.00    +0.000 C 
ATOM      7  C7  UNL A   1      -0.745   3.816  -3.562  1.00  0.00    +0.000 C 
ATOM      8  O1  UNL A   1      -0.833   3.851  -4.782  1.00  0.00    +0.000 O 
ATOM      9  N1  UNL A   1      -0.770   4.921  -2.701  1.00  0.00    +0.000 N 
ATOM     88  S1  UNL A   1      -0.443   4.505  -1.072  1.00  0.00    +0.000 S 
ATOM     89  C63 UNL A   1      -0.134   2.823  -1.508  1.00  0.00    +0.000 C 
ATOM     90  N8  UNL A   1       0.325   1.920  -0.625  1.00  0.00    +0.000 N 
ATOM     94  H4  UNL A   1       0.109  -0.708  -2.671  1.00  0.00    +0.000 H 
BRANCH    2    1
ATOM      1  C1  UNL A   1       1.002  -0.353  -0.126  1.00  0.00    +0.000 C 
ATOM     91  H1  UNL A   1       1.028  -1.315  -0.594  1.00  0.00    +0.000 H 
ATOM     92  H2  UNL A   1       0.396  -0.401   0.754  1.00  0.00    +0.000 H 
ATOM     93  H3  UNL A   1       1.996  -0.059   0.141  1.00  0.00    +0.000 H 
ENDBRANCH    2    1
BRANCH    4    5
ATOM     97  H7  UNL A   1      -1.973   1.124  -4.719  1.00  0.00    +0.000 H 
ATOM      5  C5  UNL A   1      -0.940   0.860  -4.628  1.00  0.00    +0.000 C 
ATOM     95  H5  UNL A   1      -0.829  -0.196  -4.759  1.00  0.00    +0.000 H 
ATOM     96  H6  UNL A   1      -0.373   1.374  -5.377  1.00  0.00    +0.000 H 
ENDBRANCH    4    5
ENDBRANCH   10    9
ENDBRANCH   11   10
ENDBRANCH   12   11
ENDBRANCH   13   12
ENDBRANCH   15   13
ENDBRANCH   16   15
ENDBRANCH   17   16
ENDBRANCH   18   17
ENDBRANCH   19   18
ENDBRANCH   20   19
ENDBRANCH   21   20
ENDBRANCH   22   21
ENDBRANCH   23   22
ENDBRANCH   25   23
ENDBRANCH   29   28
BRANCH   33   34
ATOM     34  C27 UNL A   1      -0.786   0.035 -14.172  1.00  0.00    +0.000 C 
ATOM     35  C28 UNL A   1      -1.230  -0.611 -15.343  1.00  0.00    +0.000 C 
ATOM     36  F1  UNL A   1      -0.413  -0.757 -16.396  1.00  0.00    +0.000 F 
ATOM     37  C29 UNL A   1      -2.549  -1.053 -15.489  1.00  0.00    +0.000 C 
ATOM     38  F2  UNL A   1      -2.954  -1.561 -16.660  1.00  0.00    +0.000 F 
ATOM     39  C30 UNL A   1      -3.455  -0.916 -14.453  1.00  0.00    +0.000 C 
ATOM     40  F3  UNL A   1      -4.730  -1.293 -14.608  1.00  0.00    +0.000 F 
ATOM     41  C31 UNL A   1      -3.044  -0.339 -13.271  1.00  0.00    +0.000 C 
ATOM     42  F4  UNL A   1      -3.911  -0.179 -12.262  1.00  0.00    +0.000 F 
ATOM     43  C32 UNL A   1      -1.745   0.152 -13.143  1.00  0.00    +0.000 C 
ATOM     44  F5  UNL A   1      -1.505   0.836 -12.018  1.00  0.00    +0.000 F 
ENDBRANCH   33   34
BRANCH   50   51
ATOM     51  C38 UNL A   1       2.321   5.637 -16.740  1.00  0.00    +0.000 C 
ATOM     52  C39 UNL A   1       3.135   6.390 -15.874  1.00  0.00    +0.000 C 
ATOM     53  F6  UNL A   1       2.897   6.413 -14.557  1.00  0.00    +0.000 F 
ATOM     54  C40 UNL A   1       4.246   7.092 -16.344  1.00  0.00    +0.000 C 
ATOM     55  F7  UNL A   1       4.998   7.809 -15.496  1.00  0.00    +0.000 F 
ATOM     56  C41 UNL A   1       4.595   7.021 -17.682  1.00  0.00    +0.000 C 
ATOM     57  F8  UNL A   1       5.686   7.659 -18.129  1.00  0.00    +0.000 F 
ATOM     58  C42 UNL A   1       3.825   6.266 -18.551  1.00  0.00    +0.000 C 
ATOM     59  F9  UNL A   1       4.183   6.157 -19.838  1.00  0.00    +0.000 F 
ATOM     60  C43 UNL A   1       2.695   5.595 -18.089  1.00  0.00    +0.000 C 
ATOM     61  F10 UNL A   1       1.987   4.855 -18.957  1.00  0.00    +0.000 F 
ENDBRANCH   50   51
BRANCH   65   66
ATOM     66  C47 UNL A   1      -1.440   8.597 -12.578  1.00  0.00    +0.000 C 
ATOM     67  C48 UNL A   1      -2.323   9.280 -13.430  1.00  0.00    +0.000 C 
ATOM     68  F11 UNL A   1      -2.090   9.318 -14.750  1.00  0.00    +0.000 F 
ATOM     69  C49 UNL A   1      -3.501   9.861 -12.949  1.00  0.00    +0.000 C 
ATOM     70  F12 UNL A   1      -4.357  10.441 -13.803  1.00  0.00    +0.000 F 
ATOM     71  C50 UNL A   1      -3.823   9.783 -11.604  1.00  0.00    +0.000 C 
ATOM     72  F13 UNL A   1      -4.987  10.273 -11.156  1.00  0.00    +0.000 F 
ATOM     73  C51 UNL A   1      -2.952   9.154 -10.733  1.00  0.00    +0.000 C 
ATOM     74  F14 UNL A   1      -3.270   9.040  -9.435  1.00  0.00    +0.000 F 
ATOM     75  C52 UNL A   1      -1.777   8.571 -11.211  1.00  0.00    +0.000 C 
ATOM     76  F15 UNL A   1      -1.026   7.895 -10.331  1.00  0.00    +0.000 F 
ENDBRANCH   65   66
TORSDOF 20