ROOT
ATOM     27  C21 UNL A   1       7.991   4.316  -3.641  1.00  0.00    +0.000 C 
ATOM     28  C22 UNL A   1       8.464   4.393  -5.069  1.00  0.00    +0.000 C 
ATOM     29  N3  UNL A   1       9.658   4.176  -5.561  1.00  0.00    +0.000 N 
ATOM     30  C23 UNL A   1       9.540   4.345  -6.934  1.00  0.00    +0.000 C 
ATOM     31  C24 UNL A   1      10.509   4.299  -7.880  1.00  0.00    +0.000 C 
ATOM     43  C31 UNL A   1      11.899   4.044  -7.605  1.00  0.00    +0.000 C 
ATOM     44  C32 UNL A   1      12.964   4.026  -8.488  1.00  0.00    +0.000 C 
ATOM     45  C33 UNL A   1      14.117   3.676  -7.777  1.00  0.00    +0.000 C 
ATOM     46  C34 UNL A   1      13.782   3.541  -6.440  1.00  0.00    +0.000 C 
ATOM     47  N4  UNL A   1      12.417   3.761  -6.349  1.00  0.00    +0.000 N 
ATOM     48  C35 UNL A   1      14.644   3.232  -5.327  1.00  0.00    +0.000 C 
ATOM     60  C42 UNL A   1      14.235   3.121  -4.040  1.00  0.00    +0.000 C 
ATOM     61  N5  UNL A   1      12.961   3.278  -3.510  1.00  0.00    +0.000 N 
ATOM     62  C43 UNL A   1      13.076   3.054  -2.223  1.00  0.00    +0.000 C 
ATOM     63  C44 UNL A   1      12.023   3.122  -1.147  1.00  0.00    +0.000 C 
ATOM     75  C51 UNL A   1      10.762   3.458  -1.483  1.00  0.00    +0.000 C 
ATOM     76  C52 UNL A   1       9.642   3.569  -0.554  1.00  0.00    +0.000 C 
ATOM     77  C53 UNL A   1       8.529   3.866  -1.244  1.00  0.00    +0.000 C 
ATOM     78  C54 UNL A   1       8.865   4.010  -2.661  1.00  0.00    +0.000 C 
ATOM     79  N6  UNL A   1      10.214   3.756  -2.708  1.00  0.00    +0.000 N 
ATOM     80  C55 UNL A   1      14.435   2.693  -1.798  1.00  0.00    +0.000 C 
ATOM     81  C56 UNL A   1      15.111   2.798  -2.933  1.00  0.00    +0.000 C 
ATOM     82  C57 UNL A   1       8.147   4.622  -7.207  1.00  0.00    +0.000 C 
ATOM     83  C58 UNL A   1       7.454   4.734  -6.083  1.00  0.00    +0.000 C 
ATOM    109  H24 UNL A   1      12.916   4.234  -9.498  1.00  0.00    +0.000 H 
ATOM    110  H25 UNL A   1      15.057   3.542  -8.181  1.00  0.00    +0.000 H 
ATOM    111  H26 UNL A   1      11.892   3.722  -5.517  1.00  0.00    +0.000 H 
ATOM    112  H27 UNL A   1       9.696   3.441   0.468  1.00  0.00    +0.000 H 
ATOM    113  H28 UNL A   1       7.586   3.975  -0.839  1.00  0.00    +0.000 H 
ATOM    114  H29 UNL A   1      10.739   3.785  -3.540  1.00  0.00    +0.000 H 
ATOM    115  H30 UNL A   1      14.775   2.428  -0.860  1.00  0.00    +0.000 H 
ATOM    116  H31 UNL A   1      16.131   2.666  -3.017  1.00  0.00    +0.000 H 
ATOM    117  H32 UNL A   1       7.745   4.721  -8.153  1.00  0.00    +0.000 H 
ATOM    118  H33 UNL A   1       6.464   4.994  -5.953  1.00  0.00    +0.000 H 
ENDROOT
BRANCH   27   26
ATOM    107  H22 UNL A   1       4.509   6.514  -1.529  1.00  0.00    +0.000 H 
ATOM    108  H23 UNL A   1       6.840   6.274  -2.156  1.00  0.00    +0.000 H 
ATOM     84  C59 UNL A   1       5.583   3.654  -3.827  1.00  0.00    +0.000 C 
ATOM     85  C60 UNL A   1       4.231   3.856  -3.549  1.00  0.00    +0.000 C 
ATOM    120  H35 UNL A   1       3.518   3.264  -4.004  1.00  0.00    +0.000 H 
ATOM     23  C17 UNL A   1       3.840   4.857  -2.656  1.00  0.00    +0.000 C 
ATOM     24  C18 UNL A   1       4.797   5.745  -2.155  1.00  0.00    +0.000 C 
ATOM     25  C19 UNL A   1       6.144   5.594  -2.501  1.00  0.00    +0.000 C 
ATOM    119  H34 UNL A   1       5.871   2.857  -4.416  1.00  0.00    +0.000 H 
ATOM     26  C20 UNL A   1       6.555   4.525  -3.313  1.00  0.00    +0.000 C 
BRANCH   23   21
ATOM     21  C16 UNL A   1       2.424   5.038  -2.253  1.00  0.00    +0.000 C 
ATOM     22  O4  UNL A   1       1.976   6.174  -2.120  1.00  0.00    +0.000 O 
BRANCH   21   20
ATOM    106  H21 UNL A   1       0.656   4.173  -1.900  1.00  0.00    +0.000 H 
ATOM     20  N2  UNL A   1       1.611   3.958  -2.007  1.00  0.00    +0.000 N 
BRANCH   20   19
ATOM    105  H20 UNL A   1       3.002   2.461  -1.959  1.00  0.00    +0.000 H 
ATOM     19  C15 UNL A   1       1.938   2.550  -1.881  1.00  0.00    +0.000 C 
ATOM    104  H19 UNL A   1       1.433   2.012  -2.656  1.00  0.00    +0.000 H 
BRANCH   19   18
ATOM     18  C14 UNL A   1       1.531   1.960  -0.536  1.00  0.00    +0.000 C 
ATOM    102  H17 UNL A   1       1.872   0.946  -0.511  1.00  0.00    +0.000 H 
ATOM    103  H18 UNL A   1       1.976   2.599   0.198  1.00  0.00    +0.000 H 
BRANCH   18   17
ATOM     17  C13 UNL A   1       0.036   1.955  -0.212  1.00  0.00    +0.000 C 
ATOM    100  H15 UNL A   1      -0.092   1.423   0.707  1.00  0.00    +0.000 H 
ATOM    101  H16 UNL A   1      -0.242   2.988  -0.182  1.00  0.00    +0.000 H 
BRANCH   17   16
ATOM     98  H13 UNL A   1      -1.883   1.293  -0.812  1.00  0.00    +0.000 H 
ATOM     99  H14 UNL A   1      -0.805   1.940  -2.115  1.00  0.00    +0.000 H 
ATOM     16  C12 UNL A   1      -0.905   1.323  -1.246  1.00  0.00    +0.000 C 
BRANCH   16   15
ATOM     97  H12 UNL A   1       0.370  -0.007  -2.225  1.00  0.00    +0.000 H 
ATOM     15  C11 UNL A   1      -0.578  -0.092  -1.736  1.00  0.00    +0.000 C 
ATOM     96  H11 UNL A   1      -1.382  -0.410  -2.367  1.00  0.00    +0.000 H 
BRANCH   15   14
ATOM     94  H9  UNL A   1       0.031  -2.025  -1.145  1.00  0.00    +0.000 H 
ATOM     14  C10 UNL A   1      -0.381  -1.161  -0.668  1.00  0.00    +0.000 C 
ATOM     95  H10 UNL A   1       0.257  -0.715   0.067  1.00  0.00    +0.000 H 
BRANCH   14   13
ATOM     13  N1  UNL A   1      -1.561  -1.574   0.047  1.00  0.00    +0.000 N 
ATOM     93  H8  UNL A   1      -2.331  -0.965  -0.027  1.00  0.00    +0.000 H 
BRANCH   13   11
ATOM     11  C9  UNL A   1      -1.773  -2.696   0.819  1.00  0.00    +0.000 C 
ATOM     12  O3  UNL A   1      -2.794  -2.707   1.512  1.00  0.00    +0.000 O 
BRANCH   11   10
ATOM      5  C3  UNL A   1       0.469  -4.028   0.698  1.00  0.00    +0.000 C 
ATOM      6  C4  UNL A   1       1.109  -5.276   0.602  1.00  0.00    +0.000 C 
ATOM      7  C5  UNL A   1       0.369  -6.453   0.659  1.00  0.00    +0.000 C 
ATOM      8  C6  UNL A   1      -1.010  -6.386   0.815  1.00  0.00    +0.000 C 
ATOM      9  C7  UNL A   1      -1.646  -5.140   0.878  1.00  0.00    +0.000 C 
ATOM     10  C8  UNL A   1      -0.925  -3.930   0.784  1.00  0.00    +0.000 C 
ATOM     89  H4  UNL A   1       2.133  -5.320   0.488  1.00  0.00    +0.000 H 
ATOM     90  H5  UNL A   1       0.840  -7.368   0.585  1.00  0.00    +0.000 H 
ATOM     91  H6  UNL A   1      -1.565  -7.253   0.886  1.00  0.00    +0.000 H 
ATOM     92  H7  UNL A   1      -2.671  -5.106   0.995  1.00  0.00    +0.000 H 
BRANCH    5    4
ATOM      4  O2  UNL A   1       1.341  -2.938   0.616  1.00  0.00    +0.000 O 
BRANCH    4    2
ATOM      2  C2  UNL A   1       1.608  -2.264   1.800  1.00  0.00    +0.000 C 
ATOM      3  O1  UNL A   1       1.154  -2.521   2.908  1.00  0.00    +0.000 O 
BRANCH    2    1
ATOM      1  C1  UNL A   1       2.561  -1.141   1.505  1.00  0.00    +0.000 C 
ATOM     86  H1  UNL A   1       2.777  -0.610   2.408  1.00  0.00    +0.000 H 
ATOM     87  H2  UNL A   1       2.117  -0.473   0.797  1.00  0.00    +0.000 H 
ATOM     88  H3  UNL A   1       3.467  -1.539   1.099  1.00  0.00    +0.000 H 
ENDBRANCH    2    1
ENDBRANCH    4    2
ENDBRANCH    5    4
ENDBRANCH   11   10
ENDBRANCH   13   11
ENDBRANCH   14   13
ENDBRANCH   15   14
ENDBRANCH   16   15
ENDBRANCH   17   16
ENDBRANCH   18   17
ENDBRANCH   19   18
ENDBRANCH   20   19
ENDBRANCH   21   20
ENDBRANCH   23   21
ENDBRANCH   27   26
BRANCH   31   32
ATOM     33  C26 UNL A   1       9.683   5.796  -9.756  1.00  0.00    +0.000 C 
ATOM     34  F1  UNL A   1       9.574   6.817  -8.893  1.00  0.00    +0.000 F 
ATOM     35  C27 UNL A   1       9.338   6.007 -11.089  1.00  0.00    +0.000 C 
ATOM     36  F2  UNL A   1       8.894   7.209 -11.482  1.00  0.00    +0.000 F 
ATOM     37  C28 UNL A   1       9.444   4.974 -12.007  1.00  0.00    +0.000 C 
ATOM     38  F3  UNL A   1       9.124   5.181 -13.292  1.00  0.00    +0.000 F 
ATOM     39  C29 UNL A   1       9.876   3.723 -11.592  1.00  0.00    +0.000 C 
ATOM     40  F4  UNL A   1       9.994   2.727 -12.482  1.00  0.00    +0.000 F 
ATOM     41  C30 UNL A   1      10.190   3.501 -10.254  1.00  0.00    +0.000 C 
ATOM     42  F5  UNL A   1      10.593   2.276  -9.883  1.00  0.00    +0.000 F 
ATOM     32  C25 UNL A   1      10.104   4.534  -9.309  1.00  0.00    +0.000 C 
ENDBRANCH   31   32
BRANCH   48   49
ATOM     49  C36 UNL A   1      16.109   3.049  -5.607  1.00  0.00    +0.000 C 
ATOM     50  C37 UNL A   1      16.730   1.796  -5.505  1.00  0.00    +0.000 C 
ATOM     51  F6  UNL A   1      16.030   0.726  -5.101  1.00  0.00    +0.000 F 
ATOM     52  C38 UNL A   1      18.088   1.646  -5.779  1.00  0.00    +0.000 C 
ATOM     53  F7  UNL A   1      18.672   0.450  -5.623  1.00  0.00    +0.000 F 
ATOM     54  C39 UNL A   1      18.839   2.735  -6.198  1.00  0.00    +0.000 C 
ATOM     55  F8  UNL A   1      20.142   2.586  -6.469  1.00  0.00    +0.000 F 
ATOM     56  C40 UNL A   1      18.240   3.978  -6.328  1.00  0.00    +0.000 C 
ATOM     57  F9  UNL A   1      18.959   5.027  -6.749  1.00  0.00    +0.000 F 
ATOM     58  C41 UNL A   1      16.892   4.138  -6.021  1.00  0.00    +0.000 C 
ATOM     59  F10 UNL A   1      16.345   5.358  -6.142  1.00  0.00    +0.000 F 
ENDBRANCH   48   49
BRANCH   63   64
ATOM     65  C46 UNL A   1      13.231   3.679   0.989  1.00  0.00    +0.000 C 
ATOM     66  F11 UNL A   1      13.750   4.765   0.398  1.00  0.00    +0.000 F 
ATOM     67  C47 UNL A   1      13.605   3.382   2.298  1.00  0.00    +0.000 C 
ATOM     68  F12 UNL A   1      14.477   4.173   2.939  1.00  0.00    +0.000 F 
ATOM     69  C48 UNL A   1      13.096   2.258   2.930  1.00  0.00    +0.000 C 
ATOM     70  F13 UNL A   1      13.457   1.972   4.188  1.00  0.00    +0.000 F 
ATOM     71  C49 UNL A   1      12.221   1.424   2.251  1.00  0.00    +0.000 C 
ATOM     72  F14 UNL A   1      11.713   0.345   2.862  1.00  0.00    +0.000 F 
ATOM     73  C50 UNL A   1      11.873   1.701   0.930  1.00  0.00    +0.000 C 
ATOM     74  F15 UNL A   1      11.042   0.863   0.293  1.00  0.00    +0.000 F 
ATOM     64  C45 UNL A   1      12.370   2.835   0.271  1.00  0.00    +0.000 C 
ENDBRANCH   63   64
TORSDOF 18