ROOT
ATOM     26  C20 UNL A   1       2.371   0.971 -12.857  1.00  0.00    +0.000 C 
ATOM     27  C21 UNL A   1       2.046   2.192 -13.670  1.00  0.00    +0.000 C 
ATOM     28  N3  UNL A   1       1.181   2.333 -14.643  1.00  0.00    +0.000 N 
ATOM     29  C22 UNL A   1       1.241   3.671 -15.012  1.00  0.00    +0.000 C 
ATOM     30  C23 UNL A   1       0.572   4.303 -16.006  1.00  0.00    +0.000 C 
ATOM     42  C30 UNL A   1      -0.349   3.659 -16.905  1.00  0.00    +0.000 C 
ATOM     43  C31 UNL A   1      -1.011   4.198 -17.994  1.00  0.00    +0.000 C 
ATOM     44  C32 UNL A   1      -1.833   3.207 -18.541  1.00  0.00    +0.000 C 
ATOM     45  C33 UNL A   1      -1.649   2.039 -17.820  1.00  0.00    +0.000 C 
ATOM     46  N4  UNL A   1      -0.737   2.331 -16.818  1.00  0.00    +0.000 N 
ATOM     47  C34 UNL A   1      -2.260   0.751 -18.025  1.00  0.00    +0.000 C 
ATOM     59  C41 UNL A   1      -2.014  -0.353 -17.279  1.00  0.00    +0.000 C 
ATOM     60  N5  UNL A   1      -1.152  -0.502 -16.202  1.00  0.00    +0.000 N 
ATOM     61  C42 UNL A   1      -1.273  -1.748 -15.814  1.00  0.00    +0.000 C 
ATOM     62  C43 UNL A   1      -0.556  -2.473 -14.708  1.00  0.00    +0.000 C 
ATOM     74  C50 UNL A   1       0.371  -1.818 -13.983  1.00  0.00    +0.000 C 
ATOM     75  C51 UNL A   1       1.147  -2.390 -12.886  1.00  0.00    +0.000 C 
ATOM     76  C52 UNL A   1       1.935  -1.437 -12.363  1.00  0.00    +0.000 C 
ATOM     77  C53 UNL A   1       1.745  -0.194 -13.111  1.00  0.00    +0.000 C 
ATOM     78  N6  UNL A   1       0.808  -0.518 -14.061  1.00  0.00    +0.000 N 
ATOM     79  C54 UNL A   1      -2.253  -2.524 -16.587  1.00  0.00    +0.000 C 
ATOM     80  C55 UNL A   1      -2.646  -1.638 -17.492  1.00  0.00    +0.000 C 
ATOM     81  C56 UNL A   1       2.197   4.309 -14.133  1.00  0.00    +0.000 C 
ATOM     82  C57 UNL A   1       2.769   3.426 -13.327  1.00  0.00    +0.000 C 
ATOM    114  H30 UNL A   1      -0.916   5.165 -18.342  1.00  0.00    +0.000 H 
ATOM    115  H31 UNL A   1      -2.468   3.326 -19.346  1.00  0.00    +0.000 H 
ATOM    116  H32 UNL A   1      -0.414   1.690 -16.144  1.00  0.00    +0.000 H 
ATOM    117  H33 UNL A   1       1.097  -3.369 -12.564  1.00  0.00    +0.000 H 
ATOM    118  H34 UNL A   1       2.574  -1.562 -11.562  1.00  0.00    +0.000 H 
ATOM    119  H35 UNL A   1       0.480   0.120 -14.735  1.00  0.00    +0.000 H 
ATOM    120  H36 UNL A   1      -2.557  -3.502 -16.460  1.00  0.00    +0.000 H 
ATOM    121  H37 UNL A   1      -3.316  -1.839 -18.250  1.00  0.00    +0.000 H 
ATOM    122  H38 UNL A   1       2.405   5.320 -14.134  1.00  0.00    +0.000 H 
ATOM    123  H39 UNL A   1       3.525   3.568 -12.639  1.00  0.00    +0.000 H 
ENDROOT
BRANCH   26   25
ATOM    112  H28 UNL A   1       6.289  -0.115 -10.651  1.00  0.00    +0.000 H 
ATOM    113  H29 UNL A   1       4.825  -0.155 -12.588  1.00  0.00    +0.000 H 
ATOM     83  C58 UNL A   1       2.996   1.834 -10.598  1.00  0.00    +0.000 C 
ATOM     84  C59 UNL A   1       3.872   1.918  -9.517  1.00  0.00    +0.000 C 
ATOM     22  C16 UNL A   1       5.043   1.154  -9.510  1.00  0.00    +0.000 C 
ATOM     23  C17 UNL A   1       5.400   0.409 -10.637  1.00  0.00    +0.000 C 
ATOM     24  C18 UNL A   1       4.551   0.376 -11.746  1.00  0.00    +0.000 C 
ATOM     25  C19 UNL A   1       3.325   1.060 -11.721  1.00  0.00    +0.000 C 
ATOM    124  H40 UNL A   1       2.100   2.345 -10.571  1.00  0.00    +0.000 H 
ATOM    125  H41 UNL A   1       3.657   2.542  -8.724  1.00  0.00    +0.000 H 
BRANCH   22   20
ATOM     20  C15 UNL A   1       5.928   1.114  -8.323  1.00  0.00    +0.000 C 
ATOM     21  O2  UNL A   1       7.139   1.218  -8.464  1.00  0.00    +0.000 O 
BRANCH   20   19
ATOM     19  N2  UNL A   1       5.388   0.925  -7.072  1.00  0.00    +0.000 N 
ATOM    111  H27 UNL A   1       6.027   0.979  -6.324  1.00  0.00    +0.000 H 
BRANCH   19   18
ATOM     18  C14 UNL A   1       4.010   0.658  -6.697  1.00  0.00    +0.000 C 
ATOM    109  H25 UNL A   1       3.577   1.562  -6.322  1.00  0.00    +0.000 H 
ATOM    110  H26 UNL A   1       3.503   0.305  -7.571  1.00  0.00    +0.000 H 
BRANCH   18   17
ATOM     17  C13 UNL A   1       3.882  -0.422  -5.628  1.00  0.00    +0.000 C 
ATOM    107  H23 UNL A   1       2.840  -0.604  -5.465  1.00  0.00    +0.000 H 
ATOM    108  H24 UNL A   1       4.414  -1.272  -6.002  1.00  0.00    +0.000 H 
BRANCH   17   16
ATOM    105  H21 UNL A   1       4.287  -0.883  -3.598  1.00  0.00    +0.000 H 
ATOM    106  H22 UNL A   1       5.566   0.025  -4.466  1.00  0.00    +0.000 H 
ATOM     16  C12 UNL A   1       4.519  -0.089  -4.277  1.00  0.00    +0.000 C 
BRANCH   16   15
ATOM    103  H19 UNL A   1       4.541   1.312  -2.687  1.00  0.00    +0.000 H 
ATOM     15  C11 UNL A   1       4.062   1.225  -3.639  1.00  0.00    +0.000 C 
ATOM    104  H20 UNL A   1       4.331   1.995  -4.333  1.00  0.00    +0.000 H 
BRANCH   15   14
ATOM    102  H18 UNL A   1       2.101   1.279  -4.389  1.00  0.00    +0.000 H 
ATOM    101  H17 UNL A   1       2.372   2.315  -2.953  1.00  0.00    +0.000 H 
ATOM     14  C10 UNL A   1       2.549   1.370  -3.421  1.00  0.00    +0.000 C 
BRANCH   14   13
ATOM     99  H15 UNL A   1       0.865   0.503  -2.448  1.00  0.00    +0.000 H 
ATOM    100  H16 UNL A   1       2.056  -0.656  -3.039  1.00  0.00    +0.000 H 
ATOM     13  C9  UNL A   1       1.907   0.287  -2.556  1.00  0.00    +0.000 C 
BRANCH   13   12
ATOM     98  H14 UNL A   1       3.467   0.435  -1.150  1.00  0.00    +0.000 H 
ATOM     12  N1  UNL A   1       2.511   0.221  -1.244  1.00  0.00    +0.000 N 
BRANCH   12    2
ATOM      1  O1  UNL A   1       0.582  -0.290  -0.113  1.00  0.00    +0.000 O 
ATOM      2  C1  UNL A   1       1.798  -0.131  -0.124  1.00  0.00    +0.000 C 
BRANCH    2    3
ATOM      3  C2  UNL A   1       2.646  -0.310   1.120  1.00  0.00    +0.000 C 
ATOM     85  H1  UNL A   1       1.999  -0.364   1.970  1.00  0.00    +0.000 H 
ATOM     86  H2  UNL A   1       3.311   0.527   1.179  1.00  0.00    +0.000 H 
BRANCH    3    4
ATOM      4  C3  UNL A   1       3.504  -1.577   1.077  1.00  0.00    +0.000 C 
ATOM     87  H3  UNL A   1       2.924  -2.339   0.599  1.00  0.00    +0.000 H 
ATOM     88  H4  UNL A   1       3.759  -1.766   2.099  1.00  0.00    +0.000 H 
BRANCH    4    5
ATOM     89  H5  UNL A   1       4.657  -1.607  -0.700  1.00  0.00    +0.000 H 
ATOM     90  H6  UNL A   1       5.442  -2.276   0.792  1.00  0.00    +0.000 H 
ATOM      5  C4  UNL A   1       4.856  -1.500   0.346  1.00  0.00    +0.000 C 
BRANCH    5    6
ATOM     91  H7  UNL A   1       5.048   0.603   0.412  1.00  0.00    +0.000 H 
ATOM     92  H8  UNL A   1       6.474  -0.334  -0.216  1.00  0.00    +0.000 H 
ATOM      6  C5  UNL A   1       5.705  -0.234   0.521  1.00  0.00    +0.000 C 
BRANCH    6    7
ATOM     97  H13 UNL A   1       6.464  -0.866   5.179  1.00  0.00    +0.000 H 
ATOM      7  C6  UNL A   1       6.476  -0.035   1.840  1.00  0.00    +0.000 C 
ATOM      8  C7  UNL A   1       6.049  -0.852   3.059  1.00  0.00    +0.000 C 
ATOM      9  C8  UNL A   1       6.815  -0.381   4.292  1.00  0.00    +0.000 C 
ATOM     10  S1  UNL A   1       6.575   1.408   4.377  1.00  0.00    +0.000 S 
ATOM     11  S2  UNL A   1       6.398   1.719   2.359  1.00  0.00    +0.000 S 
ATOM     93  H9  UNL A   1       7.452  -0.384   1.573  1.00  0.00    +0.000 H 
ATOM     94  H10 UNL A   1       6.258  -1.886   2.884  1.00  0.00    +0.000 H 
ATOM     95  H11 UNL A   1       5.000  -0.718   3.223  1.00  0.00    +0.000 H 
ATOM     96  H12 UNL A   1       7.855  -0.613   4.194  1.00  0.00    +0.000 H 
ENDBRANCH    6    7
ENDBRANCH    5    6
ENDBRANCH    4    5
ENDBRANCH    3    4
ENDBRANCH    2    3
ENDBRANCH   12    2
ENDBRANCH   13   12
ENDBRANCH   14   13
ENDBRANCH   15   14
ENDBRANCH   16   15
ENDBRANCH   17   16
ENDBRANCH   18   17
ENDBRANCH   19   18
ENDBRANCH   20   19
ENDBRANCH   22   20
ENDBRANCH   26   25
BRANCH   30   31
ATOM     33  F1  UNL A   1       3.024   5.420 -16.990  1.00  0.00    +0.000 F 
ATOM     34  C26 UNL A   1       2.226   7.631 -16.870  1.00  0.00    +0.000 C 
ATOM     35  F2  UNL A   1       3.405   8.079 -17.321  1.00  0.00    +0.000 F 
ATOM     36  C27 UNL A   1       1.212   8.528 -16.571  1.00  0.00    +0.000 C 
ATOM     37  F3  UNL A   1       1.404   9.842 -16.750  1.00  0.00    +0.000 F 
ATOM     38  C28 UNL A   1       0.001   8.064 -16.080  1.00  0.00    +0.000 C 
ATOM     39  F4  UNL A   1      -0.984   8.930 -15.802  1.00  0.00    +0.000 F 
ATOM     40  C29 UNL A   1      -0.194   6.701 -15.876  1.00  0.00    +0.000 C 
ATOM     41  F5  UNL A   1      -1.372   6.283 -15.389  1.00  0.00    +0.000 F 
ATOM     31  C24 UNL A   1       0.815   5.774 -16.180  1.00  0.00    +0.000 C 
ATOM     32  C25 UNL A   1       2.025   6.264 -16.692  1.00  0.00    +0.000 C 
ENDBRANCH   30   31
BRANCH   47   48
ATOM     48  C35 UNL A   1      -3.228   0.611 -19.163  1.00  0.00    +0.000 C 
ATOM     49  C36 UNL A   1      -4.608   0.493 -18.944  1.00  0.00    +0.000 C 
ATOM     50  F6  UNL A   1      -5.091   0.451 -17.693  1.00  0.00    +0.000 F 
ATOM     51  C37 UNL A   1      -5.494   0.381 -20.012  1.00  0.00    +0.000 C 
ATOM     52  F7  UNL A   1      -6.805   0.227 -19.779  1.00  0.00    +0.000 F 
ATOM     53  C38 UNL A   1      -5.022   0.416 -21.316  1.00  0.00    +0.000 C 
ATOM     54  F8  UNL A   1      -5.877   0.314 -22.342  1.00  0.00    +0.000 F 
ATOM     55  C39 UNL A   1      -3.662   0.548 -21.555  1.00  0.00    +0.000 C 
ATOM     56  F9  UNL A   1      -3.205   0.592 -22.814  1.00  0.00    +0.000 F 
ATOM     57  C40 UNL A   1      -2.771   0.633 -20.489  1.00  0.00    +0.000 C 
ATOM     58  F10 UNL A   1      -1.460   0.749 -20.752  1.00  0.00    +0.000 F 
ENDBRANCH   47   48
BRANCH   62   63
ATOM     65  F11 UNL A   1       0.178  -4.568 -16.467  1.00  0.00    +0.000 F 
ATOM     66  C46 UNL A   1      -0.746  -6.243 -15.092  1.00  0.00    +0.000 C 
ATOM     67  F12 UNL A   1      -0.401  -7.173 -15.993  1.00  0.00    +0.000 F 
ATOM     68  C47 UNL A   1      -1.409  -6.613 -13.932  1.00  0.00    +0.000 C 
ATOM     69  F13 UNL A   1      -1.690  -7.903 -13.701  1.00  0.00    +0.000 F 
ATOM     70  C48 UNL A   1      -1.789  -5.644 -13.015  1.00  0.00    +0.000 C 
ATOM     71  F14 UNL A   1      -2.419  -5.999 -11.888  1.00  0.00    +0.000 F 
ATOM     72  C49 UNL A   1      -1.519  -4.300 -13.266  1.00  0.00    +0.000 C 
ATOM     73  F15 UNL A   1      -1.910  -3.383 -12.370  1.00  0.00    +0.000 F 
ATOM     63  C44 UNL A   1      -0.843  -3.903 -14.429  1.00  0.00    +0.000 C 
ATOM     64  C45 UNL A   1      -0.452  -4.902 -15.331  1.00  0.00    +0.000 C 
ENDBRANCH   62   63
TORSDOF 19