ROOT
ATOM    129  H36 UNL A   1      -3.310 -21.962   1.288  1.00  0.00    +0.000 H 
ATOM    130  H37 UNL A   1      -2.019 -19.808   0.854  1.00  0.00    +0.000 H 
ATOM    131  H38 UNL A   1      -2.546 -21.687  -2.824  1.00  0.00    +0.000 H 
ATOM    132  H39 UNL A   1      -3.049 -24.826  -3.586  1.00  0.00    +0.000 H 
ATOM    133  H40 UNL A   1      -3.808 -23.477  -5.653  1.00  0.00    +0.000 H 
ATOM    134  H41 UNL A   1       1.986 -20.430  -5.251  1.00  0.00    +0.000 H 
ATOM    135  H42 UNL A   1       1.765 -20.444  -2.683  1.00  0.00    +0.000 H 
ATOM     32  C27 UNL A   1      -0.883 -19.689  -1.807  1.00  0.00    +0.000 C 
ATOM     33  C28 UNL A   1      -0.389 -19.940  -3.187  1.00  0.00    +0.000 C 
ATOM     34  N4  UNL A   1      -1.039 -19.736  -4.285  1.00  0.00    +0.000 N 
ATOM     35  C29 UNL A   1      -0.190 -20.139  -5.311  1.00  0.00    +0.000 C 
ATOM     36  C30 UNL A   1      -0.712 -20.561  -6.495  1.00  0.00    +0.000 C 
ATOM     48  C37 UNL A   1      -2.090 -20.162  -6.620  1.00  0.00    +0.000 C 
ATOM     49  C38 UNL A   1      -2.792 -19.041  -7.000  1.00  0.00    +0.000 C 
ATOM     50  C39 UNL A   1      -4.097 -19.169  -6.434  1.00  0.00    +0.000 C 
ATOM     51  C40 UNL A   1      -4.170 -20.379  -5.752  1.00  0.00    +0.000 C 
ATOM     52  N5  UNL A   1      -2.952 -20.971  -5.936  1.00  0.00    +0.000 N 
ATOM     53  C41 UNL A   1      -5.081 -20.932  -4.781  1.00  0.00    +0.000 C 
ATOM     65  C48 UNL A   1      -4.940 -22.184  -4.266  1.00  0.00    +0.000 C 
ATOM     66  N6  UNL A   1      -5.287 -22.445  -2.959  1.00  0.00    +0.000 N 
ATOM     67  C49 UNL A   1      -4.404 -23.322  -2.567  1.00  0.00    +0.000 C 
ATOM     68  C50 UNL A   1      -3.930 -23.416  -1.169  1.00  0.00    +0.000 C 
ATOM     80  C57 UNL A   1      -3.221 -22.292  -0.900  1.00  0.00    +0.000 C 
ATOM     81  C58 UNL A   1      -2.978 -21.635   0.368  1.00  0.00    +0.000 C 
ATOM     82  C59 UNL A   1      -2.243 -20.524   0.146  1.00  0.00    +0.000 C 
ATOM     83  C60 UNL A   1      -1.815 -20.492  -1.251  1.00  0.00    +0.000 C 
ATOM     84  N7  UNL A   1      -2.527 -21.520  -1.854  1.00  0.00    +0.000 N 
ATOM     85  C61 UNL A   1      -3.682 -24.012  -3.630  1.00  0.00    +0.000 C 
ATOM     86  C62 UNL A   1      -4.079 -23.284  -4.676  1.00  0.00    +0.000 C 
ATOM     87  C63 UNL A   1       1.111 -20.305  -4.719  1.00  0.00    +0.000 C 
ATOM     88  C64 UNL A   1       1.029 -20.276  -3.386  1.00  0.00    +0.000 C 
ATOM    126  H33 UNL A   1      -2.444 -18.261  -7.580  1.00  0.00    +0.000 H 
ATOM    127  H34 UNL A   1      -4.860 -18.479  -6.518  1.00  0.00    +0.000 H 
ATOM    128  H35 UNL A   1      -2.723 -21.873  -5.614  1.00  0.00    +0.000 H 
ENDROOT
BRANCH   32   31
ATOM    136  H43 UNL A   1       0.496 -19.489   0.546  1.00  0.00    +0.000 H 
ATOM    137  H44 UNL A   1       1.526 -17.491   1.444  1.00  0.00    +0.000 H 
ATOM    124  H31 UNL A   1       0.482 -15.372  -2.019  1.00  0.00    +0.000 H 
ATOM    125  H32 UNL A   1      -0.729 -17.297  -2.819  1.00  0.00    +0.000 H 
ATOM     89  C65 UNL A   1       0.434 -18.597   0.030  1.00  0.00    +0.000 C 
ATOM     90  C66 UNL A   1       1.040 -17.448   0.535  1.00  0.00    +0.000 C 
ATOM     28  C23 UNL A   1       1.005 -16.229  -0.169  1.00  0.00    +0.000 C 
ATOM     29  C24 UNL A   1       0.421 -16.219  -1.433  1.00  0.00    +0.000 C 
ATOM     30  C25 UNL A   1      -0.241 -17.340  -1.911  1.00  0.00    +0.000 C 
ATOM     31  C26 UNL A   1      -0.255 -18.530  -1.173  1.00  0.00    +0.000 C 
BRANCH   28   26
ATOM     26  C22 UNL A   1       1.553 -15.036   0.536  1.00  0.00    +0.000 C 
ATOM     27  O2  UNL A   1       2.158 -15.205   1.602  1.00  0.00    +0.000 O 
BRANCH   26   25
ATOM     25  N3  UNL A   1       1.381 -13.741   0.128  1.00  0.00    +0.000 N 
ATOM    123  H30 UNL A   1       1.713 -13.079   0.777  1.00  0.00    +0.000 H 
BRANCH   25   24
ATOM    121  H28 UNL A   1       1.116 -12.117  -1.104  1.00  0.00    +0.000 H 
ATOM    122  H29 UNL A   1       1.166 -13.706  -1.898  1.00  0.00    +0.000 H 
ATOM     24  C21 UNL A   1       0.811 -13.142  -1.061  1.00  0.00    +0.000 C 
BRANCH   24   23
ATOM    119  H26 UNL A   1      -1.036 -12.995  -2.100  1.00  0.00    +0.000 H 
ATOM     23  C20 UNL A   1      -0.720 -13.194  -1.097  1.00  0.00    +0.000 C 
ATOM    120  H27 UNL A   1      -0.996 -14.169  -0.753  1.00  0.00    +0.000 H 
BRANCH   23   22
ATOM    118  H25 UNL A   1      -1.073 -12.407   0.818  1.00  0.00    +0.000 H 
ATOM    117  H24 UNL A   1      -2.477 -12.329  -0.279  1.00  0.00    +0.000 H 
ATOM     22  C19 UNL A   1      -1.420 -12.199  -0.172  1.00  0.00    +0.000 C 
BRANCH   22   21
ATOM    115  H22 UNL A   1      -1.588 -10.139   0.275  1.00  0.00    +0.000 H 
ATOM    116  H23 UNL A   1      -0.022 -10.660  -0.407  1.00  0.00    +0.000 H 
ATOM     21  C18 UNL A   1      -1.087 -10.741  -0.454  1.00  0.00    +0.000 C 
BRANCH   21   20
ATOM    113  H20 UNL A   1      -0.707  -9.636  -2.230  1.00  0.00    +0.000 H 
ATOM    114  H21 UNL A   1      -1.690 -11.131  -2.423  1.00  0.00    +0.000 H 
ATOM     20  C17 UNL A   1      -1.501 -10.246  -1.852  1.00  0.00    +0.000 C 
BRANCH   20   19
ATOM     19  C16 UNL A   1      -2.799  -9.425  -1.929  1.00  0.00    +0.000 C 
ATOM    111  H18 UNL A   1      -2.761  -8.830  -2.818  1.00  0.00    +0.000 H 
ATOM    112  H19 UNL A   1      -3.599 -10.136  -1.921  1.00  0.00    +0.000 H 
BRANCH   19   18
ATOM     18  N2  UNL A   1      -3.042  -8.534  -0.802  1.00  0.00    +0.000 N 
ATOM    110  H17 UNL A   1      -3.386  -8.991   0.000  1.00  0.00    +0.000 H 
BRANCH   18   16
ATOM     17  O1  UNL A   1      -3.105  -6.707   0.469  1.00  0.00    +0.000 O 
ATOM     16  C15 UNL A   1      -2.885  -7.185  -0.645  1.00  0.00    +0.000 C 
BRANCH   16   15
ATOM    108  H15 UNL A   1      -2.937  -6.760  -2.690  1.00  0.00    +0.000 H 
ATOM    109  H16 UNL A   1      -2.901  -5.345  -1.539  1.00  0.00    +0.000 H 
ATOM     15  C14 UNL A   1      -2.518  -6.305  -1.817  1.00  0.00    +0.000 C 
BRANCH   15   12
ATOM      3  C3  UNL A   1       0.983  -1.895   0.081  1.00  0.00    +0.000 C 
ATOM      4  C4  UNL A   1       1.887  -1.776   1.164  1.00  0.00    +0.000 C 
ATOM      5  C5  UNL A   1       2.307  -2.867   1.921  1.00  0.00    +0.000 C 
ATOM      6  C6  UNL A   1       1.868  -4.142   1.603  1.00  0.00    +0.000 C 
ATOM      7  C7  UNL A   1       0.991  -4.308   0.519  1.00  0.00    +0.000 C 
ATOM      8  C8  UNL A   1       0.486  -5.452  -0.123  1.00  0.00    +0.000 C 
ATOM      9  C9  UNL A   1      -0.352  -5.076  -1.150  1.00  0.00    +0.000 C 
ATOM     10  N1  UNL A   1      -0.324  -3.698  -1.179  1.00  0.00    +0.000 N 
ATOM     11  C10 UNL A   1       0.540  -3.207  -0.203  1.00  0.00    +0.000 C 
ATOM     12  C11 UNL A   1      -1.028  -6.026  -2.124  1.00  0.00    +0.000 C 
ATOM    140  H47 UNL A   1       0.596  -7.119   1.115  1.00  0.00    +0.000 H 
ATOM    141  H48 UNL A   1       1.939  -6.930   0.004  1.00  0.00    +0.000 H 
ATOM    138  H45 UNL A   1       0.868  -8.571  -1.065  1.00  0.00    +0.000 H 
ATOM    139  H46 UNL A   1      -0.725  -8.028  -0.392  1.00  0.00    +0.000 H 
ATOM     91  O3  UNL A   1      -0.202  -7.217  -2.138  1.00  0.00    +0.000 O 
ATOM     92  C67 UNL A   1       0.196  -7.762  -0.868  1.00  0.00    +0.000 C 
ATOM     93  C68 UNL A   1       0.879  -6.842   0.121  1.00  0.00    +0.000 C 
ATOM     99  H6  UNL A   1       2.250  -0.841   1.404  1.00  0.00    +0.000 H 
ATOM    100  H7  UNL A   1       2.947  -2.725   2.719  1.00  0.00    +0.000 H 
ATOM    101  H8  UNL A   1       2.179  -4.957   2.155  1.00  0.00    +0.000 H 
ATOM    102  H9  UNL A   1      -0.842  -3.139  -1.802  1.00  0.00    +0.000 H 
BRANCH    3    2
ATOM     97  H4  UNL A   1       1.002  -0.823  -1.725  1.00  0.00    +0.000 H 
ATOM      2  C2  UNL A   1       0.570  -0.707  -0.753  1.00  0.00    +0.000 C 
ATOM     98  H5  UNL A   1      -0.500  -0.708  -0.744  1.00  0.00    +0.000 H 
BRANCH    2    1
ATOM      1  C1  UNL A   1       0.982   0.662  -0.221  1.00  0.00    +0.000 C 
ATOM     94  H1  UNL A   1       0.637   1.423  -0.889  1.00  0.00    +0.000 H 
ATOM     95  H2  UNL A   1       2.048   0.709  -0.146  1.00  0.00    +0.000 H 
ATOM     96  H3  UNL A   1       0.549   0.813   0.746  1.00  0.00    +0.000 H 
ENDBRANCH    2    1
ENDBRANCH    3    2
BRANCH   12   13
ATOM     13  C12 UNL A   1      -0.922  -5.458  -3.579  1.00  0.00    +0.000 C 
ATOM    103  H10 UNL A   1       0.115  -5.325  -3.806  1.00  0.00    +0.000 H 
ATOM    104  H11 UNL A   1      -1.486  -4.549  -3.580  1.00  0.00    +0.000 H 
BRANCH   13   14
ATOM    105  H12 UNL A   1      -1.012  -7.266  -4.726  1.00  0.00    +0.000 H 
ATOM    106  H13 UNL A   1      -1.460  -5.832  -5.619  1.00  0.00    +0.000 H 
ATOM    107  H14 UNL A   1      -2.567  -6.516  -4.453  1.00  0.00    +0.000 H 
ATOM     14  C13 UNL A   1      -1.537  -6.334  -4.677  1.00  0.00    +0.000 C 
ENDBRANCH   13   14
ENDBRANCH   12   13
ENDBRANCH   15   12
ENDBRANCH   16   15
ENDBRANCH   18   16
ENDBRANCH   19   18
ENDBRANCH   20   19
ENDBRANCH   21   20
ENDBRANCH   22   21
ENDBRANCH   23   22
ENDBRANCH   24   23
ENDBRANCH   25   24
ENDBRANCH   26   25
ENDBRANCH   28   26
ENDBRANCH   32   31
BRANCH   36   37
ATOM     37  C31 UNL A   1      -0.192 -21.745  -7.287  1.00  0.00    +0.000 C 
ATOM     38  C32 UNL A   1      -0.802 -22.063  -8.520  1.00  0.00    +0.000 C 
ATOM     39  F1  UNL A   1      -1.616 -21.187  -9.127  1.00  0.00    +0.000 F 
ATOM     40  C33 UNL A   1      -0.661 -23.322  -9.115  1.00  0.00    +0.000 C 
ATOM     41  F2  UNL A   1      -1.353 -23.617 -10.224  1.00  0.00    +0.000 F 
ATOM     42  C34 UNL A   1       0.134 -24.289  -8.530  1.00  0.00    +0.000 C 
ATOM     43  F3  UNL A   1       0.225 -25.513  -9.065  1.00  0.00    +0.000 F 
ATOM     44  C35 UNL A   1       0.799 -23.995  -7.359  1.00  0.00    +0.000 C 
ATOM     45  F4  UNL A   1       1.555 -24.928  -6.763  1.00  0.00    +0.000 F 
ATOM     46  C36 UNL A   1       0.626 -22.757  -6.740  1.00  0.00    +0.000 C 
ATOM     47  F5  UNL A   1       1.197 -22.641  -5.537  1.00  0.00    +0.000 F 
ENDBRANCH   36   37
BRANCH   53   54
ATOM     54  C42 UNL A   1      -6.113 -20.040  -4.176  1.00  0.00    +0.000 C 
ATOM     55  C43 UNL A   1      -6.045 -19.513  -2.878  1.00  0.00    +0.000 C 
ATOM     56  F6  UNL A   1      -5.010 -19.799  -2.074  1.00  0.00    +0.000 F 
ATOM     57  C44 UNL A   1      -7.029 -18.644  -2.409  1.00  0.00    +0.000 C 
ATOM     58  F7  UNL A   1      -6.957 -18.156  -1.162  1.00  0.00    +0.000 F 
ATOM     59  C45 UNL A   1      -8.071 -18.257  -3.239  1.00  0.00    +0.000 C 
ATOM     60  F8  UNL A   1      -8.994 -17.389  -2.803  1.00  0.00    +0.000 F 
ATOM     61  C46 UNL A   1      -8.144 -18.751  -4.531  1.00  0.00    +0.000 C 
ATOM     62  F9  UNL A   1      -9.125 -18.351  -5.352  1.00  0.00    +0.000 F 
ATOM     63  C47 UNL A   1      -7.184 -19.645  -4.989  1.00  0.00    +0.000 C 
ATOM     64  F10 UNL A   1      -7.274 -20.099  -6.249  1.00  0.00    +0.000 F 
ENDBRANCH   53   54
BRANCH   68   69
ATOM     69  C51 UNL A   1      -4.024 -24.680  -0.402  1.00  0.00    +0.000 C 
ATOM     70  C52 UNL A   1      -5.009 -25.636  -0.708  1.00  0.00    +0.000 C 
ATOM     71  F11 UNL A   1      -6.050 -25.308  -1.488  1.00  0.00    +0.000 F 
ATOM     72  C53 UNL A   1      -4.894 -26.967  -0.294  1.00  0.00    +0.000 C 
ATOM     73  F12 UNL A   1      -5.808 -27.868  -0.680  1.00  0.00    +0.000 F 
ATOM     74  C54 UNL A   1      -3.800 -27.374   0.450  1.00  0.00    +0.000 C 
ATOM     75  F13 UNL A   1      -3.644 -28.665   0.774  1.00  0.00    +0.000 F 
ATOM     76  C55 UNL A   1      -2.843 -26.444   0.817  1.00  0.00    +0.000 C 
ATOM     77  F14 UNL A   1      -1.765 -26.834   1.511  1.00  0.00    +0.000 F 
ATOM     78  C56 UNL A   1      -2.955 -25.116   0.402  1.00  0.00    +0.000 C 
ATOM     79  F15 UNL A   1      -1.948 -24.287   0.710  1.00  0.00    +0.000 F 
ENDBRANCH   68   69
TORSDOF 20