ROOT
ATOM     19  C15 UNL A   1      -1.899  -6.326 -11.071  1.00  0.00    +0.000 C 
ATOM     20  C16 UNL A   1      -1.853  -5.739 -12.455  1.00  0.00    +0.000 C 
ATOM     21  N3  UNL A   1      -2.742  -5.811 -13.415  1.00  0.00    +0.000 N 
ATOM     22  C17 UNL A   1      -2.216  -5.084 -14.475  1.00  0.00    +0.000 C 
ATOM     23  C18 UNL A   1      -2.715  -4.926 -15.726  1.00  0.00    +0.000 C 
ATOM     35  C25 UNL A   1      -3.959  -5.491 -16.183  1.00  0.00    +0.000 C 
ATOM     36  C26 UNL A   1      -4.536  -5.408 -17.438  1.00  0.00    +0.000 C 
ATOM     37  C27 UNL A   1      -5.766  -6.075 -17.402  1.00  0.00    +0.000 C 
ATOM     38  C28 UNL A   1      -5.930  -6.621 -16.139  1.00  0.00    +0.000 C 
ATOM     39  N4  UNL A   1      -4.820  -6.245 -15.398  1.00  0.00    +0.000 N 
ATOM     40  C29 UNL A   1      -7.015  -7.428 -15.645  1.00  0.00    +0.000 C 
ATOM     52  C36 UNL A   1      -7.101  -7.922 -14.385  1.00  0.00    +0.000 C 
ATOM     53  N5  UNL A   1      -6.215  -7.775 -13.326  1.00  0.00    +0.000 N 
ATOM     54  C37 UNL A   1      -6.754  -8.411 -12.315  1.00  0.00    +0.000 C 
ATOM     55  C38 UNL A   1      -6.218  -8.611 -10.922  1.00  0.00    +0.000 C 
ATOM     67  C45 UNL A   1      -5.008  -8.112 -10.606  1.00  0.00    +0.000 C 
ATOM     68  C46 UNL A   1      -4.349  -8.252  -9.311  1.00  0.00    +0.000 C 
ATOM     69  C47 UNL A   1      -3.174  -7.604  -9.345  1.00  0.00    +0.000 C 
ATOM     70  C48 UNL A   1      -2.980  -7.030 -10.677  1.00  0.00    +0.000 C 
ATOM     71  N6  UNL A   1      -4.121  -7.379 -11.357  1.00  0.00    +0.000 N 
ATOM     72  C49 UNL A   1      -8.061  -9.012 -12.613  1.00  0.00    +0.000 C 
ATOM     73  C50 UNL A   1      -8.200  -8.729 -13.900  1.00  0.00    +0.000 C 
ATOM     74  C51 UNL A   1      -0.964  -4.520 -14.019  1.00  0.00    +0.000 C 
ATOM     75  C52 UNL A   1      -0.663  -4.947 -12.801  1.00  0.00    +0.000 C 
ATOM    108  H21 UNL A   1      -4.130  -4.935 -18.260  1.00  0.00    +0.000 H 
ATOM    109  H22 UNL A   1      -6.436  -6.148 -18.183  1.00  0.00    +0.000 H 
ATOM    110  H23 UNL A   1      -4.665  -6.478 -14.454  1.00  0.00    +0.000 H 
ATOM    111  H24 UNL A   1      -4.726  -8.767  -8.500  1.00  0.00    +0.000 H 
ATOM    112  H25 UNL A   1      -2.512  -7.524  -8.557  1.00  0.00    +0.000 H 
ATOM    113  H26 UNL A   1      -4.287  -7.129 -12.294  1.00  0.00    +0.000 H 
ATOM    114  H27 UNL A   1      -8.702  -9.521 -11.985  1.00  0.00    +0.000 H 
ATOM    115  H28 UNL A   1      -8.992  -9.043 -14.482  1.00  0.00    +0.000 H 
ATOM    116  H29 UNL A   1      -0.382  -3.871 -14.570  1.00  0.00    +0.000 H 
ATOM    117  H30 UNL A   1       0.185  -4.769 -12.241  1.00  0.00    +0.000 H 
ENDROOT
BRANCH   19   18
ATOM    106  H19 UNL A   1       1.513  -7.815  -8.335  1.00  0.00    +0.000 H 
ATOM    107  H20 UNL A   1      -0.193  -8.144 -10.027  1.00  0.00    +0.000 H 
ATOM     76  C53 UNL A   1      -0.475  -4.825  -9.650  1.00  0.00    +0.000 C 
ATOM     77  C54 UNL A   1       0.569  -4.626  -8.745  1.00  0.00    +0.000 C 
ATOM     15  C11 UNL A   1       1.253  -5.722  -8.213  1.00  0.00    +0.000 C 
ATOM     16  C12 UNL A   1       0.979  -7.007  -8.692  1.00  0.00    +0.000 C 
ATOM     17  C13 UNL A   1      -0.016  -7.198  -9.653  1.00  0.00    +0.000 C 
ATOM     18  C14 UNL A   1      -0.779  -6.113 -10.115  1.00  0.00    +0.000 C 
ATOM    118  H31 UNL A   1      -1.028  -4.018  -9.980  1.00  0.00    +0.000 H 
ATOM    119  H32 UNL A   1       0.835  -3.668  -8.469  1.00  0.00    +0.000 H 
BRANCH   15   13
ATOM     13  C10 UNL A   1       2.295  -5.565  -7.172  1.00  0.00    +0.000 C 
ATOM     14  O2  UNL A   1       3.317  -6.246  -7.234  1.00  0.00    +0.000 O 
BRANCH   13   12
ATOM    105  H18 UNL A   1       2.913  -4.580  -5.548  1.00  0.00    +0.000 H 
ATOM     12  N2  UNL A   1       2.125  -4.692  -6.126  1.00  0.00    +0.000 N 
BRANCH   12   11
ATOM     11  C9  UNL A   1       0.964  -3.909  -5.738  1.00  0.00    +0.000 C 
ATOM    103  H16 UNL A   1       1.159  -2.879  -5.954  1.00  0.00    +0.000 H 
ATOM    104  H17 UNL A   1       0.127  -4.280  -6.292  1.00  0.00    +0.000 H 
BRANCH   11   10
ATOM     10  C8  UNL A   1       0.625  -4.041  -4.255  1.00  0.00    +0.000 C 
ATOM    101  H14 UNL A   1      -0.257  -3.465  -4.066  1.00  0.00    +0.000 H 
ATOM    102  H15 UNL A   1       0.506  -5.088  -4.074  1.00  0.00    +0.000 H 
BRANCH   10    9
ATOM      9  C7  UNL A   1       1.711  -3.570  -3.284  1.00  0.00    +0.000 C 
ATOM     99  H12 UNL A   1       1.325  -3.663  -2.290  1.00  0.00    +0.000 H 
ATOM    100  H13 UNL A   1       2.563  -4.186  -3.478  1.00  0.00    +0.000 H 
BRANCH    9    8
ATOM     97  H10 UNL A   1       2.951  -1.937  -2.744  1.00  0.00    +0.000 H 
ATOM     98  H11 UNL A   1       2.527  -2.061  -4.483  1.00  0.00    +0.000 H 
ATOM      8  C6  UNL A   1       2.188  -2.127  -3.470  1.00  0.00    +0.000 C 
BRANCH    8    7
ATOM     95  H8  UNL A   1       1.565  -0.096  -3.516  1.00  0.00    +0.000 H 
ATOM      7  C5  UNL A   1       1.113  -1.045  -3.318  1.00  0.00    +0.000 C 
ATOM     96  H9  UNL A   1       0.335  -1.297  -4.008  1.00  0.00    +0.000 H 
BRANCH    7    6
ATOM     94  H7  UNL A   1      -0.027  -1.915  -1.758  1.00  0.00    +0.000 H 
ATOM     93  H6  UNL A   1      -0.248  -0.172  -1.931  1.00  0.00    +0.000 H 
ATOM      6  C4  UNL A   1       0.455  -0.978  -1.939  1.00  0.00    +0.000 C 
BRANCH    6    5
ATOM     92  H5  UNL A   1       2.074  -1.497  -0.768  1.00  0.00    +0.000 H 
ATOM      5  N1  UNL A   1       1.429  -0.761  -0.880  1.00  0.00    +0.000 N 
BRANCH    5    3
ATOM      3  C3  UNL A   1       1.611   0.278  -0.012  1.00  0.00    +0.000 C 
ATOM      4  O1  UNL A   1       2.475   0.137   0.859  1.00  0.00    +0.000 O 
BRANCH    3    2
ATOM      2  C2  UNL A   1       0.789   1.578  -0.092  1.00  0.00    +0.000 C 
ATOM     91  H4  UNL A   1       1.051   2.221   0.722  1.00  0.00    +0.000 H 
BRANCH    2    1
ATOM      1  C1  UNL A   1       1.144   2.285  -1.409  1.00  0.00    +0.000 C 
ATOM     90  H3  UNL A   1       2.191   2.509  -1.422  1.00  0.00    +0.000 H 
ATOM     89  H2  UNL A   1       0.906   1.646  -2.233  1.00  0.00    +0.000 H 
ATOM     88  H1  UNL A   1       0.584   3.194  -1.488  1.00  0.00    +0.000 H 
ENDBRANCH    2    1
BRANCH    2   78
ATOM     78  C55 UNL A   1      -0.708   1.360   0.118  1.00  0.00    +0.000 C 
ATOM     79  C56 UNL A   1      -1.669   2.193  -0.484  1.00  0.00    +0.000 C 
ATOM     80  C57 UNL A   1      -2.981   1.750  -0.649  1.00  0.00    +0.000 C 
ATOM     81  C58 UNL A   1      -3.299   0.460  -0.248  1.00  0.00    +0.000 C 
ATOM     82  C59 UNL A   1      -2.408  -0.290   0.518  1.00  0.00    +0.000 C 
ATOM     83  C60 UNL A   1      -1.145   0.208   0.790  1.00  0.00    +0.000 C 
ATOM     84  O3  UNL A   1      -2.630  -1.592   0.875  1.00  0.00    +0.000 O 
ATOM     85  C61 UNL A   1      -3.623  -2.240   0.070  1.00  0.00    +0.000 C 
ATOM     86  C62 UNL A   1      -4.044  -1.444  -1.161  1.00  0.00    +0.000 C 
ATOM     87  O4  UNL A   1      -4.429  -0.118  -0.773  1.00  0.00    +0.000 O 
ATOM    120  H33 UNL A   1      -1.401   3.137  -0.806  1.00  0.00    +0.000 H 
ATOM    121  H34 UNL A   1      -3.699   2.368  -1.059  1.00  0.00    +0.000 H 
ATOM    122  H35 UNL A   1      -0.534  -0.260   1.478  1.00  0.00    +0.000 H 
ATOM    123  H36 UNL A   1      -4.490  -2.407   0.675  1.00  0.00    +0.000 H 
ATOM    124  H37 UNL A   1      -3.186  -3.150  -0.286  1.00  0.00    +0.000 H 
ATOM    125  H38 UNL A   1      -4.872  -1.931  -1.633  1.00  0.00    +0.000 H 
ATOM    126  H39 UNL A   1      -3.222  -1.388  -1.844  1.00  0.00    +0.000 H 
ENDBRANCH    2   78
ENDBRANCH    3    2
ENDBRANCH    5    3
ENDBRANCH    6    5
ENDBRANCH    7    6
ENDBRANCH    8    7
ENDBRANCH    9    8
ENDBRANCH   10    9
ENDBRANCH   11   10
ENDBRANCH   12   11
ENDBRANCH   13   12
ENDBRANCH   15   13
ENDBRANCH   19   18
BRANCH   23   24
ATOM     33  C24 UNL A   1      -2.364  -2.883 -17.171  1.00  0.00    +0.000 C 
ATOM     34  F5  UNL A   1      -3.523  -2.378 -16.723  1.00  0.00    +0.000 F 
ATOM     24  C19 UNL A   1      -1.903  -4.122 -16.701  1.00  0.00    +0.000 C 
ATOM     25  C20 UNL A   1      -0.687  -4.604 -17.211  1.00  0.00    +0.000 C 
ATOM     26  F1  UNL A   1      -0.196  -5.779 -16.787  1.00  0.00    +0.000 F 
ATOM     27  C21 UNL A   1       0.048  -3.866 -18.134  1.00  0.00    +0.000 C 
ATOM     28  F2  UNL A   1       1.228  -4.327 -18.572  1.00  0.00    +0.000 F 
ATOM     29  C22 UNL A   1      -0.434  -2.650 -18.594  1.00  0.00    +0.000 C 
ATOM     30  F3  UNL A   1       0.269  -1.946 -19.492  1.00  0.00    +0.000 F 
ATOM     31  C23 UNL A   1      -1.641  -2.162 -18.119  1.00  0.00    +0.000 C 
ATOM     32  F4  UNL A   1      -2.115  -0.994 -18.573  1.00  0.00    +0.000 F 
ENDBRANCH   23   24
BRANCH   40   41
ATOM     41  C30 UNL A   1      -8.126  -7.776 -16.595  1.00  0.00    +0.000 C 
ATOM     42  C31 UNL A   1      -9.417  -7.246 -16.447  1.00  0.00    +0.000 C 
ATOM     43  F6  UNL A   1      -9.697  -6.427 -15.421  1.00  0.00    +0.000 F 
ATOM     44  C32 UNL A   1     -10.440  -7.596 -17.324  1.00  0.00    +0.000 C 
ATOM     45  F7  UNL A   1     -11.679  -7.125 -17.126  1.00  0.00    +0.000 F 
ATOM     46  C33 UNL A   1     -10.184  -8.448 -18.388  1.00  0.00    +0.000 C 
ATOM     47  F8  UNL A   1     -11.170  -8.783 -19.231  1.00  0.00    +0.000 F 
ATOM     48  C34 UNL A   1      -8.909  -8.961 -18.571  1.00  0.00    +0.000 C 
ATOM     49  F9  UNL A   1      -8.657  -9.772 -19.607  1.00  0.00    +0.000 F 
ATOM     50  C35 UNL A   1      -7.892  -8.639 -17.676  1.00  0.00    +0.000 C 
ATOM     51  F10 UNL A   1      -6.675  -9.168 -17.869  1.00  0.00    +0.000 F 
ENDBRANCH   40   41
BRANCH   55   56
ATOM     65  C44 UNL A   1      -7.547  -8.714  -8.786  1.00  0.00    +0.000 C 
ATOM     66  F15 UNL A   1      -7.333  -7.404  -8.597  1.00  0.00    +0.000 F 
ATOM     56  C39 UNL A   1      -7.005  -9.360  -9.906  1.00  0.00    +0.000 C 
ATOM     57  C40 UNL A   1      -7.254 -10.733 -10.049  1.00  0.00    +0.000 C 
ATOM     58  F11 UNL A   1      -6.774 -11.393 -11.114  1.00  0.00    +0.000 F 
ATOM     59  C41 UNL A   1      -8.041 -11.422  -9.129  1.00  0.00    +0.000 C 
ATOM     60  F12 UNL A   1      -8.313 -12.720  -9.323  1.00  0.00    +0.000 F 
ATOM     61  C42 UNL A   1      -8.562 -10.762  -8.026  1.00  0.00    +0.000 C 
ATOM     62  F13 UNL A   1      -9.320 -11.425  -7.142  1.00  0.00    +0.000 F 
ATOM     63  C43 UNL A   1      -8.305  -9.412  -7.848  1.00  0.00    +0.000 C 
ATOM     64  F14 UNL A   1      -8.792  -8.773  -6.775  1.00  0.00    +0.000 F 
ENDBRANCH   55   56
TORSDOF 17