ROOT
ATOM     19  C15 UNL A   1     -12.463  11.496  15.298  1.00  0.00    +0.000 C 
ATOM     20  C16 UNL A   1     -12.439  12.997  15.211  1.00  0.00    +0.000 C 
ATOM     21  N3  UNL A   1     -11.751  13.858  15.918  1.00  0.00    +0.000 N 
ATOM     22  C17 UNL A   1     -12.061  15.107  15.398  1.00  0.00    +0.000 C 
ATOM     23  C18 UNL A   1     -11.653  16.326  15.825  1.00  0.00    +0.000 C 
ATOM     35  C25 UNL A   1     -10.787  16.540  16.955  1.00  0.00    +0.000 C 
ATOM     36  C26 UNL A   1     -10.370  17.736  17.511  1.00  0.00    +0.000 C 
ATOM     37  C27 UNL A   1      -9.502  17.448  18.570  1.00  0.00    +0.000 C 
ATOM     38  C28 UNL A   1      -9.414  16.072  18.703  1.00  0.00    +0.000 C 
ATOM     39  N4  UNL A   1     -10.204  15.527  17.703  1.00  0.00    +0.000 N 
ATOM     40  C29 UNL A   1      -8.665  15.309  19.669  1.00  0.00    +0.000 C 
ATOM     52  C36 UNL A   1      -8.634  13.956  19.736  1.00  0.00    +0.000 C 
ATOM     53  N5  UNL A   1      -9.290  13.027  18.940  1.00  0.00    +0.000 N 
ATOM     54  C37 UNL A   1      -8.934  11.849  19.392  1.00  0.00    +0.000 C 
ATOM     55  C38 UNL A   1      -9.367  10.483  18.933  1.00  0.00    +0.000 C 
ATOM     67  C45 UNL A   1     -10.242  10.378  17.916  1.00  0.00    +0.000 C 
ATOM     68  C46 UNL A   1     -10.764   9.128  17.371  1.00  0.00    +0.000 C 
ATOM     69  C47 UNL A   1     -11.600   9.408  16.357  1.00  0.00    +0.000 C 
ATOM     70  C48 UNL A   1     -11.696  10.860  16.203  1.00  0.00    +0.000 C 
ATOM     71  N6  UNL A   1     -10.847  11.353  17.161  1.00  0.00    +0.000 N 
ATOM     72  C49 UNL A   1      -7.982  11.899  20.511  1.00  0.00    +0.000 C 
ATOM     73  C50 UNL A   1      -7.866  13.204  20.707  1.00  0.00    +0.000 C 
ATOM     74  C51 UNL A   1     -12.959  14.891  14.284  1.00  0.00    +0.000 C 
ATOM     75  C52 UNL A   1     -13.280  13.611  14.171  1.00  0.00    +0.000 C 
ATOM    112  H21 UNL A   1     -10.651  18.679  17.198  1.00  0.00    +0.000 H 
ATOM    113  H22 UNL A   1      -9.010  18.144  19.152  1.00  0.00    +0.000 H 
ATOM    114  H23 UNL A   1     -10.332  14.564  17.547  1.00  0.00    +0.000 H 
ATOM    115  H24 UNL A   1     -10.529   8.183  17.710  1.00  0.00    +0.000 H 
ATOM    116  H25 UNL A   1     -12.095   8.710  15.780  1.00  0.00    +0.000 H 
ATOM    117  H26 UNL A   1     -10.686  12.316  17.295  1.00  0.00    +0.000 H 
ATOM    118  H27 UNL A   1      -7.524  11.121  21.011  1.00  0.00    +0.000 H 
ATOM    119  H28 UNL A   1      -7.300  13.631  21.457  1.00  0.00    +0.000 H 
ATOM    120  H29 UNL A   1     -13.303  15.637  13.659  1.00  0.00    +0.000 H 
ATOM    121  H30 UNL A   1     -13.946  13.162  13.524  1.00  0.00    +0.000 H 
ENDROOT
BRANCH   19   18
ATOM     76  C53 UNL A   1     -12.979  10.725  12.981  1.00  0.00    +0.000 C 
ATOM     77  C54 UNL A   1     -13.771  10.028  12.072  1.00  0.00    +0.000 C 
ATOM    110  H19 UNL A   1     -15.936   8.639  14.229  1.00  0.00    +0.000 H 
ATOM     15  C11 UNL A   1     -14.819   9.224  12.533  1.00  0.00    +0.000 C 
ATOM     16  C12 UNL A   1     -15.143   9.207  13.893  1.00  0.00    +0.000 C 
ATOM     17  C13 UNL A   1     -14.390   9.961  14.795  1.00  0.00    +0.000 C 
ATOM    111  H20 UNL A   1     -14.645   9.970  15.795  1.00  0.00    +0.000 H 
ATOM     18  C14 UNL A   1     -13.288  10.709  14.349  1.00  0.00    +0.000 C 
ATOM    122  H31 UNL A   1     -12.160  11.256  12.646  1.00  0.00    +0.000 H 
ATOM    123  H32 UNL A   1     -13.586  10.105  11.060  1.00  0.00    +0.000 H 
BRANCH   15   13
ATOM     13  C10 UNL A   1     -15.623   8.406  11.600  1.00  0.00    +0.000 C 
ATOM     14  O2  UNL A   1     -16.841   8.345  11.737  1.00  0.00    +0.000 O 
BRANCH   13   12
ATOM     12  N2  UNL A   1     -15.008   7.706  10.593  1.00  0.00    +0.000 N 
ATOM    109  H18 UNL A   1     -15.609   7.341   9.904  1.00  0.00    +0.000 H 
BRANCH   12   11
ATOM     11  C9  UNL A   1     -13.595   7.427  10.400  1.00  0.00    +0.000 C 
ATOM    108  H17 UNL A   1     -13.075   7.734  11.284  1.00  0.00    +0.000 H 
ATOM    107  H16 UNL A   1     -13.251   7.964   9.541  1.00  0.00    +0.000 H 
BRANCH   11   10
ATOM    105  H14 UNL A   1     -12.267   5.795  10.148  1.00  0.00    +0.000 H 
ATOM     10  C8  UNL A   1     -13.326   5.941  10.191  1.00  0.00    +0.000 C 
ATOM    106  H15 UNL A   1     -13.787   5.431  11.011  1.00  0.00    +0.000 H 
BRANCH   10    9
ATOM      9  C7  UNL A   1     -13.940   5.356   8.917  1.00  0.00    +0.000 C 
ATOM    103  H12 UNL A   1     -13.684   4.318   8.871  1.00  0.00    +0.000 H 
ATOM    104  H13 UNL A   1     -14.994   5.529   8.986  1.00  0.00    +0.000 H 
BRANCH    9    8
ATOM    101  H10 UNL A   1     -13.912   5.477   6.798  1.00  0.00    +0.000 H 
ATOM    102  H11 UNL A   1     -13.802   7.037   7.668  1.00  0.00    +0.000 H 
ATOM      8  C6  UNL A   1     -13.481   6.018   7.614  1.00  0.00    +0.000 C 
BRANCH    8    7
ATOM     99  H8  UNL A   1     -11.763   6.500   6.451  1.00  0.00    +0.000 H 
ATOM    100  H9  UNL A   1     -11.552   6.631   8.214  1.00  0.00    +0.000 H 
ATOM      7  C5  UNL A   1     -11.960   6.060   7.406  1.00  0.00    +0.000 C 
BRANCH    7    6
ATOM     97  H6  UNL A   1     -10.228   4.810   7.384  1.00  0.00    +0.000 H 
ATOM     98  H7  UNL A   1     -11.548   4.206   8.372  1.00  0.00    +0.000 H 
ATOM      6  C4  UNL A   1     -11.289   4.685   7.451  1.00  0.00    +0.000 C 
BRANCH    6    5
ATOM      5  N1  UNL A   1     -11.741   3.859   6.353  1.00  0.00    +0.000 N 
ATOM     96  H5  UNL A   1     -12.589   3.383   6.507  1.00  0.00    +0.000 H 
BRANCH    5    3
ATOM      3  C3  UNL A   1     -11.167   3.643   5.133  1.00  0.00    +0.000 C 
ATOM      4  O1  UNL A   1     -11.871   3.108   4.275  1.00  0.00    +0.000 O 
BRANCH    3    2
ATOM      2  C2  UNL A   1      -9.689   3.992   4.917  1.00  0.00    +0.000 C 
ATOM     95  H4  UNL A   1      -9.174   3.659   5.794  1.00  0.00    +0.000 H 
BRANCH    2    1
ATOM      1  C1  UNL A   1      -9.425   5.500   4.824  1.00  0.00    +0.000 C 
ATOM     92  H1  UNL A   1      -9.839   5.987   5.682  1.00  0.00    +0.000 H 
ATOM     93  H2  UNL A   1      -9.883   5.888   3.938  1.00  0.00    +0.000 H 
ATOM     94  H3  UNL A   1      -8.371   5.676   4.787  1.00  0.00    +0.000 H 
ENDBRANCH    2    1
BRANCH    2   78
ATOM    137  H46 UNL A   1      -8.886   3.412   0.368  1.00  0.00    +0.000 H 
ATOM     78  C55 UNL A   1      -9.118   3.253   3.716  1.00  0.00    +0.000 C 
ATOM     79  C56 UNL A   1      -8.389   2.071   3.906  1.00  0.00    +0.000 C 
ATOM     80  C57 UNL A   1      -7.804   1.416   2.819  1.00  0.00    +0.000 C 
ATOM     81  C58 UNL A   1      -7.912   1.939   1.525  1.00  0.00    +0.000 C 
ATOM     89  C65 UNL A   1      -8.725   3.060   1.324  1.00  0.00    +0.000 C 
ATOM     90  C66 UNL A   1      -9.317   3.701   2.407  1.00  0.00    +0.000 C 
ATOM     91  F16 UNL A   1     -10.054   4.794   2.166  1.00  0.00    +0.000 F 
ATOM    124  H33 UNL A   1      -8.284   1.681   4.855  1.00  0.00    +0.000 H 
ATOM    125  H34 UNL A   1      -7.286   0.537   2.972  1.00  0.00    +0.000 H 
BRANCH   81   82
ATOM     82  C59 UNL A   1      -7.157   1.336   0.369  1.00  0.00    +0.000 C 
ATOM    126  H35 UNL A   1      -7.598   1.709  -0.532  1.00  0.00    +0.000 H 
ATOM    127  H36 UNL A   1      -7.235   0.279   0.513  1.00  0.00    +0.000 H 
BRANCH   82   83
ATOM    129  H38 UNL A   1      -3.895   0.566   0.997  1.00  0.00    +0.000 H 
ATOM    130  H39 UNL A   1      -5.335   0.170   1.870  1.00  0.00    +0.000 H 
ATOM    131  H40 UNL A   1      -3.422   2.113   2.591  1.00  0.00    +0.000 H 
ATOM    132  H41 UNL A   1      -4.960   1.894   3.348  1.00  0.00    +0.000 H 
ATOM    133  H42 UNL A   1      -4.207   4.148   1.911  1.00  0.00    +0.000 H 
ATOM    134  H43 UNL A   1      -5.839   3.754   2.264  1.00  0.00    +0.000 H 
ATOM    135  H44 UNL A   1      -4.267   3.196  -0.242  1.00  0.00    +0.000 H 
ATOM     83  C60 UNL A   1      -5.636   1.611   0.288  1.00  0.00    +0.000 C 
ATOM     84  C61 UNL A   1      -4.800   0.969   1.403  1.00  0.00    +0.000 C 
ATOM     85  C62 UNL A   1      -4.476   2.075   2.412  1.00  0.00    +0.000 C 
ATOM     86  C63 UNL A   1      -4.950   3.387   1.795  1.00  0.00    +0.000 C 
ATOM     87  C64 UNL A   1      -5.168   3.070   0.320  1.00  0.00    +0.000 C 
ATOM    128  H37 UNL A   1      -5.477   1.180  -0.678  1.00  0.00    +0.000 H 
BRANCH   87   88
ATOM    136  H45 UNL A   1      -6.914   3.940   0.106  1.00  0.00    +0.000 H 
ATOM     88  O3  UNL A   1      -6.046   3.968  -0.327  1.00  0.00    +0.000 O 
ENDBRANCH   87   88
ENDBRANCH   82   83
ENDBRANCH   81   82
ENDBRANCH    2   78
ENDBRANCH    3    2
ENDBRANCH    5    3
ENDBRANCH    6    5
ENDBRANCH    7    6
ENDBRANCH    8    7
ENDBRANCH    9    8
ENDBRANCH   10    9
ENDBRANCH   11   10
ENDBRANCH   12   11
ENDBRANCH   13   12
ENDBRANCH   15   13
ENDBRANCH   19   18
BRANCH   23   24
ATOM     33  C24 UNL A   1     -11.252  18.291  14.296  1.00  0.00    +0.000 C 
ATOM     34  F5  UNL A   1      -9.957  17.950  14.219  1.00  0.00    +0.000 F 
ATOM     24  C19 UNL A   1     -12.141  17.525  15.065  1.00  0.00    +0.000 C 
ATOM     25  C20 UNL A   1     -13.484  17.931  15.113  1.00  0.00    +0.000 C 
ATOM     26  F1  UNL A   1     -14.377  17.227  15.824  1.00  0.00    +0.000 F 
ATOM     27  C21 UNL A   1     -13.924  19.038  14.392  1.00  0.00    +0.000 C 
ATOM     28  F2  UNL A   1     -15.222  19.374  14.410  1.00  0.00    +0.000 F 
ATOM     29  C22 UNL A   1     -13.027  19.782  13.642  1.00  0.00    +0.000 C 
ATOM     30  F3  UNL A   1     -13.451  20.849  12.950  1.00  0.00    +0.000 F 
ATOM     31  C23 UNL A   1     -11.690  19.415  13.600  1.00  0.00    +0.000 C 
ATOM     32  F4  UNL A   1     -10.819  20.140  12.885  1.00  0.00    +0.000 F 
ENDBRANCH   23   24
BRANCH   40   41
ATOM     41  C30 UNL A   1      -7.879  16.065  20.699  1.00  0.00    +0.000 C 
ATOM     42  C31 UNL A   1      -6.478  16.115  20.666  1.00  0.00    +0.000 C 
ATOM     43  F6  UNL A   1      -5.801  15.441  19.724  1.00  0.00    +0.000 F 
ATOM     44  C32 UNL A   1      -5.765  16.825  21.628  1.00  0.00    +0.000 C 
ATOM     45  F7  UNL A   1      -4.425  16.819  21.606  1.00  0.00    +0.000 F 
ATOM     46  C33 UNL A   1      -6.438  17.525  22.619  1.00  0.00    +0.000 C 
ATOM     47  F8  UNL A   1      -5.750  18.211  23.541  1.00  0.00    +0.000 F 
ATOM     48  C34 UNL A   1      -7.824  17.506  22.658  1.00  0.00    +0.000 C 
ATOM     49  F9  UNL A   1      -8.477  18.191  23.607  1.00  0.00    +0.000 F 
ATOM     50  C35 UNL A   1      -8.539  16.773  21.715  1.00  0.00    +0.000 C 
ATOM     51  F10 UNL A   1      -9.878  16.762  21.787  1.00  0.00    +0.000 F 
ENDBRANCH   40   41
BRANCH   55   56
ATOM     65  C44 UNL A   1      -7.991   8.373  18.987  1.00  0.00    +0.000 C 
ATOM     66  F15 UNL A   1      -7.576   8.614  17.735  1.00  0.00    +0.000 F 
ATOM     56  C39 UNL A   1      -8.875   9.260  19.617  1.00  0.00    +0.000 C 
ATOM     57  C40 UNL A   1      -9.282   8.960  20.925  1.00  0.00    +0.000 C 
ATOM     58  F11 UNL A   1     -10.110   9.790  21.576  1.00  0.00    +0.000 F 
ATOM     59  C41 UNL A   1      -8.809   7.827  21.583  1.00  0.00    +0.000 C 
ATOM     60  F12 UNL A   1      -9.180   7.586  22.848  1.00  0.00    +0.000 F 
ATOM     61  C42 UNL A   1      -7.942   6.958  20.937  1.00  0.00    +0.000 C 
ATOM     62  F13 UNL A   1      -7.489   5.867  21.569  1.00  0.00    +0.000 F 
ATOM     63  C43 UNL A   1      -7.539   7.227  19.637  1.00  0.00    +0.000 C 
ATOM     64  F14 UNL A   1      -6.712   6.383  19.005  1.00  0.00    +0.000 F 
ENDBRANCH   55   56
TORSDOF 20