ROOT
ATOM    142  H34 UNL A   1      -3.036 -12.627  -8.332  1.00  0.00    +0.000 H 
ATOM    143  H35 UNL A   1      -4.466 -12.583 -10.511  1.00  0.00    +0.000 H 
ATOM    144  H36 UNL A   1      -1.534  -9.675 -10.819  1.00  0.00    +0.000 H 
ATOM    145  H37 UNL A   1       1.088  -4.812 -13.998  1.00  0.00    +0.000 H 
ATOM    146  H38 UNL A   1       2.651  -5.040 -12.010  1.00  0.00    +0.000 H 
ATOM    147  H39 UNL A   1      -0.299  -7.946 -11.645  1.00  0.00    +0.000 H 
ATOM    148  H40 UNL A   1      -3.050  -7.628 -15.842  1.00  0.00    +0.000 H 
ATOM    149  H41 UNL A   1      -4.479  -9.533 -14.901  1.00  0.00    +0.000 H 
ATOM    150  H42 UNL A   1       1.283  -9.921  -6.673  1.00  0.00    +0.000 H 
ATOM    151  H43 UNL A   1       2.605  -7.892  -7.505  1.00  0.00    +0.000 H 
ATOM     50  C38 UNL A   1       1.859  -7.019 -10.122  1.00  0.00    +0.000 C 
ATOM     51  C39 UNL A   1       1.243  -8.123  -9.304  1.00  0.00    +0.000 C 
ATOM     52  N3  UNL A   1       0.234  -8.906  -9.598  1.00  0.00    +0.000 N 
ATOM     53  C40 UNL A   1       0.084  -9.761  -8.513  1.00  0.00    +0.000 C 
ATOM     54  C41 UNL A   1      -0.843 -10.730  -8.322  1.00  0.00    +0.000 C 
ATOM     66  C48 UNL A   1      -1.893 -11.046  -9.254  1.00  0.00    +0.000 C 
ATOM     67  C49 UNL A   1      -2.890 -12.000  -9.138  1.00  0.00    +0.000 C 
ATOM     68  C50 UNL A   1      -3.666 -11.966 -10.301  1.00  0.00    +0.000 C 
ATOM     69  C51 UNL A   1      -3.177 -10.965 -11.124  1.00  0.00    +0.000 C 
ATOM     70  N4  UNL A   1      -2.087 -10.411 -10.471  1.00  0.00    +0.000 N 
ATOM     71  C52 UNL A   1      -3.663 -10.547 -12.414  1.00  0.00    +0.000 C 
ATOM     83  C59 UNL A   1      -3.159  -9.519 -13.139  1.00  0.00    +0.000 C 
ATOM     84  N5  UNL A   1      -2.098  -8.678 -12.836  1.00  0.00    +0.000 N 
ATOM     85  C60 UNL A   1      -1.977  -7.870 -13.859  1.00  0.00    +0.000 C 
ATOM     86  C61 UNL A   1      -0.992  -6.756 -14.075  1.00  0.00    +0.000 C 
ATOM     98  C68 UNL A   1      -0.032  -6.540 -13.157  1.00  0.00    +0.000 C 
ATOM     99  C69 UNL A   1       1.000  -5.510 -13.243  1.00  0.00    +0.000 C 
ATOM    100  C70 UNL A   1       1.814  -5.618 -12.183  1.00  0.00    +0.000 C 
ATOM    101  C71 UNL A   1       1.324  -6.686 -11.311  1.00  0.00    +0.000 C 
ATOM    102  N6  UNL A   1       0.237  -7.190 -11.979  1.00  0.00    +0.000 N 
ATOM    103  C72 UNL A   1      -2.950  -8.109 -14.934  1.00  0.00    +0.000 C 
ATOM    104  C73 UNL A   1      -3.665  -9.106 -14.431  1.00  0.00    +0.000 C 
ATOM    105  C74 UNL A   1       1.121  -9.422  -7.562  1.00  0.00    +0.000 C 
ATOM    106  C75 UNL A   1       1.834  -8.386  -7.982  1.00  0.00    +0.000 C 
ENDROOT
BRANCH   50   49
ATOM    107  C76 UNL A   1       4.251  -6.851  -9.347  1.00  0.00    +0.000 C 
ATOM    108  C77 UNL A   1       5.266  -6.142  -8.699  1.00  0.00    +0.000 C 
ATOM    140  H32 UNL A   1       3.787  -3.133  -8.585  1.00  0.00    +0.000 H 
ATOM     46  C34 UNL A   1       5.055  -4.807  -8.346  1.00  0.00    +0.000 C 
ATOM     47  C35 UNL A   1       3.882  -4.151  -8.726  1.00  0.00    +0.000 C 
ATOM     48  C36 UNL A   1       2.845  -4.879  -9.296  1.00  0.00    +0.000 C 
ATOM    141  H33 UNL A   1       1.947  -4.415  -9.502  1.00  0.00    +0.000 H 
ATOM     49  C37 UNL A   1       3.010  -6.242  -9.595  1.00  0.00    +0.000 C 
ATOM    152  H44 UNL A   1       4.414  -7.826  -9.645  1.00  0.00    +0.000 H 
ATOM    153  H45 UNL A   1       6.164  -6.601  -8.483  1.00  0.00    +0.000 H 
BRANCH   46   44
ATOM     44  C33 UNL A   1       6.044  -4.127  -7.484  1.00  0.00    +0.000 C 
ATOM     45  O10 UNL A   1       7.237  -4.166  -7.763  1.00  0.00    +0.000 O 
BRANCH   44   43
ATOM     43  N2  UNL A   1       5.606  -3.495  -6.343  1.00  0.00    +0.000 N 
ATOM    139  H31 UNL A   1       6.290  -2.997  -5.840  1.00  0.00    +0.000 H 
BRANCH   43   42
ATOM    137  H29 UNL A   1       3.843  -2.498  -5.948  1.00  0.00    +0.000 H 
ATOM     42  C32 UNL A   1       4.263  -3.468  -5.782  1.00  0.00    +0.000 C 
ATOM    138  H30 UNL A   1       3.697  -4.236  -6.267  1.00  0.00    +0.000 H 
BRANCH   42   41
ATOM     41  C31 UNL A   1       4.241  -3.758  -4.289  1.00  0.00    +0.000 C 
ATOM    135  H27 UNL A   1       3.221  -3.862  -3.985  1.00  0.00    +0.000 H 
ATOM    136  H28 UNL A   1       4.817  -4.649  -4.146  1.00  0.00    +0.000 H 
BRANCH   41   40
ATOM    133  H25 UNL A   1       4.795  -2.983  -2.396  1.00  0.00    +0.000 H 
ATOM    134  H26 UNL A   1       5.904  -2.604  -3.750  1.00  0.00    +0.000 H 
ATOM     40  C30 UNL A   1       4.889  -2.683  -3.419  1.00  0.00    +0.000 C 
BRANCH   40   39
ATOM    131  H23 UNL A   1       4.755  -0.647  -2.834  1.00  0.00    +0.000 H 
ATOM    132  H24 UNL A   1       4.466  -0.982  -4.570  1.00  0.00    +0.000 H 
ATOM     39  C29 UNL A   1       4.287  -1.281  -3.558  1.00  0.00    +0.000 C 
BRANCH   39   38
ATOM    129  H21 UNL A   1       2.490  -0.160  -3.352  1.00  0.00    +0.000 H 
ATOM    130  H22 UNL A   1       2.319  -1.742  -4.154  1.00  0.00    +0.000 H 
ATOM     38  C28 UNL A   1       2.769  -1.193  -3.354  1.00  0.00    +0.000 C 
BRANCH   38   37
ATOM     37  C27 UNL A   1       2.275  -1.826  -2.054  1.00  0.00    +0.000 C 
ATOM    127  H19 UNL A   1       1.217  -1.686  -1.978  1.00  0.00    +0.000 H 
ATOM    128  H20 UNL A   1       2.518  -2.868  -2.071  1.00  0.00    +0.000 H 
BRANCH   37   36
ATOM     36  N1  UNL A   1       2.914  -1.227  -0.902  1.00  0.00    +0.000 N 
ATOM    126  H18 UNL A   1       3.771  -1.584  -0.577  1.00  0.00    +0.000 H 
BRANCH   36    2
ATOM      1  O1  UNL A   1       1.207   0.246  -0.503  1.00  0.00    +0.000 O 
ATOM      2  C1  UNL A   1       2.335  -0.171  -0.268  1.00  0.00    +0.000 C 
BRANCH    2    3
ATOM      3  C2  UNL A   1       3.134   0.485   0.789  1.00  0.00    +0.000 C 
ATOM    109  H1  UNL A   1       2.584   0.917   1.548  1.00  0.00    +0.000 H 
BRANCH    3    4
ATOM      4  C3  UNL A   1       4.474   0.605   0.912  1.00  0.00    +0.000 C 
ATOM    110  H2  UNL A   1       5.088   0.043   0.302  1.00  0.00    +0.000 H 
BRANCH    4    5
ATOM      5  C4  UNL A   1       5.117   1.569   1.950  1.00  0.00    +0.000 C 
ATOM      6  C5  UNL A   1       5.053   2.927   1.304  1.00  0.00    +0.000 C 
ATOM      7  C6  UNL A   1       4.189   3.877   1.687  1.00  0.00    +0.000 C 
ATOM      9  C7  UNL A   1       3.294   3.680   2.875  1.00  0.00    +0.000 C 
ATOM     10  O3  UNL A   1       2.501   4.561   3.188  1.00  0.00    +0.000 O 
ATOM     11  C8  UNL A   1       3.458   2.445   3.678  1.00  0.00    +0.000 C 
ATOM     12  C9  UNL A   1       4.308   1.518   3.228  1.00  0.00    +0.000 C 
ATOM     13  C10 UNL A   1       4.730   0.298   3.962  1.00  0.00    +0.000 C 
ATOM     14  O4  UNL A   1       4.119  -0.281   4.824  1.00  0.00    +0.000 O 
ATOM     15  C11 UNL A   1       6.104   0.009   3.466  1.00  0.00    +0.000 C 
ATOM     16  C12 UNL A   1       6.910  -0.933   3.963  1.00  0.00    +0.000 C 
ATOM     17  C13 UNL A   1       8.351  -0.829   3.697  1.00  0.00    +0.000 C 
ATOM     18  C14 UNL A   1       9.092  -1.981   3.392  1.00  0.00    +0.000 C 
ATOM     19  C15 UNL A   1      10.477  -1.889   3.265  1.00  0.00    +0.000 C 
ATOM     21  C16 UNL A   1      11.130  -0.678   3.477  1.00  0.00    +0.000 C 
ATOM     23  C17 UNL A   1      10.415   0.466   3.785  1.00  0.00    +0.000 C 
ATOM     24  C18 UNL A   1       9.022   0.406   3.849  1.00  0.00    +0.000 C 
ATOM     25  O7  UNL A   1       8.405   1.578   4.197  1.00  0.00    +0.000 O 
ATOM     26  C19 UNL A   1       7.349   2.122   3.360  1.00  0.00    +0.000 C 
ATOM     35  C26 UNL A   1       6.517   1.103   2.500  1.00  0.00    +0.000 C 
ATOM    111  H3  UNL A   1       5.703   3.136   0.531  1.00  0.00    +0.000 H 
ATOM    113  H5  UNL A   1       2.933   2.306   4.555  1.00  0.00    +0.000 H 
ATOM    114  H6  UNL A   1       6.530  -1.714   4.520  1.00  0.00    +0.000 H 
ATOM    115  H7  UNL A   1       8.616  -2.887   3.263  1.00  0.00    +0.000 H 
ATOM    118  H10 UNL A   1      10.907   1.355   3.967  1.00  0.00    +0.000 H 
ATOM    119  H11 UNL A   1       6.574   2.466   4.013  1.00  0.00    +0.000 H 
ATOM    125  H17 UNL A   1       7.148   0.880   1.665  1.00  0.00    +0.000 H 
BRANCH    7    8
ATOM    112  H4  UNL A   1       4.658   5.226   0.260  1.00  0.00    +0.000 H 
ATOM      8  O2  UNL A   1       4.111   5.075   1.006  1.00  0.00    +0.000 O 
ENDBRANCH    7    8
BRANCH   19   20
ATOM    116  H8  UNL A   1      10.853  -3.806   2.800  1.00  0.00    +0.000 H 
ATOM     20  O5  UNL A   1      11.252  -2.971   2.951  1.00  0.00    +0.000 O 
ENDBRANCH   19   20
BRANCH   21   22
ATOM    117  H9  UNL A   1      12.988  -1.370   3.181  1.00  0.00    +0.000 H 
ATOM     22  O6  UNL A   1      12.490  -0.604   3.389  1.00  0.00    +0.000 O 
ENDBRANCH   21   22
BRANCH   26   27
ATOM     34  C25 UNL A   1       9.062   3.139   1.756  1.00  0.00    +0.000 C 
ATOM     28  C21 UNL A   1       7.317   4.549   2.637  1.00  0.00    +0.000 C 
ATOM    120  H12 UNL A   1       6.555   4.709   3.314  1.00  0.00    +0.000 H 
ATOM    121  H13 UNL A   1       7.215   6.491   1.808  1.00  0.00    +0.000 H 
ATOM     27  C20 UNL A   1       7.933   3.286   2.573  1.00  0.00    +0.000 C 
ATOM    124  H16 UNL A   1       9.563   2.237   1.727  1.00  0.00    +0.000 H 
ATOM     29  C22 UNL A   1       7.721   5.591   1.800  1.00  0.00    +0.000 C 
ATOM     30  C23 UNL A   1       8.809   5.407   0.956  1.00  0.00    +0.000 C 
ATOM     32  C24 UNL A   1       9.512   4.207   0.981  1.00  0.00    +0.000 C 
BRANCH   30   31
ATOM    122  H14 UNL A   1       8.724   7.212   0.087  1.00  0.00    +0.000 H 
ATOM     31  O8  UNL A   1       9.195   6.402   0.106  1.00  0.00    +0.000 O 
ENDBRANCH   30   31
BRANCH   32   33
ATOM     33  O9  UNL A   1      10.638   4.064   0.221  1.00  0.00    +0.000 O 
ATOM    123  H15 UNL A   1      10.944   4.779  -0.301  1.00  0.00    +0.000 H 
ENDBRANCH   32   33
ENDBRANCH   26   27
ENDBRANCH    4    5
ENDBRANCH    3    4
ENDBRANCH    2    3
ENDBRANCH   36    2
ENDBRANCH   37   36
ENDBRANCH   38   37
ENDBRANCH   39   38
ENDBRANCH   40   39
ENDBRANCH   41   40
ENDBRANCH   42   41
ENDBRANCH   43   42
ENDBRANCH   44   43
ENDBRANCH   46   44
ENDBRANCH   50   49
BRANCH   54   55
ATOM     65  F5  UNL A   1       0.009 -13.441  -8.242  1.00  0.00    +0.000 F 
ATOM     55  C42 UNL A   1      -0.769 -11.530  -7.055  1.00  0.00    +0.000 C 
ATOM     56  C43 UNL A   1      -1.161 -10.990  -5.822  1.00  0.00    +0.000 C 
ATOM     57  F1  UNL A   1      -1.538  -9.706  -5.736  1.00  0.00    +0.000 F 
ATOM     58  C44 UNL A   1      -1.144 -11.764  -4.663  1.00  0.00    +0.000 C 
ATOM     59  F2  UNL A   1      -1.493 -11.219  -3.490  1.00  0.00    +0.000 F 
ATOM     60  C45 UNL A   1      -0.760 -13.096  -4.721  1.00  0.00    +0.000 C 
ATOM     61  F3  UNL A   1      -0.758 -13.842  -3.607  1.00  0.00    +0.000 F 
ATOM     62  C46 UNL A   1      -0.377 -13.653  -5.931  1.00  0.00    +0.000 C 
ATOM     63  F4  UNL A   1      -0.016 -14.942  -5.990  1.00  0.00    +0.000 F 
ATOM     64  C47 UNL A   1      -0.370 -12.875  -7.087  1.00  0.00    +0.000 C 
ENDBRANCH   54   55
BRANCH   71   72
ATOM     72  C53 UNL A   1      -4.820 -11.299 -12.999  1.00  0.00    +0.000 C 
ATOM     73  C54 UNL A   1      -4.641 -12.199 -14.059  1.00  0.00    +0.000 C 
ATOM     74  F6  UNL A   1      -3.430 -12.352 -14.617  1.00  0.00    +0.000 F 
ATOM     75  C55 UNL A   1      -5.714 -12.924 -14.570  1.00  0.00    +0.000 C 
ATOM     76  F7  UNL A   1      -5.528 -13.752 -15.606  1.00  0.00    +0.000 F 
ATOM     77  C56 UNL A   1      -6.977 -12.783 -14.013  1.00  0.00    +0.000 C 
ATOM     78  F8  UNL A   1      -8.007 -13.490 -14.499  1.00  0.00    +0.000 F 
ATOM     79  C57 UNL A   1      -7.173 -11.907 -12.956  1.00  0.00    +0.000 C 
ATOM     80  F9  UNL A   1      -8.390 -11.779 -12.410  1.00  0.00    +0.000 F 
ATOM     81  C58 UNL A   1      -6.107 -11.162 -12.460  1.00  0.00    +0.000 C 
ATOM     82  F10 UNL A   1      -6.327 -10.319 -11.440  1.00  0.00    +0.000 F 
ENDBRANCH   71   72
BRANCH   86   87
ATOM     97  F15 UNL A   1       0.950  -6.822 -16.155  1.00  0.00    +0.000 F 
ATOM     87  C62 UNL A   1      -1.058  -5.896 -15.283  1.00  0.00    +0.000 C 
ATOM     88  C63 UNL A   1      -2.101  -4.976 -15.454  1.00  0.00    +0.000 C 
ATOM     89  F11 UNL A   1      -3.081  -4.898 -14.541  1.00  0.00    +0.000 F 
ATOM     90  C64 UNL A   1      -2.152  -4.150 -16.574  1.00  0.00    +0.000 C 
ATOM     91  F12 UNL A   1      -3.175  -3.298 -16.729  1.00  0.00    +0.000 F 
ATOM     92  C65 UNL A   1      -1.151  -4.213 -17.532  1.00  0.00    +0.000 C 
ATOM     93  F13 UNL A   1      -1.194  -3.408 -18.603  1.00  0.00    +0.000 F 
ATOM     94  C66 UNL A   1      -0.107  -5.113 -17.381  1.00  0.00    +0.000 C 
ATOM     95  F14 UNL A   1       0.870  -5.167 -18.297  1.00  0.00    +0.000 F 
ATOM     96  C67 UNL A   1      -0.069  -5.957 -16.275  1.00  0.00    +0.000 C 
ENDBRANCH   86   87
TORSDOF 23