ROOT
ATOM    132  H27 UNL A   1      10.629  10.160  -6.749  1.00  0.00    +0.000 H 
ATOM    133  H28 UNL A   1       9.109  11.013  -4.732  1.00  0.00    +0.000 H 
ATOM    134  H29 UNL A   1      12.722   9.645  -3.300  1.00  0.00    +0.000 H 
ATOM    135  H30 UNL A   1       6.225   7.867   0.676  1.00  0.00    +0.000 H 
ATOM    136  H31 UNL A   1       7.297   5.821  -0.340  1.00  0.00    +0.000 H 
ATOM    137  H32 UNL A   1       8.161   9.036  -2.829  1.00  0.00    +0.000 H 
ATOM    138  H33 UNL A   1       6.527  12.182  -3.115  1.00  0.00    +0.000 H 
ATOM    139  H34 UNL A   1       8.935  13.041  -3.572  1.00  0.00    +0.000 H 
ATOM    140  H35 UNL A   1       9.698   7.532  -7.125  1.00  0.00    +0.000 H 
ATOM    141  H36 UNL A   1       7.680   7.594  -5.511  1.00  0.00    +0.000 H 
ATOM     27  C20 UNL A   1       8.476   6.141  -3.001  1.00  0.00    +0.000 C 
ATOM     28  C21 UNL A   1       9.264   6.785  -4.097  1.00  0.00    +0.000 C 
ATOM     29  N4  UNL A   1      10.541   6.525  -4.190  1.00  0.00    +0.000 N 
ATOM     30  C22 UNL A   1      10.967   7.061  -5.381  1.00  0.00    +0.000 C 
ATOM     31  C23 UNL A   1      12.074   7.853  -5.285  1.00  0.00    +0.000 C 
ATOM     43  C30 UNL A   1      11.706   9.231  -5.102  1.00  0.00    +0.000 C 
ATOM     44  C31 UNL A   1      10.771  10.027  -5.735  1.00  0.00    +0.000 C 
ATOM     45  C32 UNL A   1      10.059  10.615  -4.671  1.00  0.00    +0.000 C 
ATOM     46  C33 UNL A   1      10.843  10.570  -3.526  1.00  0.00    +0.000 C 
ATOM     47  N5  UNL A   1      11.923   9.787  -3.859  1.00  0.00    +0.000 N 
ATOM     48  C34 UNL A   1      10.655  10.977  -2.160  1.00  0.00    +0.000 C 
ATOM     60  C41 UNL A   1       9.570  11.746  -1.900  1.00  0.00    +0.000 C 
ATOM     61  N6  UNL A   1       8.811  11.350  -0.847  1.00  0.00    +0.000 N 
ATOM     62  C42 UNL A   1       7.639  11.213  -1.389  1.00  0.00    +0.000 C 
ATOM     63  C43 UNL A   1       6.605  10.381  -0.770  1.00  0.00    +0.000 C 
ATOM     75  C50 UNL A   1       6.972   9.056  -1.035  1.00  0.00    +0.000 C 
ATOM     76  C51 UNL A   1       6.744   7.867  -0.216  1.00  0.00    +0.000 C 
ATOM     77  C52 UNL A   1       7.305   6.755  -0.779  1.00  0.00    +0.000 C 
ATOM     78  C53 UNL A   1       7.922   7.042  -2.084  1.00  0.00    +0.000 C 
ATOM     79  N7  UNL A   1       7.762   8.481  -2.120  1.00  0.00    +0.000 N 
ATOM     80  C54 UNL A   1       7.399  11.991  -2.598  1.00  0.00    +0.000 C 
ATOM     81  C55 UNL A   1       8.654  12.380  -2.831  1.00  0.00    +0.000 C 
ATOM     82  C56 UNL A   1       9.734   7.340  -6.112  1.00  0.00    +0.000 C 
ATOM     83  C57 UNL A   1       8.655   7.317  -5.318  1.00  0.00    +0.000 C 
ENDROOT
BRANCH   27   26
ATOM    130  H25 UNL A   1       9.283   2.927  -6.314  1.00  0.00    +0.000 H 
ATOM    131  H26 UNL A   1       8.073   4.759  -5.322  1.00  0.00    +0.000 H 
ATOM    142  H37 UNL A   1       9.545   3.793  -1.525  1.00  0.00    +0.000 H 
ATOM    143  H38 UNL A   1      10.519   1.760  -2.497  1.00  0.00    +0.000 H 
ATOM     84  C58 UNL A   1       9.442   3.628  -2.538  1.00  0.00    +0.000 C 
ATOM     85  C59 UNL A   1      10.042   2.429  -3.121  1.00  0.00    +0.000 C 
ATOM     23  C16 UNL A   1       9.994   2.152  -4.500  1.00  0.00    +0.000 C 
ATOM     24  C17 UNL A   1       9.313   3.059  -5.290  1.00  0.00    +0.000 C 
ATOM     25  C18 UNL A   1       8.655   4.176  -4.701  1.00  0.00    +0.000 C 
ATOM     26  C19 UNL A   1       8.728   4.565  -3.310  1.00  0.00    +0.000 C 
BRANCH   23   21
ATOM     21  C15 UNL A   1      10.758   1.048  -5.190  1.00  0.00    +0.000 C 
ATOM     22  O4  UNL A   1      11.906   1.248  -5.580  1.00  0.00    +0.000 O 
BRANCH   21   20
ATOM    129  H24 UNL A   1      10.668  -0.812  -6.006  1.00  0.00    +0.000 H 
ATOM     20  N3  UNL A   1      10.147  -0.162  -5.481  1.00  0.00    +0.000 N 
BRANCH   20   19
ATOM     19  C14 UNL A   1       8.818  -0.554  -5.084  1.00  0.00    +0.000 C 
ATOM    127  H22 UNL A   1       8.841  -0.785  -4.039  1.00  0.00    +0.000 H 
ATOM    128  H23 UNL A   1       8.183   0.271  -5.332  1.00  0.00    +0.000 H 
BRANCH   19   18
ATOM     18  C13 UNL A   1       8.234  -1.769  -5.823  1.00  0.00    +0.000 C 
ATOM    125  H20 UNL A   1       7.197  -1.572  -5.993  1.00  0.00    +0.000 H 
ATOM    126  H21 UNL A   1       8.835  -1.865  -6.704  1.00  0.00    +0.000 H 
BRANCH   18   17
ATOM     17  C12 UNL A   1       8.335  -3.140  -5.133  1.00  0.00    +0.000 C 
ATOM    123  H18 UNL A   1       7.649  -3.799  -5.623  1.00  0.00    +0.000 H 
ATOM    124  H19 UNL A   1       9.364  -3.420  -5.217  1.00  0.00    +0.000 H 
BRANCH   17   16
ATOM    121  H16 UNL A   1       7.889  -4.209  -3.357  1.00  0.00    +0.000 H 
ATOM    122  H17 UNL A   1       8.861  -2.711  -3.155  1.00  0.00    +0.000 H 
ATOM     16  C11 UNL A   1       8.028  -3.184  -3.632  1.00  0.00    +0.000 C 
BRANCH   16   15
ATOM    119  H14 UNL A   1       6.715  -2.497  -2.108  1.00  0.00    +0.000 H 
ATOM     15  C10 UNL A   1       6.792  -2.403  -3.171  1.00  0.00    +0.000 C 
ATOM    120  H15 UNL A   1       6.935  -1.394  -3.497  1.00  0.00    +0.000 H 
BRANCH   15   14
ATOM    118  H13 UNL A   1       5.625  -3.035  -4.830  1.00  0.00    +0.000 H 
ATOM    117  H12 UNL A   1       4.729  -2.116  -3.627  1.00  0.00    +0.000 H 
ATOM     14  C9  UNL A   1       5.473  -2.869  -3.784  1.00  0.00    +0.000 C 
BRANCH   14   13
ATOM    116  H11 UNL A   1       5.279  -4.935  -3.651  1.00  0.00    +0.000 H 
ATOM     13  N2  UNL A   1       5.026  -4.106  -3.183  1.00  0.00    +0.000 N 
BRANCH   13   11
ATOM     11  C8  UNL A   1       4.292  -4.255  -2.039  1.00  0.00    +0.000 C 
ATOM     12  O3  UNL A   1       4.585  -5.211  -1.316  1.00  0.00    +0.000 O 
BRANCH   11    8
ATOM    112  H7  UNL A   1       2.566  -3.744  -0.933  1.00  0.00    +0.000 H 
ATOM      8  C6  UNL A   1       3.210  -3.232  -1.617  1.00  0.00    +0.000 C 
BRANCH    8    7
ATOM    111  H6  UNL A   1       2.712  -2.001  -3.232  1.00  0.00    +0.000 H 
ATOM      7  N1  UNL A   1       2.381  -2.792  -2.747  1.00  0.00    +0.000 N 
BRANCH    7    5
ATOM      5  C5  UNL A   1       1.219  -3.325  -3.219  1.00  0.00    +0.000 C 
ATOM      6  O1  UNL A   1       0.787  -2.884  -4.287  1.00  0.00    +0.000 O 
BRANCH    5    4
ATOM      4  C4  UNL A   1       0.450  -4.362  -2.420  1.00  0.00    +0.000 C 
ATOM    109  H4  UNL A   1       0.279  -3.972  -1.438  1.00  0.00    +0.000 H 
ATOM    110  H5  UNL A   1      -0.460  -4.551  -2.950  1.00  0.00    +0.000 H 
BRANCH    4    3
ATOM      2  C2  UNL A   1       1.601  -6.521  -3.301  1.00  0.00    +0.000 C 
ATOM      3  C3  UNL A   1       1.159  -5.675  -2.289  1.00  0.00    +0.000 C 
ATOM     98  N8  UNL A   1       2.245  -7.607  -2.708  1.00  0.00    +0.000 N 
ATOM    144  H39 UNL A   1       1.209  -5.964  -0.123  1.00  0.00    +0.000 H 
ATOM     86  C60 UNL A   1       1.467  -6.311  -1.060  1.00  0.00    +0.000 C 
ATOM     87  C61 UNL A   1       2.168  -7.473  -1.321  1.00  0.00    +0.000 C 
BRANCH    2    1
ATOM      1  C1  UNL A   1       1.336  -6.399  -4.769  1.00  0.00    +0.000 C 
ATOM    106  H1  UNL A   1       0.830  -5.476  -4.965  1.00  0.00    +0.000 H 
ATOM    107  H2  UNL A   1       0.724  -7.216  -5.090  1.00  0.00    +0.000 H 
ATOM    108  H3  UNL A   1       2.263  -6.418  -5.301  1.00  0.00    +0.000 H 
ENDBRANCH    2    1
BRANCH   87   88
ATOM     97  C68 UNL A   1       2.096  -8.913   0.703  1.00  0.00    +0.000 C 
ATOM    145  H40 UNL A   1       4.776  -8.127  -1.149  1.00  0.00    +0.000 H 
ATOM    146  H41 UNL A   1       5.866  -9.557   0.484  1.00  0.00    +0.000 H 
ATOM    150  H45 UNL A   1       2.169 -10.155   2.412  1.00  0.00    +0.000 H 
ATOM    151  H46 UNL A   1       1.083  -8.730   0.774  1.00  0.00    +0.000 H 
ATOM     88  C62 UNL A   1       2.834  -8.339  -0.339  1.00  0.00    +0.000 C 
ATOM     89  C63 UNL A   1       4.218  -8.569  -0.401  1.00  0.00    +0.000 C 
ATOM     90  C64 UNL A   1       4.850  -9.388   0.539  1.00  0.00    +0.000 C 
ATOM     91  C65 UNL A   1       4.091  -9.976   1.553  1.00  0.00    +0.000 C 
ATOM     96  C67 UNL A   1       2.719  -9.732   1.648  1.00  0.00    +0.000 C 
BRANCH   91   92
ATOM     92  S1  UNL A   1       4.904 -10.986   2.767  1.00  0.00    +0.000 S 
ATOM     94  O5  UNL A   1       6.051 -10.254   3.239  1.00  0.00    +0.000 O 
ATOM     95  O6  UNL A   1       3.882 -11.460   3.697  1.00  0.00    +0.000 O 
BRANCH   92   93
ATOM    149  H44 UNL A   1       5.880 -13.119   2.531  1.00  0.00    +0.000 H 
ATOM    147  H42 UNL A   1       6.224 -12.093   1.159  1.00  0.00    +0.000 H 
ATOM    148  H43 UNL A   1       4.650 -12.832   1.324  1.00  0.00    +0.000 H 
ATOM     93  C66 UNL A   1       5.471 -12.398   1.855  1.00  0.00    +0.000 C 
ENDBRANCH   92   93
ENDBRANCH   91   92
ENDBRANCH   87   88
BRANCH   98   99
ATOM     99  C69 UNL A   1       2.844  -8.701  -3.388  1.00  0.00    +0.000 C 
ATOM    100  C70 UNL A   1       2.500 -10.012  -3.027  1.00  0.00    +0.000 C 
ATOM    101  C71 UNL A   1       3.115 -11.092  -3.662  1.00  0.00    +0.000 C 
ATOM    102  C72 UNL A   1       4.081 -10.863  -4.641  1.00  0.00    +0.000 C 
ATOM    103  C73 UNL A   1       4.423  -9.557  -4.981  1.00  0.00    +0.000 C 
ATOM    104  F16 UNL A   1       5.367  -9.344  -5.907  1.00  0.00    +0.000 F 
ATOM    105  C74 UNL A   1       3.814  -8.469  -4.366  1.00  0.00    +0.000 C 
ATOM    152  H47 UNL A   1       1.793 -10.177  -2.294  1.00  0.00    +0.000 H 
ATOM    153  H48 UNL A   1       2.856 -12.057  -3.407  1.00  0.00    +0.000 H 
ATOM    154  H49 UNL A   1       4.540 -11.658  -5.112  1.00  0.00    +0.000 H 
ATOM    155  H50 UNL A   1       4.075  -7.505  -4.628  1.00  0.00    +0.000 H 
ENDBRANCH   98   99
ENDBRANCH    4    3
ENDBRANCH    5    4
ENDBRANCH    7    5
ENDBRANCH    8    7
BRANCH    8    9
ATOM      9  C7  UNL A   1       3.818  -2.030  -0.880  1.00  0.00    +0.000 C 
ATOM    114  H9  UNL A   1       4.604  -1.644  -1.495  1.00  0.00    +0.000 H 
ATOM    113  H8  UNL A   1       3.047  -1.307  -0.715  1.00  0.00    +0.000 H 
BRANCH    9   10
ATOM     10  O2  UNL A   1       4.393  -2.374   0.375  1.00  0.00    +0.000 O 
ATOM    115  H10 UNL A   1       3.704  -2.728   0.959  1.00  0.00    +0.000 H 
ENDBRANCH    9   10
ENDBRANCH    8    9
ENDBRANCH   11    8
ENDBRANCH   13   11
ENDBRANCH   14   13
ENDBRANCH   15   14
ENDBRANCH   16   15
ENDBRANCH   17   16
ENDBRANCH   18   17
ENDBRANCH   19   18
ENDBRANCH   20   19
ENDBRANCH   21   20
ENDBRANCH   23   21
ENDBRANCH   27   26
BRANCH   31   32
ATOM     33  C25 UNL A   1      14.364   6.869  -5.337  1.00  0.00    +0.000 C 
ATOM     34  F1  UNL A   1      14.477   7.292  -6.605  1.00  0.00    +0.000 F 
ATOM     35  C26 UNL A   1      15.398   6.115  -4.780  1.00  0.00    +0.000 C 
ATOM     36  F2  UNL A   1      16.494   5.850  -5.504  1.00  0.00    +0.000 F 
ATOM     37  C27 UNL A   1      15.298   5.638  -3.481  1.00  0.00    +0.000 C 
ATOM     38  F3  UNL A   1      16.276   4.883  -2.961  1.00  0.00    +0.000 F 
ATOM     39  C28 UNL A   1      14.202   5.975  -2.709  1.00  0.00    +0.000 C 
ATOM     40  F4  UNL A   1      14.104   5.539  -1.444  1.00  0.00    +0.000 F 
ATOM     41  C29 UNL A   1      13.204   6.785  -3.239  1.00  0.00    +0.000 C 
ATOM     42  F5  UNL A   1      12.235   7.202  -2.408  1.00  0.00    +0.000 F 
ATOM     32  C24 UNL A   1      13.229   7.194  -4.589  1.00  0.00    +0.000 C 
ENDBRANCH   31   32
BRANCH   48   49
ATOM     49  C35 UNL A   1      11.466  10.515  -0.967  1.00  0.00    +0.000 C 
ATOM     50  C36 UNL A   1      10.984   9.825   0.171  1.00  0.00    +0.000 C 
ATOM     51  F6  UNL A   1       9.746   9.313   0.215  1.00  0.00    +0.000 F 
ATOM     52  C37 UNL A   1      11.783   9.621   1.300  1.00  0.00    +0.000 C 
ATOM     53  F7  UNL A   1      11.272   9.026   2.389  1.00  0.00    +0.000 F 
ATOM     54  C38 UNL A   1      13.103  10.031   1.300  1.00  0.00    +0.000 C 
ATOM     55  F8  UNL A   1      13.876   9.826   2.376  1.00  0.00    +0.000 F 
ATOM     56  C39 UNL A   1      13.625  10.639   0.173  1.00  0.00    +0.000 C 
ATOM     57  F9  UNL A   1      14.917  10.994   0.140  1.00  0.00    +0.000 F 
ATOM     58  C40 UNL A   1      12.816  10.890  -0.933  1.00  0.00    +0.000 C 
ATOM     59  F10 UNL A   1      13.364  11.501  -1.994  1.00  0.00    +0.000 F 
ENDBRANCH   48   49
BRANCH   63   64
ATOM     65  C45 UNL A   1       6.033  12.650   0.407  1.00  0.00    +0.000 C 
ATOM     66  F11 UNL A   1       7.320  13.023   0.443  1.00  0.00    +0.000 F 
ATOM     67  C46 UNL A   1       5.120  13.690   0.663  1.00  0.00    +0.000 C 
ATOM     68  F12 UNL A   1       5.560  14.945   0.861  1.00  0.00    +0.000 F 
ATOM     69  C47 UNL A   1       3.770  13.440   0.631  1.00  0.00    +0.000 C 
ATOM     70  F13 UNL A   1       2.890  14.440   0.798  1.00  0.00    +0.000 F 
ATOM     71  C48 UNL A   1       3.347  12.142   0.385  1.00  0.00    +0.000 C 
ATOM     72  F14 UNL A   1       2.027  11.900   0.350  1.00  0.00    +0.000 F 
ATOM     73  C49 UNL A   1       4.266  11.097   0.095  1.00  0.00    +0.000 C 
ATOM     74  F15 UNL A   1       3.762   9.900  -0.232  1.00  0.00    +0.000 F 
ATOM     64  C44 UNL A   1       5.651  11.306   0.046  1.00  0.00    +0.000 C 
ENDBRANCH   63   64
TORSDOF 26