ROOT
ATOM     19  C15 UNL A   1      13.099  -1.807  -1.018  1.00  0.00    +0.000 C 
ATOM     20  C16 UNL A   1      13.847  -1.629  -2.308  1.00  0.00    +0.000 C 
ATOM     21  N3  UNL A   1      14.395  -2.538  -3.075  1.00  0.00    +0.000 N 
ATOM     22  C17 UNL A   1      14.918  -1.850  -4.162  1.00  0.00    +0.000 C 
ATOM     23  C18 UNL A   1      15.616  -2.343  -5.212  1.00  0.00    +0.000 C 
ATOM     35  C25 UNL A   1      15.974  -3.728  -5.374  1.00  0.00    +0.000 C 
ATOM     36  C26 UNL A   1      16.779  -4.302  -6.343  1.00  0.00    +0.000 C 
ATOM     37  C27 UNL A   1      16.797  -5.684  -6.135  1.00  0.00    +0.000 C 
ATOM     38  C28 UNL A   1      16.034  -5.967  -5.014  1.00  0.00    +0.000 C 
ATOM     39  N4  UNL A   1      15.544  -4.757  -4.551  1.00  0.00    +0.000 N 
ATOM     40  C29 UNL A   1      15.761  -7.246  -4.414  1.00  0.00    +0.000 C 
ATOM     52  C36 UNL A   1      15.066  -7.430  -3.265  1.00  0.00    +0.000 C 
ATOM     53  N5  UNL A   1      14.472  -6.482  -2.445  1.00  0.00    +0.000 N 
ATOM     54  C37 UNL A   1      13.904  -7.152  -1.474  1.00  0.00    +0.000 C 
ATOM     55  C38 UNL A   1      13.126  -6.636  -0.294  1.00  0.00    +0.000 C 
ATOM     67  C45 UNL A   1      12.967  -5.308  -0.138  1.00  0.00    +0.000 C 
ATOM     68  C46 UNL A   1      12.228  -4.669   0.945  1.00  0.00    +0.000 C 
ATOM     69  C47 UNL A   1      12.199  -3.344   0.733  1.00  0.00    +0.000 C 
ATOM     70  C48 UNL A   1      12.951  -3.036  -0.485  1.00  0.00    +0.000 C 
ATOM     71  N6  UNL A   1      13.402  -4.261  -0.914  1.00  0.00    +0.000 N 
ATOM     72  C49 UNL A   1      14.062  -8.610  -1.579  1.00  0.00    +0.000 C 
ATOM     73  C50 UNL A   1      14.807  -8.723  -2.669  1.00  0.00    +0.000 C 
ATOM     74  C51 UNL A   1      14.596  -0.452  -3.974  1.00  0.00    +0.000 C 
ATOM     75  C52 UNL A   1      13.977  -0.255  -2.817  1.00  0.00    +0.000 C 
ATOM    112  H21 UNL A   1      17.281  -3.796  -7.090  1.00  0.00    +0.000 H 
ATOM    113  H22 UNL A   1      17.293  -6.377  -6.718  1.00  0.00    +0.000 H 
ATOM    114  H23 UNL A   1      14.975  -4.644  -3.755  1.00  0.00    +0.000 H 
ATOM    115  H24 UNL A   1      11.797  -5.157   1.746  1.00  0.00    +0.000 H 
ATOM    116  H25 UNL A   1      11.722  -2.653   1.332  1.00  0.00    +0.000 H 
ATOM    117  H26 UNL A   1      13.982  -4.377  -1.701  1.00  0.00    +0.000 H 
ATOM    118  H27 UNL A   1      13.690  -9.351  -0.965  1.00  0.00    +0.000 H 
ATOM    119  H28 UNL A   1      15.158  -9.618  -3.044  1.00  0.00    +0.000 H 
ATOM    120  H29 UNL A   1      14.818   0.294  -4.651  1.00  0.00    +0.000 H 
ATOM    121  H30 UNL A   1      13.667   0.630  -2.386  1.00  0.00    +0.000 H 
ENDROOT
BRANCH   19   18
ATOM     76  C53 UNL A   1      11.329  -0.047  -0.992  1.00  0.00    +0.000 C 
ATOM     77  C54 UNL A   1      10.630   0.977  -0.354  1.00  0.00    +0.000 C 
ATOM    110  H19 UNL A   1      12.404   1.122   2.491  1.00  0.00    +0.000 H 
ATOM     15  C11 UNL A   1      10.978   1.348   0.948  1.00  0.00    +0.000 C 
ATOM     16  C12 UNL A   1      12.111   0.799   1.556  1.00  0.00    +0.000 C 
ATOM     17  C13 UNL A   1      12.844  -0.188   0.893  1.00  0.00    +0.000 C 
ATOM    111  H20 UNL A   1      13.694  -0.578   1.331  1.00  0.00    +0.000 H 
ATOM     18  C14 UNL A   1      12.431  -0.651  -0.367  1.00  0.00    +0.000 C 
ATOM    122  H31 UNL A   1      11.035  -0.362  -1.930  1.00  0.00    +0.000 H 
ATOM    123  H32 UNL A   1       9.859   1.459  -0.841  1.00  0.00    +0.000 H 
BRANCH   15   13
ATOM     13  C10 UNL A   1      10.159   2.317   1.709  1.00  0.00    +0.000 C 
ATOM     14  O2  UNL A   1      10.709   3.219   2.334  1.00  0.00    +0.000 O 
BRANCH   13   12
ATOM     12  N2  UNL A   1       8.792   2.190   1.733  1.00  0.00    +0.000 N 
ATOM    109  H18 UNL A   1       8.304   2.958   2.108  1.00  0.00    +0.000 H 
BRANCH   12   11
ATOM     11  C9  UNL A   1       7.962   1.084   1.284  1.00  0.00    +0.000 C 
ATOM    108  H17 UNL A   1       8.613   0.306   0.943  1.00  0.00    +0.000 H 
ATOM    107  H16 UNL A   1       7.321   1.431   0.500  1.00  0.00    +0.000 H 
BRANCH   11   10
ATOM    105  H14 UNL A   1       6.606  -0.363   2.030  1.00  0.00    +0.000 H 
ATOM     10  C8  UNL A   1       7.098   0.510   2.404  1.00  0.00    +0.000 C 
ATOM    106  H15 UNL A   1       7.761   0.307   3.219  1.00  0.00    +0.000 H 
BRANCH   10    9
ATOM      9  C7  UNL A   1       6.029   1.461   2.948  1.00  0.00    +0.000 C 
ATOM    103  H12 UNL A   1       5.474   0.939   3.699  1.00  0.00    +0.000 H 
ATOM    104  H13 UNL A   1       6.556   2.315   3.320  1.00  0.00    +0.000 H 
BRANCH    9    8
ATOM    101  H10 UNL A   1       4.294   2.564   2.428  1.00  0.00    +0.000 H 
ATOM    102  H11 UNL A   1       5.617   2.567   1.217  1.00  0.00    +0.000 H 
ATOM      8  C6  UNL A   1       5.037   1.994   1.910  1.00  0.00    +0.000 C 
BRANCH    8    7
ATOM     99  H8  UNL A   1       3.645   1.425   0.405  1.00  0.00    +0.000 H 
ATOM    100  H9  UNL A   1       5.077   0.371   0.569  1.00  0.00    +0.000 H 
ATOM      7  C5  UNL A   1       4.315   0.927   1.074  1.00  0.00    +0.000 C 
BRANCH    7    6
ATOM     97  H6  UNL A   1       3.114  -0.831   1.233  1.00  0.00    +0.000 H 
ATOM     98  H7  UNL A   1       4.158  -0.530   2.616  1.00  0.00    +0.000 H 
ATOM      6  C4  UNL A   1       3.509  -0.085   1.891  1.00  0.00    +0.000 C 
BRANCH    6    5
ATOM      5  N1  UNL A   1       2.416   0.560   2.586  1.00  0.00    +0.000 N 
ATOM     96  H5  UNL A   1       2.678   1.055   3.395  1.00  0.00    +0.000 H 
BRANCH    5    3
ATOM      3  C3  UNL A   1       1.082   0.595   2.304  1.00  0.00    +0.000 C 
ATOM      4  O1  UNL A   1       0.399   1.346   3.005  1.00  0.00    +0.000 O 
BRANCH    3    2
ATOM      2  C2  UNL A   1       0.494  -0.297   1.192  1.00  0.00    +0.000 C 
ATOM     95  H4  UNL A   1       0.908  -1.268   1.363  1.00  0.00    +0.000 H 
BRANCH    2    1
ATOM      1  C1  UNL A   1       0.903   0.156  -0.214  1.00  0.00    +0.000 C 
ATOM     92  H1  UNL A   1       1.970   0.217  -0.273  1.00  0.00    +0.000 H 
ATOM     93  H2  UNL A   1       0.480   1.118  -0.416  1.00  0.00    +0.000 H 
ATOM     94  H3  UNL A   1       0.545  -0.549  -0.935  1.00  0.00    +0.000 H 
ENDBRANCH    2    1
BRANCH    2   78
ATOM    135  H44 UNL A   1      -3.643  -2.437   1.828  1.00  0.00    +0.000 H 
ATOM     78  C55 UNL A   1      -1.033  -0.381   1.271  1.00  0.00    +0.000 C 
ATOM     79  C56 UNL A   1      -1.784   0.795   1.068  1.00  0.00    +0.000 C 
ATOM     80  C57 UNL A   1      -3.176   0.799   1.148  1.00  0.00    +0.000 C 
ATOM     81  C58 UNL A   1      -3.869  -0.373   1.455  1.00  0.00    +0.000 C 
ATOM     89  C65 UNL A   1      -3.141  -1.557   1.629  1.00  0.00    +0.000 C 
ATOM     90  C66 UNL A   1      -1.740  -1.565   1.537  1.00  0.00    +0.000 C 
ATOM     91 Br1  UNL A   1      -0.890  -3.248   1.787  1.00  0.00    +0.000 Br
ATOM    124  H33 UNL A   1      -1.291   1.675   0.854  1.00  0.00    +0.000 H 
ATOM    125  H34 UNL A   1      -3.697   1.673   0.979  1.00  0.00    +0.000 H 
BRANCH   81   82
ATOM     82  C59 UNL A   1      -5.369  -0.350   1.624  1.00  0.00    +0.000 C 
ATOM    126  H35 UNL A   1      -5.723  -1.356   1.535  1.00  0.00    +0.000 H 
ATOM    127  H36 UNL A   1      -5.732   0.313   0.867  1.00  0.00    +0.000 H 
BRANCH   82   83
ATOM    129  H38 UNL A   1      -4.998  -1.429   4.014  1.00  0.00    +0.000 H 
ATOM    130  H39 UNL A   1      -6.128  -0.541   4.966  1.00  0.00    +0.000 H 
ATOM    131  H40 UNL A   1      -3.308   0.187   4.228  1.00  0.00    +0.000 H 
ATOM    132  H41 UNL A   1      -4.051   0.321   5.771  1.00  0.00    +0.000 H 
ATOM    133  H42 UNL A   1      -3.788   2.468   4.142  1.00  0.00    +0.000 H 
ATOM    134  H43 UNL A   1      -5.133   2.369   5.177  1.00  0.00    +0.000 H 
ATOM     83  C60 UNL A   1      -5.891   0.215   2.951  1.00  0.00    +0.000 C 
ATOM     84  C61 UNL A   1      -5.360  -0.445   4.228  1.00  0.00    +0.000 C 
ATOM     85  C62 UNL A   1      -4.222   0.441   4.722  1.00  0.00    +0.000 C 
ATOM     86  C63 UNL A   1      -4.638   1.863   4.375  1.00  0.00    +0.000 C 
ATOM     87  C64 UNL A   1      -5.512   1.663   3.164  1.00  0.00    +0.000 C 
ATOM     88  O3  UNL A   1      -5.893   2.579   2.444  1.00  0.00    +0.000 O 
ATOM    128  H37 UNL A   1      -6.940   0.037   2.830  1.00  0.00    +0.000 H 
ENDBRANCH   82   83
ENDBRANCH   81   82
ENDBRANCH    2   78
ENDBRANCH    3    2
ENDBRANCH    5    3
ENDBRANCH    6    5
ENDBRANCH    7    6
ENDBRANCH    8    7
ENDBRANCH    9    8
ENDBRANCH   10    9
ENDBRANCH   11   10
ENDBRANCH   12   11
ENDBRANCH   13   12
ENDBRANCH   15   13
ENDBRANCH   19   18
BRANCH   23   24
ATOM     33  C24 UNL A   1      15.469  -1.424  -7.550  1.00  0.00    +0.000 C 
ATOM     34  F5  UNL A   1      14.453  -2.263  -7.800  1.00  0.00    +0.000 F 
ATOM     24  C19 UNL A   1      16.058  -1.386  -6.277  1.00  0.00    +0.000 C 
ATOM     25  C20 UNL A   1      17.121  -0.496  -6.069  1.00  0.00    +0.000 C 
ATOM     26  F1  UNL A   1      17.711  -0.419  -4.867  1.00  0.00    +0.000 F 
ATOM     27  C21 UNL A   1      17.574   0.329  -7.096  1.00  0.00    +0.000 C 
ATOM     28  F2  UNL A   1      18.578   1.187  -6.870  1.00  0.00    +0.000 F 
ATOM     29  C22 UNL A   1      16.989   0.262  -8.352  1.00  0.00    +0.000 C 
ATOM     30  F3  UNL A   1      17.439   1.043  -9.344  1.00  0.00    +0.000 F 
ATOM     31  C23 UNL A   1      15.938  -0.614  -8.580  1.00  0.00    +0.000 C 
ATOM     32  F4  UNL A   1      15.380  -0.687  -9.797  1.00  0.00    +0.000 F 
ENDBRANCH   23   24
BRANCH   40   41
ATOM     41  C30 UNL A   1      16.291  -8.470  -5.098  1.00  0.00    +0.000 C 
ATOM     42  C31 UNL A   1      15.440  -9.338  -5.797  1.00  0.00    +0.000 C 
ATOM     43  F6  UNL A   1      14.117  -9.116  -5.817  1.00  0.00    +0.000 F 
ATOM     44  C32 UNL A   1      15.944 -10.460  -6.449  1.00  0.00    +0.000 C 
ATOM     45  F7  UNL A   1      15.108 -11.299  -7.077  1.00  0.00    +0.000 F 
ATOM     46  C33 UNL A   1      17.306 -10.718  -6.439  1.00  0.00    +0.000 C 
ATOM     47  F8  UNL A   1      17.790 -11.795  -7.074  1.00  0.00    +0.000 F 
ATOM     48  C34 UNL A   1      18.167  -9.864  -5.765  1.00  0.00    +0.000 C 
ATOM     49  F9  UNL A   1      19.485 -10.107  -5.763  1.00  0.00    +0.000 F 
ATOM     50  C35 UNL A   1      17.664  -8.756  -5.090  1.00  0.00    +0.000 C 
ATOM     51  F10 UNL A   1      18.518  -7.953  -4.439  1.00  0.00    +0.000 F 
ENDBRANCH   40   41
BRANCH   55   56
ATOM     65  C44 UNL A   1      11.143  -7.776   0.758  1.00  0.00    +0.000 C 
ATOM     66  F15 UNL A   1      10.325  -7.088  -0.051  1.00  0.00    +0.000 F 
ATOM     56  C39 UNL A   1      12.530  -7.579   0.687  1.00  0.00    +0.000 C 
ATOM     57  C40 UNL A   1      13.340  -8.320   1.558  1.00  0.00    +0.000 C 
ATOM     58  F11 UNL A   1      14.674  -8.183   1.510  1.00  0.00    +0.000 F 
ATOM     59  C41 UNL A   1      12.788  -9.241   2.446  1.00  0.00    +0.000 C 
ATOM     60  F12 UNL A   1      13.589  -9.974   3.231  1.00  0.00    +0.000 F 
ATOM     61  C42 UNL A   1      11.413  -9.416   2.501  1.00  0.00    +0.000 C 
ATOM     62  F13 UNL A   1      10.883 -10.304   3.353  1.00  0.00    +0.000 F 
ATOM     63  C43 UNL A   1      10.590  -8.677   1.665  1.00  0.00    +0.000 C 
ATOM     64  F14 UNL A   1       9.261  -8.834   1.724  1.00  0.00    +0.000 F 
ENDBRANCH   55   56
TORSDOF 19