ROOT
ATOM     19  C15 UNL A   1      13.291  -1.832   0.546  1.00  0.00    +0.000 C 
ATOM     20  C16 UNL A   1      13.933  -2.786  -0.423  1.00  0.00    +0.000 C 
ATOM     21  N3  UNL A   1      14.619  -3.874  -0.179  1.00  0.00    +0.000 N 
ATOM     22  C17 UNL A   1      14.957  -4.395  -1.421  1.00  0.00    +0.000 C 
ATOM     23  C18 UNL A   1      15.718  -5.479  -1.705  1.00  0.00    +0.000 C 
ATOM     35  C25 UNL A   1      16.333  -6.323  -0.713  1.00  0.00    +0.000 C 
ATOM     36  C26 UNL A   1      17.162  -7.416  -0.903  1.00  0.00    +0.000 C 
ATOM     37  C27 UNL A   1      17.487  -7.943   0.351  1.00  0.00    +0.000 C 
ATOM     38  C28 UNL A   1      16.895  -7.154   1.324  1.00  0.00    +0.000 C 
ATOM     39  N4  UNL A   1      16.186  -6.168   0.657  1.00  0.00    +0.000 N 
ATOM     40  C29 UNL A   1      16.971  -7.288   2.755  1.00  0.00    +0.000 C 
ATOM     52  C36 UNL A   1      16.366  -6.462   3.644  1.00  0.00    +0.000 C 
ATOM     53  N5  UNL A   1      15.572  -5.350   3.403  1.00  0.00    +0.000 N 
ATOM     54  C37 UNL A   1      15.207  -4.907   4.581  1.00  0.00    +0.000 C 
ATOM     55  C38 UNL A   1      14.363  -3.710   4.926  1.00  0.00    +0.000 C 
ATOM     67  C45 UNL A   1      13.892  -2.929   3.935  1.00  0.00    +0.000 C 
ATOM     68  C46 UNL A   1      13.078  -1.731   4.116  1.00  0.00    +0.000 C 
ATOM     69  C47 UNL A   1      12.766  -1.228   2.911  1.00  0.00    +0.000 C 
ATOM     70  C48 UNL A   1      13.386  -2.051   1.872  1.00  0.00    +0.000 C 
ATOM     71  N6  UNL A   1      14.034  -3.038   2.573  1.00  0.00    +0.000 N 
ATOM     72  C49 UNL A   1      15.712  -5.706   5.706  1.00  0.00    +0.000 C 
ATOM     73  C50 UNL A   1      16.448  -6.614   5.082  1.00  0.00    +0.000 C 
ATOM     74  C51 UNL A   1      14.358  -3.533  -2.418  1.00  0.00    +0.000 C 
ATOM     75  C52 UNL A   1      13.763  -2.491  -1.854  1.00  0.00    +0.000 C 
ATOM    114  H21 UNL A   1      17.485  -7.778  -1.814  1.00  0.00    +0.000 H 
ATOM    115  H22 UNL A   1      18.068  -8.779   0.522  1.00  0.00    +0.000 H 
ATOM    116  H23 UNL A   1      15.656  -5.461   1.091  1.00  0.00    +0.000 H 
ATOM    117  H24 UNL A   1      12.789  -1.335   5.024  1.00  0.00    +0.000 H 
ATOM    118  H25 UNL A   1      12.183  -0.393   2.744  1.00  0.00    +0.000 H 
ATOM    119  H26 UNL A   1      14.551  -3.755   2.141  1.00  0.00    +0.000 H 
ATOM    120  H27 UNL A   1      15.539  -5.591   6.717  1.00  0.00    +0.000 H 
ATOM    121  H28 UNL A   1      17.008  -7.337   5.559  1.00  0.00    +0.000 H 
ATOM    122  H29 UNL A   1      14.390  -3.707  -3.435  1.00  0.00    +0.000 H 
ATOM    123  H30 UNL A   1      13.301  -1.685  -2.302  1.00  0.00    +0.000 H 
ENDROOT
BRANCH   19   18
ATOM     76  C53 UNL A   1      11.304  -0.882  -0.641  1.00  0.00    +0.000 C 
ATOM     77  C54 UNL A   1      10.550   0.202  -1.089  1.00  0.00    +0.000 C 
ATOM     15  C11 UNL A   1      10.940   1.505  -0.765  1.00  0.00    +0.000 C 
ATOM    112  H19 UNL A   1      12.462   2.692   0.095  1.00  0.00    +0.000 H 
ATOM     16  C12 UNL A   1      12.150   1.728  -0.104  1.00  0.00    +0.000 C 
ATOM     17  C13 UNL A   1      12.938   0.643   0.289  1.00  0.00    +0.000 C 
ATOM    113  H20 UNL A   1      13.844   0.809   0.754  1.00  0.00    +0.000 H 
ATOM     18  C14 UNL A   1      12.504  -0.672   0.054  1.00  0.00    +0.000 C 
ATOM    124  H31 UNL A   1      10.977  -1.844  -0.822  1.00  0.00    +0.000 H 
ATOM    125  H32 UNL A   1       9.705   0.043  -1.659  1.00  0.00    +0.000 H 
BRANCH   15   13
ATOM     13  C10 UNL A   1      10.105   2.672  -1.129  1.00  0.00    +0.000 C 
ATOM     14  O2  UNL A   1      10.637   3.683  -1.578  1.00  0.00    +0.000 O 
BRANCH   13   12
ATOM     12  N2  UNL A   1       8.745   2.635  -0.947  1.00  0.00    +0.000 N 
ATOM    111  H18 UNL A   1       8.244   3.371  -1.368  1.00  0.00    +0.000 H 
BRANCH   12   11
ATOM     11  C9  UNL A   1       7.937   1.669  -0.222  1.00  0.00    +0.000 C 
ATOM    109  H16 UNL A   1       7.298   1.165  -0.918  1.00  0.00    +0.000 H 
ATOM    110  H17 UNL A   1       8.603   0.987   0.264  1.00  0.00    +0.000 H 
BRANCH   11   10
ATOM     10  C8  UNL A   1       7.073   2.321   0.853  1.00  0.00    +0.000 C 
ATOM    107  H14 UNL A   1       6.579   1.544   1.397  1.00  0.00    +0.000 H 
ATOM    108  H15 UNL A   1       7.737   2.907   1.454  1.00  0.00    +0.000 H 
BRANCH   10    9
ATOM      9  C7  UNL A   1       6.007   3.286   0.332  1.00  0.00    +0.000 C 
ATOM    106  H13 UNL A   1       6.535   4.063  -0.180  1.00  0.00    +0.000 H 
ATOM    105  H12 UNL A   1       5.438   3.635   1.169  1.00  0.00    +0.000 H 
BRANCH    9    8
ATOM    104  H11 UNL A   1       5.624   2.425  -1.538  1.00  0.00    +0.000 H 
ATOM    103  H10 UNL A   1       4.286   3.431  -0.898  1.00  0.00    +0.000 H 
ATOM      8  C6  UNL A   1       5.032   2.694  -0.688  1.00  0.00    +0.000 C 
BRANCH    8    7
ATOM    101  H8  UNL A   1       3.644   1.121  -1.032  1.00  0.00    +0.000 H 
ATOM    102  H9  UNL A   1       5.085   0.688  -0.063  1.00  0.00    +0.000 H 
ATOM      7  C5  UNL A   1       4.316   1.409  -0.251  1.00  0.00    +0.000 C 
BRANCH    7    6
ATOM     99  H6  UNL A   1       3.081   0.572   1.277  1.00  0.00    +0.000 H 
ATOM    100  H7  UNL A   1       4.175   1.839   1.827  1.00  0.00    +0.000 H 
ATOM      6  C4  UNL A   1       3.511   1.524   1.049  1.00  0.00    +0.000 C 
BRANCH    6    5
ATOM     98  H5  UNL A   1       2.631   3.401   1.298  1.00  0.00    +0.000 H 
ATOM      5  N1  UNL A   1       2.450   2.505   0.931  1.00  0.00    +0.000 N 
BRANCH    5    3
ATOM      3  C3  UNL A   1       1.222   2.307   0.359  1.00  0.00    +0.000 C 
ATOM      4  O1  UNL A   1       0.765   3.250  -0.288  1.00  0.00    +0.000 O 
BRANCH    3    2
ATOM     97  H4  UNL A   1       0.913   0.501   1.411  1.00  0.00    +0.000 H 
ATOM      2  C2  UNL A   1       0.524   0.941   0.516  1.00  0.00    +0.000 C 
BRANCH    2    1
ATOM      1  C1  UNL A   1       0.846   0.124  -0.743  1.00  0.00    +0.000 C 
ATOM     94  H1  UNL A   1       1.903   0.132  -0.912  1.00  0.00    +0.000 H 
ATOM     95  H2  UNL A   1       0.347   0.555  -1.585  1.00  0.00    +0.000 H 
ATOM     96  H3  UNL A   1       0.514  -0.884  -0.609  1.00  0.00    +0.000 H 
ENDBRANCH    2    1
BRANCH    2   78
ATOM    137  H44 UNL A   1      -3.618  -1.083   1.460  1.00  0.00    +0.000 H 
ATOM     78  C55 UNL A   1      -0.989   0.955   0.796  1.00  0.00    +0.000 C 
ATOM     79  C56 UNL A   1      -1.738   2.143   0.728  1.00  0.00    +0.000 C 
ATOM     80  C57 UNL A   1      -3.128   2.159   0.881  1.00  0.00    +0.000 C 
ATOM     81  C58 UNL A   1      -3.835   0.988   1.146  1.00  0.00    +0.000 C 
ATOM     89  C65 UNL A   1      -3.116  -0.204   1.257  1.00  0.00    +0.000 C 
ATOM     90  C66 UNL A   1      -1.715  -0.226   1.095  1.00  0.00    +0.000 C 
ATOM    126  H33 UNL A   1      -1.245   3.034   0.559  1.00  0.00    +0.000 H 
ATOM    127  H34 UNL A   1      -3.639   3.052   0.796  1.00  0.00    +0.000 H 
BRANCH   81   82
ATOM    129  H36 UNL A   1      -5.682   1.679   0.532  1.00  0.00    +0.000 H 
ATOM     82  C59 UNL A   1      -5.337   1.009   1.292  1.00  0.00    +0.000 C 
ATOM    128  H35 UNL A   1      -5.686   0.002   1.195  1.00  0.00    +0.000 H 
BRANCH   82   83
ATOM    130  H37 UNL A   1      -6.941   1.382   2.460  1.00  0.00    +0.000 H 
ATOM    131  H38 UNL A   1      -5.017  -0.067   3.688  1.00  0.00    +0.000 H 
ATOM    132  H39 UNL A   1      -6.168   0.819   4.616  1.00  0.00    +0.000 H 
ATOM    133  H40 UNL A   1      -3.338   1.557   3.925  1.00  0.00    +0.000 H 
ATOM    134  H41 UNL A   1      -4.110   1.695   5.455  1.00  0.00    +0.000 H 
ATOM    135  H42 UNL A   1      -3.825   3.834   3.813  1.00  0.00    +0.000 H 
ATOM    136  H43 UNL A   1      -5.181   3.739   4.835  1.00  0.00    +0.000 H 
ATOM     83  C60 UNL A   1      -5.897   1.569   2.604  1.00  0.00    +0.000 C 
ATOM     84  C61 UNL A   1      -5.387   0.916   3.891  1.00  0.00    +0.000 C 
ATOM     85  C62 UNL A   1      -4.262   1.809   4.402  1.00  0.00    +0.000 C 
ATOM     86  C63 UNL A   1      -4.677   3.228   4.041  1.00  0.00    +0.000 C 
ATOM     87  C64 UNL A   1      -5.538   3.021   2.822  1.00  0.00    +0.000 C 
ATOM     88  O3  UNL A   1      -5.919   3.934   2.099  1.00  0.00    +0.000 O 
ENDBRANCH   82   83
ENDBRANCH   81   82
BRANCH   90   91
ATOM     91  N7  UNL A   1      -1.079  -1.519   1.241  1.00  0.00    +0.000 N 
ATOM     92  O4  UNL A   1      -1.639  -2.528   0.863  1.00  0.00    +0.000 O 
ATOM     93  O5  UNL A   1       0.134  -1.664   1.869  1.00  0.00    +0.000 O 
ENDBRANCH   90   91
ENDBRANCH    2   78
ENDBRANCH    3    2
ENDBRANCH    5    3
ENDBRANCH    6    5
ENDBRANCH    7    6
ENDBRANCH    8    7
ENDBRANCH    9    8
ENDBRANCH   10    9
ENDBRANCH   11   10
ENDBRANCH   12   11
ENDBRANCH   13   12
ENDBRANCH   15   13
ENDBRANCH   19   18
BRANCH   23   24
ATOM     33  C24 UNL A   1      15.372  -6.959  -3.719  1.00  0.00    +0.000 C 
ATOM     34  F5  UNL A   1      14.571  -7.748  -2.987  1.00  0.00    +0.000 F 
ATOM     24  C19 UNL A   1      15.945  -5.812  -3.150  1.00  0.00    +0.000 C 
ATOM     25  C20 UNL A   1      16.780  -5.025  -3.959  1.00  0.00    +0.000 C 
ATOM     26  F1  UNL A   1      17.343  -3.912  -3.465  1.00  0.00    +0.000 F 
ATOM     27  C21 UNL A   1      17.016  -5.364  -5.288  1.00  0.00    +0.000 C 
ATOM     28  F2  UNL A   1      17.788  -4.577  -6.051  1.00  0.00    +0.000 F 
ATOM     29  C22 UNL A   1      16.450  -6.510  -5.825  1.00  0.00    +0.000 C 
ATOM     30  F3  UNL A   1      16.689  -6.842  -7.102  1.00  0.00    +0.000 F 
ATOM     31  C23 UNL A   1      15.633  -7.310  -5.041  1.00  0.00    +0.000 C 
ATOM     32  F4  UNL A   1      15.095  -8.424  -5.556  1.00  0.00    +0.000 F 
ENDBRANCH   23   24
BRANCH   40   41
ATOM     41  C30 UNL A   1      17.793  -8.411   3.315  1.00  0.00    +0.000 C 
ATOM     42  C31 UNL A   1      17.197  -9.523   3.927  1.00  0.00    +0.000 C 
ATOM     43  F6  UNL A   1      15.863  -9.586   4.059  1.00  0.00    +0.000 F 
ATOM     44  C32 UNL A   1      17.973 -10.554   4.448  1.00  0.00    +0.000 C 
ATOM     45  F7  UNL A   1      17.384 -11.582   5.075  1.00  0.00    +0.000 F 
ATOM     46  C33 UNL A   1      19.355 -10.510   4.336  1.00  0.00    +0.000 C 
ATOM     47  F8  UNL A   1      20.101 -11.505   4.837  1.00  0.00    +0.000 F 
ATOM     48  C34 UNL A   1      19.964  -9.431   3.714  1.00  0.00    +0.000 C 
ATOM     49  F9  UNL A   1      21.299  -9.393   3.595  1.00  0.00    +0.000 F 
ATOM     50  C35 UNL A   1      19.192  -8.385   3.217  1.00  0.00    +0.000 C 
ATOM     51  F10 UNL A   1      19.811  -7.346   2.635  1.00  0.00    +0.000 F 
ENDBRANCH   40   41
BRANCH   55   56
ATOM     65  C44 UNL A   1      12.774  -3.517   6.870  1.00  0.00    +0.000 C 
ATOM     66  F15 UNL A   1      11.770  -3.934   6.085  1.00  0.00    +0.000 F 
ATOM     56  C39 UNL A   1      14.066  -3.377   6.343  1.00  0.00    +0.000 C 
ATOM     57  C40 UNL A   1      15.077  -2.932   7.205  1.00  0.00    +0.000 C 
ATOM     58  F11 UNL A   1      16.333  -2.803   6.753  1.00  0.00    +0.000 F 
ATOM     59  C41 UNL A   1      14.814  -2.665   8.547  1.00  0.00    +0.000 C 
ATOM     60  F12 UNL A   1      15.810  -2.292   9.362  1.00  0.00    +0.000 F 
ATOM     61  C42 UNL A   1      13.527  -2.807   9.045  1.00  0.00    +0.000 C 
ATOM     62  F13 UNL A   1      13.274  -2.552  10.336  1.00  0.00    +0.000 F 
ATOM     63  C43 UNL A   1      12.505  -3.222   8.205  1.00  0.00    +0.000 C 
ATOM     64  F14 UNL A   1      11.258  -3.348   8.678  1.00  0.00    +0.000 F 
ENDBRANCH   55   56
TORSDOF 20