ROOT
ATOM     30  C24 UNL A   1       4.032  -2.785 -11.587  1.00  0.00    +0.000 C 
ATOM     31  C25 UNL A   1       2.609  -3.342 -11.703  1.00  0.00    +0.000 C 
ATOM     32  N4  UNL A   1       1.843  -3.474 -12.744  1.00  0.00    +0.000 N 
ATOM     33  C26 UNL A   1       0.589  -3.936 -12.292  1.00  0.00    +0.000 C 
ATOM     34  C27 UNL A   1      -0.538  -3.941 -13.063  1.00  0.00    +0.000 C 
ATOM     46  C34 UNL A   1      -0.252  -3.494 -14.383  1.00  0.00    +0.000 C 
ATOM     47  C35 UNL A   1       0.304  -4.109 -15.472  1.00  0.00    +0.000 C 
ATOM     48  C36 UNL A   1       0.908  -3.064 -16.202  1.00  0.00    +0.000 C 
ATOM     49  C37 UNL A   1       0.634  -1.845 -15.575  1.00  0.00    +0.000 C 
ATOM     50  N5  UNL A   1      -0.314  -2.145 -14.624  1.00  0.00    +0.000 N 
ATOM     51  C38 UNL A   1       1.218  -0.522 -15.554  1.00  0.00    +0.000 C 
ATOM     63  C45 UNL A   1       2.326  -0.316 -16.308  1.00  0.00    +0.000 C 
ATOM     64  N6  UNL A   1       3.380   0.406 -15.791  1.00  0.00    +0.000 N 
ATOM     65  C46 UNL A   1       4.410  -0.317 -16.119  1.00  0.00    +0.000 C 
ATOM     66  C47 UNL A   1       5.744  -0.214 -15.497  1.00  0.00    +0.000 C 
ATOM     78  C54 UNL A   1       5.608  -0.746 -14.243  1.00  0.00    +0.000 C 
ATOM     79  C55 UNL A   1       6.604  -0.827 -13.194  1.00  0.00    +0.000 C 
ATOM     80  C56 UNL A   1       6.117  -1.528 -12.155  1.00  0.00    +0.000 C 
ATOM     81  C57 UNL A   1       4.744  -1.985 -12.431  1.00  0.00    +0.000 C 
ATOM     82  N7  UNL A   1       4.495  -1.404 -13.659  1.00  0.00    +0.000 N 
ATOM     83  C58 UNL A   1       4.175  -1.362 -17.123  1.00  0.00    +0.000 C 
ATOM     84  C59 UNL A   1       2.875  -1.175 -17.329  1.00  0.00    +0.000 C 
ATOM     85  C60 UNL A   1       0.745  -4.251 -10.904  1.00  0.00    +0.000 C 
ATOM     86  C61 UNL A   1       1.952  -3.874 -10.478  1.00  0.00    +0.000 C 
ATOM    114  H26 UNL A   1       0.285  -5.114 -15.707  1.00  0.00    +0.000 H 
ATOM    115  H27 UNL A   1       1.465  -3.181 -17.063  1.00  0.00    +0.000 H 
ATOM    116  H28 UNL A   1      -0.927  -1.506 -14.193  1.00  0.00    +0.000 H 
ATOM    117  H29 UNL A   1       7.546  -0.408 -13.238  1.00  0.00    +0.000 H 
ATOM    118  H30 UNL A   1       6.636  -1.720 -11.283  1.00  0.00    +0.000 H 
ATOM    119  H31 UNL A   1       3.613  -1.443 -14.095  1.00  0.00    +0.000 H 
ATOM    120  H32 UNL A   1       4.827  -2.042 -17.544  1.00  0.00    +0.000 H 
ATOM    121  H33 UNL A   1       2.336  -1.585 -18.108  1.00  0.00    +0.000 H 
ATOM    122  H34 UNL A   1       0.027  -4.705 -10.318  1.00  0.00    +0.000 H 
ATOM    123  H35 UNL A   1       2.339  -3.938  -9.524  1.00  0.00    +0.000 H 
ENDROOT
BRANCH   30   29
ATOM    124  H36 UNL A   1       4.362  -1.393  -9.303  1.00  0.00    +0.000 H 
ATOM     29  C23 UNL A   1       4.728  -3.199 -10.348  1.00  0.00    +0.000 C 
ATOM    112  H24 UNL A   1       6.227  -5.878  -9.014  1.00  0.00    +0.000 H 
ATOM    113  H25 UNL A   1       5.319  -5.080 -11.119  1.00  0.00    +0.000 H 
ATOM     87  C62 UNL A   1       4.752  -2.346  -9.236  1.00  0.00    +0.000 C 
ATOM     88  C63 UNL A   1       5.304  -2.795  -8.043  1.00  0.00    +0.000 C 
ATOM     26  C20 UNL A   1       5.781  -4.106  -7.949  1.00  0.00    +0.000 C 
ATOM     27  C21 UNL A   1       5.815  -4.934  -9.076  1.00  0.00    +0.000 C 
ATOM     28  C22 UNL A   1       5.292  -4.479 -10.281  1.00  0.00    +0.000 C 
ATOM    125  H37 UNL A   1       5.363  -2.162  -7.229  1.00  0.00    +0.000 H 
BRANCH   26   24
ATOM     25  O2  UNL A   1       7.300  -5.340  -6.670  1.00  0.00    +0.000 O 
ATOM     24  C19 UNL A   1       6.294  -4.652  -6.675  1.00  0.00    +0.000 C 
BRANCH   24   23
ATOM    111  H23 UNL A   1       6.140  -4.479  -4.674  1.00  0.00    +0.000 H 
ATOM     23  N3  UNL A   1       5.612  -4.417  -5.503  1.00  0.00    +0.000 N 
BRANCH   23   22
ATOM    110  H22 UNL A   1       3.622  -4.902  -5.717  1.00  0.00    +0.000 H 
ATOM    109  H21 UNL A   1       3.994  -3.189  -5.889  1.00  0.00    +0.000 H 
ATOM     22  C18 UNL A   1       4.205  -4.086  -5.344  1.00  0.00    +0.000 C 
BRANCH   22   21
ATOM    107  H19 UNL A   1       2.802  -3.649  -3.816  1.00  0.00    +0.000 H 
ATOM    108  H20 UNL A   1       4.109  -4.770  -3.361  1.00  0.00    +0.000 H 
ATOM     21  C17 UNL A   1       3.847  -3.871  -3.878  1.00  0.00    +0.000 C 
BRANCH   21   20
ATOM    105  H17 UNL A   1       4.383  -2.749  -2.164  1.00  0.00    +0.000 H 
ATOM    106  H18 UNL A   1       5.650  -2.921  -3.435  1.00  0.00    +0.000 H 
ATOM     20  C16 UNL A   1       4.621  -2.733  -3.207  1.00  0.00    +0.000 C 
BRANCH   20   19
ATOM     19  C15 UNL A   1       4.348  -1.319  -3.722  1.00  0.00    +0.000 C 
ATOM    103  H15 UNL A   1       4.938  -0.641  -3.141  1.00  0.00    +0.000 H 
ATOM    104  H16 UNL A   1       4.598  -1.340  -4.762  1.00  0.00    +0.000 H 
BRANCH   19   18
ATOM     18  C14 UNL A   1       2.893  -0.844  -3.659  1.00  0.00    +0.000 C 
ATOM    101  H13 UNL A   1       2.871   0.182  -3.964  1.00  0.00    +0.000 H 
ATOM    102  H14 UNL A   1       2.349  -1.506  -4.300  1.00  0.00    +0.000 H 
BRANCH   18   17
ATOM     17  C13 UNL A   1       2.208  -0.940  -2.296  1.00  0.00    +0.000 C 
ATOM     99  H11 UNL A   1       1.209  -0.572  -2.395  1.00  0.00    +0.000 H 
ATOM    100  H12 UNL A   1       2.242  -1.969  -2.006  1.00  0.00    +0.000 H 
BRANCH   17   16
ATOM     98  H10 UNL A   1       3.795   0.124  -1.372  1.00  0.00    +0.000 H 
ATOM     16  N2  UNL A   1       2.870  -0.187  -1.248  1.00  0.00    +0.000 N 
BRANCH   16    2
ATOM      1  O1  UNL A   1       1.008  -0.183   0.103  1.00  0.00    +0.000 O 
ATOM      2  C1  UNL A   1       2.193   0.092  -0.072  1.00  0.00    +0.000 C 
BRANCH    2    3
ATOM     89  H1  UNL A   1       2.323   1.422   1.545  1.00  0.00    +0.000 H 
ATOM     90  H2  UNL A   1       3.722   1.394   0.394  1.00  0.00    +0.000 H 
ATOM      3  C2  UNL A   1       3.007   0.839   0.964  1.00  0.00    +0.000 C 
BRANCH    3    4
ATOM      4  C3  UNL A   1       3.837   0.031   1.926  1.00  0.00    +0.000 C 
ATOM      5  C4  UNL A   1       4.866   0.541   2.712  1.00  0.00    +0.000 C 
ATOM      6  C5  UNL A   1       5.335  -0.479   3.562  1.00  0.00    +0.000 C 
ATOM      7  C6  UNL A   1       4.587  -1.597   3.289  1.00  0.00    +0.000 C 
ATOM      8  N1  UNL A   1       3.686  -1.302   2.286  1.00  0.00    +0.000 N 
ATOM     91  H3  UNL A   1       5.225   1.508   2.677  1.00  0.00    +0.000 H 
ATOM     92  H4  UNL A   1       6.096  -0.402   4.255  1.00  0.00    +0.000 H 
ATOM     93  H5  UNL A   1       4.682  -2.511   3.759  1.00  0.00    +0.000 H 
BRANCH    8    9
ATOM     97  H9  UNL A   1       2.966  -4.468  -0.837  1.00  0.00    +0.000 H 
ATOM      9  C7  UNL A   1       2.882  -2.289   1.701  1.00  0.00    +0.000 C 
ATOM     10  C8  UNL A   1       1.684  -2.671   2.304  1.00  0.00    +0.000 C 
ATOM     11  C9  UNL A   1       0.934  -3.696   1.720  1.00  0.00    +0.000 C 
ATOM     12  C10 UNL A   1       1.392  -4.341   0.566  1.00  0.00    +0.000 C 
ATOM     13  C11 UNL A   1       2.616  -3.980   0.003  1.00  0.00    +0.000 C 
ATOM     14  C12 UNL A   1       3.361  -2.959   0.581  1.00  0.00    +0.000 C 
ATOM     15  F1  UNL A   1       4.546  -2.625   0.051  1.00  0.00    +0.000 F 
ATOM     94  H6  UNL A   1       1.357  -2.206   3.165  1.00  0.00    +0.000 H 
ATOM     95  H7  UNL A   1       0.036  -3.979   2.143  1.00  0.00    +0.000 H 
ATOM     96  H8  UNL A   1       0.824  -5.085   0.131  1.00  0.00    +0.000 H 
ENDBRANCH    8    9
ENDBRANCH    3    4
ENDBRANCH    2    3
ENDBRANCH   16    2
ENDBRANCH   17   16
ENDBRANCH   18   17
ENDBRANCH   19   18
ENDBRANCH   20   19
ENDBRANCH   21   20
ENDBRANCH   22   21
ENDBRANCH   23   22
ENDBRANCH   24   23
ENDBRANCH   26   24
ENDBRANCH   30   29
BRANCH   34   35
ATOM     35  C28 UNL A   1      -1.982  -4.169 -12.710  1.00  0.00    +0.000 C 
ATOM     36  C29 UNL A   1      -2.575  -3.684 -11.537  1.00  0.00    +0.000 C 
ATOM     37  F2  UNL A   1      -1.828  -3.213 -10.531  1.00  0.00    +0.000 F 
ATOM     38  C30 UNL A   1      -3.966  -3.587 -11.410  1.00  0.00    +0.000 C 
ATOM     39  F3  UNL A   1      -4.496  -3.081 -10.288  1.00  0.00    +0.000 F 
ATOM     40  C31 UNL A   1      -4.801  -3.945 -12.457  1.00  0.00    +0.000 C 
ATOM     41  F4  UNL A   1      -6.124  -3.756 -12.366  1.00  0.00    +0.000 F 
ATOM     42  C32 UNL A   1      -4.253  -4.471 -13.610  1.00  0.00    +0.000 C 
ATOM     43  F5  UNL A   1      -5.044  -4.797 -14.642  1.00  0.00    +0.000 F 
ATOM     44  C33 UNL A   1      -2.870  -4.610 -13.722  1.00  0.00    +0.000 C 
ATOM     45  F6  UNL A   1      -2.402  -5.131 -14.867  1.00  0.00    +0.000 F 
ENDBRANCH   34   35
BRANCH   51   52
ATOM     52  C39 UNL A   1       1.028   0.523 -14.476  1.00  0.00    +0.000 C 
ATOM     53  C40 UNL A   1       1.245   0.280 -13.109  1.00  0.00    +0.000 C 
ATOM     54  F7  UNL A   1       1.505  -0.950 -12.671  1.00  0.00    +0.000 F 
ATOM     55  C41 UNL A   1       1.197   1.294 -12.154  1.00  0.00    +0.000 C 
ATOM     56  F8  UNL A   1       1.395   1.005 -10.858  1.00  0.00    +0.000 F 
ATOM     57  C42 UNL A   1       0.941   2.595 -12.542  1.00  0.00    +0.000 C 
ATOM     58  F9  UNL A   1       0.895   3.573 -11.627  1.00  0.00    +0.000 F 
ATOM     59  C43 UNL A   1       0.719   2.873 -13.881  1.00  0.00    +0.000 C 
ATOM     60  F10 UNL A   1       0.465   4.132 -14.262  1.00  0.00    +0.000 F 
ATOM     61  C44 UNL A   1       0.756   1.852 -14.834  1.00  0.00    +0.000 C 
ATOM     62  F11 UNL A   1       0.529   2.165 -16.119  1.00  0.00    +0.000 F 
ENDBRANCH   51   52
BRANCH   66   67
ATOM     67  C48 UNL A   1       6.880   0.304 -16.358  1.00  0.00    +0.000 C 
ATOM     68  C49 UNL A   1       6.671   0.536 -17.748  1.00  0.00    +0.000 C 
ATOM     69  F12 UNL A   1       5.442   0.545 -18.281  1.00  0.00    +0.000 F 
ATOM     70  C50 UNL A   1       7.706   0.762 -18.658  1.00  0.00    +0.000 C 
ATOM     71  F13 UNL A   1       7.431   0.862 -19.966  1.00  0.00    +0.000 F 
ATOM     72  C51 UNL A   1       9.003   0.856 -18.215  1.00  0.00    +0.000 C 
ATOM     73  F14 UNL A   1      10.005   1.042 -19.083  1.00  0.00    +0.000 F 
ATOM     74  C52 UNL A   1       9.245   0.772 -16.858  1.00  0.00    +0.000 C 
ATOM     75  F15 UNL A   1      10.497   0.928 -16.404  1.00  0.00    +0.000 F 
ATOM     76  C53 UNL A   1       8.205   0.510 -15.949  1.00  0.00    +0.000 C 
ATOM     77  F16 UNL A   1       8.553   0.496 -14.661  1.00  0.00    +0.000 F 
ENDBRANCH   66   67
TORSDOF 17