ROOT
ATOM     24  C18 UNL A   1      -9.650  -8.978  -1.382  1.00  0.00    +0.000 C 
ATOM     25  C19 UNL A   1     -10.467  -9.096  -2.638  1.00  0.00    +0.000 C 
ATOM     26  N4  UNL A   1     -11.729  -8.812  -2.834  1.00  0.00    +0.000 N 
ATOM     27  C20 UNL A   1     -11.966  -9.055  -4.181  1.00  0.00    +0.000 C 
ATOM     28  C21 UNL A   1     -13.132  -8.959  -4.864  1.00  0.00    +0.000 C 
ATOM     40  C28 UNL A   1     -14.390  -8.584  -4.273  1.00  0.00    +0.000 C 
ATOM     41  C29 UNL A   1     -15.639  -8.525  -4.867  1.00  0.00    +0.000 C 
ATOM     42  C30 UNL A   1     -16.556  -8.076  -3.911  1.00  0.00    +0.000 C 
ATOM     43  C31 UNL A   1     -15.886  -7.895  -2.712  1.00  0.00    +0.000 C 
ATOM     44  N5  UNL A   1     -14.557  -8.206  -2.949  1.00  0.00    +0.000 N 
ATOM     45  C32 UNL A   1     -16.417  -7.468  -1.444  1.00  0.00    +0.000 C 
ATOM     57  C39 UNL A   1     -15.694  -7.320  -0.307  1.00  0.00    +0.000 C 
ATOM     58  N6  UNL A   1     -14.340  -7.544  -0.100  1.00  0.00    +0.000 N 
ATOM     59  C40 UNL A   1     -14.115  -7.252   1.158  1.00  0.00    +0.000 C 
ATOM     60  C41 UNL A   1     -12.832  -7.338   1.938  1.00  0.00    +0.000 C 
ATOM     72  C48 UNL A   1     -11.719  -7.785   1.327  1.00  0.00    +0.000 C 
ATOM     73  C49 UNL A   1     -10.408  -7.928   1.953  1.00  0.00    +0.000 C 
ATOM     74  C50 UNL A   1      -9.528  -8.358   1.034  1.00  0.00    +0.000 C 
ATOM     75  C51 UNL A   1     -10.223  -8.554  -0.239  1.00  0.00    +0.000 C 
ATOM     76  N7  UNL A   1     -11.521  -8.197   0.032  1.00  0.00    +0.000 N 
ATOM     77  C52 UNL A   1     -15.302  -6.778   1.885  1.00  0.00    +0.000 C 
ATOM     78  C53 UNL A   1     -16.243  -6.876   0.957  1.00  0.00    +0.000 C 
ATOM     79  C54 UNL A   1     -10.709  -9.470  -4.764  1.00  0.00    +0.000 C 
ATOM     80  C55 UNL A   1      -9.764  -9.572  -3.840  1.00  0.00    +0.000 C 
ATOM    105  H22 UNL A   1     -15.855  -8.770  -5.845  1.00  0.00    +0.000 H 
ATOM    106  H23 UNL A   1     -17.562  -7.908  -4.072  1.00  0.00    +0.000 H 
ATOM    107  H24 UNL A   1     -13.838  -8.165  -2.278  1.00  0.00    +0.000 H 
ATOM    108  H25 UNL A   1     -10.191  -7.730   2.942  1.00  0.00    +0.000 H 
ATOM    109  H26 UNL A   1      -8.523  -8.524   1.198  1.00  0.00    +0.000 H 
ATOM    110  H27 UNL A   1     -12.241  -8.233  -0.638  1.00  0.00    +0.000 H 
ATOM    111  H28 UNL A   1     -15.381  -6.454   2.861  1.00  0.00    +0.000 H 
ATOM    112  H29 UNL A   1     -17.241  -6.664   1.115  1.00  0.00    +0.000 H 
ATOM    113  H30 UNL A   1     -10.566  -9.662  -5.768  1.00  0.00    +0.000 H 
ATOM    114  H31 UNL A   1      -8.791  -9.900  -3.938  1.00  0.00    +0.000 H 
ENDROOT
BRANCH   24   23
ATOM    103  H20 UNL A   1      -5.872 -11.363  -0.186  1.00  0.00    +0.000 H 
ATOM    104  H21 UNL A   1      -8.271 -10.992  -0.198  1.00  0.00    +0.000 H 
ATOM     81  C56 UNL A   1      -7.342  -8.426  -2.153  1.00  0.00    +0.000 C 
ATOM     82  C57 UNL A   1      -5.974  -8.684  -2.204  1.00  0.00    +0.000 C 
ATOM    115  H32 UNL A   1      -7.731  -7.618  -2.663  1.00  0.00    +0.000 H 
ATOM     20  C14 UNL A   1      -5.430  -9.722  -1.442  1.00  0.00    +0.000 C 
ATOM     21  C15 UNL A   1      -6.270 -10.573  -0.717  1.00  0.00    +0.000 C 
ATOM    116  H33 UNL A   1      -5.362  -8.109  -2.804  1.00  0.00    +0.000 H 
ATOM     22  C16 UNL A   1      -7.649 -10.351  -0.714  1.00  0.00    +0.000 C 
ATOM     23  C17 UNL A   1      -8.193  -9.260  -1.411  1.00  0.00    +0.000 C 
BRANCH   20   18
ATOM     18  C13 UNL A   1      -3.970  -9.966  -1.413  1.00  0.00    +0.000 C 
ATOM     19  O3  UNL A   1      -3.543 -11.110  -1.473  1.00  0.00    +0.000 O 
BRANCH   18   17
ATOM     17  N3  UNL A   1      -3.099  -8.907  -1.314  1.00  0.00    +0.000 N 
ATOM    102  H19 UNL A   1      -2.163  -9.106  -1.542  1.00  0.00    +0.000 H 
BRANCH   17   16
ATOM    100  H17 UNL A   1      -3.124  -6.885  -1.733  1.00  0.00    +0.000 H 
ATOM    101  H18 UNL A   1      -4.406  -7.460  -0.664  1.00  0.00    +0.000 H 
ATOM     16  C12 UNL A   1      -3.369  -7.534  -0.918  1.00  0.00    +0.000 C 
BRANCH   16   15
ATOM     98  H15 UNL A   1      -2.892  -6.159   0.623  1.00  0.00    +0.000 H 
ATOM     99  H16 UNL A   1      -2.701  -7.884   1.040  1.00  0.00    +0.000 H 
ATOM     15  C11 UNL A   1      -2.552  -7.122   0.303  1.00  0.00    +0.000 C 
BRANCH   15   14
ATOM     97  H14 UNL A   1      -0.744  -8.008  -0.284  1.00  0.00    +0.000 H 
ATOM     14  C10 UNL A   1      -1.042  -7.041   0.061  1.00  0.00    +0.000 C 
ATOM     96  H13 UNL A   1      -0.575  -6.752   0.980  1.00  0.00    +0.000 H 
BRANCH   14   13
ATOM     13  C9  UNL A   1      -0.607  -6.048  -1.025  1.00  0.00    +0.000 C 
ATOM     94  H11 UNL A   1       0.463  -6.016  -1.035  1.00  0.00    +0.000 H 
ATOM     95  H12 UNL A   1      -1.031  -6.404  -1.941  1.00  0.00    +0.000 H 
BRANCH   13   12
ATOM     92  H9  UNL A   1      -0.841  -4.037  -1.699  1.00  0.00    +0.000 H 
ATOM     12  C8  UNL A   1      -1.125  -4.612  -0.843  1.00  0.00    +0.000 C 
ATOM     93  H10 UNL A   1      -2.187  -4.671  -0.730  1.00  0.00    +0.000 H 
BRANCH   12   11
ATOM     90  H7  UNL A   1      -1.189  -3.084   0.651  1.00  0.00    +0.000 H 
ATOM     11  C7  UNL A   1      -0.573  -3.924   0.408  1.00  0.00    +0.000 C 
ATOM     91  H8  UNL A   1      -0.573  -4.620   1.221  1.00  0.00    +0.000 H 
BRANCH   11   10
ATOM     89  H6  UNL A   1       1.446  -4.199   0.208  1.00  0.00    +0.000 H 
ATOM     10  N2  UNL A   1       0.783  -3.472   0.168  1.00  0.00    +0.000 N 
BRANCH   10    8
ATOM      9  O2  UNL A   1       2.561  -2.229  -0.298  1.00  0.00    +0.000 O 
ATOM      8  C6  UNL A   1       1.341  -2.252  -0.104  1.00  0.00    +0.000 C 
BRANCH    8    7
ATOM      2  C1  UNL A   1      -1.411   0.414  -0.227  1.00  0.00    +0.000 C 
ATOM      3  C2  UNL A   1      -0.647   1.562  -0.015  1.00  0.00    +0.000 C 
ATOM      4  C3  UNL A   1       0.730   1.468   0.172  1.00  0.00    +0.000 C 
ATOM      5  C4  UNL A   1       1.348   0.221   0.138  1.00  0.00    +0.000 C 
ATOM      7  C5  UNL A   1       0.610  -0.953  -0.103  1.00  0.00    +0.000 C 
ATOM     83  C58 UNL A   1      -0.760  -0.821  -0.362  1.00  0.00    +0.000 C 
ATOM    117  H34 UNL A   1      -1.302  -1.649  -0.657  1.00  0.00    +0.000 H 
ATOM     86  H3  UNL A   1      -1.105   2.486   0.003  1.00  0.00    +0.000 H 
ATOM     87  H4  UNL A   1       1.289   2.319   0.337  1.00  0.00    +0.000 H 
BRANCH    2    1
ATOM      1  N1  UNL A   1      -2.776   0.529  -0.524  1.00  0.00    +0.000 N 
ATOM     84  H1  UNL A   1      -3.229   1.397  -0.428  1.00  0.00    +0.000 H 
ATOM     85  H2  UNL A   1      -3.281  -0.259  -0.829  1.00  0.00    +0.000 H 
ENDBRANCH    2    1
BRANCH    5    6
ATOM      6  O1  UNL A   1       2.707   0.235   0.329  1.00  0.00    +0.000 O 
ATOM     88  H5  UNL A   1       3.149   1.045   0.486  1.00  0.00    +0.000 H 
ENDBRANCH    5    6
ENDBRANCH    8    7
ENDBRANCH   10    8
ENDBRANCH   11   10
ENDBRANCH   12   11
ENDBRANCH   13   12
ENDBRANCH   14   13
ENDBRANCH   15   14
ENDBRANCH   16   15
ENDBRANCH   17   16
ENDBRANCH   18   17
ENDBRANCH   20   18
ENDBRANCH   24   23
BRANCH   28   29
ATOM     33  F2  UNL A   1     -12.773 -12.120  -8.591  1.00  0.00    +0.000 F 
ATOM     34  C25 UNL A   1     -13.148  -9.841  -9.083  1.00  0.00    +0.000 C 
ATOM     35  F3  UNL A   1     -13.161 -10.112 -10.395  1.00  0.00    +0.000 F 
ATOM     36  C26 UNL A   1     -13.316  -8.537  -8.640  1.00  0.00    +0.000 C 
ATOM     37  F4  UNL A   1     -13.509  -7.550  -9.527  1.00  0.00    +0.000 F 
ATOM     38  C27 UNL A   1     -13.285  -8.252  -7.278  1.00  0.00    +0.000 C 
ATOM     39  F5  UNL A   1     -13.440  -6.980  -6.882  1.00  0.00    +0.000 F 
ATOM     29  C22 UNL A   1     -13.107  -9.271  -6.331  1.00  0.00    +0.000 C 
ATOM     30  C23 UNL A   1     -12.955 -10.585  -6.800  1.00  0.00    +0.000 C 
ATOM     31  F1  UNL A   1     -12.770 -11.593  -5.935  1.00  0.00    +0.000 F 
ATOM     32  C24 UNL A   1     -12.960 -10.863  -8.164  1.00  0.00    +0.000 C 
ENDBRANCH   28   29
BRANCH   45   46
ATOM     46  C33 UNL A   1     -17.888  -7.183  -1.363  1.00  0.00    +0.000 C 
ATOM     47  C34 UNL A   1     -18.378  -5.873  -1.269  1.00  0.00    +0.000 C 
ATOM     48  F6  UNL A   1     -17.527  -4.838  -1.194  1.00  0.00    +0.000 F 
ATOM     49  C35 UNL A   1     -19.747  -5.625  -1.214  1.00  0.00    +0.000 C 
ATOM     50  F7  UNL A   1     -20.193  -4.368  -1.081  1.00  0.00    +0.000 F 
ATOM     51  C36 UNL A   1     -20.648  -6.677  -1.282  1.00  0.00    +0.000 C 
ATOM     52  F8  UNL A   1     -21.966  -6.435  -1.235  1.00  0.00    +0.000 F 
ATOM     53  C37 UNL A   1     -20.185  -7.979  -1.392  1.00  0.00    +0.000 C 
ATOM     54  F9  UNL A   1     -21.055  -8.995  -1.470  1.00  0.00    +0.000 F 
ATOM     55  C38 UNL A   1     -18.817  -8.233  -1.421  1.00  0.00    +0.000 C 
ATOM     56  F10 UNL A   1     -18.397  -9.503  -1.517  1.00  0.00    +0.000 F 
ENDBRANCH   45   46
BRANCH   60   61
ATOM     65  F12 UNL A   1     -14.076  -8.146   6.581  1.00  0.00    +0.000 F 
ATOM     66  C45 UNL A   1     -12.753  -6.251   6.095  1.00  0.00    +0.000 C 
ATOM     67  F13 UNL A   1     -12.745  -5.905   7.390  1.00  0.00    +0.000 F 
ATOM     68  C46 UNL A   1     -12.099  -5.462   5.160  1.00  0.00    +0.000 C 
ATOM     69  F14 UNL A   1     -11.442  -4.363   5.554  1.00  0.00    +0.000 F 
ATOM     70  C47 UNL A   1     -12.128  -5.808   3.811  1.00  0.00    +0.000 C 
ATOM     71  F15 UNL A   1     -11.499  -5.019   2.927  1.00  0.00    +0.000 F 
ATOM     61  C42 UNL A   1     -12.792  -6.963   3.374  1.00  0.00    +0.000 C 
ATOM     62  C43 UNL A   1     -13.428  -7.755   4.340  1.00  0.00    +0.000 C 
ATOM     63  F11 UNL A   1     -14.094  -8.858   3.967  1.00  0.00    +0.000 F 
ATOM     64  C44 UNL A   1     -13.421  -7.394   5.685  1.00  0.00    +0.000 C 
ENDBRANCH   60   61
TORSDOF 17