ROOT
ATOM    129  H32 UNL A   1       8.510   3.351  -6.887  1.00  0.00    +0.000 H 
ATOM    130  H33 UNL A   1       9.140   1.182  -8.187  1.00  0.00    +0.000 H 
ATOM    131  H34 UNL A   1       5.294   0.749  -6.709  1.00  0.00    +0.000 H 
ATOM    132  H35 UNL A   1       0.071  -2.755  -5.792  1.00  0.00    +0.000 H 
ATOM    133  H36 UNL A   1      -0.695  -0.519  -4.867  1.00  0.00    +0.000 H 
ATOM    134  H37 UNL A   1       3.259  -0.110  -6.082  1.00  0.00    +0.000 H 
ATOM    135  H38 UNL A   1       4.314  -4.441  -8.515  1.00  0.00    +0.000 H 
ATOM    136  H39 UNL A   1       6.628  -3.481  -9.038  1.00  0.00    +0.000 H 
ATOM    137  H40 UNL A   1       4.156   5.019  -4.289  1.00  0.00    +0.000 H 
ATOM    138  H41 UNL A   1       1.921   3.998  -3.574  1.00  0.00    +0.000 H 
ATOM     31  C26 UNL A   1       1.336   1.487  -4.812  1.00  0.00    +0.000 C 
ATOM     32  C27 UNL A   1       2.612   2.303  -4.911  1.00  0.00    +0.000 C 
ATOM     33  N4  UNL A   1       3.725   2.038  -5.554  1.00  0.00    +0.000 N 
ATOM     34  C28 UNL A   1       4.556   3.137  -5.358  1.00  0.00    +0.000 C 
ATOM     35  C29 UNL A   1       5.824   3.343  -5.794  1.00  0.00    +0.000 C 
ATOM     47  C36 UNL A   1       6.606   2.394  -6.545  1.00  0.00    +0.000 C 
ATOM     48  C37 UNL A   1       7.902   2.528  -7.018  1.00  0.00    +0.000 C 
ATOM     49  C38 UNL A   1       8.246   1.359  -7.703  1.00  0.00    +0.000 C 
ATOM     50  C39 UNL A   1       7.181   0.479  -7.618  1.00  0.00    +0.000 C 
ATOM     51  N5  UNL A   1       6.178   1.129  -6.915  1.00  0.00    +0.000 N 
ATOM     52  C40 UNL A   1       7.076  -0.857  -8.144  1.00  0.00    +0.000 C 
ATOM     64  C47 UNL A   1       5.996  -1.658  -7.980  1.00  0.00    +0.000 C 
ATOM     65  N6  UNL A   1       4.812  -1.388  -7.305  1.00  0.00    +0.000 N 
ATOM     66  C48 UNL A   1       4.068  -2.457  -7.443  1.00  0.00    +0.000 C 
ATOM     67  C49 UNL A   1       2.684  -2.728  -6.917  1.00  0.00    +0.000 C 
ATOM     79  C56 UNL A   1       2.010  -1.768  -6.251  1.00  0.00    +0.000 C 
ATOM     80  C57 UNL A   1       0.642  -1.896  -5.754  1.00  0.00    +0.000 C 
ATOM     81  C58 UNL A   1       0.246  -0.722  -5.239  1.00  0.00    +0.000 C 
ATOM     82  C59 UNL A   1       1.358   0.225  -5.290  1.00  0.00    +0.000 C 
ATOM     83  N7  UNL A   1       2.366  -0.486  -5.906  1.00  0.00    +0.000 N 
ATOM     84  C60 UNL A   1       4.697  -3.523  -8.240  1.00  0.00    +0.000 C 
ATOM     85  C61 UNL A   1       5.883  -2.997  -8.513  1.00  0.00    +0.000 C 
ATOM     86  C62 UNL A   1       3.813   4.082  -4.552  1.00  0.00    +0.000 C 
ATOM     87  C63 UNL A   1       2.636   3.587  -4.195  1.00  0.00    +0.000 C 
ENDROOT
BRANCH   31   30
ATOM    139  H42 UNL A   1      -0.071   3.729  -5.450  1.00  0.00    +0.000 H 
ATOM    140  H43 UNL A   1      -1.776   4.863  -4.149  1.00  0.00    +0.000 H 
ATOM     88  C64 UNL A   1      -0.422   3.295  -4.582  1.00  0.00    +0.000 C 
ATOM     89  C65 UNL A   1      -1.425   3.942  -3.841  1.00  0.00    +0.000 C 
ATOM     27  C22 UNL A   1      -1.949   3.347  -2.691  1.00  0.00    +0.000 C 
ATOM     28  C23 UNL A   1      -1.552   2.054  -2.361  1.00  0.00    +0.000 C 
ATOM     29  C24 UNL A   1      -0.499   1.442  -3.058  1.00  0.00    +0.000 C 
ATOM     30  C25 UNL A   1       0.112   2.066  -4.159  1.00  0.00    +0.000 C 
ATOM    127  H30 UNL A   1      -2.033   1.546  -1.603  1.00  0.00    +0.000 H 
ATOM    128  H31 UNL A   1      -0.167   0.513  -2.755  1.00  0.00    +0.000 H 
BRANCH   27   25
ATOM     25  C21 UNL A   1      -2.929   4.100  -1.869  1.00  0.00    +0.000 C 
ATOM     26  O2  UNL A   1      -3.917   4.582  -2.418  1.00  0.00    +0.000 O 
BRANCH   25   24
ATOM    126  H29 UNL A   1      -3.364   4.921  -0.089  1.00  0.00    +0.000 H 
ATOM     24  N3  UNL A   1      -2.720   4.314  -0.520  1.00  0.00    +0.000 N 
BRANCH   24   23
ATOM    124  H27 UNL A   1      -2.153   3.068   1.010  1.00  0.00    +0.000 H 
ATOM    125  H28 UNL A   1      -0.948   3.356  -0.282  1.00  0.00    +0.000 H 
ATOM     23  C20 UNL A   1      -1.693   3.781   0.358  1.00  0.00    +0.000 C 
BRANCH   23   22
ATOM    122  H25 UNL A   1      -0.093   4.346   1.615  1.00  0.00    +0.000 H 
ATOM    123  H26 UNL A   1      -0.798   5.641   0.562  1.00  0.00    +0.000 H 
ATOM     22  C19 UNL A   1      -0.970   4.816   1.222  1.00  0.00    +0.000 C 
BRANCH   22   21
ATOM    121  H24 UNL A   1      -2.588   5.878   1.954  1.00  0.00    +0.000 H 
ATOM     21  C18 UNL A   1      -1.731   5.422   2.403  1.00  0.00    +0.000 C 
ATOM    120  H23 UNL A   1      -1.055   6.080   2.909  1.00  0.00    +0.000 H 
BRANCH   21   20
ATOM     20  C17 UNL A   1      -2.319   4.481   3.460  1.00  0.00    +0.000 C 
ATOM    118  H21 UNL A   1      -2.653   5.094   4.270  1.00  0.00    +0.000 H 
ATOM    119  H22 UNL A   1      -3.065   3.936   2.921  1.00  0.00    +0.000 H 
BRANCH   20   19
ATOM     19  C16 UNL A   1      -1.444   3.381   4.068  1.00  0.00    +0.000 C 
ATOM    116  H19 UNL A   1      -2.004   2.947   4.870  1.00  0.00    +0.000 H 
ATOM    117  H20 UNL A   1      -1.220   2.751   3.232  1.00  0.00    +0.000 H 
BRANCH   19   18
ATOM     18  C15 UNL A   1      -0.068   3.730   4.627  1.00  0.00    +0.000 C 
ATOM    115  H18 UNL A   1       0.444   4.217   3.823  1.00  0.00    +0.000 H 
ATOM    114  H17 UNL A   1       0.384   2.821   4.965  1.00  0.00    +0.000 H 
BRANCH   18   17
ATOM     17  N2  UNL A   1      -0.025   4.666   5.717  1.00  0.00    +0.000 N 
ATOM    113  H16 UNL A   1      -0.795   5.278   5.757  1.00  0.00    +0.000 H 
BRANCH   17   15
ATOM     15  C14 UNL A   1       0.904   4.856   6.715  1.00  0.00    +0.000 C 
ATOM     16  O1  UNL A   1       0.717   5.851   7.425  1.00  0.00    +0.000 O 
BRANCH   15   14
ATOM      9  C8  UNL A   1       3.024   3.345   6.246  1.00  0.00    +0.000 C 
ATOM     10  C9  UNL A   1       4.145   2.715   6.849  1.00  0.00    +0.000 C 
ATOM     11  C10 UNL A   1       4.308   2.638   8.228  1.00  0.00    +0.000 C 
ATOM     12  C11 UNL A   1       3.349   3.205   9.048  1.00  0.00    +0.000 C 
ATOM    109  H12 UNL A   1       4.867   2.297   6.241  1.00  0.00    +0.000 H 
ATOM     14  C13 UNL A   1       2.064   3.966   7.074  1.00  0.00    +0.000 C 
ATOM     13  C12 UNL A   1       2.258   3.870   8.478  1.00  0.00    +0.000 C 
ATOM    110  H13 UNL A   1       5.131   2.166   8.633  1.00  0.00    +0.000 H 
ATOM    112  H15 UNL A   1       1.566   4.311   9.104  1.00  0.00    +0.000 H 
ATOM    111  H14 UNL A   1       3.438   3.137  10.074  1.00  0.00    +0.000 H 
BRANCH    9    8
ATOM    108  H11 UNL A   1       3.095   3.920   4.253  1.00  0.00    +0.000 H 
ATOM      8  N1  UNL A   1       2.918   3.153   4.845  1.00  0.00    +0.000 N 
BRANCH    8    7
ATOM      1  C1  UNL A   1       1.740  -0.538  -0.015  1.00  0.00    +0.000 C 
ATOM      2  C2  UNL A   1       1.225   0.657   0.817  1.00  0.00    +0.000 C 
ATOM      3  C3  UNL A   1       1.614   1.925   0.025  1.00  0.00    +0.000 C 
ATOM      4  C4  UNL A   1      -0.310   0.561   0.911  1.00  0.00    +0.000 C 
ATOM      5  C5  UNL A   1       1.762   0.671   2.253  1.00  0.00    +0.000 C 
ATOM      6  C6  UNL A   1       2.239   1.852   2.877  1.00  0.00    +0.000 C 
ATOM      7  C7  UNL A   1       2.569   1.903   4.248  1.00  0.00    +0.000 C 
ATOM    141  H44 UNL A   1       2.824   0.706   5.973  1.00  0.00    +0.000 H 
ATOM    142  H45 UNL A   1       2.114  -3.341   3.480  1.00  0.00    +0.000 H 
ATOM    143  H46 UNL A   1       0.479  -3.030   4.027  1.00  0.00    +0.000 H 
ATOM     90  C66 UNL A   1       2.531   0.712   4.984  1.00  0.00    +0.000 C 
ATOM     91  C67 UNL A   1       2.100  -0.457   4.381  1.00  0.00    +0.000 C 
ATOM     92  C68 UNL A   1       1.703  -0.465   3.059  1.00  0.00    +0.000 C 
ATOM     93  O3  UNL A   1       1.213  -1.678   2.658  1.00  0.00    +0.000 O 
ATOM     94  C69 UNL A   1       1.415  -2.582   3.765  1.00  0.00    +0.000 C 
ATOM     95  C70 UNL A   1       1.966  -1.814   4.982  1.00  0.00    +0.000 C 
ATOM     98  H1  UNL A   1       1.330  -0.488  -1.003  1.00  0.00    +0.000 H 
ATOM     99  H2  UNL A   1       1.439  -1.453   0.450  1.00  0.00    +0.000 H 
ATOM    100  H3  UNL A   1       2.808  -0.500  -0.071  1.00  0.00    +0.000 H 
ATOM    101  H4  UNL A   1       1.215   1.862  -0.966  1.00  0.00    +0.000 H 
ATOM    102  H5  UNL A   1       2.680   2.002  -0.024  1.00  0.00    +0.000 H 
ATOM    103  H6  UNL A   1       1.215   2.788   0.516  1.00  0.00    +0.000 H 
ATOM    104  H7  UNL A   1      -0.728   0.549  -0.074  1.00  0.00    +0.000 H 
ATOM    105  H8  UNL A   1      -0.688   1.407   1.447  1.00  0.00    +0.000 H 
ATOM    106  H9  UNL A   1      -0.581  -0.337   1.424  1.00  0.00    +0.000 H 
ATOM    107  H10 UNL A   1       2.349   2.705   2.307  1.00  0.00    +0.000 H 
BRANCH   95   96
ATOM    145  H48 UNL A   1       3.223  -3.367   5.750  1.00  0.00    +0.000 H 
ATOM    146  H49 UNL A   1       3.721  -1.756   6.206  1.00  0.00    +0.000 H 
ATOM    144  H47 UNL A   1       4.004  -2.331   4.580  1.00  0.00    +0.000 H 
ATOM     96  C71 UNL A   1       3.331  -2.358   5.412  1.00  0.00    +0.000 C 
ENDBRANCH   95   96
BRANCH   95   97
ATOM     97  C72 UNL A   1       0.981  -1.840   6.154  1.00  0.00    +0.000 C 
ATOM    147  H50 UNL A   1       0.035  -1.457   5.833  1.00  0.00    +0.000 H 
ATOM    148  H51 UNL A   1       1.358  -1.235   6.951  1.00  0.00    +0.000 H 
ATOM    149  H52 UNL A   1       0.860  -2.847   6.496  1.00  0.00    +0.000 H 
ENDBRANCH   95   97
ENDBRANCH    8    7
ENDBRANCH    9    8
ENDBRANCH   15   14
ENDBRANCH   17   15
ENDBRANCH   18   17
ENDBRANCH   19   18
ENDBRANCH   20   19
ENDBRANCH   21   20
ENDBRANCH   22   21
ENDBRANCH   23   22
ENDBRANCH   24   23
ENDBRANCH   25   24
ENDBRANCH   27   25
ENDBRANCH   31   30
BRANCH   35   36
ATOM     36  C30 UNL A   1       6.472   4.661  -5.475  1.00  0.00    +0.000 C 
ATOM     37  C31 UNL A   1       6.922   4.967  -4.183  1.00  0.00    +0.000 C 
ATOM     38  F1  UNL A   1       6.699   4.115  -3.172  1.00  0.00    +0.000 F 
ATOM     39  C32 UNL A   1       7.586   6.163  -3.921  1.00  0.00    +0.000 C 
ATOM     40  F2  UNL A   1       7.979   6.449  -2.673  1.00  0.00    +0.000 F 
ATOM     41  C33 UNL A   1       7.839   7.060  -4.949  1.00  0.00    +0.000 C 
ATOM     42  F3  UNL A   1       8.495   8.202  -4.698  1.00  0.00    +0.000 F 
ATOM     43  C34 UNL A   1       7.412   6.774  -6.236  1.00  0.00    +0.000 C 
ATOM     44  F4  UNL A   1       7.671   7.631  -7.234  1.00  0.00    +0.000 F 
ATOM     45  C35 UNL A   1       6.723   5.592  -6.496  1.00  0.00    +0.000 C 
ATOM     46  F5  UNL A   1       6.324   5.342  -7.753  1.00  0.00    +0.000 F 
ENDBRANCH   35   36
BRANCH   52   53
ATOM     53  C41 UNL A   1       8.245  -1.403  -8.911  1.00  0.00    +0.000 C 
ATOM     54  C42 UNL A   1       8.202  -1.553 -10.305  1.00  0.00    +0.000 C 
ATOM     55  F6  UNL A   1       7.076  -1.275 -10.979  1.00  0.00    +0.000 F 
ATOM     56  C43 UNL A   1       9.311  -2.014 -11.011  1.00  0.00    +0.000 C 
ATOM     57  F7  UNL A   1       9.236  -2.181 -12.339  1.00  0.00    +0.000 F 
ATOM     58  C44 UNL A   1      10.490  -2.308 -10.342  1.00  0.00    +0.000 C 
ATOM     59  F8  UNL A   1      11.560  -2.740 -11.024  1.00  0.00    +0.000 F 
ATOM     60  C45 UNL A   1      10.559  -2.158  -8.966  1.00  0.00    +0.000 C 
ATOM     61  F9  UNL A   1      11.701  -2.430  -8.319  1.00  0.00    +0.000 F 
ATOM     62  C46 UNL A   1       9.444  -1.721  -8.254  1.00  0.00    +0.000 C 
ATOM     63  F10 UNL A   1       9.541  -1.589  -6.923  1.00  0.00    +0.000 F 
ENDBRANCH   52   53
BRANCH   67   68
ATOM     68  C50 UNL A   1       2.049  -4.055  -7.139  1.00  0.00    +0.000 C 
ATOM     69  C51 UNL A   1       2.533  -5.198  -6.488  1.00  0.00    +0.000 C 
ATOM     70  F11 UNL A   1       3.601  -5.109  -5.682  1.00  0.00    +0.000 F 
ATOM     71  C52 UNL A   1       1.944  -6.445  -6.690  1.00  0.00    +0.000 C 
ATOM     72  F12 UNL A   1       2.449  -7.528  -6.084  1.00  0.00    +0.000 F 
ATOM     73  C53 UNL A   1       0.845  -6.567  -7.527  1.00  0.00    +0.000 C 
ATOM     74  F13 UNL A   1       0.270  -7.764  -7.711  1.00  0.00    +0.000 F 
ATOM     75  C54 UNL A   1       0.346  -5.449  -8.178  1.00  0.00    +0.000 C 
ATOM     76  F14 UNL A   1      -0.724  -5.561  -8.977  1.00  0.00    +0.000 F 
ATOM     77  C55 UNL A   1       0.952  -4.208  -7.999  1.00  0.00    +0.000 C 
ATOM     78  F15 UNL A   1       0.458  -3.147  -8.653  1.00  0.00    +0.000 F 
ENDBRANCH   67   68
TORSDOF 19