ROOT
ATOM    138  H33 UNL A   1     -17.570  -5.890  -4.242  1.00  0.00    +0.000 H 
ATOM    139  H34 UNL A   1     -19.183  -6.291  -2.234  1.00  0.00    +0.000 H 
ATOM    140  H35 UNL A   1     -15.325  -7.130  -0.990  1.00  0.00    +0.000 H 
ATOM    141  H36 UNL A   1     -11.333  -9.320   3.489  1.00  0.00    +0.000 H 
ATOM    142  H37 UNL A   1      -9.753  -8.787   1.574  1.00  0.00    +0.000 H 
ATOM    143  H38 UNL A   1     -13.614  -7.893   0.321  1.00  0.00    +0.000 H 
ATOM    144  H39 UNL A   1     -16.597  -8.748   4.263  1.00  0.00    +0.000 H 
ATOM    145  H40 UNL A   1     -18.562  -8.167   2.732  1.00  0.00    +0.000 H 
ATOM    146  H41 UNL A   1     -12.222  -5.971  -4.742  1.00  0.00    +0.000 H 
ATOM    147  H42 UNL A   1     -10.307  -7.038  -3.419  1.00  0.00    +0.000 H 
ATOM     39  C28 UNL A   1     -11.045  -7.840  -0.785  1.00  0.00    +0.000 C 
ATOM     40  C29 UNL A   1     -11.940  -7.309  -1.869  1.00  0.00    +0.000 C 
ATOM     41  N3  UNL A   1     -13.233  -7.104  -1.849  1.00  0.00    +0.000 N 
ATOM     42  C30 UNL A   1     -13.548  -6.569  -3.090  1.00  0.00    +0.000 C 
ATOM     43  C31 UNL A   1     -14.768  -6.256  -3.588  1.00  0.00    +0.000 C 
ATOM     55  C38 UNL A   1     -16.000  -6.425  -2.864  1.00  0.00    +0.000 C 
ATOM     56  C39 UNL A   1     -17.293  -6.189  -3.295  1.00  0.00    +0.000 C 
ATOM     57  C40 UNL A   1     -18.160  -6.428  -2.224  1.00  0.00    +0.000 C 
ATOM     58  C41 UNL A   1     -17.415  -6.879  -1.146  1.00  0.00    +0.000 C 
ATOM     59  N4  UNL A   1     -16.090  -6.866  -1.551  1.00  0.00    +0.000 N 
ATOM     60  C42 UNL A   1     -17.878  -7.293   0.155  1.00  0.00    +0.000 C 
ATOM     72  C49 UNL A   1     -17.083  -7.733   1.161  1.00  0.00    +0.000 C 
ATOM     73  N5  UNL A   1     -15.704  -7.891   1.181  1.00  0.00    +0.000 N 
ATOM     74  C50 UNL A   1     -15.407  -8.329   2.380  1.00  0.00    +0.000 C 
ATOM     75  C51 UNL A   1     -14.066  -8.705   2.951  1.00  0.00    +0.000 C 
ATOM     87  C58 UNL A   1     -12.974  -8.604   2.171  1.00  0.00    +0.000 C 
ATOM     88  C59 UNL A   1     -11.611  -8.939   2.571  1.00  0.00    +0.000 C 
ATOM     89  C60 UNL A   1     -10.778  -8.670   1.554  1.00  0.00    +0.000 C 
ATOM     90  C61 UNL A   1     -11.556  -8.186   0.413  1.00  0.00    +0.000 C 
ATOM     91  N6  UNL A   1     -12.849  -8.178   0.871  1.00  0.00    +0.000 N 
ATOM     92  C62 UNL A   1     -16.567  -8.468   3.271  1.00  0.00    +0.000 C 
ATOM     93  C63 UNL A   1     -17.566  -8.138   2.465  1.00  0.00    +0.000 C 
ATOM     94  C64 UNL A   1     -12.307  -6.418  -3.816  1.00  0.00    +0.000 C 
ATOM     95  C65 UNL A   1     -11.293  -6.931  -3.135  1.00  0.00    +0.000 C 
ENDROOT
BRANCH   39   38
ATOM     97  C67 UNL A   1      -7.469  -6.863  -1.489  1.00  0.00    +0.000 C 
ATOM     35  C24 UNL A   1      -6.826  -8.101  -1.397  1.00  0.00    +0.000 C 
ATOM     36  C25 UNL A   1      -7.559  -9.269  -1.183  1.00  0.00    +0.000 C 
ATOM     37  C26 UNL A   1      -8.940  -9.190  -1.017  1.00  0.00    +0.000 C 
ATOM     38  C27 UNL A   1      -9.584  -7.941  -1.013  1.00  0.00    +0.000 C 
ATOM    136  H31 UNL A   1      -7.082 -10.183  -1.149  1.00  0.00    +0.000 H 
ATOM    137  H32 UNL A   1      -9.493 -10.053  -0.895  1.00  0.00    +0.000 H 
ATOM    148  H43 UNL A   1      -9.297  -5.855  -1.225  1.00  0.00    +0.000 H 
ATOM    149  H44 UNL A   1      -6.933  -6.018  -1.741  1.00  0.00    +0.000 H 
ATOM     96  C66 UNL A   1      -8.834  -6.777  -1.241  1.00  0.00    +0.000 C 
BRANCH   35   33
ATOM     33  C23 UNL A   1      -5.356  -8.197  -1.483  1.00  0.00    +0.000 C 
ATOM     34  O9  UNL A   1      -4.834  -9.040  -2.203  1.00  0.00    +0.000 O 
BRANCH   33   32
ATOM    135  H30 UNL A   1      -3.619  -7.412  -0.860  1.00  0.00    +0.000 H 
ATOM     32  N2  UNL A   1      -4.592  -7.356  -0.718  1.00  0.00    +0.000 N 
BRANCH   32   31
ATOM    133  H28 UNL A   1      -5.094  -5.431  -0.188  1.00  0.00    +0.000 H 
ATOM    134  H29 UNL A   1      -5.981  -6.721   0.642  1.00  0.00    +0.000 H 
ATOM     31  C22 UNL A   1      -5.031  -6.394   0.275  1.00  0.00    +0.000 C 
BRANCH   31   30
ATOM    131  H26 UNL A   1      -4.450  -5.531   2.117  1.00  0.00    +0.000 H 
ATOM    132  H27 UNL A   1      -4.080  -7.269   1.919  1.00  0.00    +0.000 H 
ATOM     30  C21 UNL A   1      -4.088  -6.300   1.466  1.00  0.00    +0.000 C 
BRANCH   30   29
ATOM    129  H24 UNL A   1      -2.109  -5.793   2.029  1.00  0.00    +0.000 H 
ATOM    130  H25 UNL A   1      -2.274  -6.826   0.569  1.00  0.00    +0.000 H 
ATOM     29  C20 UNL A   1      -2.634  -5.979   1.115  1.00  0.00    +0.000 C 
BRANCH   29   28
ATOM     28  C19 UNL A   1      -2.418  -4.771   0.195  1.00  0.00    +0.000 C 
ATOM    127  H22 UNL A   1      -1.375  -4.533   0.205  1.00  0.00    +0.000 H 
ATOM    128  H23 UNL A   1      -2.787  -5.066  -0.765  1.00  0.00    +0.000 H 
BRANCH   28   27
ATOM     27  C18 UNL A   1      -3.192  -3.505   0.567  1.00  0.00    +0.000 C 
ATOM    125  H20 UNL A   1      -2.991  -2.756  -0.171  1.00  0.00    +0.000 H 
ATOM    126  H21 UNL A   1      -4.228  -3.771   0.605  1.00  0.00    +0.000 H 
BRANCH   27   26
ATOM     26  C17 UNL A   1      -2.828  -2.946   1.926  1.00  0.00    +0.000 C 
ATOM    123  H18 UNL A   1      -3.663  -2.399   2.310  1.00  0.00    +0.000 H 
ATOM    124  H19 UNL A   1      -2.578  -3.767   2.565  1.00  0.00    +0.000 H 
BRANCH   26   25
ATOM     25  N1  UNL A   1      -1.683  -2.067   1.859  1.00  0.00    +0.000 N 
ATOM    122  H17 UNL A   1      -1.135  -2.086   1.042  1.00  0.00    +0.000 H 
BRANCH   25   23
ATOM     23  C16 UNL A   1      -1.313  -1.211   2.855  1.00  0.00    +0.000 C 
ATOM     24  O8  UNL A   1      -0.605  -0.244   2.626  1.00  0.00    +0.000 O 
BRANCH   23   22
ATOM      2  C2  UNL A   1       1.310  -3.161   8.045  1.00  0.00    +0.000 C 
ATOM      3  C3  UNL A   1       0.799  -3.911   9.220  1.00  0.00    +0.000 C 
ATOM      4  O1  UNL A   1       1.453  -4.517  10.036  1.00  0.00    +0.000 O 
ATOM      5  O2  UNL A   1      -0.560  -3.826   9.158  1.00  0.00    +0.000 O 
ATOM      6  C4  UNL A   1      -0.973  -3.121   7.957  1.00  0.00    +0.000 C 
ATOM      7  C5  UNL A   1       0.225  -3.257   7.026  1.00  0.00    +0.000 C 
ATOM      8  C6  UNL A   1       0.290  -2.446   5.723  1.00  0.00    +0.000 C 
ATOM     17  C12 UNL A   1      -0.989  -2.705   4.828  1.00  0.00    +0.000 C 
ATOM     22  C15 UNL A   1      -1.797  -1.556   4.239  1.00  0.00    +0.000 C 
ATOM    150  H45 UNL A   1      -2.865   0.073   3.910  1.00  0.00    +0.000 H 
ATOM    152  H47 UNL A   1      -4.419  -0.549   7.898  1.00  0.00    +0.000 H 
ATOM    151  H46 UNL A   1      -4.239   0.141   4.960  1.00  0.00    +0.000 H 
ATOM    156  H51 UNL A   1      -0.378  -1.466   8.399  1.00  0.00    +0.000 H 
ATOM     98  C68 UNL A   1      -2.828  -0.741   4.543  1.00  0.00    +0.000 C 
ATOM     99  C69 UNL A   1      -3.905  -0.702   5.529  1.00  0.00    +0.000 C 
ATOM    100  O10 UNL A   1      -4.327  -1.936   6.093  1.00  0.00    +0.000 O 
ATOM    101  C70 UNL A   1      -3.944  -0.939   7.022  1.00  0.00    +0.000 C 
ATOM    102  C71 UNL A   1      -2.609  -0.888   7.769  1.00  0.00    +0.000 C 
ATOM    104  O11 UNL A   1      -2.674  -1.698   8.963  1.00  0.00    +0.000 O 
ATOM    105  C73 UNL A   1      -1.409  -1.737   8.308  1.00  0.00    +0.000 C 
ATOM    108  H3  UNL A   1      -1.835  -3.511   7.457  1.00  0.00    +0.000 H 
ATOM    109  H4  UNL A   1       0.248  -4.153   6.441  1.00  0.00    +0.000 H 
ATOM    110  H5  UNL A   1       1.127  -2.799   5.157  1.00  0.00    +0.000 H 
ATOM    118  H13 UNL A   1      -0.722  -2.481   3.816  1.00  0.00    +0.000 H 
BRANCH    2    1
ATOM      1  C1  UNL A   1       2.464  -2.492   8.108  1.00  0.00    +0.000 C 
ATOM    106  H1  UNL A   1       3.069  -2.584   8.939  1.00  0.00    +0.000 H 
ATOM    107  H2  UNL A   1       2.750  -1.882   7.327  1.00  0.00    +0.000 H 
ENDBRANCH    2    1
BRANCH    8    9
ATOM      9  O3  UNL A   1       0.571  -1.050   5.953  1.00  0.00    +0.000 O 
BRANCH    9   10
ATOM     10  C7  UNL A   1       1.056  -0.166   5.006  1.00  0.00    +0.000 C 
ATOM     11  O4  UNL A   1       0.602   0.976   5.012  1.00  0.00    +0.000 O 
BRANCH   10   12
ATOM    114  H9  UNL A   1       3.568  -2.017   3.009  1.00  0.00    +0.000 H 
ATOM     12  C8  UNL A   1       2.378  -0.431   4.295  1.00  0.00    +0.000 C 
ATOM     14  O5  UNL A   1       2.267  -0.035   2.899  1.00  0.00    +0.000 O 
ATOM     15  C10 UNL A   1       2.730  -1.358   3.101  1.00  0.00    +0.000 C 
BRANCH   12   13
ATOM    113  H8  UNL A   1       3.406   1.352   4.854  1.00  0.00    +0.000 H 
ATOM     13  C9  UNL A   1       3.574   0.296   4.894  1.00  0.00    +0.000 C 
ATOM    111  H6  UNL A   1       4.454   0.053   4.335  1.00  0.00    +0.000 H 
ATOM    112  H7  UNL A   1       3.703  -0.007   5.912  1.00  0.00    +0.000 H 
ENDBRANCH   12   13
BRANCH   15   16
ATOM    115  H10 UNL A   1       0.927  -1.995   2.243  1.00  0.00    +0.000 H 
ATOM    116  H11 UNL A   1       1.919  -3.280   2.889  1.00  0.00    +0.000 H 
ATOM    117  H12 UNL A   1       2.361  -2.505   1.386  1.00  0.00    +0.000 H 
ATOM     16  C11 UNL A   1       1.929  -2.354   2.353  1.00  0.00    +0.000 C 
ENDBRANCH   15   16
ENDBRANCH   10   12
ENDBRANCH    9   10
ENDBRANCH    8    9
BRANCH   17   18
ATOM     18  O6  UNL A   1      -1.454  -4.111   4.768  1.00  0.00    +0.000 O 
BRANCH   18   19
ATOM     19  C13 UNL A   1      -2.458  -4.936   5.075  1.00  0.00    +0.000 C 
ATOM     21  O7  UNL A   1      -2.496  -6.054   4.563  1.00  0.00    +0.000 O 
BRANCH   19   20
ATOM    121  H16 UNL A   1      -4.457  -4.609   5.600  1.00  0.00    +0.000 H 
ATOM     20  C14 UNL A   1      -3.492  -4.559   6.059  1.00  0.00    +0.000 C 
ATOM    119  H14 UNL A   1      -3.312  -3.562   6.402  1.00  0.00    +0.000 H 
ATOM    120  H15 UNL A   1      -3.457  -5.234   6.889  1.00  0.00    +0.000 H 
ENDBRANCH   19   20
ENDBRANCH   18   19
ENDBRANCH   17   18
BRANCH  102  103
ATOM    153  H48 UNL A   1      -3.192   1.169   7.741  1.00  0.00    +0.000 H 
ATOM    154  H49 UNL A   1      -1.466   0.915   7.649  1.00  0.00    +0.000 H 
ATOM    155  H50 UNL A   1      -2.301   0.699   9.169  1.00  0.00    +0.000 H 
ATOM    103  C72 UNL A   1      -2.374   0.585   8.107  1.00  0.00    +0.000 C 
ENDBRANCH  102  103
ENDBRANCH   23   22
ENDBRANCH   25   23
ENDBRANCH   26   25
ENDBRANCH   27   26
ENDBRANCH   28   27
ENDBRANCH   29   28
ENDBRANCH   30   29
ENDBRANCH   31   30
ENDBRANCH   32   31
ENDBRANCH   33   32
ENDBRANCH   35   33
ENDBRANCH   39   38
BRANCH   43   44
ATOM     44  C32 UNL A   1     -14.829  -5.697  -4.982  1.00  0.00    +0.000 C 
ATOM     45  C33 UNL A   1     -14.511  -6.476  -6.106  1.00  0.00    +0.000 C 
ATOM     46  F1  UNL A   1     -14.098  -7.744  -5.954  1.00  0.00    +0.000 F 
ATOM     47  C34 UNL A   1     -14.572  -5.942  -7.390  1.00  0.00    +0.000 C 
ATOM     48  F2  UNL A   1     -14.210  -6.689  -8.443  1.00  0.00    +0.000 F 
ATOM     49  C35 UNL A   1     -14.993  -4.635  -7.581  1.00  0.00    +0.000 C 
ATOM     50  F3  UNL A   1     -15.061  -4.125  -8.819  1.00  0.00    +0.000 F 
ATOM     51  C36 UNL A   1     -15.337  -3.854  -6.489  1.00  0.00    +0.000 C 
ATOM     52  F4  UNL A   1     -15.759  -2.596  -6.672  1.00  0.00    +0.000 F 
ATOM     53  C37 UNL A   1     -15.242  -4.374  -5.200  1.00  0.00    +0.000 C 
ATOM     54  F5  UNL A   1     -15.562  -3.585  -4.163  1.00  0.00    +0.000 F 
ENDBRANCH   43   44
BRANCH   60   61
ATOM     65  F7  UNL A   1     -21.846  -5.482   2.399  1.00  0.00    +0.000 F 
ATOM     66  C46 UNL A   1     -22.140  -7.201   0.807  1.00  0.00    +0.000 C 
ATOM     67  F8  UNL A   1     -23.466  -7.177   1.005  1.00  0.00    +0.000 F 
ATOM     68  C47 UNL A   1     -21.589  -8.101  -0.092  1.00  0.00    +0.000 C 
ATOM     69  F9  UNL A   1     -22.384  -8.930  -0.783  1.00  0.00    +0.000 F 
ATOM     70  C48 UNL A   1     -20.211  -8.145  -0.279  1.00  0.00    +0.000 C 
ATOM     71  F10 UNL A   1     -19.707  -9.037  -1.144  1.00  0.00    +0.000 F 
ATOM     61  C43 UNL A   1     -19.359  -7.265   0.408  1.00  0.00    +0.000 C 
ATOM     62  C44 UNL A   1     -19.941  -6.347   1.295  1.00  0.00    +0.000 C 
ATOM     63  F6  UNL A   1     -19.171  -5.494   1.986  1.00  0.00    +0.000 F 
ATOM     64  C45 UNL A   1     -21.317  -6.331   1.507  1.00  0.00    +0.000 C 
ENDBRANCH   60   61
BRANCH   75   76
ATOM     76  C52 UNL A   1     -13.941  -9.200   4.348  1.00  0.00    +0.000 C 
ATOM     77  C53 UNL A   1     -14.491 -10.431   4.731  1.00  0.00    +0.000 C 
ATOM     78  F11 UNL A   1     -15.150 -11.178   3.832  1.00  0.00    +0.000 F 
ATOM     79  C54 UNL A   1     -14.408 -10.881   6.047  1.00  0.00    +0.000 C 
ATOM     80  F12 UNL A   1     -14.990 -12.036   6.396  1.00  0.00    +0.000 F 
ATOM     81  C55 UNL A   1     -13.740 -10.126   6.999  1.00  0.00    +0.000 C 
ATOM     82  F13 UNL A   1     -13.658 -10.559   8.264  1.00  0.00    +0.000 F 
ATOM     83  C56 UNL A   1     -13.166  -8.916   6.640  1.00  0.00    +0.000 C 
ATOM     84  F14 UNL A   1     -12.506  -8.190   7.552  1.00  0.00    +0.000 F 
ATOM     85  C57 UNL A   1     -13.278  -8.450   5.332  1.00  0.00    +0.000 C 
ATOM     86  F15 UNL A   1     -12.728  -7.268   5.018  1.00  0.00    +0.000 F 
ENDBRANCH   75   76
TORSDOF 25