ROOT
ATOM    129  H37 UNL A   1       4.913  -0.320   4.747  1.00  0.00    +0.000 H 
ATOM     34  C27 UNL A   1       5.338   2.478   4.356  1.00  0.00    +0.000 C 
ATOM     35  C28 UNL A   1       5.873   1.607   5.459  1.00  0.00    +0.000 C 
ATOM     36  N3  UNL A   1       6.652   1.930   6.463  1.00  0.00    +0.000 N 
ATOM     37  C29 UNL A   1       6.818   0.770   7.208  1.00  0.00    +0.000 C 
ATOM     38  C30 UNL A   1       7.554   0.585   8.331  1.00  0.00    +0.000 C 
ATOM     50  C37 UNL A   1       8.348   1.608   8.963  1.00  0.00    +0.000 C 
ATOM     51  C38 UNL A   1       9.170   1.501  10.072  1.00  0.00    +0.000 C 
ATOM     52  C39 UNL A   1       9.705   2.765  10.345  1.00  0.00    +0.000 C 
ATOM     53  C40 UNL A   1       9.252   3.650   9.380  1.00  0.00    +0.000 C 
ATOM     54  N4  UNL A   1       8.417   2.927   8.541  1.00  0.00    +0.000 N 
ATOM     55  C41 UNL A   1       9.555   5.050   9.233  1.00  0.00    +0.000 C 
ATOM     67  C48 UNL A   1       9.078   5.849   8.248  1.00  0.00    +0.000 C 
ATOM     68  N5  UNL A   1       8.228   5.528   7.200  1.00  0.00    +0.000 N 
ATOM     69  C49 UNL A   1       8.042   6.641   6.535  1.00  0.00    +0.000 C 
ATOM     70  C50 UNL A   1       7.227   6.879   5.296  1.00  0.00    +0.000 C 
ATOM     82  C57 UNL A   1       6.530   5.859   4.762  1.00  0.00    +0.000 C 
ATOM     83  C58 UNL A   1       5.706   5.942   3.561  1.00  0.00    +0.000 C 
ATOM     84  C59 UNL A   1       5.154   4.742   3.328  1.00  0.00    +0.000 C 
ATOM     85  C60 UNL A   1       5.628   3.793   4.336  1.00  0.00    +0.000 C 
ATOM     86  N6  UNL A   1       6.409   4.553   5.169  1.00  0.00    +0.000 N 
ATOM     87  C61 UNL A   1       8.742   7.803   7.096  1.00  0.00    +0.000 C 
ATOM     88  C62 UNL A   1       9.389   7.258   8.117  1.00  0.00    +0.000 C 
ATOM     89  C63 UNL A   1       6.045  -0.264   6.554  1.00  0.00    +0.000 C 
ATOM     90  C64 UNL A   1       5.480   0.190   5.443  1.00  0.00    +0.000 C 
ATOM    120  H28 UNL A   1       9.355   0.638  10.606  1.00  0.00    +0.000 H 
ATOM    121  H29 UNL A   1      10.331   2.999  11.131  1.00  0.00    +0.000 H 
ATOM    122  H30 UNL A   1       7.943   3.297   7.761  1.00  0.00    +0.000 H 
ATOM    123  H31 UNL A   1       5.570   6.787   2.984  1.00  0.00    +0.000 H 
ATOM    124  H32 UNL A   1       4.500   4.523   2.561  1.00  0.00    +0.000 H 
ATOM    125  H33 UNL A   1       6.841   4.198   5.979  1.00  0.00    +0.000 H 
ATOM    126  H34 UNL A   1       8.733   8.786   6.779  1.00  0.00    +0.000 H 
ATOM    127  H35 UNL A   1      10.032   7.773   8.739  1.00  0.00    +0.000 H 
ATOM    128  H36 UNL A   1       5.945  -1.228   6.907  1.00  0.00    +0.000 H 
ENDROOT
BRANCH   34   33
ATOM     33  C26 UNL A   1       4.526   1.906   3.250  1.00  0.00    +0.000 C 
ATOM    130  H38 UNL A   1       2.838   1.398   4.421  1.00  0.00    +0.000 H 
ATOM    131  H39 UNL A   1       1.618   0.349   2.602  1.00  0.00    +0.000 H 
ATOM    118  H26 UNL A   1       4.626   1.529  -0.088  1.00  0.00    +0.000 H 
ATOM    119  H27 UNL A   1       5.969   2.329   1.762  1.00  0.00    +0.000 H 
ATOM     91  C65 UNL A   1       3.252   1.364   3.476  1.00  0.00    +0.000 C 
ATOM     92  C66 UNL A   1       2.539   0.779   2.425  1.00  0.00    +0.000 C 
ATOM     30  C23 UNL A   1       3.076   0.777   1.134  1.00  0.00    +0.000 C 
ATOM     31  C24 UNL A   1       4.287   1.425   0.881  1.00  0.00    +0.000 C 
ATOM     32  C25 UNL A   1       5.034   1.931   1.940  1.00  0.00    +0.000 C 
BRANCH   30    2
ATOM      1  O1  UNL A   1       1.132   0.199  -0.043  1.00  0.00    +0.000 O 
ATOM      2  C1  UNL A   1       2.349   0.071   0.055  1.00  0.00    +0.000 C 
BRANCH    2    3
ATOM      3  N1  UNL A   1       3.031  -0.754  -0.807  1.00  0.00    +0.000 N 
ATOM     93  H1  UNL A   1       2.493  -1.140  -1.536  1.00  0.00    +0.000 H 
BRANCH    3    4
ATOM      4  C2  UNL A   1       4.433  -1.140  -0.798  1.00  0.00    +0.000 C 
ATOM     94  H2  UNL A   1       4.871  -0.803   0.118  1.00  0.00    +0.000 H 
ATOM     95  H3  UNL A   1       4.891  -0.690  -1.654  1.00  0.00    +0.000 H 
BRANCH    4    5
ATOM     97  H5  UNL A   1       5.702  -2.795  -0.865  1.00  0.00    +0.000 H 
ATOM      5  C3  UNL A   1       4.644  -2.644  -0.910  1.00  0.00    +0.000 C 
ATOM     96  H4  UNL A   1       4.106  -3.113  -0.114  1.00  0.00    +0.000 H 
BRANCH    5    6
ATOM     98  H6  UNL A   1       3.121  -3.212  -2.266  1.00  0.00    +0.000 H 
ATOM     99  H7  UNL A   1       4.563  -4.280  -2.207  1.00  0.00    +0.000 H 
ATOM      6  C4  UNL A   1       4.188  -3.278  -2.223  1.00  0.00    +0.000 C 
BRANCH    6    7
ATOM    100  H8  UNL A   1       4.315  -1.675  -3.602  1.00  0.00    +0.000 H 
ATOM    101  H9  UNL A   1       4.495  -3.325  -4.290  1.00  0.00    +0.000 H 
ATOM      7  C5  UNL A   1       4.748  -2.648  -3.501  1.00  0.00    +0.000 C 
BRANCH    7    8
ATOM    102  H10 UNL A   1       6.560  -1.778  -2.823  1.00  0.00    +0.000 H 
ATOM    103  H11 UNL A   1       6.490  -2.189  -4.569  1.00  0.00    +0.000 H 
ATOM      8  C6  UNL A   1       6.271  -2.492  -3.566  1.00  0.00    +0.000 C 
BRANCH    8    9
ATOM      9  C7  UNL A   1       7.078  -3.766  -3.332  1.00  0.00    +0.000 C 
ATOM    105  H13 UNL A   1       8.115  -3.518  -3.421  1.00  0.00    +0.000 H 
ATOM    104  H12 UNL A   1       6.850  -4.144  -2.357  1.00  0.00    +0.000 H 
BRANCH    9   10
ATOM     10  N2  UNL A   1       6.781  -4.792  -4.311  1.00  0.00    +0.000 N 
ATOM    106  H14 UNL A   1       5.831  -4.902  -4.542  1.00  0.00    +0.000 H 
BRANCH   10   11
ATOM     11  C8  UNL A   1       7.655  -5.630  -4.957  1.00  0.00    +0.000 C 
ATOM     12  O2  UNL A   1       7.235  -6.468  -5.750  1.00  0.00    +0.000 O 
BRANCH   11   13
ATOM    107  H15 UNL A   1       9.366  -4.997  -6.826  1.00  0.00    +0.000 H 
ATOM     13  C9  UNL A   1       9.110  -5.463  -4.782  1.00  0.00    +0.000 C 
ATOM     14  C10 UNL A   1       9.850  -5.123  -5.924  1.00  0.00    +0.000 C 
ATOM     15  C11 UNL A   1      11.238  -4.952  -5.854  1.00  0.00    +0.000 C 
ATOM    115  H23 UNL A   1      12.885  -5.000  -4.534  1.00  0.00    +0.000 H 
ATOM    116  H24 UNL A   1      11.616  -5.640  -2.571  1.00  0.00    +0.000 H 
ATOM     26  C20 UNL A   1      11.865  -5.136  -4.611  1.00  0.00    +0.000 C 
ATOM     27  C21 UNL A   1      11.134  -5.500  -3.473  1.00  0.00    +0.000 C 
ATOM     28  C22 UNL A   1       9.756  -5.674  -3.562  1.00  0.00    +0.000 C 
BRANCH   15   16
ATOM    108  H16 UNL A   1      13.083  -4.466  -6.847  1.00  0.00    +0.000 H 
ATOM     16  C12 UNL A   1      12.074  -4.600  -7.018  1.00  0.00    +0.000 C 
BRANCH   16   17
ATOM     17  C13 UNL A   1      11.641  -4.437  -8.279  1.00  0.00    +0.000 C 
ATOM    109  H17 UNL A   1      10.633  -4.545  -8.470  1.00  0.00    +0.000 H 
BRANCH   17   18
ATOM    110  H18 UNL A   1      14.038  -5.529  -8.937  1.00  0.00    +0.000 H 
ATOM    112  H20 UNL A   1      14.743  -3.299 -12.431  1.00  0.00    +0.000 H 
ATOM     18  C14 UNL A   1      12.534  -4.113  -9.402  1.00  0.00    +0.000 C 
ATOM     19  C15 UNL A   1      13.739  -4.800  -9.604  1.00  0.00    +0.000 C 
ATOM    114  H22 UNL A   1      11.238  -2.643 -10.204  1.00  0.00    +0.000 H 
ATOM     20  C16 UNL A   1      14.534  -4.496 -10.708  1.00  0.00    +0.000 C 
ATOM     22  C17 UNL A   1      14.146  -3.523 -11.620  1.00  0.00    +0.000 C 
ATOM     23  C18 UNL A   1      12.944  -2.854 -11.427  1.00  0.00    +0.000 C 
ATOM     25  C19 UNL A   1      12.132  -3.142 -10.331  1.00  0.00    +0.000 C 
BRANCH   20   21
ATOM     21  O3  UNL A   1      15.710  -5.149 -10.935  1.00  0.00    +0.000 O 
ATOM    111  H19 UNL A   1      16.001  -5.811 -10.340  1.00  0.00    +0.000 H 
ENDBRANCH   20   21
BRANCH   23   24
ATOM    113  H21 UNL A   1      13.145  -1.732 -13.076  1.00  0.00    +0.000 H 
ATOM     24  O4  UNL A   1      12.585  -1.912 -12.346  1.00  0.00    +0.000 O 
ENDBRANCH   23   24
ENDBRANCH   17   18
ENDBRANCH   16   17
ENDBRANCH   15   16
BRANCH   28   29
ATOM    117  H25 UNL A   1       8.120  -6.166  -2.510  1.00  0.00    +0.000 H 
ATOM     29  O5  UNL A   1       9.048  -6.047  -2.455  1.00  0.00    +0.000 O 
ENDBRANCH   28   29
ENDBRANCH   11   13
ENDBRANCH   10   11
ENDBRANCH    9   10
ENDBRANCH    8    9
ENDBRANCH    7    8
ENDBRANCH    6    7
ENDBRANCH    5    6
ENDBRANCH    4    5
ENDBRANCH    3    4
ENDBRANCH    2    3
ENDBRANCH   30    2
ENDBRANCH   34   33
BRANCH   38   39
ATOM     39  C31 UNL A   1       7.528  -0.776   8.964  1.00  0.00    +0.000 C 
ATOM     40  C32 UNL A   1       8.190  -1.871   8.391  1.00  0.00    +0.000 C 
ATOM     41  F1  UNL A   1       8.824  -1.737   7.216  1.00  0.00    +0.000 F 
ATOM     42  C33 UNL A   1       8.177  -3.120   9.008  1.00  0.00    +0.000 C 
ATOM     43  F2  UNL A   1       8.784  -4.161   8.422  1.00  0.00    +0.000 F 
ATOM     44  C34 UNL A   1       7.530  -3.291  10.223  1.00  0.00    +0.000 C 
ATOM     45  F3  UNL A   1       7.525  -4.491  10.819  1.00  0.00    +0.000 F 
ATOM     46  C35 UNL A   1       6.882  -2.218  10.816  1.00  0.00    +0.000 C 
ATOM     47  F4  UNL A   1       6.266  -2.378  11.996  1.00  0.00    +0.000 F 
ATOM     48  C36 UNL A   1       6.872  -0.974  10.189  1.00  0.00    +0.000 C 
ATOM     49  F5  UNL A   1       6.230   0.042  10.784  1.00  0.00    +0.000 F 
ENDBRANCH   38   39
BRANCH   55   56
ATOM     65  C47 UNL A   1      11.857   5.369  10.206  1.00  0.00    +0.000 C 
ATOM     66  F10 UNL A   1      12.346   4.519   9.291  1.00  0.00    +0.000 F 
ATOM     56  C42 UNL A   1      10.488   5.677  10.226  1.00  0.00    +0.000 C 
ATOM     57  C43 UNL A   1      10.027   6.568  11.205  1.00  0.00    +0.000 C 
ATOM     58  F6  UNL A   1       8.730   6.906  11.253  1.00  0.00    +0.000 F 
ATOM     59  C44 UNL A   1      10.908   7.152  12.112  1.00  0.00    +0.000 C 
ATOM     60  F7  UNL A   1      10.454   8.039  13.007  1.00  0.00    +0.000 F 
ATOM     61  C45 UNL A   1      12.257   6.830  12.077  1.00  0.00    +0.000 C 
ATOM     62  F8  UNL A   1      13.104   7.394  12.950  1.00  0.00    +0.000 F 
ATOM     63  C46 UNL A   1      12.730   5.934  11.131  1.00  0.00    +0.000 C 
ATOM     64  F9  UNL A   1      14.032   5.616  11.102  1.00  0.00    +0.000 F 
ENDBRANCH   55   56
BRANCH   70   71
ATOM     71  C51 UNL A   1       7.195   8.213   4.645  1.00  0.00    +0.000 C 
ATOM     72  C52 UNL A   1       8.326   8.723   3.995  1.00  0.00    +0.000 C 
ATOM     73  F11 UNL A   1       9.467   8.018   3.984  1.00  0.00    +0.000 F 
ATOM     74  C53 UNL A   1       8.298   9.972   3.379  1.00  0.00    +0.000 C 
ATOM     75  F12 UNL A   1       9.404  10.453   2.794  1.00  0.00    +0.000 F 
ATOM     76  C54 UNL A   1       7.132  10.722   3.379  1.00  0.00    +0.000 C 
ATOM     77  F13 UNL A   1       7.103  11.919   2.779  1.00  0.00    +0.000 F 
ATOM     78  C55 UNL A   1       5.997  10.232   4.008  1.00  0.00    +0.000 C 
ATOM     79  F14 UNL A   1       4.863  10.947   3.997  1.00  0.00    +0.000 F 
ATOM     80  C56 UNL A   1       6.032   8.996   4.647  1.00  0.00    +0.000 C 
ATOM     81  F15 UNL A   1       4.922   8.549   5.253  1.00  0.00    +0.000 F 
ENDBRANCH   70   71
TORSDOF 21