ROOT
ATOM     34  C25 UNL A   1       4.679  -5.106   1.474  1.00  0.00    +0.000 C 
ATOM     35  C26 UNL A   1       4.749  -5.469   2.933  1.00  0.00    +0.000 C 
ATOM     36  N4  UNL A   1       5.211  -6.559   3.493  1.00  0.00    +0.000 N 
ATOM     37  C27 UNL A   1       5.065  -6.373   4.861  1.00  0.00    +0.000 C 
ATOM     38  C28 UNL A   1       5.325  -7.243   5.864  1.00  0.00    +0.000 C 
ATOM     50  C35 UNL A   1       5.822  -8.578   5.668  1.00  0.00    +0.000 C 
ATOM     51  C36 UNL A   1       6.073  -9.550   6.620  1.00  0.00    +0.000 C 
ATOM     52  C37 UNL A   1       6.572 -10.680   5.968  1.00  0.00    +0.000 C 
ATOM     53  C38 UNL A   1       6.588 -10.428   4.606  1.00  0.00    +0.000 C 
ATOM     54  N5  UNL A   1       6.133  -9.131   4.436  1.00  0.00    +0.000 N 
ATOM     55  C39 UNL A   1       6.994 -11.306   3.540  1.00  0.00    +0.000 C 
ATOM     67  C46 UNL A   1       6.990 -10.986   2.224  1.00  0.00    +0.000 C 
ATOM     68  N6  UNL A   1       6.593  -9.803   1.617  1.00  0.00    +0.000 N 
ATOM     69  C47 UNL A   1       6.787  -9.973   0.333  1.00  0.00    +0.000 C 
ATOM     70  C48 UNL A   1       6.499  -9.028  -0.803  1.00  0.00    +0.000 C 
ATOM     82  C55 UNL A   1       5.993  -7.808  -0.534  1.00  0.00    +0.000 C 
ATOM     83  C56 UNL A   1       5.637  -6.798  -1.528  1.00  0.00    +0.000 C 
ATOM     84  C57 UNL A   1       5.158  -5.712  -0.899  1.00  0.00    +0.000 C 
ATOM     85  C58 UNL A   1       5.144  -5.962   0.543  1.00  0.00    +0.000 C 
ATOM     86  N7  UNL A   1       5.685  -7.218   0.668  1.00  0.00    +0.000 N 
ATOM     87  C59 UNL A   1       7.359 -11.281  -0.018  1.00  0.00    +0.000 C 
ATOM     88  C60 UNL A   1       7.427 -11.874   1.167  1.00  0.00    +0.000 C 
ATOM     89  C61 UNL A   1       4.526  -5.046   5.056  1.00  0.00    +0.000 C 
ATOM     90  C62 UNL A   1       4.251  -4.471   3.894  1.00  0.00    +0.000 C 
ATOM    117  H25 UNL A   1       5.919  -9.457   7.636  1.00  0.00    +0.000 H 
ATOM    118  H26 UNL A   1       6.877 -11.555   6.424  1.00  0.00    +0.000 H 
ATOM    119  H27 UNL A   1       6.044  -8.671   3.570  1.00  0.00    +0.000 H 
ATOM    120  H28 UNL A   1       5.737  -6.903  -2.549  1.00  0.00    +0.000 H 
ATOM    121  H29 UNL A   1       4.850  -4.842  -1.359  1.00  0.00    +0.000 H 
ATOM    122  H30 UNL A   1       5.837  -7.654   1.537  1.00  0.00    +0.000 H 
ATOM    123  H31 UNL A   1       7.636 -11.644  -0.943  1.00  0.00    +0.000 H 
ATOM    124  H32 UNL A   1       7.750 -12.842   1.317  1.00  0.00    +0.000 H 
ATOM    125  H33 UNL A   1       4.375  -4.605   5.977  1.00  0.00    +0.000 H 
ATOM    126  H34 UNL A   1       3.804  -3.559   3.711  1.00  0.00    +0.000 H 
ENDROOT
BRANCH   34   33
ATOM     33  C24 UNL A   1       4.101  -3.801   1.060  1.00  0.00    +0.000 C 
ATOM    127  H35 UNL A   1       5.629  -2.627   1.931  1.00  0.00    +0.000 H 
ATOM    115  H23 UNL A   1       1.468  -2.490  -0.570  1.00  0.00    +0.000 H 
ATOM    116  H24 UNL A   1       2.421  -4.625   0.073  1.00  0.00    +0.000 H 
ATOM     91  C63 UNL A   1       4.724  -2.602   1.436  1.00  0.00    +0.000 C 
ATOM     92  C64 UNL A   1       4.127  -1.376   1.143  1.00  0.00    +0.000 C 
ATOM     32  C23 UNL A   1       2.897  -3.749   0.340  1.00  0.00    +0.000 C 
ATOM     30  C21 UNL A   1       2.960  -1.330   0.375  1.00  0.00    +0.000 C 
ATOM     31  C22 UNL A   1       2.339  -2.520  -0.017  1.00  0.00    +0.000 C 
ATOM    128  H36 UNL A   1       4.548  -0.502   1.494  1.00  0.00    +0.000 H 
BRANCH   30    2
ATOM      1  O1  UNL A   1       1.088   0.043   0.046  1.00  0.00    +0.000 O 
ATOM      2  C1  UNL A   1       2.313  -0.047   0.014  1.00  0.00    +0.000 C 
BRANCH    2    3
ATOM      3  N1  UNL A   1       3.063   1.035  -0.366  1.00  0.00    +0.000 N 
ATOM     93  H1  UNL A   1       2.567   1.882  -0.439  1.00  0.00    +0.000 H 
BRANCH    3    4
ATOM      4  C2  UNL A   1       4.478   1.121  -0.678  1.00  0.00    +0.000 C 
ATOM     94  H2  UNL A   1       4.884   0.132  -0.706  1.00  0.00    +0.000 H 
ATOM     95  H3  UNL A   1       4.942   1.716   0.081  1.00  0.00    +0.000 H 
BRANCH    4    5
ATOM     97  H5  UNL A   1       5.804   1.836  -2.128  1.00  0.00    +0.000 H 
ATOM      5  C3  UNL A   1       4.740   1.796  -2.020  1.00  0.00    +0.000 C 
ATOM     96  H4  UNL A   1       4.253   1.220  -2.780  1.00  0.00    +0.000 H 
BRANCH    5    6
ATOM     98  H6  UNL A   1       3.180   3.229  -2.102  1.00  0.00    +0.000 H 
ATOM     99  H7  UNL A   1       4.650   3.613  -3.055  1.00  0.00    +0.000 H 
ATOM      6  C4  UNL A   1       4.249   3.241  -2.135  1.00  0.00    +0.000 C 
BRANCH    6    7
ATOM    100  H8  UNL A   1       4.306   3.894  -0.119  1.00  0.00    +0.000 H 
ATOM    101  H9  UNL A   1       4.450   5.177  -1.364  1.00  0.00    +0.000 H 
ATOM      7  C5  UNL A   1       4.743   4.198  -1.047  1.00  0.00    +0.000 C 
BRANCH    7    8
ATOM    102  H10 UNL A   1       6.588   3.298  -0.509  1.00  0.00    +0.000 H 
ATOM    103  H11 UNL A   1       6.442   5.048  -0.159  1.00  0.00    +0.000 H 
ATOM      8  C6  UNL A   1       6.261   4.256  -0.856  1.00  0.00    +0.000 C 
BRANCH    8    9
ATOM      9  C7  UNL A   1       7.060   4.603  -2.108  1.00  0.00    +0.000 C 
ATOM    105  H13 UNL A   1       8.099   4.585  -1.850  1.00  0.00    +0.000 H 
ATOM    104  H12 UNL A   1       6.836   3.886  -2.870  1.00  0.00    +0.000 H 
BRANCH    9   10
ATOM     10  N2  UNL A   1       6.749   5.929  -2.607  1.00  0.00    +0.000 N 
ATOM    106  H14 UNL A   1       5.796   6.178  -2.600  1.00  0.00    +0.000 H 
BRANCH   10   11
ATOM     11  C8  UNL A   1       7.614   6.879  -3.090  1.00  0.00    +0.000 C 
ATOM     12  O2  UNL A   1       7.194   7.968  -3.473  1.00  0.00    +0.000 O 
BRANCH   11   13
ATOM    107  H15 UNL A   1       9.427   8.274  -1.794  1.00  0.00    +0.000 H 
ATOM    108  H16 UNL A   1      11.821   7.901  -1.635  1.00  0.00    +0.000 H 
ATOM     13  C9  UNL A   1       9.068   6.627  -3.068  1.00  0.00    +0.000 C 
ATOM     14  C10 UNL A   1       9.861   7.484  -2.297  1.00  0.00    +0.000 C 
ATOM     15  C11 UNL A   1      11.238   7.271  -2.208  1.00  0.00    +0.000 C 
ATOM     16  C12 UNL A   1      11.831   6.204  -2.897  1.00  0.00    +0.000 C 
ATOM    113  H21 UNL A   1      11.467   4.592  -4.219  1.00  0.00    +0.000 H 
ATOM     27  C19 UNL A   1      11.034   5.370  -3.697  1.00  0.00    +0.000 C 
ATOM     28  C20 UNL A   1       9.660   5.588  -3.791  1.00  0.00    +0.000 C 
BRANCH   16   17
ATOM    109  H17 UNL A   1      13.768   6.186  -4.885  1.00  0.00    +0.000 H 
ATOM    110  H18 UNL A   1      16.025   5.531  -4.692  1.00  0.00    +0.000 H 
ATOM    112  H20 UNL A   1      13.187   5.643  -0.764  1.00  0.00    +0.000 H 
ATOM     17  C13 UNL A   1      13.277   5.930  -2.801  1.00  0.00    +0.000 C 
ATOM     18  C14 UNL A   1      14.145   5.915  -3.963  1.00  0.00    +0.000 C 
ATOM     19  C15 UNL A   1      15.427   5.552  -3.851  1.00  0.00    +0.000 C 
ATOM     20  N3  UNL A   1      15.963   5.204  -2.626  1.00  0.00    +0.000 N 
ATOM     24  C17 UNL A   1      15.223   5.227  -1.455  1.00  0.00    +0.000 C 
ATOM     25  O3  UNL A   1      15.640   4.940  -0.338  1.00  0.00    +0.000 O 
ATOM     26  C18 UNL A   1      13.792   5.615  -1.599  1.00  0.00    +0.000 C 
BRANCH   20   21
ATOM     21  C16 UNL A   1      17.333   4.771  -2.525  1.00  0.00    +0.000 C 
ATOM     22  F1  UNL A   1      18.036   5.557  -1.675  1.00  0.00    +0.000 F 
ATOM    111  H19 UNL A   1      17.753   4.837  -3.507  1.00  0.00    +0.000 H 
ATOM     23  F2  UNL A   1      17.403   3.494  -2.074  1.00  0.00    +0.000 F 
ENDBRANCH   20   21
ENDBRANCH   16   17
BRANCH   28   29
ATOM    114  H22 UNL A   1       7.979   4.910  -4.652  1.00  0.00    +0.000 H 
ATOM     29  O4  UNL A   1       8.902   4.770  -4.583  1.00  0.00    +0.000 O 
ENDBRANCH   28   29
ENDBRANCH   11   13
ENDBRANCH   10   11
ENDBRANCH    9   10
ENDBRANCH    8    9
ENDBRANCH    7    8
ENDBRANCH    6    7
ENDBRANCH    5    6
ENDBRANCH    4    5
ENDBRANCH    3    4
ENDBRANCH    2    3
ENDBRANCH   30    2
ENDBRANCH   34   33
BRANCH   38   39
ATOM     39  C29 UNL A   1       5.052  -6.801   7.271  1.00  0.00    +0.000 C 
ATOM     40  C30 UNL A   1       3.741  -6.677   7.753  1.00  0.00    +0.000 C 
ATOM     41  F3  UNL A   1       2.698  -6.859   6.929  1.00  0.00    +0.000 F 
ATOM     42  C31 UNL A   1       3.496  -6.351   9.084  1.00  0.00    +0.000 C 
ATOM     43  F4  UNL A   1       2.235  -6.213   9.517  1.00  0.00    +0.000 F 
ATOM     44  C32 UNL A   1       4.553  -6.169   9.963  1.00  0.00    +0.000 C 
ATOM     45  F5  UNL A   1       4.315  -5.878  11.249  1.00  0.00    +0.000 F 
ATOM     46  C33 UNL A   1       5.858  -6.290   9.508  1.00  0.00    +0.000 C 
ATOM     47  F6  UNL A   1       6.881  -6.130  10.359  1.00  0.00    +0.000 F 
ATOM     48  C34 UNL A   1       6.107  -6.590   8.171  1.00  0.00    +0.000 C 
ATOM     49  F7  UNL A   1       7.379  -6.703   7.761  1.00  0.00    +0.000 F 
ENDBRANCH   38   39
BRANCH   55   56
ATOM     65  C45 UNL A   1       6.532 -13.619   4.423  1.00  0.00    +0.000 C 
ATOM     66  F12 UNL A   1       5.224 -13.326   4.465  1.00  0.00    +0.000 F 
ATOM     56  C40 UNL A   1       7.452 -12.681   3.929  1.00  0.00    +0.000 C 
ATOM     57  C41 UNL A   1       8.809 -13.030   3.916  1.00  0.00    +0.000 C 
ATOM     58  F8  UNL A   1       9.722 -12.169   3.442  1.00  0.00    +0.000 F 
ATOM     59  C42 UNL A   1       9.230 -14.272   4.382  1.00  0.00    +0.000 C 
ATOM     60  F9  UNL A   1      10.530 -14.593   4.343  1.00  0.00    +0.000 F 
ATOM     61  C43 UNL A   1       8.308 -15.175   4.891  1.00  0.00    +0.000 C 
ATOM     62  F10 UNL A   1       8.719 -16.359   5.364  1.00  0.00    +0.000 F 
ATOM     63  C44 UNL A   1       6.960 -14.849   4.913  1.00  0.00    +0.000 C 
ATOM     64  F11 UNL A   1       6.070 -15.713   5.420  1.00  0.00    +0.000 F 
ENDBRANCH   55   56
BRANCH   70   71
ATOM     71  C49 UNL A   1       6.729  -9.439  -2.213  1.00  0.00    +0.000 C 
ATOM     72  C50 UNL A   1       5.941 -10.434  -2.810  1.00  0.00    +0.000 C 
ATOM     73  F13 UNL A   1       4.981 -11.043  -2.098  1.00  0.00    +0.000 F 
ATOM     74  C51 UNL A   1       6.157 -10.831  -4.128  1.00  0.00    +0.000 C 
ATOM     75  F14 UNL A   1       5.415 -11.811  -4.660  1.00  0.00    +0.000 F 
ATOM     76  C52 UNL A   1       7.147 -10.223  -4.884  1.00  0.00    +0.000 C 
ATOM     77  F15 UNL A   1       7.350 -10.599  -6.154  1.00  0.00    +0.000 F 
ATOM     78  C53 UNL A   1       7.931  -9.227  -4.320  1.00  0.00    +0.000 C 
ATOM     79  F16 UNL A   1       8.879  -8.627  -5.052  1.00  0.00    +0.000 F 
ATOM     80  C54 UNL A   1       7.733  -8.848  -2.994  1.00  0.00    +0.000 C 
ATOM     81  F17 UNL A   1       8.513  -7.890  -2.472  1.00  0.00    +0.000 F 
ENDBRANCH   70   71
TORSDOF 18