ROOT
ATOM    138  H39 UNL A   1      -3.471  19.698   9.456  1.00  0.00    +0.000 H 
ATOM    139  H40 UNL A   1      -4.786  19.249  11.663  1.00  0.00    +0.000 H 
ATOM    140  H41 UNL A   1      -6.182  16.642   8.764  1.00  0.00    +0.000 H 
ATOM    141  H42 UNL A   1     -10.308  12.124   6.939  1.00  0.00    +0.000 H 
ATOM    142  H43 UNL A   1      -9.014  12.560   4.796  1.00  0.00    +0.000 H 
ATOM    143  H44 UNL A   1      -7.503  15.088   7.729  1.00  0.00    +0.000 H 
ATOM    144  H45 UNL A   1     -10.095  14.080  11.910  1.00  0.00    +0.000 H 
ATOM    145  H46 UNL A   1      -8.805  15.995  13.015  1.00  0.00    +0.000 H 
ATOM    146  H47 UNL A   1      -3.481  17.385   4.613  1.00  0.00    +0.000 H 
ATOM    147  H48 UNL A   1      -5.096  15.856   3.344  1.00  0.00    +0.000 H 
ATOM     41  C29 UNL A   1      -7.038  14.603   5.015  1.00  0.00    +0.000 C 
ATOM     42  C30 UNL A   1      -6.028  15.647   5.401  1.00  0.00    +0.000 C 
ATOM     43  N7  UNL A   1      -5.821  16.207   6.566  1.00  0.00    +0.000 N 
ATOM     44  C31 UNL A   1      -4.746  17.067   6.386  1.00  0.00    +0.000 C 
ATOM     45  C32 UNL A   1      -4.190  17.922   7.278  1.00  0.00    +0.000 C 
ATOM     57  C39 UNL A   1      -4.651  18.091   8.630  1.00  0.00    +0.000 C 
ATOM     58  C40 UNL A   1      -4.205  18.985   9.588  1.00  0.00    +0.000 C 
ATOM     59  C41 UNL A   1      -4.922  18.754  10.768  1.00  0.00    +0.000 C 
ATOM     60  C42 UNL A   1      -5.846  17.748  10.530  1.00  0.00    +0.000 C 
ATOM     61  N8  UNL A   1      -5.666  17.349   9.216  1.00  0.00    +0.000 N 
ATOM     62  C43 UNL A   1      -6.819  17.192  11.434  1.00  0.00    +0.000 C 
ATOM     74  C50 UNL A   1      -7.702  16.213  11.121  1.00  0.00    +0.000 C 
ATOM     75  N9  UNL A   1      -7.875  15.543   9.918  1.00  0.00    +0.000 N 
ATOM     76  C51 UNL A   1      -8.836  14.676  10.122  1.00  0.00    +0.000 C 
ATOM     77  C52 UNL A   1      -9.456  13.702   9.158  1.00  0.00    +0.000 C 
ATOM     89  C59 UNL A   1      -9.024  13.675   7.883  1.00  0.00    +0.000 C 
ATOM     90  C60 UNL A   1      -9.543  12.808   6.829  1.00  0.00    +0.000 C 
ATOM     91  C61 UNL A   1      -8.865  13.045   5.695  1.00  0.00    +0.000 C 
ATOM     92  C62 UNL A   1      -7.881  14.101   5.937  1.00  0.00    +0.000 C 
ATOM     93  N10 UNL A   1      -8.041  14.408   7.264  1.00  0.00    +0.000 N 
ATOM     94  C63 UNL A   1      -9.369  14.682  11.491  1.00  0.00    +0.000 C 
ATOM     95  C64 UNL A   1      -8.673  15.664  12.046  1.00  0.00    +0.000 C 
ATOM     96  C65 UNL A   1      -4.309  16.918   5.016  1.00  0.00    +0.000 C 
ATOM     97  C66 UNL A   1      -5.111  16.104   4.345  1.00  0.00    +0.000 C 
ENDROOT
BRANCH   41   40
ATOM     98  C67 UNL A   1      -5.993  13.354   3.120  1.00  0.00    +0.000 C 
ATOM     99  C68 UNL A   1      -6.003  12.906   1.802  1.00  0.00    +0.000 C 
ATOM     37  C25 UNL A   1      -7.140  13.093   1.010  1.00  0.00    +0.000 C 
ATOM     38  C26 UNL A   1      -8.225  13.823   1.501  1.00  0.00    +0.000 C 
ATOM     39  C27 UNL A   1      -8.186  14.333   2.799  1.00  0.00    +0.000 C 
ATOM    136  H37 UNL A   1      -9.052  13.985   0.905  1.00  0.00    +0.000 H 
ATOM     40  C28 UNL A   1      -7.079  14.084   3.626  1.00  0.00    +0.000 C 
ATOM    137  H38 UNL A   1      -8.975  14.896   3.153  1.00  0.00    +0.000 H 
ATOM    148  H49 UNL A   1      -5.184  13.148   3.727  1.00  0.00    +0.000 H 
ATOM    149  H50 UNL A   1      -5.171  12.437   1.409  1.00  0.00    +0.000 H 
BRANCH   37   35
ATOM     35  C24 UNL A   1      -7.216  12.552  -0.365  1.00  0.00    +0.000 C 
ATOM     36  O5  UNL A   1      -7.684  13.234  -1.264  1.00  0.00    +0.000 O 
BRANCH   35   34
ATOM     34  N6  UNL A   1      -6.773  11.279  -0.622  1.00  0.00    +0.000 N 
ATOM    135  H36 UNL A   1      -6.686  11.047  -1.575  1.00  0.00    +0.000 H 
BRANCH   34   33
ATOM     33  C23 UNL A   1      -6.414  10.227   0.310  1.00  0.00    +0.000 C 
ATOM    133  H34 UNL A   1      -5.361  10.050   0.241  1.00  0.00    +0.000 H 
ATOM    134  H35 UNL A   1      -6.692  10.550   1.292  1.00  0.00    +0.000 H 
BRANCH   33   32
ATOM    131  H32 UNL A   1      -6.844   8.203   0.750  1.00  0.00    +0.000 H 
ATOM    132  H33 UNL A   1      -8.194   9.156   0.065  1.00  0.00    +0.000 H 
ATOM     32  C22 UNL A   1      -7.150   8.925   0.022  1.00  0.00    +0.000 C 
BRANCH   32   31
ATOM    129  H30 UNL A   1      -7.386   7.380  -1.411  1.00  0.00    +0.000 H 
ATOM    130  H31 UNL A   1      -7.289   9.046  -2.064  1.00  0.00    +0.000 H 
ATOM     31  C21 UNL A   1      -6.901   8.333  -1.367  1.00  0.00    +0.000 C 
BRANCH   31   30
ATOM     30  C20 UNL A   1      -5.431   8.133  -1.744  1.00  0.00    +0.000 C 
ATOM    127  H28 UNL A   1      -5.397   7.616  -2.681  1.00  0.00    +0.000 H 
ATOM    128  H29 UNL A   1      -4.999   9.111  -1.778  1.00  0.00    +0.000 H 
BRANCH   30   29
ATOM    125  H26 UNL A   1      -3.640   7.147  -1.171  1.00  0.00    +0.000 H 
ATOM     29  C19 UNL A   1      -4.599   7.338  -0.736  1.00  0.00    +0.000 C 
ATOM    126  H27 UNL A   1      -4.549   7.934   0.151  1.00  0.00    +0.000 H 
BRANCH   29   28
ATOM    124  H25 UNL A   1      -6.181   6.189   0.073  1.00  0.00    +0.000 H 
ATOM    123  H24 UNL A   1      -4.572   5.549   0.415  1.00  0.00    +0.000 H 
ATOM     28  C18 UNL A   1      -5.204   6.002  -0.320  1.00  0.00    +0.000 C 
BRANCH   28   27
ATOM    122  H23 UNL A   1      -5.538   5.525  -2.307  1.00  0.00    +0.000 H 
ATOM     27  N5  UNL A   1      -5.338   5.097  -1.443  1.00  0.00    +0.000 N 
BRANCH   27   25
ATOM     25  C17 UNL A   1      -5.228   3.741  -1.477  1.00  0.00    +0.000 C 
ATOM     26  O4  UNL A   1      -5.816   3.150  -2.389  1.00  0.00    +0.000 O 
BRANCH   25   22
ATOM    118  H19 UNL A   1      -4.260   1.989  -0.853  1.00  0.00    +0.000 H 
ATOM     22  C15 UNL A   1      -4.472   2.939  -0.410  1.00  0.00    +0.000 C 
BRANCH   22   21
ATOM    117  H18 UNL A   1      -2.995   4.465  -0.244  1.00  0.00    +0.000 H 
ATOM     21  N4  UNL A   1      -3.164   3.510  -0.074  1.00  0.00    +0.000 N 
BRANCH   21   19
ATOM     19  C14 UNL A   1      -2.182   2.743   0.466  1.00  0.00    +0.000 C 
ATOM     20  O2  UNL A   1      -1.840   3.017   1.619  1.00  0.00    +0.000 O 
BRANCH   19   16
ATOM    113  H14 UNL A   1      -0.512   1.846  -0.453  1.00  0.00    +0.000 H 
ATOM     16  C12 UNL A   1      -1.541   1.584  -0.326  1.00  0.00    +0.000 C 
BRANCH   16   15
ATOM     15  N3  UNL A   1      -1.619   0.370   0.471  1.00  0.00    +0.000 N 
ATOM    112  H13 UNL A   1      -2.370  -0.244   0.308  1.00  0.00    +0.000 H 
BRANCH   15   13
ATOM     13  C11 UNL A   1      -0.702   0.033   1.438  1.00  0.00    +0.000 C 
ATOM     14  O1  UNL A   1      -1.149  -0.467   2.474  1.00  0.00    +0.000 O 
BRANCH   13    2
ATOM      2  C1  UNL A   1       0.829   0.192   1.212  1.00  0.00    +0.000 C 
ATOM    103  H4  UNL A   1       1.306  -0.415   1.953  1.00  0.00    +0.000 H 
BRANCH    2    1
ATOM      1  N1  UNL A   1       1.231  -0.380  -0.091  1.00  0.00    +0.000 N 
ATOM    100  H1  UNL A   1       2.237  -0.264  -0.216  1.00  0.00    +0.000 H 
ATOM    101  H2  UNL A   1       0.737   0.104  -0.841  1.00  0.00    +0.000 H 
ATOM    102  H3  UNL A   1       0.997  -1.372  -0.113  1.00  0.00    +0.000 H 
ENDBRANCH    2    1
BRANCH    2    3
ATOM    105  H6  UNL A   1       0.795   1.887   2.385  1.00  0.00    +0.000 H 
ATOM      3  C2  UNL A   1       1.468   1.538   1.630  1.00  0.00    +0.000 C 
ATOM    104  H5  UNL A   1       2.478   1.321   1.905  1.00  0.00    +0.000 H 
BRANCH    3    4
ATOM      4  C3  UNL A   1       1.527   2.715   0.678  1.00  0.00    +0.000 C 
ATOM      5  C4  UNL A   1       1.682   2.739  -0.698  1.00  0.00    +0.000 C 
ATOM      6  N2  UNL A   1       1.532   4.031  -1.134  1.00  0.00    +0.000 N 
ATOM      7  C5  UNL A   1       1.437   4.883  -0.064  1.00  0.00    +0.000 C 
ATOM      8  C6  UNL A   1       1.322   6.279  -0.030  1.00  0.00    +0.000 C 
ATOM      9  C7  UNL A   1       1.336   6.899   1.222  1.00  0.00    +0.000 C 
ATOM    106  H7  UNL A   1       1.878   1.921  -1.296  1.00  0.00    +0.000 H 
ATOM     11  C9  UNL A   1       1.501   4.751   2.337  1.00  0.00    +0.000 C 
ATOM     12  C10 UNL A   1       1.495   4.097   1.087  1.00  0.00    +0.000 C 
ATOM     10  C8  UNL A   1       1.442   6.149   2.390  1.00  0.00    +0.000 C 
ATOM    107  H8  UNL A   1       1.497   4.306  -2.079  1.00  0.00    +0.000 H 
ATOM    111  H12 UNL A   1       1.548   4.202   3.209  1.00  0.00    +0.000 H 
ATOM    108  H9  UNL A   1       1.232   6.829  -0.899  1.00  0.00    +0.000 H 
ATOM    110  H11 UNL A   1       1.477   6.628   3.303  1.00  0.00    +0.000 H 
ATOM    109  H10 UNL A   1       1.266   7.927   1.281  1.00  0.00    +0.000 H 
ENDBRANCH    3    4
ENDBRANCH    2    3
ENDBRANCH   13    2
ENDBRANCH   15   13
ENDBRANCH   16   15
BRANCH   16   17
ATOM     17  C13 UNL A   1      -1.816   1.459  -1.832  1.00  0.00    +0.000 C 
ATOM    114  H15 UNL A   1      -0.869   1.394  -2.325  1.00  0.00    +0.000 H 
ATOM    115  H16 UNL A   1      -2.402   2.321  -2.072  1.00  0.00    +0.000 H 
BRANCH   17   18
ATOM     18  S1  UNL A   1      -2.822   0.047  -2.397  1.00  0.00    +0.000 S 
ATOM    116  H17 UNL A   1      -2.162  -1.113  -2.137  1.00  0.00    +0.000 H 
ENDBRANCH   17   18
ENDBRANCH   16   17
ENDBRANCH   19   16
ENDBRANCH   21   19
ENDBRANCH   22   21
BRANCH   22   23
ATOM    119  H20 UNL A   1      -4.975   1.775   1.310  1.00  0.00    +0.000 H 
ATOM     23  C16 UNL A   1      -5.336   2.661   0.831  1.00  0.00    +0.000 C 
ATOM    120  H21 UNL A   1      -6.349   2.545   0.505  1.00  0.00    +0.000 H 
BRANCH   23   24
ATOM    121  H22 UNL A   1      -4.391   3.863   2.081  1.00  0.00    +0.000 H 
ATOM     24  O3  UNL A   1      -5.300   3.736   1.769  1.00  0.00    +0.000 O 
ENDBRANCH   23   24
ENDBRANCH   22   23
ENDBRANCH   25   22
ENDBRANCH   27   25
ENDBRANCH   28   27
ENDBRANCH   29   28
ENDBRANCH   30   29
ENDBRANCH   31   30
ENDBRANCH   32   31
ENDBRANCH   33   32
ENDBRANCH   34   33
ENDBRANCH   35   34
ENDBRANCH   37   35
ENDBRANCH   41   40
BRANCH   45   46
ATOM     46  C33 UNL A   1      -3.024  18.746   6.816  1.00  0.00    +0.000 C 
ATOM     47  C34 UNL A   1      -3.183  19.792   5.893  1.00  0.00    +0.000 C 
ATOM     48  F1  UNL A   1      -4.388  20.048   5.363  1.00  0.00    +0.000 F 
ATOM     49  C35 UNL A   1      -2.093  20.555   5.481  1.00  0.00    +0.000 C 
ATOM     50  F2  UNL A   1      -2.261  21.517   4.563  1.00  0.00    +0.000 F 
ATOM     51  C36 UNL A   1      -0.834  20.313   6.008  1.00  0.00    +0.000 C 
ATOM     52  F3  UNL A   1       0.212  21.052   5.615  1.00  0.00    +0.000 F 
ATOM     53  C37 UNL A   1      -0.658  19.298   6.936  1.00  0.00    +0.000 C 
ATOM     54  F4  UNL A   1       0.557  19.069   7.455  1.00  0.00    +0.000 F 
ATOM     55  C38 UNL A   1      -1.740  18.514   7.329  1.00  0.00    +0.000 C 
ATOM     56  F5  UNL A   1      -1.534  17.529   8.217  1.00  0.00    +0.000 F 
ENDBRANCH   45   46
BRANCH   62   63
ATOM     65  F6  UNL A   1      -5.970  15.759  13.765  1.00  0.00    +0.000 F 
ATOM     66  C46 UNL A   1      -6.472  17.545  15.214  1.00  0.00    +0.000 C 
ATOM     67  F7  UNL A   1      -6.077  16.806  16.260  1.00  0.00    +0.000 F 
ATOM     68  C47 UNL A   1      -6.942  18.834  15.415  1.00  0.00    +0.000 C 
ATOM     69  F8  UNL A   1      -6.982  19.349  16.652  1.00  0.00    +0.000 F 
ATOM     70  C48 UNL A   1      -7.377  19.588  14.336  1.00  0.00    +0.000 C 
ATOM     71  F9  UNL A   1      -7.819  20.838  14.527  1.00  0.00    +0.000 F 
ATOM     72  C49 UNL A   1      -7.357  19.047  13.054  1.00  0.00    +0.000 C 
ATOM     73  F10 UNL A   1      -7.796  19.794  12.030  1.00  0.00    +0.000 F 
ATOM     63  C44 UNL A   1      -6.877  17.748  12.826  1.00  0.00    +0.000 C 
ATOM     64  C45 UNL A   1      -6.423  17.011  13.930  1.00  0.00    +0.000 C 
ENDBRANCH   62   63
BRANCH   77   78
ATOM     78  C53 UNL A   1     -10.554  12.798   9.587  1.00  0.00    +0.000 C 
ATOM     79  C54 UNL A   1     -11.826  13.304   9.891  1.00  0.00    +0.000 C 
ATOM     80  F11 UNL A   1     -12.056  14.623   9.814  1.00  0.00    +0.000 F 
ATOM     81  C55 UNL A   1     -12.853  12.464  10.314  1.00  0.00    +0.000 C 
ATOM     82  F12 UNL A   1     -14.046  12.979  10.641  1.00  0.00    +0.000 F 
ATOM     83  C56 UNL A   1     -12.637  11.097  10.413  1.00  0.00    +0.000 C 
ATOM     84  F13 UNL A   1     -13.626  10.289  10.817  1.00  0.00    +0.000 F 
ATOM     85  C57 UNL A   1     -11.393  10.572  10.100  1.00  0.00    +0.000 C 
ATOM     86  F14 UNL A   1     -11.184   9.250  10.181  1.00  0.00    +0.000 F 
ATOM     87  C58 UNL A   1     -10.357  11.415   9.702  1.00  0.00    +0.000 C 
ATOM     88  F15 UNL A   1      -9.161  10.880   9.416  1.00  0.00    +0.000 F 
ENDBRANCH   77   78
TORSDOF 28