ROOT
ATOM    129  H35 UNL A   1       2.374   8.318  12.756  1.00  0.00    +0.000 H 
ATOM    130  H36 UNL A   1       3.479   7.997  10.469  1.00  0.00    +0.000 H 
ATOM     36  C27 UNL A   1       2.625   9.883   8.510  1.00  0.00    +0.000 C 
ATOM     37  C28 UNL A   1       2.273   9.850   9.970  1.00  0.00    +0.000 C 
ATOM     38  N4  UNL A   1       1.513  10.668  10.657  1.00  0.00    +0.000 N 
ATOM     39  C29 UNL A   1       1.487  10.165  11.951  1.00  0.00    +0.000 C 
ATOM     40  C30 UNL A   1       0.885  10.685  13.049  1.00  0.00    +0.000 C 
ATOM     52  C37 UNL A   1       0.127  11.910  13.055  1.00  0.00    +0.000 C 
ATOM     53  C38 UNL A   1      -0.452  12.562  14.130  1.00  0.00    +0.000 C 
ATOM     54  C39 UNL A   1      -1.139  13.682  13.646  1.00  0.00    +0.000 C 
ATOM     55  C40 UNL A   1      -0.945  13.757  12.276  1.00  0.00    +0.000 C 
ATOM     56  N5  UNL A   1      -0.167  12.663  11.927  1.00  0.00    +0.000 N 
ATOM     57  C41 UNL A   1      -1.432  14.749  11.351  1.00  0.00    +0.000 C 
ATOM     69  C48 UNL A   1      -1.165  14.768  10.021  1.00  0.00    +0.000 C 
ATOM     70  N6  UNL A   1      -0.409  13.878   9.270  1.00  0.00    +0.000 N 
ATOM     71  C49 UNL A   1      -0.468  14.310   8.034  1.00  0.00    +0.000 C 
ATOM     72  C50 UNL A   1       0.184  13.751   6.800  1.00  0.00    +0.000 C 
ATOM     84  C57 UNL A   1       0.941  12.642   6.901  1.00  0.00    +0.000 C 
ATOM     85  C58 UNL A   1       1.651  12.001   5.799  1.00  0.00    +0.000 C 
ATOM     86  C59 UNL A   1       2.304  10.926   6.266  1.00  0.00    +0.000 C 
ATOM     87  C60 UNL A   1       2.085  10.822   7.710  1.00  0.00    +0.000 C 
ATOM     88  N7  UNL A   1       1.241  11.867   7.994  1.00  0.00    +0.000 N 
ATOM     89  C61 UNL A   1      -1.287  15.517   7.857  1.00  0.00    +0.000 C 
ATOM     90  C62 UNL A   1      -1.652  15.778   9.104  1.00  0.00    +0.000 C 
ATOM     91  C63 UNL A   1       2.267   8.946  11.944  1.00  0.00    +0.000 C 
ATOM     92  C64 UNL A   1       2.826   8.741  10.760  1.00  0.00    +0.000 C 
ATOM    121  H27 UNL A   1      -0.389  12.273  15.119  1.00  0.00    +0.000 H 
ATOM    122  H28 UNL A   1      -1.695  14.340  14.213  1.00  0.00    +0.000 H 
ATOM    123  H29 UNL A   1       0.134  12.452  11.014  1.00  0.00    +0.000 H 
ATOM    124  H30 UNL A   1       1.650  12.322   4.818  1.00  0.00    +0.000 H 
ATOM    125  H31 UNL A   1       2.871  10.277   5.699  1.00  0.00    +0.000 H 
ATOM    126  H32 UNL A   1       0.886  12.043   8.895  1.00  0.00    +0.000 H 
ATOM    127  H33 UNL A   1      -1.517  16.027   6.990  1.00  0.00    +0.000 H 
ATOM    128  H34 UNL A   1      -2.212  16.598   9.386  1.00  0.00    +0.000 H 
ENDROOT
BRANCH   36   35
ATOM     33  C24 UNL A   1       5.586   8.273   6.771  1.00  0.00    +0.000 C 
ATOM     34  C25 UNL A   1       4.782   9.222   7.408  1.00  0.00    +0.000 C 
ATOM     35  C26 UNL A   1       3.525   8.860   7.919  1.00  0.00    +0.000 C 
ATOM    132  H38 UNL A   1       3.672   5.566   7.267  1.00  0.00    +0.000 H 
ATOM    131  H37 UNL A   1       2.196   7.242   8.211  1.00  0.00    +0.000 H 
ATOM    119  H25 UNL A   1       6.496   8.552   6.373  1.00  0.00    +0.000 H 
ATOM    120  H26 UNL A   1       5.114  10.194   7.503  1.00  0.00    +0.000 H 
ATOM     93  C65 UNL A   1       3.117   7.520   7.840  1.00  0.00    +0.000 C 
ATOM     94  C66 UNL A   1       3.949   6.561   7.261  1.00  0.00    +0.000 C 
ATOM     32  C23 UNL A   1       5.157   6.945   6.672  1.00  0.00    +0.000 C 
BRANCH   32   30
ATOM     30  C22 UNL A   1       6.033   5.976   5.971  1.00  0.00    +0.000 C 
ATOM     31  O2  UNL A   1       7.246   6.043   6.120  1.00  0.00    +0.000 O 
BRANCH   30   29
ATOM     29  N3  UNL A   1       5.501   5.023   5.137  1.00  0.00    +0.000 N 
ATOM    118  H24 UNL A   1       6.146   4.361   4.798  1.00  0.00    +0.000 H 
BRANCH   29   28
ATOM    116  H22 UNL A   1       3.688   4.046   5.239  1.00  0.00    +0.000 H 
ATOM     28  C21 UNL A   1       4.135   4.839   4.677  1.00  0.00    +0.000 C 
ATOM    117  H23 UNL A   1       3.619   5.766   4.820  1.00  0.00    +0.000 H 
BRANCH   28   27
ATOM    114  H20 UNL A   1       3.019   4.420   2.927  1.00  0.00    +0.000 H 
ATOM     27  C20 UNL A   1       4.053   4.492   3.192  1.00  0.00    +0.000 C 
ATOM    115  H21 UNL A   1       4.577   5.271   2.678  1.00  0.00    +0.000 H 
BRANCH   27   26
ATOM    113  H19 UNL A   1       5.766   3.300   3.058  1.00  0.00    +0.000 H 
ATOM     26  C19 UNL A   1       4.738   3.184   2.785  1.00  0.00    +0.000 C 
ATOM    112  H18 UNL A   1       4.576   3.042   1.737  1.00  0.00    +0.000 H 
BRANCH   26   25
ATOM     25  C18 UNL A   1       4.260   1.923   3.506  1.00  0.00    +0.000 C 
ATOM    110  H16 UNL A   1       4.763   1.087   3.067  1.00  0.00    +0.000 H 
ATOM    111  H17 UNL A   1       4.487   2.086   4.539  1.00  0.00    +0.000 H 
BRANCH   25   24
ATOM    108  H14 UNL A   1       2.581   0.728   4.001  1.00  0.00    +0.000 H 
ATOM    109  H15 UNL A   1       2.289   2.499   3.890  1.00  0.00    +0.000 H 
ATOM     24  C17 UNL A   1       2.755   1.636   3.463  1.00  0.00    +0.000 C 
BRANCH   24   23
ATOM    106  H12 UNL A   1       1.110   1.195   2.195  1.00  0.00    +0.000 H 
ATOM    107  H13 UNL A   1       2.235   2.423   1.579  1.00  0.00    +0.000 H 
ATOM     23  C16 UNL A   1       2.134   1.482   2.078  1.00  0.00    +0.000 C 
BRANCH   23   22
ATOM    105  H11 UNL A   1       3.727   0.225   1.458  1.00  0.00    +0.000 H 
ATOM     22  N2  UNL A   1       2.800   0.488   1.260  1.00  0.00    +0.000 N 
BRANCH   22    2
ATOM      1  O1  UNL A   1       0.937   0.112  -0.036  1.00  0.00    +0.000 O 
ATOM      2  C1  UNL A   1       2.127  -0.087   0.200  1.00  0.00    +0.000 C 
BRANCH    2    3
ATOM      3  C2  UNL A   1       2.983  -0.933  -0.711  1.00  0.00    +0.000 C 
ATOM     95  H1  UNL A   1       2.327  -1.576  -1.259  1.00  0.00    +0.000 H 
ATOM     96  H2  UNL A   1       3.671  -1.425  -0.055  1.00  0.00    +0.000 H 
BRANCH    3    4
ATOM     97  H3  UNL A   1       4.839  -2.054  -2.131  1.00  0.00    +0.000 H 
ATOM     98  H4  UNL A   1       6.413  -1.168  -3.735  1.00  0.00    +0.000 H 
ATOM     99  H5  UNL A   1       6.439   1.211  -4.198  1.00  0.00    +0.000 H 
ATOM      4  C3  UNL A   1       3.865  -0.217  -1.722  1.00  0.00    +0.000 C 
ATOM      5  C4  UNL A   1       4.822  -1.047  -2.354  1.00  0.00    +0.000 C 
ATOM      6  C5  UNL A   1       5.740  -0.539  -3.269  1.00  0.00    +0.000 C 
ATOM    100  H6  UNL A   1       4.831   2.666  -3.136  1.00  0.00    +0.000 H 
ATOM      8  C7  UNL A   1       4.797   1.652  -2.946  1.00  0.00    +0.000 C 
ATOM      9  C8  UNL A   1       3.799   1.149  -2.089  1.00  0.00    +0.000 C 
ATOM      7  C6  UNL A   1       5.742   0.818  -3.548  1.00  0.00    +0.000 C 
BRANCH    9   10
ATOM     10  N1  UNL A   1       2.842   2.031  -1.523  1.00  0.00    +0.000 N 
ATOM    101  H7  UNL A   1       2.312   1.668  -0.777  1.00  0.00    +0.000 H 
BRANCH   10   11
ATOM    102  H8  UNL A   1       2.440   6.403  -0.395  1.00  0.00    +0.000 H 
ATOM    103  H9  UNL A   1       1.534   7.037  -2.556  1.00  0.00    +0.000 H 
ATOM    104  H10 UNL A   1       1.254   5.358  -4.274  1.00  0.00    +0.000 H 
ATOM     11  C9  UNL A   1       2.552   3.371  -1.895  1.00  0.00    +0.000 C 
ATOM     12  C10 UNL A   1       2.682   4.373  -0.913  1.00  0.00    +0.000 C 
ATOM     13  F1  UNL A   1       3.174   4.065   0.293  1.00  0.00    +0.000 F 
ATOM     14  C11 UNL A   1       2.321   5.697  -1.138  1.00  0.00    +0.000 C 
ATOM     15  C12 UNL A   1       1.800   6.058  -2.369  1.00  0.00    +0.000 C 
ATOM     16  C13 UNL A   1       1.637   5.084  -3.356  1.00  0.00    +0.000 C 
ATOM     17  C14 UNL A   1       1.982   3.730  -3.129  1.00  0.00    +0.000 C 
ATOM     18  C15 UNL A   1       1.740   2.741  -4.242  1.00  0.00    +0.000 C 
ATOM     19  F2  UNL A   1       0.713   3.125  -5.059  1.00  0.00    +0.000 F 
ATOM     20  F3  UNL A   1       2.818   2.611  -5.065  1.00  0.00    +0.000 F 
ATOM     21  F4  UNL A   1       1.408   1.489  -3.828  1.00  0.00    +0.000 F 
ENDBRANCH   10   11
ENDBRANCH    9   10
ENDBRANCH    3    4
ENDBRANCH    2    3
ENDBRANCH   22    2
ENDBRANCH   23   22
ENDBRANCH   24   23
ENDBRANCH   25   24
ENDBRANCH   26   25
ENDBRANCH   27   26
ENDBRANCH   28   27
ENDBRANCH   29   28
ENDBRANCH   30   29
ENDBRANCH   32   30
ENDBRANCH   36   35
BRANCH   40   41
ATOM     41  C31 UNL A   1       1.018   9.923  14.337  1.00  0.00    +0.000 C 
ATOM     42  C32 UNL A   1       2.243   9.827  15.015  1.00  0.00    +0.000 C 
ATOM     43  F5  UNL A   1       3.345  10.395  14.502  1.00  0.00    +0.000 F 
ATOM     44  C33 UNL A   1       2.352   9.108  16.203  1.00  0.00    +0.000 C 
ATOM     45  F6  UNL A   1       3.544   8.985  16.803  1.00  0.00    +0.000 F 
ATOM     46  C34 UNL A   1       1.233   8.506  16.758  1.00  0.00    +0.000 C 
ATOM     47  F7  UNL A   1       1.339   7.817  17.902  1.00  0.00    +0.000 F 
ATOM     48  C35 UNL A   1       0.006   8.611  16.120  1.00  0.00    +0.000 C 
ATOM     49  F8  UNL A   1      -1.079   8.041  16.662  1.00  0.00    +0.000 F 
ATOM     50  C36 UNL A   1      -0.100   9.303  14.916  1.00  0.00    +0.000 C 
ATOM     51  F9  UNL A   1      -1.297   9.369  14.315  1.00  0.00    +0.000 F 
ENDBRANCH   40   41
BRANCH   57   58
ATOM     65  C46 UNL A   1      -2.497  17.884  13.230  1.00  0.00    +0.000 C 
ATOM     66  F13 UNL A   1      -1.942  18.805  14.031  1.00  0.00    +0.000 F 
ATOM     67  C47 UNL A   1      -1.718  16.850  12.717  1.00  0.00    +0.000 C 
ATOM     68  F14 UNL A   1      -0.415  16.809  13.031  1.00  0.00    +0.000 F 
ATOM     58  C42 UNL A   1      -2.280  15.865  11.891  1.00  0.00    +0.000 C 
ATOM     59  C43 UNL A   1      -3.649  15.954  11.600  1.00  0.00    +0.000 C 
ATOM     60  F10 UNL A   1      -4.230  15.047  10.801  1.00  0.00    +0.000 F 
ATOM     61  C44 UNL A   1      -4.418  17.008  12.089  1.00  0.00    +0.000 C 
ATOM     62  F11 UNL A   1      -5.711  17.104  11.750  1.00  0.00    +0.000 F 
ATOM     63  C45 UNL A   1      -3.843  17.968  12.907  1.00  0.00    +0.000 C 
ATOM     64  F12 UNL A   1      -4.584  18.981  13.377  1.00  0.00    +0.000 F 
ENDBRANCH   57   58
BRANCH   72   73
ATOM     73  C51 UNL A   1       0.037  14.428   5.486  1.00  0.00    +0.000 C 
ATOM     74  C52 UNL A   1       0.641  15.671   5.250  1.00  0.00    +0.000 C 
ATOM     75  F15 UNL A   1       1.334  16.274   6.227  1.00  0.00    +0.000 F 
ATOM     76  C53 UNL A   1       0.506  16.314   4.022  1.00  0.00    +0.000 C 
ATOM     77  F16 UNL A   1       1.061  17.519   3.835  1.00  0.00    +0.000 F 
ATOM     78  C54 UNL A   1      -0.212  15.715   2.998  1.00  0.00    +0.000 C 
ATOM     79  F17 UNL A   1      -0.334  16.330   1.814  1.00  0.00    +0.000 F 
ATOM     80  C55 UNL A   1      -0.807  14.480   3.204  1.00  0.00    +0.000 C 
ATOM     81  F18 UNL A   1      -1.488  13.891   2.212  1.00  0.00    +0.000 F 
ATOM     82  C56 UNL A   1      -0.695  13.848   4.441  1.00  0.00    +0.000 C 
ATOM     83  F19 UNL A   1      -1.288  12.657   4.615  1.00  0.00    +0.000 F 
ENDBRANCH   72   73
TORSDOF 18