ROOT
ATOM    136  H33 UNL A   1       9.411 -10.374  -2.879  1.00  0.00    +0.000 H 
ATOM    137  H34 UNL A   1       9.915 -11.903  -0.828  1.00  0.00    +0.000 H 
ATOM    138  H35 UNL A   1       7.586  -8.729   0.455  1.00  0.00    +0.000 H 
ATOM    139  H36 UNL A   1       4.780  -5.535   5.205  1.00  0.00    +0.000 H 
ATOM    140  H37 UNL A   1       4.118  -4.161   3.175  1.00  0.00    +0.000 H 
ATOM    141  H38 UNL A   1       6.479  -7.316   1.853  1.00  0.00    +0.000 H 
ATOM    142  H39 UNL A   1       7.409 -10.120   5.918  1.00  0.00    +0.000 H 
ATOM    143  H40 UNL A   1       8.802 -11.632   4.393  1.00  0.00    +0.000 H 
ATOM    144  H41 UNL A   1       6.440  -5.949  -3.565  1.00  0.00    +0.000 H 
ATOM    145  H42 UNL A   1       5.272  -4.275  -2.018  1.00  0.00    +0.000 H 
ATOM     45  C32 UNL A   1       5.233  -5.077   0.721  1.00  0.00    +0.000 C 
ATOM     46  C33 UNL A   1       5.888  -5.777  -0.434  1.00  0.00    +0.000 C 
ATOM     47  N9  UNL A   1       6.583  -6.888  -0.438  1.00  0.00    +0.000 N 
ATOM     48  C34 UNL A   1       6.943  -7.108  -1.761  1.00  0.00    +0.000 C 
ATOM     49  C35 UNL A   1       7.690  -8.115  -2.274  1.00  0.00    +0.000 C 
ATOM     61  C42 UNL A   1       8.271  -9.178  -1.492  1.00  0.00    +0.000 C 
ATOM     62  C43 UNL A   1       9.077 -10.221  -1.915  1.00  0.00    +0.000 C 
ATOM     63  C44 UNL A   1       9.361 -11.033  -0.811  1.00  0.00    +0.000 C 
ATOM     64  C45 UNL A   1       8.771 -10.470   0.309  1.00  0.00    +0.000 C 
ATOM     65  N10 UNL A   1       8.103  -9.334  -0.123  1.00  0.00    +0.000 N 
ATOM     66  C46 UNL A   1       8.811 -10.935   1.672  1.00  0.00    +0.000 C 
ATOM     78  C53 UNL A   1       8.229 -10.311   2.726  1.00  0.00    +0.000 C 
ATOM     79  N11 UNL A   1       7.486  -9.141   2.743  1.00  0.00    +0.000 N 
ATOM     80  C54 UNL A   1       7.122  -8.965   3.989  1.00  0.00    +0.000 C 
ATOM     81  C55 UNL A   1       6.311  -7.854   4.589  1.00  0.00    +0.000 C 
ATOM     93  C62 UNL A   1       5.847  -6.877   3.789  1.00  0.00    +0.000 C 
ATOM     94  C63 UNL A   1       5.046  -5.740   4.229  1.00  0.00    +0.000 C 
ATOM     95  C64 UNL A   1       4.712  -5.005   3.159  1.00  0.00    +0.000 C 
ATOM     96  C65 UNL A   1       5.324  -5.589   1.964  1.00  0.00    +0.000 C 
ATOM     97  N12 UNL A   1       5.972  -6.702   2.433  1.00  0.00    +0.000 N 
ATOM     98  C66 UNL A   1       7.583 -10.015   4.906  1.00  0.00    +0.000 C 
ATOM     99  C67 UNL A   1       8.284 -10.791   4.092  1.00  0.00    +0.000 C 
ATOM    100  C68 UNL A   1       6.369  -6.029  -2.538  1.00  0.00    +0.000 C 
ATOM    101  C69 UNL A   1       5.741  -5.157  -1.760  1.00  0.00    +0.000 C 
ENDROOT
BRANCH   45   44
ATOM    102  C70 UNL A   1       3.282  -3.759  -0.171  1.00  0.00    +0.000 C 
ATOM    103  C71 UNL A   1       2.593  -2.551  -0.311  1.00  0.00    +0.000 C 
ATOM    134  H31 UNL A   1       4.568  -0.614   1.584  1.00  0.00    +0.000 H 
ATOM     41  C28 UNL A   1       3.092  -1.390   0.289  1.00  0.00    +0.000 C 
ATOM     42  C29 UNL A   1       4.252  -1.448   1.065  1.00  0.00    +0.000 C 
ATOM     43  C30 UNL A   1       4.979  -2.631   1.138  1.00  0.00    +0.000 C 
ATOM    135  H32 UNL A   1       5.881  -2.649   1.639  1.00  0.00    +0.000 H 
ATOM     44  C31 UNL A   1       4.493  -3.803   0.534  1.00  0.00    +0.000 C 
ATOM    146  H43 UNL A   1       2.898  -4.621  -0.589  1.00  0.00    +0.000 H 
ATOM    147  H44 UNL A   1       1.716  -2.515  -0.855  1.00  0.00    +0.000 H 
BRANCH   41    2
ATOM      1  O1  UNL A   1       1.141  -0.094   0.185  1.00  0.00    +0.000 O 
ATOM      2  C1  UNL A   1       2.366  -0.115   0.099  1.00  0.00    +0.000 C 
BRANCH    2    3
ATOM      3  N1  UNL A   1       3.059   1.032  -0.199  1.00  0.00    +0.000 N 
ATOM    104  H1  UNL A   1       2.521   1.856  -0.232  1.00  0.00    +0.000 H 
BRANCH    3    4
ATOM    105  H2  UNL A   1       4.918   0.235  -0.595  1.00  0.00    +0.000 H 
ATOM    106  H3  UNL A   1       4.899   1.734   0.353  1.00  0.00    +0.000 H 
ATOM      4  C2  UNL A   1       4.476   1.202  -0.473  1.00  0.00    +0.000 C 
BRANCH    4    5
ATOM    107  H4  UNL A   1       4.261   1.537  -2.549  1.00  0.00    +0.000 H 
ATOM    108  H5  UNL A   1       5.813   2.066  -1.824  1.00  0.00    +0.000 H 
ATOM      5  C3  UNL A   1       4.748   2.021  -1.728  1.00  0.00    +0.000 C 
BRANCH    5    6
ATOM    110  H7  UNL A   1       4.692   3.941  -2.549  1.00  0.00    +0.000 H 
ATOM    109  H6  UNL A   1       3.200   3.463  -1.671  1.00  0.00    +0.000 H 
ATOM      6  C4  UNL A   1       4.270   3.471  -1.685  1.00  0.00    +0.000 C 
BRANCH    6    7
ATOM    111  H8  UNL A   1       4.277   3.906   0.389  1.00  0.00    +0.000 H 
ATOM      7  C5  UNL A   1       4.748   4.299  -0.488  1.00  0.00    +0.000 C 
ATOM    112  H9  UNL A   1       4.483   5.310  -0.716  1.00  0.00    +0.000 H 
BRANCH    7    8
ATOM    113  H10 UNL A   1       6.559   3.330   0.044  1.00  0.00    +0.000 H 
ATOM    114  H11 UNL A   1       6.420   5.055   0.522  1.00  0.00    +0.000 H 
ATOM      8  C6  UNL A   1       6.260   4.318  -0.238  1.00  0.00    +0.000 C 
BRANCH    8    9
ATOM      9  C7  UNL A   1       7.123   4.749  -1.421  1.00  0.00    +0.000 C 
ATOM    115  H12 UNL A   1       6.959   4.069  -2.231  1.00  0.00    +0.000 H 
ATOM    116  H13 UNL A   1       8.143   4.740  -1.100  1.00  0.00    +0.000 H 
BRANCH    9   10
ATOM     10  N2  UNL A   1       6.815   6.094  -1.874  1.00  0.00    +0.000 N 
ATOM    117  H14 UNL A   1       5.862   6.340  -1.864  1.00  0.00    +0.000 H 
BRANCH   10   11
ATOM     11  C8  UNL A   1       7.676   7.068  -2.314  1.00  0.00    +0.000 C 
ATOM     12  O2  UNL A   1       7.240   8.148  -2.705  1.00  0.00    +0.000 O 
BRANCH   11   13
ATOM     13  C9  UNL A   1       9.137   6.846  -2.288  1.00  0.00    +0.000 C 
ATOM     14  C10 UNL A   1       9.890   7.718  -1.489  1.00  0.00    +0.000 C 
ATOM     15  C11 UNL A   1      11.273   7.572  -1.411  1.00  0.00    +0.000 C 
ATOM     16  C12 UNL A   1      11.900   6.555  -2.123  1.00  0.00    +0.000 C 
ATOM     17  C13 UNL A   1      11.150   5.696  -2.934  1.00  0.00    +0.000 C 
ATOM     18  C14 UNL A   1       9.759   5.841  -3.057  1.00  0.00    +0.000 C 
ATOM    118  H15 UNL A   1       9.420   8.468  -0.959  1.00  0.00    +0.000 H 
ATOM    119  H16 UNL A   1      11.829   8.216  -0.827  1.00  0.00    +0.000 H 
ATOM    120  H17 UNL A   1      12.923   6.434  -2.054  1.00  0.00    +0.000 H 
ATOM    121  H18 UNL A   1      11.629   4.942  -3.451  1.00  0.00    +0.000 H 
BRANCH   18   19
ATOM    122  H19 UNL A   1       8.100   5.365  -4.149  1.00  0.00    +0.000 H 
ATOM     19  N3  UNL A   1       9.006   5.041  -3.943  1.00  0.00    +0.000 N 
BRANCH   19   20
ATOM     40  N8  UNL A   1       9.058   3.742  -5.848  1.00  0.00    +0.000 N 
ATOM     20  C15 UNL A   1       9.382   3.852  -4.565  1.00  0.00    +0.000 C 
ATOM     21  N4  UNL A   1       9.997   2.909  -3.871  1.00  0.00    +0.000 N 
ATOM     22  C16 UNL A   1      10.259   1.821  -4.575  1.00  0.00    +0.000 C 
ATOM     23 Cl1  UNL A   1      11.051   0.560  -3.737  1.00  0.00    +0.000 Cl
ATOM     24  N5  UNL A   1      10.005   1.603  -5.852  1.00  0.00    +0.000 N 
ATOM     25  C17 UNL A   1       9.412   2.616  -6.461  1.00  0.00    +0.000 C 
BRANCH   25   26
ATOM     26  N6  UNL A   1       9.185   2.594  -7.842  1.00  0.00    +0.000 N 
ATOM    123  H20 UNL A   1       8.527   3.231  -8.203  1.00  0.00    +0.000 H 
BRANCH   26   27
ATOM    132  H29 UNL A   1      10.002  -1.504  -9.615  1.00  0.00    +0.000 H 
ATOM    133  H30 UNL A   1       8.889  -0.024  -8.060  1.00  0.00    +0.000 H 
ATOM     38  C26 UNL A   1      10.232  -0.497  -9.614  1.00  0.00    +0.000 C 
ATOM     39  C27 UNL A   1       9.569   0.362  -8.733  1.00  0.00    +0.000 C 
ATOM    124  H21 UNL A   1      10.992   3.239  -9.652  1.00  0.00    +0.000 H 
ATOM    125  H22 UNL A   1      12.213   1.739 -11.111  1.00  0.00    +0.000 H 
ATOM     27  C18 UNL A   1       9.818   1.735  -8.753  1.00  0.00    +0.000 C 
ATOM     28  C19 UNL A   1      10.788   2.228  -9.632  1.00  0.00    +0.000 C 
ATOM     29  C20 UNL A   1      11.484   1.363 -10.484  1.00  0.00    +0.000 C 
ATOM     30  C21 UNL A   1      11.202  -0.009 -10.495  1.00  0.00    +0.000 C 
BRANCH   30   31
ATOM     33  C23 UNL A   1      14.071  -1.595 -12.406  1.00  0.00    +0.000 C 
ATOM    129  H26 UNL A   1      13.848  -1.123 -13.341  1.00  0.00    +0.000 H 
ATOM     35  C24 UNL A   1      12.212  -2.963 -12.708  1.00  0.00    +0.000 C 
ATOM     36  C25 UNL A   1      11.290  -2.004 -11.933  1.00  0.00    +0.000 C 
ATOM     37  O4  UNL A   1      10.072  -2.195 -11.941  1.00  0.00    +0.000 O 
ATOM     34  O3  UNL A   1      13.601  -2.939 -12.425  1.00  0.00    +0.000 O 
ATOM    130  H27 UNL A   1      11.867  -3.957 -12.516  1.00  0.00    +0.000 H 
ATOM    131  H28 UNL A   1      12.145  -2.629 -13.722  1.00  0.00    +0.000 H 
ATOM    127  H24 UNL A   1      13.679   0.185 -11.348  1.00  0.00    +0.000 H 
ATOM    128  H25 UNL A   1      15.130  -1.588 -12.251  1.00  0.00    +0.000 H 
ATOM    126  H23 UNL A   1      13.682  -1.277 -10.345  1.00  0.00    +0.000 H 
ATOM     31  N7  UNL A   1      11.918  -0.885 -11.365  1.00  0.00    +0.000 N 
ATOM     32  C22 UNL A   1      13.384  -0.841 -11.275  1.00  0.00    +0.000 C 
ENDBRANCH   30   31
ENDBRANCH   26   27
ENDBRANCH   25   26
ENDBRANCH   19   20
ENDBRANCH   18   19
ENDBRANCH   11   13
ENDBRANCH   10   11
ENDBRANCH    9   10
ENDBRANCH    8    9
ENDBRANCH    7    8
ENDBRANCH    6    7
ENDBRANCH    5    6
ENDBRANCH    4    5
ENDBRANCH    3    4
ENDBRANCH    2    3
ENDBRANCH   41    2
ENDBRANCH   45   44
BRANCH   49   50
ATOM     50  C36 UNL A   1       7.918  -8.131  -3.758  1.00  0.00    +0.000 C 
ATOM     51  C37 UNL A   1       8.781  -7.216  -4.380  1.00  0.00    +0.000 C 
ATOM     52  F1  UNL A   1       9.378  -6.254  -3.661  1.00  0.00    +0.000 F 
ATOM     53  C38 UNL A   1       9.014  -7.271  -5.753  1.00  0.00    +0.000 C 
ATOM     54  F2  UNL A   1       9.817  -6.366  -6.331  1.00  0.00    +0.000 F 
ATOM     55  C39 UNL A   1       8.415  -8.256  -6.523  1.00  0.00    +0.000 C 
ATOM     56  F3  UNL A   1       8.650  -8.315  -7.841  1.00  0.00    +0.000 F 
ATOM     57  C40 UNL A   1       7.569  -9.178  -5.927  1.00  0.00    +0.000 C 
ATOM     58  F4  UNL A   1       6.999 -10.140  -6.667  1.00  0.00    +0.000 F 
ATOM     59  C41 UNL A   1       7.314  -9.111  -4.560  1.00  0.00    +0.000 C 
ATOM     60  F5  UNL A   1       6.487 -10.015  -4.013  1.00  0.00    +0.000 F 
ENDBRANCH   49   50
BRANCH   66   67
ATOM     67  C47 UNL A   1       9.570 -12.195   1.964  1.00  0.00    +0.000 C 
ATOM     68  C48 UNL A   1       8.911 -13.391   2.284  1.00  0.00    +0.000 C 
ATOM     69  F6  UNL A   1       7.572 -13.420   2.373  1.00  0.00    +0.000 F 
ATOM     70  C49 UNL A   1       9.629 -14.551   2.558  1.00  0.00    +0.000 C 
ATOM     71  F7  UNL A   1       8.980 -15.670   2.911  1.00  0.00    +0.000 F 
ATOM     72  C50 UNL A   1      11.014 -14.546   2.486  1.00  0.00    +0.000 C 
ATOM     73  F8  UNL A   1      11.703 -15.665   2.750  1.00  0.00    +0.000 F 
ATOM     74  C51 UNL A   1      11.685 -13.380   2.152  1.00  0.00    +0.000 C 
ATOM     75  F9  UNL A   1      13.023 -13.376   2.073  1.00  0.00    +0.000 F 
ATOM     76  C52 UNL A   1      10.972 -12.211   1.903  1.00  0.00    +0.000 C 
ATOM     77  F10 UNL A   1      11.648 -11.093   1.599  1.00  0.00    +0.000 F 
ENDBRANCH   66   67
BRANCH   81   82
ATOM     82  C56 UNL A   1       6.014  -7.814   6.043  1.00  0.00    +0.000 C 
ATOM     83  C57 UNL A   1       7.025  -7.559   6.979  1.00  0.00    +0.000 C 
ATOM     84  F11 UNL A   1       8.290  -7.385   6.568  1.00  0.00    +0.000 F 
ATOM     85  C58 UNL A   1       6.746  -7.513   8.343  1.00  0.00    +0.000 C 
ATOM     86  F12 UNL A   1       7.737  -7.304   9.221  1.00  0.00    +0.000 F 
ATOM     87  C59 UNL A   1       5.446  -7.692   8.794  1.00  0.00    +0.000 C 
ATOM     88  F13 UNL A   1       5.177  -7.636  10.106  1.00  0.00    +0.000 F 
ATOM     89  C60 UNL A   1       4.428  -7.933   7.885  1.00  0.00    +0.000 C 
ATOM     90  F14 UNL A   1       3.168  -8.089   8.315  1.00  0.00    +0.000 F 
ATOM     91  C61 UNL A   1       4.711  -8.009   6.524  1.00  0.00    +0.000 C 
ATOM     92  F15 UNL A   1       3.708  -8.250   5.667  1.00  0.00    +0.000 F 
ENDBRANCH   81   82
TORSDOF 20