ROOT
ATOM    145  H40 UNL A   1       0.852 -18.178 -13.970  1.00  0.00    +0.000 H 
ATOM    146  H41 UNL A   1       1.597 -19.996 -15.685  1.00  0.00    +0.000 H 
ATOM    147  H42 UNL A   1       4.268 -20.020 -12.521  1.00  0.00    +0.000 H 
ATOM    148  H43 UNL A   1       9.575 -22.301  -9.824  1.00  0.00    +0.000 H 
ATOM    149  H44 UNL A   1       8.753 -20.653  -8.076  1.00  0.00    +0.000 H 
ATOM    150  H45 UNL A   1       6.063 -20.587 -11.244  1.00  0.00    +0.000 H 
ATOM    151  H46 UNL A   1       7.685 -24.056 -14.491  1.00  0.00    +0.000 H 
ATOM    152  H47 UNL A   1       5.728 -23.370 -15.993  1.00  0.00    +0.000 H 
ATOM    153  H48 UNL A   1       2.699 -16.636  -9.165  1.00  0.00    +0.000 H 
ATOM    154  H49 UNL A   1       4.790 -17.122  -7.768  1.00  0.00    +0.000 H 
ATOM     47  C34 UNL A   1       6.422 -19.204  -8.835  1.00  0.00    +0.000 C 
ATOM     48  C35 UNL A   1       5.173 -18.620  -9.426  1.00  0.00    +0.000 C 
ATOM     49  N6  UNL A   1       4.573 -18.926 -10.549  1.00  0.00    +0.000 N 
ATOM     50  C36 UNL A   1       3.450 -18.113 -10.615  1.00  0.00    +0.000 C 
ATOM     51  C37 UNL A   1       2.519 -18.041 -11.597  1.00  0.00    +0.000 C 
ATOM     63  C44 UNL A   1       2.546 -18.829 -12.803  1.00  0.00    +0.000 C 
ATOM     64  C45 UNL A   1       1.668 -18.803 -13.872  1.00  0.00    +0.000 C 
ATOM     65  C46 UNL A   1       2.075 -19.770 -14.799  1.00  0.00    +0.000 C 
ATOM     66  C47 UNL A   1       3.229 -20.372 -14.325  1.00  0.00    +0.000 C 
ATOM     67  N7  UNL A   1       3.505 -19.788 -13.098  1.00  0.00    +0.000 N 
ATOM     68  C48 UNL A   1       4.021 -21.403 -14.943  1.00  0.00    +0.000 C 
ATOM     80  C55 UNL A   1       5.158 -21.931 -14.427  1.00  0.00    +0.000 C 
ATOM     81  N8  UNL A   1       5.794 -21.629 -13.233  1.00  0.00    +0.000 N 
ATOM     82  C56 UNL A   1       6.835 -22.422 -13.170  1.00  0.00    +0.000 C 
ATOM     83  C57 UNL A   1       7.881 -22.525 -12.099  1.00  0.00    +0.000 C 
ATOM     95  C64 UNL A   1       7.784 -21.737 -11.014  1.00  0.00    +0.000 C 
ATOM     96  C65 UNL A   1       8.723 -21.724  -9.897  1.00  0.00    +0.000 C 
ATOM     97  C66 UNL A   1       8.297 -20.842  -8.982  1.00  0.00    +0.000 C 
ATOM     98  C67 UNL A   1       7.082 -20.189  -9.474  1.00  0.00    +0.000 C 
ATOM     99  N9  UNL A   1       6.839 -20.799 -10.677  1.00  0.00    +0.000 N 
ATOM    100  C68 UNL A   1       6.973 -23.329 -14.317  1.00  0.00    +0.000 C 
ATOM    101  C69 UNL A   1       5.943 -22.966 -15.068  1.00  0.00    +0.000 C 
ATOM    102  C70 UNL A   1       3.439 -17.312  -9.409  1.00  0.00    +0.000 C 
ATOM    103  C71 UNL A   1       4.505 -17.560  -8.658  1.00  0.00    +0.000 C 
ENDROOT
BRANCH   47   46
ATOM    104  C72 UNL A   1       6.319 -18.932  -6.336  1.00  0.00    +0.000 C 
ATOM    105  C73 UNL A   1       6.877 -18.475  -5.139  1.00  0.00    +0.000 C 
ATOM     43  C30 UNL A   1       8.112 -17.821  -5.155  1.00  0.00    +0.000 C 
ATOM     44  C31 UNL A   1       8.807 -17.657  -6.357  1.00  0.00    +0.000 C 
ATOM     45  C32 UNL A   1       8.217 -18.045  -7.555  1.00  0.00    +0.000 C 
ATOM     46  C33 UNL A   1       6.976 -18.701  -7.554  1.00  0.00    +0.000 C 
ATOM    143  H38 UNL A   1       9.754 -17.248  -6.356  1.00  0.00    +0.000 H 
ATOM    144  H39 UNL A   1       8.694 -17.850  -8.449  1.00  0.00    +0.000 H 
ATOM    155  H50 UNL A   1       5.421 -19.440  -6.324  1.00  0.00    +0.000 H 
ATOM    156  H51 UNL A   1       6.379 -18.621  -4.247  1.00  0.00    +0.000 H 
BRANCH   43    2
ATOM      1  O1  UNL A   1       8.623 -18.011  -2.873  1.00  0.00    +0.000 O 
ATOM      2  C1  UNL A   1       8.678 -17.319  -3.884  1.00  0.00    +0.000 C 
BRANCH    2    3
ATOM    106  H1  UNL A   1       9.792 -15.874  -3.047  1.00  0.00    +0.000 H 
ATOM      3  N1  UNL A   1       9.251 -16.073  -3.845  1.00  0.00    +0.000 N 
BRANCH    3    4
ATOM    108  H3  UNL A   1      10.145 -14.816  -5.200  1.00  0.00    +0.000 H 
ATOM    107  H2  UNL A   1       8.507 -15.323  -5.619  1.00  0.00    +0.000 H 
ATOM      4  C2  UNL A   1       9.160 -15.010  -4.831  1.00  0.00    +0.000 C 
BRANCH    4    5
ATOM    109  H4  UNL A   1       7.719 -13.950  -3.699  1.00  0.00    +0.000 H 
ATOM      5  C3  UNL A   1       8.620 -13.721  -4.229  1.00  0.00    +0.000 C 
ATOM    110  H5  UNL A   1       8.462 -13.045  -5.043  1.00  0.00    +0.000 H 
BRANCH    5    6
ATOM      6  C4  UNL A   1       9.581 -13.026  -3.263  1.00  0.00    +0.000 C 
ATOM    111  H6  UNL A   1       9.748 -13.681  -2.433  1.00  0.00    +0.000 H 
ATOM    112  H7  UNL A   1       9.114 -12.104  -2.989  1.00  0.00    +0.000 H 
BRANCH    6    7
ATOM    113  H8  UNL A   1      11.492 -13.561  -4.020  1.00  0.00    +0.000 H 
ATOM    114  H9  UNL A   1      11.406 -11.996  -3.154  1.00  0.00    +0.000 H 
ATOM      7  C5  UNL A   1      10.944 -12.656  -3.858  1.00  0.00    +0.000 C 
BRANCH    7    8
ATOM    115  H10 UNL A   1      10.489 -12.540  -5.936  1.00  0.00    +0.000 H 
ATOM    116  H11 UNL A   1      11.891 -11.579  -5.408  1.00  0.00    +0.000 H 
ATOM      8  C6  UNL A   1      10.891 -11.889  -5.188  1.00  0.00    +0.000 C 
BRANCH    8    9
ATOM      9  C7  UNL A   1      10.034 -10.624  -5.138  1.00  0.00    +0.000 C 
ATOM    117  H12 UNL A   1       9.056 -10.876  -4.785  1.00  0.00    +0.000 H 
ATOM    118  H13 UNL A   1       9.978 -10.208  -6.122  1.00  0.00    +0.000 H 
BRANCH    9   10
ATOM     10  N2  UNL A   1      10.621  -9.643  -4.250  1.00  0.00    +0.000 N 
ATOM    119  H14 UNL A   1      10.332  -9.682  -3.310  1.00  0.00    +0.000 H 
BRANCH   10   11
ATOM     11  C8  UNL A   1      11.526  -8.672  -4.560  1.00  0.00    +0.000 C 
ATOM     12  O2  UNL A   1      12.284  -8.282  -3.670  1.00  0.00    +0.000 O 
BRANCH   11   13
ATOM     13  C9  UNL A   1      11.596  -8.078  -5.974  1.00  0.00    +0.000 C 
ATOM    120  H15 UNL A   1      12.240  -7.224  -5.931  1.00  0.00    +0.000 H 
BRANCH   13   14
ATOM    121  H16 UNL A   1       9.552  -7.545  -5.609  1.00  0.00    +0.000 H 
ATOM    122  H17 UNL A   1       9.851  -8.204  -7.206  1.00  0.00    +0.000 H 
ATOM     14  C10 UNL A   1      10.227  -7.558  -6.440  1.00  0.00    +0.000 C 
BRANCH   14   15
ATOM    123  H18 UNL A   1      10.694  -5.643  -6.276  1.00  0.00    +0.000 H 
ATOM     15  O3  UNL A   1      10.354  -6.233  -6.966  1.00  0.00    +0.000 O 
ENDBRANCH   14   15
ENDBRANCH   13   14
BRANCH   13   16
ATOM    124  H19 UNL A   1      11.583  -9.521  -7.466  1.00  0.00    +0.000 H 
ATOM     16  N3  UNL A   1      12.219  -8.997  -6.927  1.00  0.00    +0.000 N 
BRANCH   16   17
ATOM     17  C11 UNL A   1      13.529  -9.250  -7.194  1.00  0.00    +0.000 C 
ATOM     18  O4  UNL A   1      13.739 -10.372  -7.674  1.00  0.00    +0.000 O 
BRANCH   17   19
ATOM     19  C12 UNL A   1      14.647  -8.168  -7.185  1.00  0.00    +0.000 C 
ATOM    125  H20 UNL A   1      14.538  -7.669  -8.126  1.00  0.00    +0.000 H 
BRANCH   19   20
ATOM     20  C13 UNL A   1      16.028  -8.858  -7.048  1.00  0.00    +0.000 C 
ATOM    126  H21 UNL A   1      16.760  -8.244  -7.530  1.00  0.00    +0.000 H 
ATOM    127  H22 UNL A   1      15.938  -9.823  -7.502  1.00  0.00    +0.000 H 
BRANCH   20   21
ATOM     21  S1  UNL A   1      16.554  -9.133  -5.319  1.00  0.00    +0.000 S 
ATOM    128  H23 UNL A   1      16.686  -7.934  -4.689  1.00  0.00    +0.000 H 
ENDBRANCH   20   21
ENDBRANCH   19   20
BRANCH   19   22
ATOM    129  H24 UNL A   1      14.860  -7.310  -5.329  1.00  0.00    +0.000 H 
ATOM     22  N4  UNL A   1      14.520  -7.069  -6.221  1.00  0.00    +0.000 N 
BRANCH   22   23
ATOM     23  C14 UNL A   1      14.043  -5.798  -6.269  1.00  0.00    +0.000 C 
ATOM     24  O5  UNL A   1      13.761  -5.367  -5.148  1.00  0.00    +0.000 O 
BRANCH   23   25
ATOM     25  C15 UNL A   1      13.993  -4.883  -7.528  1.00  0.00    +0.000 C 
ATOM    130  H25 UNL A   1      14.950  -4.407  -7.582  1.00  0.00    +0.000 H 
BRANCH   25   26
ATOM     26  C16 UNL A   1      12.876  -3.797  -7.433  1.00  0.00    +0.000 C 
ATOM    131  H26 UNL A   1      12.023  -4.289  -7.015  1.00  0.00    +0.000 H 
ATOM    132  H27 UNL A   1      12.848  -3.434  -8.439  1.00  0.00    +0.000 H 
BRANCH   26   27
ATOM    133  H28 UNL A   1      13.499  -3.334  -4.773  1.00  0.00    +0.000 H 
ATOM    134  H29 UNL A   1      13.419  -1.259  -3.539  1.00  0.00    +0.000 H 
ATOM    135  H30 UNL A   1      12.877   0.814  -4.670  1.00  0.00    +0.000 H 
ATOM    136  H31 UNL A   1      12.464   0.801  -7.060  1.00  0.00    +0.000 H 
ATOM    137  H32 UNL A   1      12.561  -1.273  -8.303  1.00  0.00    +0.000 H 
ATOM     27  C17 UNL A   1      13.037  -2.502  -6.651  1.00  0.00    +0.000 C 
ATOM     28  C18 UNL A   1      13.278  -2.458  -5.272  1.00  0.00    +0.000 C 
ATOM     29  C19 UNL A   1      13.229  -1.259  -4.554  1.00  0.00    +0.000 C 
ATOM     30  C20 UNL A   1      12.924  -0.070  -5.200  1.00  0.00    +0.000 C 
ATOM     31  C21 UNL A   1      12.684  -0.080  -6.570  1.00  0.00    +0.000 C 
ATOM     32  C22 UNL A   1      12.740  -1.282  -7.287  1.00  0.00    +0.000 C 
ENDBRANCH   26   27
ENDBRANCH   25   26
BRANCH   25   33
ATOM     33  N5  UNL A   1      13.716  -5.681  -8.735  1.00  0.00    +0.000 N 
ATOM    138  H33 UNL A   1      12.852  -6.151  -8.705  1.00  0.00    +0.000 H 
BRANCH   33   34
ATOM     34  C23 UNL A   1      14.418  -5.900  -9.890  1.00  0.00    +0.000 C 
ATOM     35  O6  UNL A   1      13.802  -6.384 -10.839  1.00  0.00    +0.000 O 
BRANCH   34   36
ATOM     36  C24 UNL A   1      15.880  -5.659 -10.035  1.00  0.00    +0.000 C 
ATOM     37  C25 UNL A   1      16.378  -5.522 -11.343  1.00  0.00    +0.000 C 
ATOM     38  C26 UNL A   1      17.752  -5.418 -11.578  1.00  0.00    +0.000 C 
ATOM     39  C27 UNL A   1      18.632  -5.458 -10.506  1.00  0.00    +0.000 C 
ATOM     40  F1  UNL A   1      19.950  -5.379 -10.727  1.00  0.00    +0.000 F 
ATOM     41  C28 UNL A   1      18.163  -5.602  -9.206  1.00  0.00    +0.000 C 
ATOM     42  C29 UNL A   1      16.788  -5.710  -8.971  1.00  0.00    +0.000 C 
ATOM    139  H34 UNL A   1      15.722  -5.497 -12.139  1.00  0.00    +0.000 H 
ATOM    140  H35 UNL A   1      18.109  -5.313 -12.541  1.00  0.00    +0.000 H 
ATOM    141  H36 UNL A   1      18.827  -5.630  -8.417  1.00  0.00    +0.000 H 
ATOM    142  H37 UNL A   1      16.441  -5.828  -8.007  1.00  0.00    +0.000 H 
ENDBRANCH   34   36
ENDBRANCH   33   34
ENDBRANCH   25   33
ENDBRANCH   23   25
ENDBRANCH   22   23
ENDBRANCH   19   22
ENDBRANCH   17   19
ENDBRANCH   16   17
ENDBRANCH   13   16
ENDBRANCH   11   13
ENDBRANCH   10   11
ENDBRANCH    9   10
ENDBRANCH    8    9
ENDBRANCH    7    8
ENDBRANCH    6    7
ENDBRANCH    5    6
ENDBRANCH    4    5
ENDBRANCH    3    4
ENDBRANCH    2    3
ENDBRANCH   43    2
ENDBRANCH   47   46
BRANCH   51   52
ATOM     52  C38 UNL A   1       1.379 -17.085 -11.405  1.00  0.00    +0.000 C 
ATOM     53  C39 UNL A   1       1.552 -15.700 -11.535  1.00  0.00    +0.000 C 
ATOM     54  F2  UNL A   1       2.769 -15.191 -11.779  1.00  0.00    +0.000 F 
ATOM     55  C40 UNL A   1       0.477 -14.827 -11.385  1.00  0.00    +0.000 C 
ATOM     56  F3  UNL A   1       0.672 -13.504 -11.478  1.00  0.00    +0.000 F 
ATOM     57  C41 UNL A   1      -0.793 -15.322 -11.129  1.00  0.00    +0.000 C 
ATOM     58  F4  UNL A   1      -1.827 -14.481 -10.992  1.00  0.00    +0.000 F 
ATOM     59  C42 UNL A   1      -0.989 -16.690 -11.009  1.00  0.00    +0.000 C 
ATOM     60  F5  UNL A   1      -2.217 -17.171 -10.771  1.00  0.00    +0.000 F 
ATOM     61  C43 UNL A   1       0.088 -17.564 -11.137  1.00  0.00    +0.000 C 
ATOM     62  F6  UNL A   1      -0.132 -18.881 -11.007  1.00  0.00    +0.000 F 
ENDBRANCH   51   52
BRANCH   68   69
ATOM     69  C49 UNL A   1       3.574 -21.931 -16.272  1.00  0.00    +0.000 C 
ATOM     70  C50 UNL A   1       2.987 -23.199 -16.393  1.00  0.00    +0.000 C 
ATOM     71  F7  UNL A   1       2.848 -23.984 -15.314  1.00  0.00    +0.000 F 
ATOM     72  C51 UNL A   1       2.580 -23.681 -17.634  1.00  0.00    +0.000 C 
ATOM     73  F8  UNL A   1       2.063 -24.913 -17.735  1.00  0.00    +0.000 F 
ATOM     74  C52 UNL A   1       2.726 -22.895 -18.767  1.00  0.00    +0.000 C 
ATOM     75  F9  UNL A   1       2.334 -23.361 -19.961  1.00  0.00    +0.000 F 
ATOM     76  C53 UNL A   1       3.286 -21.631 -18.666  1.00  0.00    +0.000 C 
ATOM     77  F10 UNL A   1       3.421 -20.868 -19.760  1.00  0.00    +0.000 F 
ATOM     78  C54 UNL A   1       3.716 -21.155 -17.431  1.00  0.00    +0.000 C 
ATOM     79  F11 UNL A   1       4.269 -19.934 -17.363  1.00  0.00    +0.000 F 
ENDBRANCH   68   69
BRANCH   83   84
ATOM     84  C58 UNL A   1       9.019 -23.469 -12.220  1.00  0.00    +0.000 C 
ATOM     85  C59 UNL A   1      10.043 -23.245 -13.150  1.00  0.00    +0.000 C 
ATOM     86  F12 UNL A   1       9.978 -22.192 -13.977  1.00  0.00    +0.000 F 
ATOM     87  C60 UNL A   1      11.124 -24.118 -13.250  1.00  0.00    +0.000 C 
ATOM     88  F13 UNL A   1      12.075 -23.899 -14.168  1.00  0.00    +0.000 F 
ATOM     89  C61 UNL A   1      11.213 -25.216 -12.406  1.00  0.00    +0.000 C 
ATOM     90  F14 UNL A   1      12.259 -26.048 -12.495  1.00  0.00    +0.000 F 
ATOM     91  C62 UNL A   1      10.215 -25.451 -11.473  1.00  0.00    +0.000 C 
ATOM     92  F15 UNL A   1      10.305 -26.502 -10.646  1.00  0.00    +0.000 F 
ATOM     93  C63 UNL A   1       9.121 -24.594 -11.390  1.00  0.00    +0.000 C 
ATOM     94  F16 UNL A   1       8.168 -24.846 -10.480  1.00  0.00    +0.000 F 
ENDBRANCH   83   84
TORSDOF 30