ROOT
ATOM    163  H58 UNL A   1      13.223  15.204  -2.671  1.00  0.00    +0.000 H 
ATOM    164  H59 UNL A   1      13.061  16.882  -0.682  1.00  0.00    +0.000 H 
ATOM    165  H60 UNL A   1       9.250  15.511  -1.540  1.00  0.00    +0.000 H 
ATOM    166  H61 UNL A   1       2.956  15.667  -0.434  1.00  0.00    +0.000 H 
ATOM    167  H62 UNL A   1       3.126  13.989  -2.334  1.00  0.00    +0.000 H 
ATOM    168  H63 UNL A   1       6.968  15.315  -1.464  1.00  0.00    +0.000 H 
ATOM    169  H64 UNL A   1       6.514  18.506   2.380  1.00  0.00    +0.000 H 
ATOM    170  H65 UNL A   1       9.021  18.952   2.134  1.00  0.00    +0.000 H 
ATOM    171  H66 UNL A   1       9.628  12.119  -5.198  1.00  0.00    +0.000 H 
ATOM    172  H67 UNL A   1       7.072  12.081  -5.354  1.00  0.00    +0.000 H 
ATOM     47  C38 UNL A   1       5.777  13.581  -3.304  1.00  0.00    +0.000 C 
ATOM     48  C39 UNL A   1       7.251  13.501  -3.594  1.00  0.00    +0.000 C 
ATOM     49  N5  UNL A   1       8.249  14.092  -2.987  1.00  0.00    +0.000 N 
ATOM     50  C40 UNL A   1       9.398  13.641  -3.624  1.00  0.00    +0.000 C 
ATOM     51  C41 UNL A   1      10.682  14.016  -3.416  1.00  0.00    +0.000 C 
ATOM     63  C48 UNL A   1      11.088  14.994  -2.442  1.00  0.00    +0.000 C 
ATOM     64  C49 UNL A   1      12.359  15.474  -2.176  1.00  0.00    +0.000 C 
ATOM     65  C50 UNL A   1      12.269  16.388  -1.121  1.00  0.00    +0.000 C 
ATOM     66  C51 UNL A   1      10.936  16.518  -0.766  1.00  0.00    +0.000 C 
ATOM     67  N6  UNL A   1      10.224  15.647  -1.575  1.00  0.00    +0.000 N 
ATOM     68  C52 UNL A   1      10.355  17.376   0.234  1.00  0.00    +0.000 C 
ATOM     80  C59 UNL A   1       9.037  17.426   0.547  1.00  0.00    +0.000 C 
ATOM     81  N7  UNL A   1       7.978  16.718  -0.007  1.00  0.00    +0.000 N 
ATOM     82  C60 UNL A   1       6.906  17.110   0.637  1.00  0.00    +0.000 C 
ATOM     83  C61 UNL A   1       5.469  16.711   0.427  1.00  0.00    +0.000 C 
ATOM     95  C68 UNL A   1       5.170  15.840  -0.554  1.00  0.00    +0.000 C 
ATOM     96  C69 UNL A   1       3.830  15.371  -0.896  1.00  0.00    +0.000 C 
ATOM     97  C70 UNL A   1       3.919  14.492  -1.907  1.00  0.00    +0.000 C 
ATOM     98  C71 UNL A   1       5.321  14.363  -2.307  1.00  0.00    +0.000 C 
ATOM     99  N8  UNL A   1       5.991  15.194  -1.445  1.00  0.00    +0.000 N 
ATOM    100  C72 UNL A   1       7.171  18.084   1.705  1.00  0.00    +0.000 C 
ATOM    101  C73 UNL A   1       8.475  18.279   1.574  1.00  0.00    +0.000 C 
ATOM    102  C74 UNL A   1       8.981  12.680  -4.621  1.00  0.00    +0.000 C 
ATOM    103  C75 UNL A   1       7.661  12.614  -4.695  1.00  0.00    +0.000 C 
ENDROOT
BRANCH   47   46
ATOM    161  H56 UNL A   1       2.302  13.023  -6.298  1.00  0.00    +0.000 H 
ATOM    162  H57 UNL A   1       3.840  14.392  -5.014  1.00  0.00    +0.000 H 
ATOM    104  C76 UNL A   1       4.899  11.362  -4.026  1.00  0.00    +0.000 C 
ATOM    105  C77 UNL A   1       4.080  10.580  -4.832  1.00  0.00    +0.000 C 
ATOM     43  C34 UNL A   1       3.103  11.185  -5.629  1.00  0.00    +0.000 C 
ATOM     44  C35 UNL A   1       3.012  12.577  -5.696  1.00  0.00    +0.000 C 
ATOM     45  C36 UNL A   1       3.885  13.363  -4.944  1.00  0.00    +0.000 C 
ATOM    174  H69 UNL A   1       4.193   9.554  -4.844  1.00  0.00    +0.000 H 
ATOM    173  H68 UNL A   1       5.563  10.912  -3.376  1.00  0.00    +0.000 H 
ATOM     46  C37 UNL A   1       4.826  12.761  -4.092  1.00  0.00    +0.000 C 
BRANCH   43   41
ATOM     41  C33 UNL A   1       2.179  10.371  -6.444  1.00  0.00    +0.000 C 
ATOM     42  O4  UNL A   1       1.892  10.726  -7.585  1.00  0.00    +0.000 O 
BRANCH   41   40
ATOM    160  H55 UNL A   1       1.256   8.600  -6.583  1.00  0.00    +0.000 H 
ATOM     40  N4  UNL A   1       1.648   9.221  -5.927  1.00  0.00    +0.000 N 
BRANCH   40   39
ATOM    159  H54 UNL A   1       1.934   9.591  -3.924  1.00  0.00    +0.000 H 
ATOM    158  H53 UNL A   1       2.190   7.918  -4.418  1.00  0.00    +0.000 H 
ATOM     39  C32 UNL A   1       1.582   8.790  -4.540  1.00  0.00    +0.000 C 
BRANCH   39   38
ATOM    156  H51 UNL A   1       0.166   8.174  -3.089  1.00  0.00    +0.000 H 
ATOM    157  H52 UNL A   1      -0.430   9.336  -4.300  1.00  0.00    +0.000 H 
ATOM     38  C31 UNL A   1       0.155   8.459  -4.120  1.00  0.00    +0.000 C 
BRANCH   38   37
ATOM    154  H49 UNL A   1      -1.474   7.163  -4.543  1.00  0.00    +0.000 H 
ATOM    155  H50 UNL A   1      -0.480   7.642  -5.948  1.00  0.00    +0.000 H 
ATOM     37  C30 UNL A   1      -0.488   7.327  -4.926  1.00  0.00    +0.000 C 
BRANCH   37   36
ATOM    153  H48 UNL A   1       1.226   6.170  -5.326  1.00  0.00    +0.000 H 
ATOM     36  C29 UNL A   1       0.270   5.994  -4.879  1.00  0.00    +0.000 C 
ATOM    152  H47 UNL A   1      -0.307   5.262  -5.404  1.00  0.00    +0.000 H 
BRANCH   36   35
ATOM     35  C28 UNL A   1       0.536   5.471  -3.466  1.00  0.00    +0.000 C 
ATOM    150  H45 UNL A   1       1.049   4.535  -3.539  1.00  0.00    +0.000 H 
ATOM    151  H46 UNL A   1       1.122   6.206  -2.955  1.00  0.00    +0.000 H 
BRANCH   35   34
ATOM     34  C27 UNL A   1      -0.745   5.263  -2.660  1.00  0.00    +0.000 C 
ATOM    148  H43 UNL A   1      -0.496   5.162  -1.625  1.00  0.00    +0.000 H 
ATOM    149  H44 UNL A   1      -1.385   6.107  -2.808  1.00  0.00    +0.000 H 
BRANCH   34   33
ATOM     33  N3  UNL A   1      -1.443   4.064  -3.102  1.00  0.00    +0.000 N 
ATOM    147  H42 UNL A   1      -1.736   4.080  -4.042  1.00  0.00    +0.000 H 
BRANCH   33   31
ATOM     31  C26 UNL A   1      -1.759   2.917  -2.421  1.00  0.00    +0.000 C 
ATOM     32  O3  UNL A   1      -2.400   2.049  -3.021  1.00  0.00    +0.000 O 
BRANCH   31    5
ATOM    115  H10 UNL A   1      -1.473   1.800  -0.428  1.00  0.00    +0.000 H 
ATOM      5  C5  UNL A   1      -1.315   2.717  -0.956  1.00  0.00    +0.000 C 
BRANCH    5    4
ATOM    113  H8  UNL A   1       0.547   2.257  -1.863  1.00  0.00    +0.000 H 
ATOM    114  H9  UNL A   1       0.451   3.782  -0.830  1.00  0.00    +0.000 H 
ATOM      4  C4  UNL A   1       0.241   2.741  -0.959  1.00  0.00    +0.000 C 
BRANCH    4    3
ATOM      3  C3  UNL A   1       1.061   2.107   0.163  1.00  0.00    +0.000 C 
ATOM    111  H6  UNL A   1       2.091   2.161  -0.120  1.00  0.00    +0.000 H 
ATOM    112  H7  UNL A   1       0.804   2.661   1.042  1.00  0.00    +0.000 H 
BRANCH    3    2
ATOM      2  C2  UNL A   1       0.755   0.651   0.511  1.00  0.00    +0.000 C 
ATOM    109  H4  UNL A   1       1.267   0.403   1.417  1.00  0.00    +0.000 H 
ATOM    110  H5  UNL A   1      -0.307   0.564   0.614  1.00  0.00    +0.000 H 
BRANCH    2    1
ATOM      1  C1  UNL A   1       1.186  -0.324  -0.569  1.00  0.00    +0.000 C 
ATOM    106  H1  UNL A   1       0.945  -1.322  -0.266  1.00  0.00    +0.000 H 
ATOM    107  H2  UNL A   1       2.241  -0.243  -0.722  1.00  0.00    +0.000 H 
ATOM    108  H3  UNL A   1       0.674  -0.095  -1.481  1.00  0.00    +0.000 H 
ENDBRANCH    2    1
ENDBRANCH    3    2
ENDBRANCH    4    3
ENDBRANCH    5    4
BRANCH    5    6
ATOM      6  S1  UNL A   1      -2.395   3.950  -0.040  1.00  0.00    +0.000 S 
BRANCH    6    7
ATOM    131  H26 UNL A   1      -0.427   3.936   4.808  1.00  0.00    +0.000 H 
ATOM      7  C6  UNL A   1      -2.198   3.529   1.657  1.00  0.00    +0.000 C 
ATOM      8  N1  UNL A   1      -2.755   4.369   2.554  1.00  0.00    +0.000 N 
ATOM      9  C7  UNL A   1      -2.165   4.426   3.751  1.00  0.00    +0.000 C 
ATOM     19  C16 UNL A   1      -1.021   3.724   3.991  1.00  0.00    +0.000 C 
ATOM     20  C17 UNL A   1      -0.688   2.734   3.116  1.00  0.00    +0.000 C 
ATOM     30  N2  UNL A   1      -1.274   2.615   1.933  1.00  0.00    +0.000 N 
BRANCH    9   10
ATOM     10  O1  UNL A   1      -2.792   5.206   4.695  1.00  0.00    +0.000 O 
BRANCH   10   11
ATOM     11  C8  UNL A   1      -2.038   5.648   5.832  1.00  0.00    +0.000 C 
ATOM    116  H11 UNL A   1      -2.315   6.662   6.030  1.00  0.00    +0.000 H 
ATOM    117  H12 UNL A   1      -1.012   5.509   5.561  1.00  0.00    +0.000 H 
BRANCH   11   12
ATOM     12  C9  UNL A   1      -2.225   4.843   7.147  1.00  0.00    +0.000 C 
ATOM    118  H13 UNL A   1      -3.175   5.113   7.559  1.00  0.00    +0.000 H 
ATOM    119  H14 UNL A   1      -1.383   5.101   7.755  1.00  0.00    +0.000 H 
BRANCH   12   13
ATOM    129  H24 UNL A   1      -4.056   3.232   6.004  1.00  0.00    +0.000 H 
ATOM    130  H25 UNL A   1      -4.148   2.760   7.683  1.00  0.00    +0.000 H 
ATOM     13  C10 UNL A   1      -2.184   3.311   7.036  1.00  0.00    +0.000 C 
ATOM     14  C11 UNL A   1      -1.526   2.603   8.231  1.00  0.00    +0.000 C 
ATOM     15  C12 UNL A   1      -1.349   1.109   7.930  1.00  0.00    +0.000 C 
ATOM     16  C13 UNL A   1      -2.622   0.428   7.425  1.00  0.00    +0.000 C 
ATOM     17  C14 UNL A   1      -3.402   1.235   6.386  1.00  0.00    +0.000 C 
ATOM     18  C15 UNL A   1      -3.563   2.698   6.789  1.00  0.00    +0.000 C 
ATOM    120  H15 UNL A   1      -1.563   3.142   6.181  1.00  0.00    +0.000 H 
ATOM    121  H16 UNL A   1      -2.147   2.718   9.095  1.00  0.00    +0.000 H 
ATOM    122  H17 UNL A   1      -0.566   3.040   8.409  1.00  0.00    +0.000 H 
ATOM    123  H18 UNL A   1      -1.037   0.618   8.829  1.00  0.00    +0.000 H 
ATOM    124  H19 UNL A   1      -0.621   1.031   7.150  1.00  0.00    +0.000 H 
ATOM    125  H20 UNL A   1      -3.264   0.254   8.263  1.00  0.00    +0.000 H 
ATOM    126  H21 UNL A   1      -2.314  -0.475   6.941  1.00  0.00    +0.000 H 
ATOM    127  H22 UNL A   1      -4.373   0.800   6.271  1.00  0.00    +0.000 H 
ATOM    128  H23 UNL A   1      -2.850   1.207   5.470  1.00  0.00    +0.000 H 
ENDBRANCH   12   13
ENDBRANCH   11   12
ENDBRANCH   10   11
ENDBRANCH    9   10
BRANCH   20   21
ATOM     21  O2  UNL A   1       0.457   2.002   3.269  1.00  0.00    +0.000 O 
BRANCH   21   22
ATOM    132  H27 UNL A   1       0.213   0.104   4.004  1.00  0.00    +0.000 H 
ATOM    133  H28 UNL A   1      -0.275   1.387   5.083  1.00  0.00    +0.000 H 
ATOM     22  C18 UNL A   1       0.454   1.083   4.362  1.00  0.00    +0.000 C 
BRANCH   22   23
ATOM    135  H30 UNL A   1       1.748   0.636   5.994  1.00  0.00    +0.000 H 
ATOM    134  H29 UNL A   1       2.514   0.487   4.404  1.00  0.00    +0.000 H 
ATOM     23  C19 UNL A   1       1.855   1.063   5.019  1.00  0.00    +0.000 C 
BRANCH   23   24
ATOM    136  H31 UNL A   1       2.397   2.838   4.189  1.00  0.00    +0.000 H 
ATOM    137  H32 UNL A   1       1.955   3.096   7.183  1.00  0.00    +0.000 H 
ATOM    138  H33 UNL A   1       0.611   3.134   6.092  1.00  0.00    +0.000 H 
ATOM    139  H34 UNL A   1       1.345   5.419   6.455  1.00  0.00    +0.000 H 
ATOM    140  H35 UNL A   1       1.788   4.979   4.830  1.00  0.00    +0.000 H 
ATOM    141  H36 UNL A   1       3.543   5.058   7.261  1.00  0.00    +0.000 H 
ATOM    142  H37 UNL A   1       3.687   5.990   5.753  1.00  0.00    +0.000 H 
ATOM    143  H38 UNL A   1       5.317   4.059   6.167  1.00  0.00    +0.000 H 
ATOM    144  H39 UNL A   1       4.506   4.243   4.579  1.00  0.00    +0.000 H 
ATOM    145  H40 UNL A   1       4.516   1.937   5.026  1.00  0.00    +0.000 H 
ATOM    146  H41 UNL A   1       3.969   2.180   6.670  1.00  0.00    +0.000 H 
ATOM     24  C20 UNL A   1       2.451   2.470   5.193  1.00  0.00    +0.000 C 
ATOM     25  C21 UNL A   1       1.660   3.325   6.180  1.00  0.00    +0.000 C 
ATOM     26  C22 UNL A   1       1.971   4.782   5.866  1.00  0.00    +0.000 C 
ATOM     27  C23 UNL A   1       3.433   5.050   6.197  1.00  0.00    +0.000 C 
ATOM     28  C24 UNL A   1       4.401   4.003   5.616  1.00  0.00    +0.000 C 
ATOM     29  C25 UNL A   1       3.906   2.541   5.665  1.00  0.00    +0.000 C 
ENDBRANCH   23   24
ENDBRANCH   22   23
ENDBRANCH   21   22
ENDBRANCH   20   21
ENDBRANCH    6    7
ENDBRANCH    5    6
ENDBRANCH   31    5
ENDBRANCH   33   31
ENDBRANCH   34   33
ENDBRANCH   35   34
ENDBRANCH   36   35
ENDBRANCH   37   36
ENDBRANCH   38   37
ENDBRANCH   39   38
ENDBRANCH   40   39
ENDBRANCH   41   40
ENDBRANCH   43   41
ENDBRANCH   47   46
BRANCH   51   52
ATOM     52  C42 UNL A   1      11.740  13.373  -4.266  1.00  0.00    +0.000 C 
ATOM     53  C43 UNL A   1      11.847  13.648  -5.639  1.00  0.00    +0.000 C 
ATOM     54  F1  UNL A   1      10.966  14.466  -6.234  1.00  0.00    +0.000 F 
ATOM     55  C44 UNL A   1      12.836  13.049  -6.415  1.00  0.00    +0.000 C 
ATOM     56  F2  UNL A   1      12.886  13.287  -7.733  1.00  0.00    +0.000 F 
ATOM     57  C45 UNL A   1      13.759  12.197  -5.830  1.00  0.00    +0.000 C 
ATOM     58  F3  UNL A   1      14.716  11.628  -6.577  1.00  0.00    +0.000 F 
ATOM     59  C46 UNL A   1      13.687  11.928  -4.472  1.00  0.00    +0.000 C 
ATOM     60  F4  UNL A   1      14.587  11.114  -3.902  1.00  0.00    +0.000 F 
ATOM     61  C47 UNL A   1      12.679  12.499  -3.698  1.00  0.00    +0.000 C 
ATOM     62  F5  UNL A   1      12.626  12.205  -2.390  1.00  0.00    +0.000 F 
ENDBRANCH   51   52
BRANCH   68   69
ATOM     69  C53 UNL A   1      11.272  18.311   0.967  1.00  0.00    +0.000 C 
ATOM     70  C54 UNL A   1      11.590  18.128   2.320  1.00  0.00    +0.000 C 
ATOM     71  F6  UNL A   1      11.037  17.122   3.014  1.00  0.00    +0.000 F 
ATOM     72  C55 UNL A   1      12.446  19.007   2.978  1.00  0.00    +0.000 C 
ATOM     73  F7  UNL A   1      12.694  18.844   4.285  1.00  0.00    +0.000 F 
ATOM     74  C56 UNL A   1      13.029  20.060   2.289  1.00  0.00    +0.000 C 
ATOM     75  F8  UNL A   1      13.857  20.901   2.923  1.00  0.00    +0.000 F 
ATOM     76  C57 UNL A   1      12.747  20.246   0.944  1.00  0.00    +0.000 C 
ATOM     77  F9  UNL A   1      13.321  21.253   0.272  1.00  0.00    +0.000 F 
ATOM     78  C58 UNL A   1      11.867  19.388   0.291  1.00  0.00    +0.000 C 
ATOM     79  F10 UNL A   1      11.602  19.603  -1.006  1.00  0.00    +0.000 F 
ENDBRANCH   68   69
BRANCH   83   84
ATOM     84  C62 UNL A   1       4.388  17.294   1.264  1.00  0.00    +0.000 C 
ATOM     85  C63 UNL A   1       4.062  18.655   1.170  1.00  0.00    +0.000 C 
ATOM     86  F11 UNL A   1       4.729  19.446   0.316  1.00  0.00    +0.000 F 
ATOM     87  C64 UNL A   1       3.085  19.220   1.987  1.00  0.00    +0.000 C 
ATOM     88  F12 UNL A   1       2.833  20.534   1.916  1.00  0.00    +0.000 F 
ATOM     89  C65 UNL A   1       2.390  18.428   2.889  1.00  0.00    +0.000 C 
ATOM     90  F13 UNL A   1       1.453  18.972   3.677  1.00  0.00    +0.000 F 
ATOM     91  C66 UNL A   1       2.677  17.075   2.981  1.00  0.00    +0.000 C 
ATOM     92  F14 UNL A   1       1.998  16.304   3.842  1.00  0.00    +0.000 F 
ATOM     93  C67 UNL A   1       3.675  16.515   2.186  1.00  0.00    +0.000 C 
ATOM     94  F15 UNL A   1       3.943  15.207   2.310  1.00  0.00    +0.000 F 
ENDBRANCH   83   84
TORSDOF 29