ROOT
ATOM      2  C2  UNL A   1       1.706   1.376   0.536  1.00  0.00    +0.000 C 
ATOM      3  C3  UNL A   1       1.797   1.831   2.030  1.00  0.00    +0.000 C 
ATOM      5  C5  UNL A   1       0.797   2.929   2.427  1.00  0.00    +0.000 C 
ATOM      6  C6  UNL A   1       0.585   4.042   1.424  1.00  0.00    +0.000 C 
ATOM      7  C7  UNL A   1       0.690   3.692  -0.072  1.00  0.00    +0.000 C 
ATOM    146  H41 UNL A   1       2.094   5.327  -0.192  1.00  0.00    +0.000 H 
ATOM    147  H42 UNL A   1       0.399   5.699  -0.699  1.00  0.00    +0.000 H 
ATOM    148  H43 UNL A   1       2.267   5.787  -2.419  1.00  0.00    +0.000 H 
ATOM    149  H44 UNL A   1       0.685   4.984  -2.753  1.00  0.00    +0.000 H 
ATOM    153  H48 UNL A   1       0.742   0.676  -1.979  1.00  0.00    +0.000 H 
ATOM    154  H49 UNL A   1      -0.585   1.371  -3.937  1.00  0.00    +0.000 H 
ATOM    155  H50 UNL A   1       1.019   0.944  -4.543  1.00  0.00    +0.000 H 
ATOM    156  H51 UNL A   1       0.043   3.747  -3.964  1.00  0.00    +0.000 H 
ATOM    160  H55 UNL A   1      -1.719   4.274  -4.872  1.00  0.00    +0.000 H 
ATOM    161  H56 UNL A   1      -2.002   2.578  -5.346  1.00  0.00    +0.000 H 
ATOM    162  H57 UNL A   1      -3.417   4.197  -6.540  1.00  0.00    +0.000 H 
ATOM    163  H58 UNL A   1      -2.380   3.184  -7.568  1.00  0.00    +0.000 H 
ATOM    164  H59 UNL A   1      -1.943   6.032  -6.844  1.00  0.00    +0.000 H 
ATOM    172  H67 UNL A   1       0.086   5.447  -5.840  1.00  0.00    +0.000 H 
ATOM    173  H68 UNL A   1       2.250   5.654  -7.056  1.00  0.00    +0.000 H 
ATOM    174  H69 UNL A   1       2.332   3.913  -7.079  1.00  0.00    +0.000 H 
ATOM    175  H70 UNL A   1       2.033   5.601  -4.604  1.00  0.00    +0.000 H 
ATOM    176  H71 UNL A   1       3.533   4.838  -5.173  1.00  0.00    +0.000 H 
ATOM    180  H75 UNL A   1       2.771   2.892  -0.146  1.00  0.00    +0.000 H 
ATOM     83  C60 UNL A   1       1.226   5.021  -0.738  1.00  0.00    +0.000 C 
ATOM     84  C61 UNL A   1       1.614   4.962  -2.224  1.00  0.00    +0.000 C 
ATOM     85  C62 UNL A   1       2.333   3.662  -2.724  1.00  0.00    +0.000 C 
ATOM     87  C64 UNL A   1       1.734   2.466  -1.929  1.00  0.00    +0.000 C 
ATOM     88  C65 UNL A   1       0.978   1.520  -2.524  1.00  0.00    +0.000 C 
ATOM     89  C66 UNL A   1       0.456   1.621  -3.935  1.00  0.00    +0.000 C 
ATOM     90  C67 UNL A   1       0.629   3.047  -4.522  1.00  0.00    +0.000 C 
ATOM     91  C68 UNL A   1      -0.086   3.327  -5.912  1.00  0.00    +0.000 C 
ATOM     93  C70 UNL A   1      -1.613   3.532  -5.636  1.00  0.00    +0.000 C 
ATOM     94  C71 UNL A   1      -2.417   3.981  -6.855  1.00  0.00    +0.000 C 
ATOM     95  C72 UNL A   1      -1.846   5.225  -7.539  1.00  0.00    +0.000 C 
ATOM     97  C73 UNL A   1      -0.316   5.168  -7.838  1.00  0.00    +0.000 C 
ATOM    100  C76 UNL A   1       0.410   4.690  -6.523  1.00  0.00    +0.000 C 
ATOM    101  C77 UNL A   1       1.941   4.760  -6.555  1.00  0.00    +0.000 C 
ATOM    102  C78 UNL A   1       2.466   4.769  -5.118  1.00  0.00    +0.000 C 
ATOM    103  C79 UNL A   1       2.131   3.475  -4.330  1.00  0.00    +0.000 C 
ATOM    105  C81 UNL A   1       1.768   2.617  -0.395  1.00  0.00    +0.000 C 
ATOM    109  H4  UNL A   1       0.772   0.876   0.384  1.00  0.00    +0.000 H 
ATOM    110  H5  UNL A   1       2.796   2.214   2.066  1.00  0.00    +0.000 H 
ATOM    114  H9  UNL A   1       1.145   3.372   3.337  1.00  0.00    +0.000 H 
ATOM    115  H10 UNL A   1      -0.149   2.435   2.507  1.00  0.00    +0.000 H 
ATOM    116  H11 UNL A   1       1.315   4.797   1.627  1.00  0.00    +0.000 H 
ATOM    117  H12 UNL A   1      -0.435   4.336   1.561  1.00  0.00    +0.000 H 
ENDROOT
BRANCH    2    1
ATOM      1  C1  UNL A   1       2.827   0.379   0.198  1.00  0.00    +0.000 C 
ATOM    106  H1  UNL A   1       2.763  -0.465   0.852  1.00  0.00    +0.000 H 
ATOM    107  H2  UNL A   1       3.777   0.856   0.323  1.00  0.00    +0.000 H 
ATOM    108  H3  UNL A   1       2.722   0.054  -0.816  1.00  0.00    +0.000 H 
ENDBRANCH    2    1
BRANCH    3    4
ATOM    113  H8  UNL A   1       2.308  -0.091   2.829  1.00  0.00    +0.000 H 
ATOM      4  C4  UNL A   1       1.623   0.700   3.052  1.00  0.00    +0.000 C 
ATOM    111  H6  UNL A   1       0.621   0.327   3.004  1.00  0.00    +0.000 H 
ATOM    112  H7  UNL A   1       1.818   1.074   4.035  1.00  0.00    +0.000 H 
ENDBRANCH    3    4
BRANCH    7    8
ATOM      9  O1  UNL A   1      -1.276   4.144  -1.470  1.00  0.00    +0.000 O 
ATOM      8  C8  UNL A   1      -0.727   3.362  -0.683  1.00  0.00    +0.000 C 
BRANCH    8   10
ATOM     10  N1  UNL A   1      -1.431   2.203  -0.463  1.00  0.00    +0.000 N 
ATOM    118  H13 UNL A   1      -1.751   1.729  -1.264  1.00  0.00    +0.000 H 
BRANCH   10   11
ATOM     11  C9  UNL A   1      -1.758   1.597   0.814  1.00  0.00    +0.000 C 
ATOM    119  H14 UNL A   1      -2.136   2.363   1.459  1.00  0.00    +0.000 H 
ATOM    120  H15 UNL A   1      -0.856   1.150   1.177  1.00  0.00    +0.000 H 
BRANCH   11   12
ATOM    121  H16 UNL A   1      -3.667   0.880   0.261  1.00  0.00    +0.000 H 
ATOM    122  H17 UNL A   1      -2.928   0.169   1.759  1.00  0.00    +0.000 H 
ATOM     12  C10 UNL A   1      -2.800   0.476   0.742  1.00  0.00    +0.000 C 
BRANCH   12   13
ATOM    123  H18 UNL A   1      -2.266  -0.552  -1.025  1.00  0.00    +0.000 H 
ATOM    124  H19 UNL A   1      -3.252  -1.470   0.204  1.00  0.00    +0.000 H 
ATOM     13  C11 UNL A   1      -2.430  -0.817  -0.001  1.00  0.00    +0.000 C 
BRANCH   13   14
ATOM    126  H21 UNL A   1      -1.344  -2.583   0.007  1.00  0.00    +0.000 H 
ATOM    125  H20 UNL A   1      -0.339  -1.078   0.143  1.00  0.00    +0.000 H 
ATOM     14  C12 UNL A   1      -1.208  -1.620   0.454  1.00  0.00    +0.000 C 
BRANCH   14   15
ATOM    127  H22 UNL A   1      -0.801  -0.991   2.424  1.00  0.00    +0.000 H 
ATOM     15  C13 UNL A   1      -1.048  -1.915   1.943  1.00  0.00    +0.000 C 
ATOM    128  H23 UNL A   1      -0.298  -2.678   1.982  1.00  0.00    +0.000 H 
BRANCH   15   16
ATOM    129  H24 UNL A   1      -3.057  -1.839   2.602  1.00  0.00    +0.000 H 
ATOM    130  H25 UNL A   1      -1.910  -2.649   3.704  1.00  0.00    +0.000 H 
ATOM     16  C14 UNL A   1      -2.230  -2.511   2.692  1.00  0.00    +0.000 C 
BRANCH   16   17
ATOM     17  N2  UNL A   1      -2.651  -3.811   2.215  1.00  0.00    +0.000 N 
ATOM    131  H26 UNL A   1      -2.621  -3.930   1.238  1.00  0.00    +0.000 H 
BRANCH   17   18
ATOM     18  C15 UNL A   1      -3.088  -4.907   2.929  1.00  0.00    +0.000 C 
ATOM     19  O2  UNL A   1      -3.414  -5.925   2.337  1.00  0.00    +0.000 O 
BRANCH   18   20
ATOM    132  H27 UNL A   1      -2.343  -6.846   4.573  1.00  0.00    +0.000 H 
ATOM    133  H28 UNL A   1      -2.320  -6.879   6.998  1.00  0.00    +0.000 H 
ATOM    144  H39 UNL A   1      -3.789  -2.934   7.056  1.00  0.00    +0.000 H 
ATOM     81  C58 UNL A   1      -3.505  -3.778   6.533  1.00  0.00    +0.000 C 
ATOM     82  C59 UNL A   1      -3.603  -3.795   5.141  1.00  0.00    +0.000 C 
ATOM    145  H40 UNL A   1      -4.035  -2.999   4.645  1.00  0.00    +0.000 H 
ATOM     20  C16 UNL A   1      -3.117  -4.886   4.416  1.00  0.00    +0.000 C 
ATOM     21  C17 UNL A   1      -2.660  -6.018   5.101  1.00  0.00    +0.000 C 
ATOM     22  C18 UNL A   1      -2.631  -6.030   6.500  1.00  0.00    +0.000 C 
ATOM     23  C19 UNL A   1      -3.023  -4.897   7.229  1.00  0.00    +0.000 C 
BRANCH   23   24
ATOM    134  H29 UNL A   1      -7.333  -4.521  14.980  1.00  0.00    +0.000 H 
ATOM    135  H30 UNL A   1      -5.437  -4.554  16.770  1.00  0.00    +0.000 H 
ATOM    136  H31 UNL A   1      -3.687  -4.633  13.017  1.00  0.00    +0.000 H 
ATOM    137  H32 UNL A   1       1.530  -5.084   9.371  1.00  0.00    +0.000 H 
ATOM    138  H33 UNL A   1      -0.317  -4.999   7.630  1.00  0.00    +0.000 H 
ATOM    139  H34 UNL A   1      -2.099  -4.845  11.382  1.00  0.00    +0.000 H 
ATOM    140  H35 UNL A   1       1.677  -4.863  14.709  1.00  0.00    +0.000 H 
ATOM    141  H36 UNL A   1      -0.106  -4.903  16.544  1.00  0.00    +0.000 H 
ATOM    142  H37 UNL A   1      -7.361  -4.340   9.619  1.00  0.00    +0.000 H 
ATOM    143  H38 UNL A   1      -5.642  -4.807   7.780  1.00  0.00    +0.000 H 
ATOM     24  C20 UNL A   1      -2.951  -4.877   8.715  1.00  0.00    +0.000 C 
ATOM     25  C21 UNL A   1      -4.207  -4.758   9.535  1.00  0.00    +0.000 C 
ATOM     26  N3  UNL A   1      -4.346  -4.668  10.834  1.00  0.00    +0.000 N 
ATOM     27  C22 UNL A   1      -5.710  -4.534  11.062  1.00  0.00    +0.000 C 
ATOM     28  C23 UNL A   1      -6.370  -4.468  12.244  1.00  0.00    +0.000 C 
ATOM     40  C30 UNL A   1      -5.733  -4.534  13.533  1.00  0.00    +0.000 C 
ATOM     41  C31 UNL A   1      -6.320  -4.539  14.787  1.00  0.00    +0.000 C 
ATOM     42  C32 UNL A   1      -5.303  -4.573  15.746  1.00  0.00    +0.000 C 
ATOM     43  C33 UNL A   1      -4.084  -4.637  15.091  1.00  0.00    +0.000 C 
ATOM     44  N4  UNL A   1      -4.362  -4.607  13.733  1.00  0.00    +0.000 N 
ATOM     45  C34 UNL A   1      -2.763  -4.719  15.659  1.00  0.00    +0.000 C 
ATOM     57  C41 UNL A   1      -1.613  -4.784  14.944  1.00  0.00    +0.000 C 
ATOM     58  N5  UNL A   1      -1.442  -4.794  13.566  1.00  0.00    +0.000 N 
ATOM     59  C42 UNL A   1      -0.148  -4.853  13.364  1.00  0.00    +0.000 C 
ATOM     60  C43 UNL A   1       0.609  -4.919  12.064  1.00  0.00    +0.000 C 
ATOM     72  C50 UNL A   1      -0.074  -4.938  10.903  1.00  0.00    +0.000 C 
ATOM     73  C51 UNL A   1       0.520  -5.014   9.572  1.00  0.00    +0.000 C 
ATOM     74  C52 UNL A   1      -0.457  -4.981   8.652  1.00  0.00    +0.000 C 
ATOM     75  C53 UNL A   1      -1.752  -4.913   9.330  1.00  0.00    +0.000 C 
ATOM     76  N6  UNL A   1      -1.427  -4.891  10.664  1.00  0.00    +0.000 N 
ATOM     77  C54 UNL A   1       0.651  -4.859  14.597  1.00  0.00    +0.000 C 
ATOM     78  C55 UNL A   1      -0.291  -4.857  15.530  1.00  0.00    +0.000 C 
ATOM     79  C56 UNL A   1      -6.352  -4.502   9.766  1.00  0.00    +0.000 C 
ATOM     80  C57 UNL A   1      -5.477  -4.708   8.793  1.00  0.00    +0.000 C 
BRANCH   28   29
ATOM     33  F2  UNL A   1     -10.842  -6.225  11.274  1.00  0.00    +0.000 F 
ATOM     34  C27 UNL A   1     -10.661  -4.045  12.161  1.00  0.00    +0.000 C 
ATOM     35  F3  UNL A   1     -11.994  -3.907  12.131  1.00  0.00    +0.000 F 
ATOM     36  C28 UNL A   1      -9.865  -3.002  12.610  1.00  0.00    +0.000 C 
ATOM     37  F4  UNL A   1     -10.430  -1.863  13.034  1.00  0.00    +0.000 F 
ATOM     38  C29 UNL A   1      -8.478  -3.135  12.617  1.00  0.00    +0.000 C 
ATOM     39  F5  UNL A   1      -7.735  -2.102  13.042  1.00  0.00    +0.000 F 
ATOM     29  C24 UNL A   1      -7.864  -4.324  12.197  1.00  0.00    +0.000 C 
ATOM     30  C25 UNL A   1      -8.691  -5.374  11.770  1.00  0.00    +0.000 C 
ATOM     31  F1  UNL A   1      -8.154  -6.528  11.348  1.00  0.00    +0.000 F 
ATOM     32  C26 UNL A   1     -10.076  -5.227  11.735  1.00  0.00    +0.000 C 
ENDBRANCH   28   29
BRANCH   45   46
ATOM     46  C35 UNL A   1      -2.647  -4.759  17.154  1.00  0.00    +0.000 C 
ATOM     47  C36 UNL A   1      -2.158  -3.665  17.883  1.00  0.00    +0.000 C 
ATOM     48  F6  UNL A   1      -1.728  -2.566  17.245  1.00  0.00    +0.000 F 
ATOM     49  C37 UNL A   1      -2.075  -3.711  19.273  1.00  0.00    +0.000 C 
ATOM     50  F7  UNL A   1      -1.563  -2.672  19.946  1.00  0.00    +0.000 F 
ATOM     51  C38 UNL A   1      -2.508  -4.836  19.959  1.00  0.00    +0.000 C 
ATOM     52  F8  UNL A   1      -2.434  -4.875  21.297  1.00  0.00    +0.000 F 
ATOM     53  C39 UNL A   1      -3.011  -5.922  19.259  1.00  0.00    +0.000 C 
ATOM     54  F9  UNL A   1      -3.442  -7.004  19.922  1.00  0.00    +0.000 F 
ATOM     55  C40 UNL A   1      -3.069  -5.890  17.869  1.00  0.00    +0.000 C 
ATOM     56  F10 UNL A   1      -3.550  -6.960  17.219  1.00  0.00    +0.000 F 
ENDBRANCH   45   46
BRANCH   60   61
ATOM     65  F12 UNL A   1       4.762  -7.299  13.001  1.00  0.00    +0.000 F 
ATOM     66  C47 UNL A   1       4.904  -5.141  12.054  1.00  0.00    +0.000 C 
ATOM     67  F13 UNL A   1       6.242  -5.207  12.064  1.00  0.00    +0.000 F 
ATOM     68  C48 UNL A   1       4.267  -4.002  11.584  1.00  0.00    +0.000 C 
ATOM     69  F14 UNL A   1       4.990  -2.974  11.120  1.00  0.00    +0.000 F 
ATOM     70  C49 UNL A   1       2.876  -3.923  11.595  1.00  0.00    +0.000 C 
ATOM     71  F15 UNL A   1       2.287  -2.804  11.148  1.00  0.00    +0.000 F 
ATOM     61  C44 UNL A   1       2.093  -4.993  12.053  1.00  0.00    +0.000 C 
ATOM     62  C45 UNL A   1       2.759  -6.141  12.507  1.00  0.00    +0.000 C 
ATOM     63  F11 UNL A   1       2.055  -7.181  12.975  1.00  0.00    +0.000 F 
ATOM     64  C46 UNL A   1       4.151  -6.208  12.521  1.00  0.00    +0.000 C 
ENDBRANCH   60   61
ENDBRANCH   23   24
ENDBRANCH   18   20
ENDBRANCH   17   18
ENDBRANCH   16   17
ENDBRANCH   15   16
ENDBRANCH   14   15
ENDBRANCH   13   14
ENDBRANCH   12   13
ENDBRANCH   11   12
ENDBRANCH   10   11
ENDBRANCH    8   10
ENDBRANCH    7    8
BRANCH   85   86
ATOM    151  H46 UNL A   1       4.245   4.648  -2.915  1.00  0.00    +0.000 H 
ATOM     86  C63 UNL A   1       3.846   3.796  -2.404  1.00  0.00    +0.000 C 
ATOM    150  H45 UNL A   1       3.978   3.920  -1.349  1.00  0.00    +0.000 H 
ATOM    152  H47 UNL A   1       4.359   2.914  -2.727  1.00  0.00    +0.000 H 
ENDBRANCH   85   86
BRANCH   91   92
ATOM     92  C69 UNL A   1       0.082   2.112  -6.845  1.00  0.00    +0.000 C 
ATOM    157  H52 UNL A   1      -0.279   1.233  -6.354  1.00  0.00    +0.000 H 
ATOM    158  H53 UNL A   1       1.117   1.988  -7.085  1.00  0.00    +0.000 H 
ATOM    159  H54 UNL A   1      -0.477   2.273  -7.744  1.00  0.00    +0.000 H 
ENDBRANCH   91   92
BRANCH   95   96
ATOM    165  H60 UNL A   1      -2.499   4.747  -9.342  1.00  0.00    +0.000 H 
ATOM     96  O3  UNL A   1      -2.599   5.488  -8.724  1.00  0.00    +0.000 O 
ENDBRANCH   95   96
BRANCH   97   98
ATOM     98  C74 UNL A   1       0.003   4.322  -9.089  1.00  0.00    +0.000 C 
ATOM    166  H61 UNL A   1      -0.530   4.715  -9.930  1.00  0.00    +0.000 H 
ATOM    167  H62 UNL A   1      -0.295   3.309  -8.920  1.00  0.00    +0.000 H 
ATOM    168  H63 UNL A   1       1.054   4.358  -9.285  1.00  0.00    +0.000 H 
ENDBRANCH   97   98
BRANCH   97   99
ATOM    169  H64 UNL A   1      -0.368   6.928  -9.093  1.00  0.00    +0.000 H 
ATOM    170  H65 UNL A   1       1.188   6.632  -8.357  1.00  0.00    +0.000 H 
ATOM     99  C75 UNL A   1       0.130   6.614  -8.200  1.00  0.00    +0.000 C 
ATOM    171  H66 UNL A   1      -0.123   7.277  -7.399  1.00  0.00    +0.000 H 
ENDBRANCH   97   99
BRANCH  103  104
ATOM    177  H72 UNL A   1       2.929   1.460  -4.378  1.00  0.00    +0.000 H 
ATOM    178  H73 UNL A   1       4.117   2.696  -4.715  1.00  0.00    +0.000 H 
ATOM    179  H74 UNL A   1       2.941   2.259  -5.931  1.00  0.00    +0.000 H 
ATOM    104  C80 UNL A   1       3.107   2.387  -4.882  1.00  0.00    +0.000 C 
ENDBRANCH  103  104
TORSDOF 23