ROOT
ATOM     19  C15 UNL A   1      13.260  -1.779   0.436  1.00  0.00    +0.000 C 
ATOM     20  C16 UNL A   1      13.903  -2.766  -0.497  1.00  0.00    +0.000 C 
ATOM     21  N3  UNL A   1      14.603  -3.837  -0.214  1.00  0.00    +0.000 N 
ATOM     22  C17 UNL A   1      14.937  -4.405  -1.436  1.00  0.00    +0.000 C 
ATOM     23  C18 UNL A   1      15.705  -5.494  -1.680  1.00  0.00    +0.000 C 
ATOM     35  C25 UNL A   1      16.334  -6.293  -0.661  1.00  0.00    +0.000 C 
ATOM     36  C26 UNL A   1      17.168  -7.387  -0.812  1.00  0.00    +0.000 C 
ATOM     37  C27 UNL A   1      17.511  -7.857   0.460  1.00  0.00    +0.000 C 
ATOM     38  C28 UNL A   1      16.922  -7.032   1.404  1.00  0.00    +0.000 C 
ATOM     39  N4  UNL A   1      16.198  -6.081   0.703  1.00  0.00    +0.000 N 
ATOM     40  C29 UNL A   1      17.012  -7.104   2.838  1.00  0.00    +0.000 C 
ATOM     52  C36 UNL A   1      16.407  -6.248   3.698  1.00  0.00    +0.000 C 
ATOM     53  N5  UNL A   1      15.598  -5.157   3.417  1.00  0.00    +0.000 N 
ATOM     54  C37 UNL A   1      15.239  -4.667   4.578  1.00  0.00    +0.000 C 
ATOM     55  C38 UNL A   1      14.383  -3.467   4.880  1.00  0.00    +0.000 C 
ATOM     67  C45 UNL A   1      13.896  -2.733   3.862  1.00  0.00    +0.000 C 
ATOM     68  C46 UNL A   1      13.071  -1.537   4.000  1.00  0.00    +0.000 C 
ATOM     69  C47 UNL A   1      12.747  -1.084   2.779  1.00  0.00    +0.000 C 
ATOM     70  C48 UNL A   1      13.367  -1.944   1.769  1.00  0.00    +0.000 C 
ATOM     71  N6  UNL A   1      14.028  -2.896   2.504  1.00  0.00    +0.000 N 
ATOM     72  C49 UNL A   1      15.765  -5.411   5.731  1.00  0.00    +0.000 C 
ATOM     73  C50 UNL A   1      16.504  -6.338   5.140  1.00  0.00    +0.000 C 
ATOM     74  C51 UNL A   1      14.325  -3.589  -2.463  1.00  0.00    +0.000 C 
ATOM     75  C52 UNL A   1      13.720  -2.533  -1.938  1.00  0.00    +0.000 C 
ATOM    112  H21 UNL A   1      17.483  -7.787  -1.710  1.00  0.00    +0.000 H 
ATOM    113  H22 UNL A   1      18.102  -8.679   0.661  1.00  0.00    +0.000 H 
ATOM    114  H23 UNL A   1      15.666  -5.361   1.113  1.00  0.00    +0.000 H 
ATOM    115  H24 UNL A   1      12.783  -1.108   4.894  1.00  0.00    +0.000 H 
ATOM    116  H25 UNL A   1      12.155  -0.262   2.583  1.00  0.00    +0.000 H 
ATOM    117  H26 UNL A   1      14.549  -3.626   2.098  1.00  0.00    +0.000 H 
ATOM    118  H27 UNL A   1      15.601  -5.253   6.738  1.00  0.00    +0.000 H 
ATOM    119  H28 UNL A   1      17.076  -7.035   5.642  1.00  0.00    +0.000 H 
ATOM    120  H29 UNL A   1      14.354  -3.803  -3.472  1.00  0.00    +0.000 H 
ATOM    121  H30 UNL A   1      13.246  -1.750  -2.415  1.00  0.00    +0.000 H 
ENDROOT
BRANCH   19   18
ATOM     76  C53 UNL A   1      11.251  -0.890  -0.762  1.00  0.00    +0.000 C 
ATOM     77  C54 UNL A   1      10.486   0.171  -1.246  1.00  0.00    +0.000 C 
ATOM    110  H19 UNL A   1      12.412   2.716  -0.213  1.00  0.00    +0.000 H 
ATOM     15  C11 UNL A   1      10.878   1.489  -0.992  1.00  0.00    +0.000 C 
ATOM     16  C12 UNL A   1      12.099   1.743  -0.361  1.00  0.00    +0.000 C 
ATOM     17  C13 UNL A   1      12.895   0.680   0.071  1.00  0.00    +0.000 C 
ATOM    111  H20 UNL A   1      13.807   0.869   0.515  1.00  0.00    +0.000 H 
ATOM     18  C14 UNL A   1      12.461  -0.646  -0.097  1.00  0.00    +0.000 C 
ATOM    122  H31 UNL A   1      10.924  -1.860  -0.894  1.00  0.00    +0.000 H 
ATOM    123  H32 UNL A   1       9.630  -0.017  -1.792  1.00  0.00    +0.000 H 
BRANCH   15   13
ATOM     13  C10 UNL A   1      10.038   2.638  -1.399  1.00  0.00    +0.000 C 
ATOM     14  O2  UNL A   1      10.564   3.620  -1.914  1.00  0.00    +0.000 O 
BRANCH   13   12
ATOM     12  N2  UNL A   1       8.684   2.619  -1.182  1.00  0.00    +0.000 N 
ATOM    109  H18 UNL A   1       8.178   3.344  -1.616  1.00  0.00    +0.000 H 
BRANCH   12   11
ATOM     11  C9  UNL A   1       7.886   1.685  -0.405  1.00  0.00    +0.000 C 
ATOM    108  H17 UNL A   1       8.559   1.030   0.107  1.00  0.00    +0.000 H 
ATOM    107  H16 UNL A   1       7.243   1.147  -1.071  1.00  0.00    +0.000 H 
BRANCH   11   10
ATOM    105  H14 UNL A   1       6.541   1.629   1.230  1.00  0.00    +0.000 H 
ATOM     10  C8  UNL A   1       7.027   2.383   0.647  1.00  0.00    +0.000 C 
ATOM    106  H15 UNL A   1       7.695   2.998   1.214  1.00  0.00    +0.000 H 
BRANCH   10    9
ATOM      9  C7  UNL A   1       5.952   3.321   0.095  1.00  0.00    +0.000 C 
ATOM    103  H12 UNL A   1       5.379   3.689   0.920  1.00  0.00    +0.000 H 
ATOM    104  H13 UNL A   1       6.474   4.087  -0.440  1.00  0.00    +0.000 H 
BRANCH    9    8
ATOM    101  H10 UNL A   1       4.230   3.411  -1.138  1.00  0.00    +0.000 H 
ATOM    102  H11 UNL A   1       5.580   2.402  -1.749  1.00  0.00    +0.000 H 
ATOM      8  C6  UNL A   1       4.985   2.689  -0.907  1.00  0.00    +0.000 C 
BRANCH    8    7
ATOM     99  H8  UNL A   1       3.647   1.068  -1.223  1.00  0.00    +0.000 H 
ATOM    100  H9  UNL A   1       5.062   0.718  -0.185  1.00  0.00    +0.000 H 
ATOM      7  C5  UNL A   1       4.284   1.408  -0.433  1.00  0.00    +0.000 C 
BRANCH    7    6
ATOM     97  H6  UNL A   1       3.026   0.607   1.096  1.00  0.00    +0.000 H 
ATOM     98  H7  UNL A   1       4.055   1.941   1.613  1.00  0.00    +0.000 H 
ATOM      6  C4  UNL A   1       3.430   1.562   0.832  1.00  0.00    +0.000 C 
BRANCH    6    5
ATOM      5  N1  UNL A   1       2.338   2.496   0.630  1.00  0.00    +0.000 N 
ATOM     96  H5  UNL A   1       2.457   3.414   0.966  1.00  0.00    +0.000 H 
BRANCH    5    3
ATOM      3  C3  UNL A   1       1.154   2.195   0.007  1.00  0.00    +0.000 C 
ATOM      4  O1  UNL A   1       0.742   3.019  -0.810  1.00  0.00    +0.000 O 
BRANCH    3    2
ATOM      2  C2  UNL A   1       0.451   0.863   0.332  1.00  0.00    +0.000 C 
ATOM     95  H4  UNL A   1       0.821   0.541   1.284  1.00  0.00    +0.000 H 
BRANCH    2    1
ATOM      1  C1  UNL A   1       0.793  -0.121  -0.794  1.00  0.00    +0.000 C 
ATOM     92  H1  UNL A   1       1.853  -0.145  -0.937  1.00  0.00    +0.000 H 
ATOM     93  H2  UNL A   1       0.319   0.195  -1.700  1.00  0.00    +0.000 H 
ATOM     94  H3  UNL A   1       0.446  -1.099  -0.532  1.00  0.00    +0.000 H 
ENDBRANCH    2    1
BRANCH    2   78
ATOM    137  H46 UNL A   1      -3.709  -0.939   1.554  1.00  0.00    +0.000 H 
ATOM     78  C55 UNL A   1      -1.068   0.929   0.572  1.00  0.00    +0.000 C 
ATOM     79  C56 UNL A   1      -1.808   2.089   0.273  1.00  0.00    +0.000 C 
ATOM     80  C57 UNL A   1      -3.195   2.151   0.429  1.00  0.00    +0.000 C 
ATOM     81  C58 UNL A   1      -3.907   1.056   0.910  1.00  0.00    +0.000 C 
ATOM     89  C65 UNL A   1      -3.198  -0.108   1.218  1.00  0.00    +0.000 C 
ATOM     90  C66 UNL A   1      -1.801  -0.166   1.078  1.00  0.00    +0.000 C 
ATOM     91 Br1  UNL A   1      -0.990  -1.780   1.687  1.00  0.00    +0.000 Br
ATOM    124  H33 UNL A   1      -1.308   2.923  -0.073  1.00  0.00    +0.000 H 
ATOM    125  H34 UNL A   1      -3.698   3.018   0.186  1.00  0.00    +0.000 H 
BRANCH   81   82
ATOM     82  C59 UNL A   1      -5.398   1.142   1.123  1.00  0.00    +0.000 C 
ATOM    126  H35 UNL A   1      -5.798   0.153   1.051  1.00  0.00    +0.000 H 
ATOM    127  H36 UNL A   1      -5.761   1.814   0.373  1.00  0.00    +0.000 H 
BRANCH   82   83
ATOM    129  H38 UNL A   1      -4.442   0.483   3.519  1.00  0.00    +0.000 H 
ATOM    130  H39 UNL A   1      -6.063   0.287   4.069  1.00  0.00    +0.000 H 
ATOM    131  H40 UNL A   1      -4.059   2.222   4.949  1.00  0.00    +0.000 H 
ATOM    132  H41 UNL A   1      -5.551   1.845   5.718  1.00  0.00    +0.000 H 
ATOM    133  H42 UNL A   1      -5.205   4.235   4.571  1.00  0.00    +0.000 H 
ATOM    134  H43 UNL A   1      -6.737   3.503   4.448  1.00  0.00    +0.000 H 
ATOM    135  H44 UNL A   1      -4.469   3.440   2.406  1.00  0.00    +0.000 H 
ATOM     83  C60 UNL A   1      -5.847   1.736   2.468  1.00  0.00    +0.000 C 
ATOM     84  C61 UNL A   1      -5.351   1.008   3.728  1.00  0.00    +0.000 C 
ATOM     85  C62 UNL A   1      -5.107   2.096   4.778  1.00  0.00    +0.000 C 
ATOM     86  C63 UNL A   1      -5.706   3.367   4.196  1.00  0.00    +0.000 C 
ATOM     87  C64 UNL A   1      -5.469   3.201   2.703  1.00  0.00    +0.000 C 
ATOM    128  H37 UNL A   1      -6.903   1.617   2.348  1.00  0.00    +0.000 H 
BRANCH   87   88
ATOM    136  H45 UNL A   1      -7.220   3.906   2.160  1.00  0.00    +0.000 H 
ATOM     88  O3  UNL A   1      -6.289   4.068   1.942  1.00  0.00    +0.000 O 
ENDBRANCH   87   88
ENDBRANCH   82   83
ENDBRANCH   81   82
ENDBRANCH    2   78
ENDBRANCH    3    2
ENDBRANCH    5    3
ENDBRANCH    6    5
ENDBRANCH    7    6
ENDBRANCH    8    7
ENDBRANCH    9    8
ENDBRANCH   10    9
ENDBRANCH   11   10
ENDBRANCH   12   11
ENDBRANCH   13   12
ENDBRANCH   15   13
ENDBRANCH   19   18
BRANCH   23   24
ATOM     33  C24 UNL A   1      15.348  -7.049  -3.635  1.00  0.00    +0.000 C 
ATOM     34  F5  UNL A   1      14.547  -7.808  -2.871  1.00  0.00    +0.000 F 
ATOM     24  C19 UNL A   1      15.926  -5.882  -3.112  1.00  0.00    +0.000 C 
ATOM     25  C20 UNL A   1      16.759  -5.128  -3.953  1.00  0.00    +0.000 C 
ATOM     26  F1  UNL A   1      17.326  -3.999  -3.503  1.00  0.00    +0.000 F 
ATOM     27  C21 UNL A   1      16.991  -5.519  -5.269  1.00  0.00    +0.000 C 
ATOM     28  F2  UNL A   1      17.763  -4.765  -6.064  1.00  0.00    +0.000 F 
ATOM     29  C22 UNL A   1      16.419  -6.683  -5.761  1.00  0.00    +0.000 C 
ATOM     30  F3  UNL A   1      16.653  -7.064  -7.024  1.00  0.00    +0.000 F 
ATOM     31  C23 UNL A   1      15.602  -7.450  -4.944  1.00  0.00    +0.000 C 
ATOM     32  F4  UNL A   1      15.058  -8.581  -5.414  1.00  0.00    +0.000 F 
ENDBRANCH   23   24
BRANCH   40   41
ATOM     41  C30 UNL A   1      17.850  -8.194   3.438  1.00  0.00    +0.000 C 
ATOM     42  C31 UNL A   1      17.269  -9.291   4.090  1.00  0.00    +0.000 C 
ATOM     43  F6  UNL A   1      15.936  -9.367   4.225  1.00  0.00    +0.000 F 
ATOM     44  C32 UNL A   1      18.059 -10.292   4.648  1.00  0.00    +0.000 C 
ATOM     45  F7  UNL A   1      17.485 -11.305   5.311  1.00  0.00    +0.000 F 
ATOM     46  C33 UNL A   1      19.440 -10.233   4.535  1.00  0.00    +0.000 C 
ATOM     47  F8  UNL A   1      20.200 -11.198   5.071  1.00  0.00    +0.000 F 
ATOM     48  C34 UNL A   1      20.035  -9.168   3.874  1.00  0.00    +0.000 C 
ATOM     49  F9  UNL A   1      21.369  -9.115   3.755  1.00  0.00    +0.000 F 
ATOM     50  C35 UNL A   1      19.249  -8.152   3.339  1.00  0.00    +0.000 C 
ATOM     51  F10 UNL A   1      19.853  -7.126   2.720  1.00  0.00    +0.000 F 
ENDBRANCH   40   41
BRANCH   55   56
ATOM     65  C44 UNL A   1      12.810  -3.223   6.830  1.00  0.00    +0.000 C 
ATOM     66  F15 UNL A   1      11.808  -3.697   6.075  1.00  0.00    +0.000 F 
ATOM     56  C39 UNL A   1      14.093  -3.079   6.284  1.00  0.00    +0.000 C 
ATOM     57  C40 UNL A   1      15.103  -2.573   7.114  1.00  0.00    +0.000 C 
ATOM     58  F11 UNL A   1      16.351  -2.438   6.642  1.00  0.00    +0.000 F 
ATOM     59  C41 UNL A   1      14.847  -2.250   8.444  1.00  0.00    +0.000 C 
ATOM     60  F12 UNL A   1      15.842  -1.817   9.230  1.00  0.00    +0.000 F 
ATOM     61  C42 UNL A   1      13.569  -2.397   8.962  1.00  0.00    +0.000 C 
ATOM     62  F13 UNL A   1      13.323  -2.088  10.242  1.00  0.00    +0.000 F 
ATOM     63  C43 UNL A   1      12.548  -2.874   8.153  1.00  0.00    +0.000 C 
ATOM     64  F14 UNL A   1      11.309  -3.005   8.646  1.00  0.00    +0.000 F 
ENDBRANCH   55   56
TORSDOF 20