ROOT
ATOM    145  H37 UNL A   1     -10.208  -4.583  -8.747  1.00  0.00    +0.000 H 
ATOM    146  H38 UNL A   1      -9.238  -5.530 -10.974  1.00  0.00    +0.000 H 
ATOM    147  H39 UNL A   1      -7.482  -1.849 -10.252  1.00  0.00    +0.000 H 
ATOM    148  H40 UNL A   1      -3.706   2.917 -12.153  1.00  0.00    +0.000 H 
ATOM    149  H41 UNL A   1      -4.577   3.795  -9.935  1.00  0.00    +0.000 H 
ATOM    150  H42 UNL A   1      -6.431   0.149 -10.678  1.00  0.00    +0.000 H 
ATOM    151  H43 UNL A   1      -4.315  -1.621 -14.904  1.00  0.00    +0.000 H 
ATOM    152  H44 UNL A   1      -5.776  -3.704 -14.614  1.00  0.00    +0.000 H 
ATOM    153  H45 UNL A   1      -9.308  -0.128  -5.908  1.00  0.00    +0.000 H 
ATOM    154  H46 UNL A   1      -8.176   2.122  -6.376  1.00  0.00    +0.000 H 
ATOM     36  C30 UNL A   1      -6.469   2.086  -8.658  1.00  0.00    +0.000 C 
ATOM     37  C31 UNL A   1      -7.399   1.001  -8.189  1.00  0.00    +0.000 C 
ATOM     38  N4  UNL A   1      -7.630  -0.177  -8.712  1.00  0.00    +0.000 N 
ATOM     39  C32 UNL A   1      -8.509  -0.809  -7.843  1.00  0.00    +0.000 C 
ATOM     40  C33 UNL A   1      -9.082  -2.030  -7.964  1.00  0.00    +0.000 C 
ATOM     52  C40 UNL A   1      -8.894  -2.907  -9.089  1.00  0.00    +0.000 C 
ATOM     53  C41 UNL A   1      -9.500  -4.124  -9.342  1.00  0.00    +0.000 C 
ATOM     54  C42 UNL A   1      -8.990  -4.625 -10.543  1.00  0.00    +0.000 C 
ATOM     55  C43 UNL A   1      -8.094  -3.702 -11.057  1.00  0.00    +0.000 C 
ATOM     56  N5  UNL A   1      -8.041  -2.654 -10.153  1.00  0.00    +0.000 N 
ATOM     57  C44 UNL A   1      -7.338  -3.775 -12.281  1.00  0.00    +0.000 C 
ATOM     69  C51 UNL A   1      -6.495  -2.816 -12.732  1.00  0.00    +0.000 C 
ATOM     70  N6  UNL A   1      -6.184  -1.592 -12.156  1.00  0.00    +0.000 N 
ATOM     71  C52 UNL A   1      -5.326  -1.020 -12.964  1.00  0.00    +0.000 C 
ATOM     72  C53 UNL A   1      -4.663   0.322 -12.839  1.00  0.00    +0.000 C 
ATOM     84  C60 UNL A   1      -4.970   1.121 -11.799  1.00  0.00    +0.000 C 
ATOM     85  C61 UNL A   1      -4.378   2.432 -11.540  1.00  0.00    +0.000 C 
ATOM     86  C62 UNL A   1      -4.851   2.902 -10.375  1.00  0.00    +0.000 C 
ATOM     87  C63 UNL A   1      -5.815   1.948  -9.828  1.00  0.00    +0.000 C 
ATOM     88  N7  UNL A   1      -5.842   0.934 -10.755  1.00  0.00    +0.000 N 
ATOM     89  C64 UNL A   1      -4.977  -1.832 -14.140  1.00  0.00    +0.000 C 
ATOM     90  C65 UNL A   1      -5.734  -2.906 -13.961  1.00  0.00    +0.000 C 
ATOM     91  C66 UNL A   1      -8.744   0.099  -6.742  1.00  0.00    +0.000 C 
ATOM     92  C67 UNL A   1      -8.139   1.261  -6.944  1.00  0.00    +0.000 C 
ENDROOT
BRANCH   36   35
ATOM     33  C27 UNL A   1      -6.052   5.626  -7.309  1.00  0.00    +0.000 C 
ATOM     34  C28 UNL A   1      -6.452   4.566  -8.133  1.00  0.00    +0.000 C 
ATOM     35  C29 UNL A   1      -6.165   3.240  -7.771  1.00  0.00    +0.000 C 
ATOM    143  H35 UNL A   1      -6.242   6.600  -7.590  1.00  0.00    +0.000 H 
ATOM    144  H36 UNL A   1      -6.959   4.761  -9.010  1.00  0.00    +0.000 H 
ATOM    155  H47 UNL A   1      -5.354   2.019  -6.249  1.00  0.00    +0.000 H 
ATOM    156  H48 UNL A   1      -4.830   3.846  -4.750  1.00  0.00    +0.000 H 
ATOM     93  C68 UNL A   1      -5.554   2.991  -6.534  1.00  0.00    +0.000 C 
ATOM     94  C69 UNL A   1      -5.215   4.041  -5.687  1.00  0.00    +0.000 C 
ATOM     32  C26 UNL A   1      -5.395   5.359  -6.106  1.00  0.00    +0.000 C 
BRANCH   32   30
ATOM     30  C25 UNL A   1      -4.914   6.477  -5.263  1.00  0.00    +0.000 C 
ATOM     31  O2  UNL A   1      -5.626   7.446  -5.071  1.00  0.00    +0.000 O 
BRANCH   30   29
ATOM     29  N3  UNL A   1      -3.659   6.403  -4.691  1.00  0.00    +0.000 N 
ATOM    142  H34 UNL A   1      -3.505   7.006  -3.928  1.00  0.00    +0.000 H 
BRANCH   29   28
ATOM    141  H33 UNL A   1      -2.862   4.878  -5.816  1.00  0.00    +0.000 H 
ATOM     28  C24 UNL A   1      -2.532   5.558  -5.059  1.00  0.00    +0.000 C 
ATOM    140  H32 UNL A   1      -2.194   5.035  -4.190  1.00  0.00    +0.000 H 
BRANCH   28   27
ATOM    138  H30 UNL A   1      -0.643   5.688  -6.014  1.00  0.00    +0.000 H 
ATOM     27  C23 UNL A   1      -1.370   6.372  -5.629  1.00  0.00    +0.000 C 
ATOM    139  H31 UNL A   1      -1.789   7.010  -6.378  1.00  0.00    +0.000 H 
BRANCH   27   26
ATOM    137  H29 UNL A   1      -1.447   7.894  -4.193  1.00  0.00    +0.000 H 
ATOM     26  C22 UNL A   1      -0.672   7.291  -4.620  1.00  0.00    +0.000 C 
ATOM    136  H28 UNL A   1       0.074   7.849  -5.146  1.00  0.00    +0.000 H 
BRANCH   26   25
ATOM     25  C21 UNL A   1       0.010   6.591  -3.437  1.00  0.00    +0.000 C 
ATOM    134  H26 UNL A   1       0.489   7.340  -2.841  1.00  0.00    +0.000 H 
ATOM    135  H27 UNL A   1      -0.763   6.061  -2.921  1.00  0.00    +0.000 H 
BRANCH   25   24
ATOM    132  H24 UNL A   1       1.379   5.051  -2.919  1.00  0.00    +0.000 H 
ATOM    133  H25 UNL A   1       0.594   4.882  -4.513  1.00  0.00    +0.000 H 
ATOM     24  C20 UNL A   1       1.062   5.543  -3.814  1.00  0.00    +0.000 C 
BRANCH   24   23
ATOM    130  H22 UNL A   1       2.659   5.391  -5.223  1.00  0.00    +0.000 H 
ATOM    131  H23 UNL A   1       2.024   7.023  -4.997  1.00  0.00    +0.000 H 
ATOM     23  C19 UNL A   1       2.304   6.110  -4.515  1.00  0.00    +0.000 C 
BRANCH   23   22
ATOM    129  H21 UNL A   1       3.281   7.290  -3.146  1.00  0.00    +0.000 H 
ATOM     22  N2  UNL A   1       3.370   6.409  -3.577  1.00  0.00    +0.000 N 
BRANCH   22   20
ATOM     20  C18 UNL A   1       4.469   5.713  -3.175  1.00  0.00    +0.000 C 
ATOM     21  O1  UNL A   1       5.090   6.192  -2.216  1.00  0.00    +0.000 O 
BRANCH   20   18
ATOM     18  C16 UNL A   1       4.971   4.411  -3.828  1.00  0.00    +0.000 C 
ATOM    125  H17 UNL A   1       5.960   4.270  -3.445  1.00  0.00    +0.000 H 
BRANCH   18   17
ATOM     14  C12 UNL A   1       2.630   1.071  -2.236  1.00  0.00    +0.000 C 
ATOM     15  C13 UNL A   1       2.169   1.885  -3.285  1.00  0.00    +0.000 C 
ATOM     16  C14 UNL A   1       2.958   2.865  -3.880  1.00  0.00    +0.000 C 
ATOM     17  C15 UNL A   1       4.205   3.182  -3.370  1.00  0.00    +0.000 C 
ATOM    123  H15 UNL A   1       1.205   1.750  -3.629  1.00  0.00    +0.000 H 
ATOM    124  H16 UNL A   1       2.608   3.362  -4.714  1.00  0.00    +0.000 H 
ATOM    157  H49 UNL A   1       5.675   2.514  -2.022  1.00  0.00    +0.000 H 
ATOM     95  C70 UNL A   1       4.724   2.334  -2.382  1.00  0.00    +0.000 C 
ATOM     96  C71 UNL A   1       3.991   1.238  -1.857  1.00  0.00    +0.000 C 
BRANCH   14    6
ATOM    118  H10 UNL A   1       2.142  -0.879  -1.970  1.00  0.00    +0.000 H 
ATOM      6  C5  UNL A   1       1.702   0.011  -1.571  1.00  0.00    +0.000 C 
BRANCH    6    5
ATOM      2  C2  UNL A   1      -1.912   0.960  -3.669  1.00  0.00    +0.000 C 
ATOM      3  C3  UNL A   1      -1.318  -0.416  -3.957  1.00  0.00    +0.000 C 
ATOM      4  C4  UNL A   1       0.077  -0.587  -3.346  1.00  0.00    +0.000 C 
ATOM    164  H56 UNL A   1      -2.530   0.347  -1.725  1.00  0.00    +0.000 H 
ATOM    165  H57 UNL A   1      -2.402   2.083  -1.930  1.00  0.00    +0.000 H 
ATOM    162  H54 UNL A   1      -0.038   1.998  -1.893  1.00  0.00    +0.000 H 
ATOM    163  H55 UNL A   1      -0.652   1.025  -0.524  1.00  0.00    +0.000 H 
ATOM      5  N1  UNL A   1       0.267  -0.040  -2.001  1.00  0.00    +0.000 N 
ATOM    107  C79 UNL A   1      -0.542   1.106  -1.585  1.00  0.00    +0.000 C 
ATOM    108  C80 UNL A   1      -1.954   1.138  -2.158  1.00  0.00    +0.000 C 
ATOM    112  H4  UNL A   1      -1.306   1.719  -4.118  1.00  0.00    +0.000 H 
ATOM    113  H5  UNL A   1      -1.248  -0.546  -5.016  1.00  0.00    +0.000 H 
ATOM    114  H6  UNL A   1      -1.961  -1.149  -3.515  1.00  0.00    +0.000 H 
ATOM    115  H7  UNL A   1       0.778  -0.107  -3.996  1.00  0.00    +0.000 H 
ATOM    116  H8  UNL A   1       0.218  -1.643  -3.247  1.00  0.00    +0.000 H 
ATOM    117  H9  UNL A   1      -0.179  -0.761  -1.435  1.00  0.00    +0.000 H 
BRANCH    2    1
ATOM      1  C1  UNL A   1      -3.303   1.099  -4.267  1.00  0.00    +0.000 C 
ATOM    109  H1  UNL A   1      -3.249   0.970  -5.328  1.00  0.00    +0.000 H 
ATOM    110  H2  UNL A   1      -3.691   2.071  -4.045  1.00  0.00    +0.000 H 
ATOM    111  H3  UNL A   1      -3.947   0.353  -3.850  1.00  0.00    +0.000 H 
ENDBRANCH    2    1
ENDBRANCH    6    5
BRANCH    6    7
ATOM      7  C6  UNL A   1       1.775  -0.005  -0.030  1.00  0.00    +0.000 C 
ATOM      8  C7  UNL A   1       1.700   1.177   0.734  1.00  0.00    +0.000 C 
ATOM      9  C8  UNL A   1       1.757   1.129   2.128  1.00  0.00    +0.000 C 
ATOM     10  C9  UNL A   1       1.905  -0.096   2.765  1.00  0.00    +0.000 C 
ATOM     11  F1  UNL A   1       1.970  -0.139   4.103  1.00  0.00    +0.000 F 
ATOM     12  C10 UNL A   1       1.984  -1.276   2.038  1.00  0.00    +0.000 C 
ATOM     13  C11 UNL A   1       1.905  -1.234   0.645  1.00  0.00    +0.000 C 
ATOM    119  H11 UNL A   1       1.603   2.087   0.258  1.00  0.00    +0.000 H 
ATOM    120  H12 UNL A   1       1.689   1.998   2.680  1.00  0.00    +0.000 H 
ATOM    121  H13 UNL A   1       2.100  -2.179   2.525  1.00  0.00    +0.000 H 
ATOM    122  H14 UNL A   1       1.942  -2.112   0.105  1.00  0.00    +0.000 H 
ENDBRANCH    6    7
ENDBRANCH   14    6
BRANCH   96   97
ATOM     97  C72 UNL A   1       4.714   0.294  -0.983  1.00  0.00    +0.000 C 
ATOM     98  C73 UNL A   1       5.251   0.696   0.249  1.00  0.00    +0.000 C 
ATOM     99  C74 UNL A   1       5.938  -0.211   1.063  1.00  0.00    +0.000 C 
ATOM    161  H53 UNL A   1       4.556  -1.345  -2.307  1.00  0.00    +0.000 H 
ATOM    100  C75 UNL A   1       6.106  -1.545   0.664  1.00  0.00    +0.000 C 
ATOM    101  C76 UNL A   1       6.849  -2.516   1.546  1.00  0.00    +0.000 C 
ATOM    102  F17 UNL A   1       8.193  -2.296   1.544  1.00  0.00    +0.000 F 
ATOM    103  F18 UNL A   1       6.461  -2.451   2.850  1.00  0.00    +0.000 F 
ATOM    105  C77 UNL A   1       5.595  -1.946  -0.577  1.00  0.00    +0.000 C 
ATOM    106  C78 UNL A   1       4.916  -1.036  -1.391  1.00  0.00    +0.000 C 
ATOM    104  F19 UNL A   1       6.685  -3.818   1.177  1.00  0.00    +0.000 F 
ATOM    158  H50 UNL A   1       5.139   1.674   0.558  1.00  0.00    +0.000 H 
ATOM    159  H51 UNL A   1       6.324   0.104   1.967  1.00  0.00    +0.000 H 
ATOM    160  H52 UNL A   1       5.722  -2.921  -0.893  1.00  0.00    +0.000 H 
ENDBRANCH   96   97
ENDBRANCH   18   17
BRANCH   18   19
ATOM     19  C17 UNL A   1       5.214   4.502  -5.333  1.00  0.00    +0.000 C 
ATOM    126  H18 UNL A   1       4.281   4.647  -5.837  1.00  0.00    +0.000 H 
ATOM    127  H19 UNL A   1       5.668   3.596  -5.677  1.00  0.00    +0.000 H 
ATOM    128  H20 UNL A   1       5.863   5.327  -5.540  1.00  0.00    +0.000 H 
ENDBRANCH   18   19
ENDBRANCH   20   18
ENDBRANCH   22   20
ENDBRANCH   23   22
ENDBRANCH   24   23
ENDBRANCH   25   24
ENDBRANCH   26   25
ENDBRANCH   27   26
ENDBRANCH   28   27
ENDBRANCH   29   28
ENDBRANCH   30   29
ENDBRANCH   32   30
ENDBRANCH   36   35
BRANCH   40   41
ATOM     41  C34 UNL A   1      -9.983  -2.493  -6.858  1.00  0.00    +0.000 C 
ATOM     42  C35 UNL A   1      -9.596  -3.552  -6.023  1.00  0.00    +0.000 C 
ATOM     43  F2  UNL A   1      -8.394  -4.129  -6.174  1.00  0.00    +0.000 F 
ATOM     44  C36 UNL A   1     -10.451  -4.035  -5.035  1.00  0.00    +0.000 C 
ATOM     45  F3  UNL A   1     -10.070  -5.064  -4.265  1.00  0.00    +0.000 F 
ATOM     46  C37 UNL A   1     -11.696  -3.454  -4.849  1.00  0.00    +0.000 C 
ATOM     47  F4  UNL A   1     -12.512  -3.910  -3.889  1.00  0.00    +0.000 F 
ATOM     48  C38 UNL A   1     -12.095  -2.399  -5.656  1.00  0.00    +0.000 C 
ATOM     49  F5  UNL A   1     -13.288  -1.822  -5.463  1.00  0.00    +0.000 F 
ATOM     50  C39 UNL A   1     -11.253  -1.933  -6.662  1.00  0.00    +0.000 C 
ATOM     51  F6  UNL A   1     -11.666  -0.913  -7.430  1.00  0.00    +0.000 F 
ENDBRANCH   40   41
BRANCH   57   58
ATOM     65  C49 UNL A   1      -6.780  -7.215 -13.808  1.00  0.00    +0.000 C 
ATOM     66  F10 UNL A   1      -5.846  -8.176 -13.809  1.00  0.00    +0.000 F 
ATOM     67  C50 UNL A   1      -6.553  -6.026 -13.122  1.00  0.00    +0.000 C 
ATOM     68  F11 UNL A   1      -5.395  -5.865 -12.463  1.00  0.00    +0.000 F 
ATOM     58  C45 UNL A   1      -7.513  -5.005 -13.117  1.00  0.00    +0.000 C 
ATOM     59  C46 UNL A   1      -8.703  -5.213 -13.830  1.00  0.00    +0.000 C 
ATOM     60  F7  UNL A   1      -9.654  -4.266 -13.849  1.00  0.00    +0.000 F 
ATOM     61  C47 UNL A   1      -8.936  -6.411 -14.498  1.00  0.00    +0.000 C 
ATOM     62  F8  UNL A   1     -10.096  -6.605 -15.141  1.00  0.00    +0.000 F 
ATOM     63  C48 UNL A   1      -7.976  -7.412 -14.485  1.00  0.00    +0.000 C 
ATOM     64  F9  UNL A   1      -8.203  -8.568 -15.124  1.00  0.00    +0.000 F 
ENDBRANCH   57   58
BRANCH   72   73
ATOM     73  C54 UNL A   1      -3.699   0.799 -13.862  1.00  0.00    +0.000 C 
ATOM     74  C55 UNL A   1      -2.326   0.887 -13.593  1.00  0.00    +0.000 C 
ATOM     75  F12 UNL A   1      -1.849   0.495 -12.402  1.00  0.00    +0.000 F 
ATOM     76  C56 UNL A   1      -1.441   1.405 -14.537  1.00  0.00    +0.000 C 
ATOM     77  F13 UNL A   1      -0.138   1.512 -14.243  1.00  0.00    +0.000 F 
ATOM     78  C57 UNL A   1      -1.909   1.824 -15.773  1.00  0.00    +0.000 C 
ATOM     79  F14 UNL A   1      -1.058   2.322 -16.681  1.00  0.00    +0.000 F 
ATOM     80  C58 UNL A   1      -3.261   1.728 -16.068  1.00  0.00    +0.000 C 
ATOM     81  F15 UNL A   1      -3.715   2.115 -17.268  1.00  0.00    +0.000 F 
ATOM     82  C59 UNL A   1      -4.149   1.228 -15.118  1.00  0.00    +0.000 C 
ATOM     83  F16 UNL A   1      -5.452   1.146 -15.425  1.00  0.00    +0.000 F 
ENDBRANCH   72   73
TORSDOF 22