ROOT
ATOM     21  C16 UNL A   1       3.720   6.612   8.761  1.00  0.00    +0.000 C 
ATOM     22  C17 UNL A   1       2.930   7.877   8.947  1.00  0.00    +0.000 C 
ATOM     23  N4  UNL A   1       3.312   9.121   8.804  1.00  0.00    +0.000 N 
ATOM     24  C18 UNL A   1       2.184   9.893   9.051  1.00  0.00    +0.000 C 
ATOM     25  C19 UNL A   1       2.074  11.242   9.082  1.00  0.00    +0.000 C 
ATOM     37  C26 UNL A   1       3.167  12.151   8.856  1.00  0.00    +0.000 C 
ATOM     38  C27 UNL A   1       3.170  13.533   8.925  1.00  0.00    +0.000 C 
ATOM     39  C28 UNL A   1       4.451  13.985   8.589  1.00  0.00    +0.000 C 
ATOM     40  C29 UNL A   1       5.257  12.883   8.354  1.00  0.00    +0.000 C 
ATOM     41  N5  UNL A   1       4.455  11.764   8.516  1.00  0.00    +0.000 N 
ATOM     42  C30 UNL A   1       6.654  12.851   8.005  1.00  0.00    +0.000 C 
ATOM     54  C37 UNL A   1       7.379  11.724   7.800  1.00  0.00    +0.000 C 
ATOM     55  N6  UNL A   1       6.973  10.399   7.880  1.00  0.00    +0.000 N 
ATOM     56  C38 UNL A   1       8.030   9.681   7.586  1.00  0.00    +0.000 C 
ATOM     57  C39 UNL A   1       8.178   8.184   7.543  1.00  0.00    +0.000 C 
ATOM     69  C46 UNL A   1       7.123   7.408   7.856  1.00  0.00    +0.000 C 
ATOM     70  C47 UNL A   1       7.118   5.949   7.864  1.00  0.00    +0.000 C 
ATOM     71  C48 UNL A   1       5.885   5.517   8.176  1.00  0.00    +0.000 C 
ATOM     72  C49 UNL A   1       5.022   6.673   8.425  1.00  0.00    +0.000 C 
ATOM     73  N7  UNL A   1       5.845   7.752   8.221  1.00  0.00    +0.000 N 
ATOM     74  C50 UNL A   1       9.223  10.474   7.258  1.00  0.00    +0.000 C 
ATOM     75  C51 UNL A   1       8.782  11.710   7.441  1.00  0.00    +0.000 C 
ATOM     76  C52 UNL A   1       1.092   8.977   9.307  1.00  0.00    +0.000 C 
ATOM     77  C53 UNL A   1       1.515   7.722   9.319  1.00  0.00    +0.000 C 
ATOM    113  H21 UNL A   1       2.367  14.128   9.180  1.00  0.00    +0.000 H 
ATOM    114  H22 UNL A   1       4.746  14.972   8.528  1.00  0.00    +0.000 H 
ATOM    115  H23 UNL A   1       4.755  10.833   8.407  1.00  0.00    +0.000 H 
ATOM    116  H24 UNL A   1       7.931   5.345   7.662  1.00  0.00    +0.000 H 
ATOM    117  H25 UNL A   1       5.593   4.529   8.232  1.00  0.00    +0.000 H 
ATOM    118  H26 UNL A   1       5.547   8.684   8.326  1.00  0.00    +0.000 H 
ATOM    119  H27 UNL A   1      10.158  10.152   6.962  1.00  0.00    +0.000 H 
ATOM    120  H28 UNL A   1       9.365  12.556   7.341  1.00  0.00    +0.000 H 
ATOM    121  H29 UNL A   1       0.113   9.265   9.459  1.00  0.00    +0.000 H 
ATOM    122  H30 UNL A   1       0.989   6.860   9.534  1.00  0.00    +0.000 H 
ENDROOT
BRANCH   21   20
ATOM     78  C54 UNL A   1       2.067   4.931   7.945  1.00  0.00    +0.000 C 
ATOM    111  H19 UNL A   1       3.043   2.475  10.713  1.00  0.00    +0.000 H 
ATOM     79  C55 UNL A   1       1.419   3.702   8.045  1.00  0.00    +0.000 C 
ATOM     17  C12 UNL A   1       1.817   2.783   9.020  1.00  0.00    +0.000 C 
ATOM     18  C13 UNL A   1       2.780   3.139   9.968  1.00  0.00    +0.000 C 
ATOM     19  C14 UNL A   1       3.383   4.397   9.906  1.00  0.00    +0.000 C 
ATOM    112  H20 UNL A   1       4.076   4.670  10.621  1.00  0.00    +0.000 H 
ATOM     20  C15 UNL A   1       3.052   5.292   8.876  1.00  0.00    +0.000 C 
ATOM    123  H31 UNL A   1       1.821   5.580   7.181  1.00  0.00    +0.000 H 
ATOM    124  H32 UNL A   1       0.647   3.471   7.401  1.00  0.00    +0.000 H 
BRANCH   17   15
ATOM     15  C11 UNL A   1       1.210   1.436   9.091  1.00  0.00    +0.000 C 
ATOM     16  O2  UNL A   1       0.913   0.959  10.182  1.00  0.00    +0.000 O 
BRANCH   15   14
ATOM    110  H18 UNL A   1       0.397  -0.064   8.044  1.00  0.00    +0.000 H 
ATOM     14  N3  UNL A   1       0.989   0.716   7.944  1.00  0.00    +0.000 N 
BRANCH   14   13
ATOM    109  H17 UNL A   1       2.177   1.767   6.638  1.00  0.00    +0.000 H 
ATOM    108  H16 UNL A   1       0.678   1.140   5.946  1.00  0.00    +0.000 H 
ATOM     13  C10 UNL A   1       1.501   0.939   6.600  1.00  0.00    +0.000 C 
BRANCH   13   12
ATOM    106  H14 UNL A   1       2.683  -0.012   5.120  1.00  0.00    +0.000 H 
ATOM    107  H15 UNL A   1       3.009  -0.504   6.806  1.00  0.00    +0.000 H 
ATOM     12  C9  UNL A   1       2.266  -0.271   6.071  1.00  0.00    +0.000 C 
BRANCH   12   11
ATOM    105  H13 UNL A   1       0.979  -1.734   6.849  1.00  0.00    +0.000 H 
ATOM     11  C8  UNL A   1       1.419  -1.534   5.894  1.00  0.00    +0.000 C 
ATOM    104  H12 UNL A   1       2.062  -2.317   5.548  1.00  0.00    +0.000 H 
BRANCH   11   10
ATOM     10  C7  UNL A   1       0.253  -1.405   4.906  1.00  0.00    +0.000 C 
ATOM    102  H10 UNL A   1      -0.226  -2.359   4.833  1.00  0.00    +0.000 H 
ATOM    103  H11 UNL A   1      -0.383  -0.638   5.294  1.00  0.00    +0.000 H 
BRANCH   10    9
ATOM      9  C6  UNL A   1       0.646  -0.961   3.491  1.00  0.00    +0.000 C 
ATOM    100  H8  UNL A   1      -0.243  -0.887   2.900  1.00  0.00    +0.000 H 
ATOM    101  H9  UNL A   1       1.150  -0.022   3.585  1.00  0.00    +0.000 H 
BRANCH    9    8
ATOM     98  H6  UNL A   1       2.027  -1.436   1.937  1.00  0.00    +0.000 H 
ATOM     99  H7  UNL A   1       2.378  -2.190   3.491  1.00  0.00    +0.000 H 
ATOM      8  C5  UNL A   1       1.611  -1.922   2.795  1.00  0.00    +0.000 C 
BRANCH    8    7
ATOM     97  H5  UNL A   1       0.854  -3.834   3.056  1.00  0.00    +0.000 H 
ATOM      7  N2  UNL A   1       0.942  -3.134   2.369  1.00  0.00    +0.000 N 
BRANCH    7    5
ATOM      5  C4  UNL A   1       0.417  -3.439   1.146  1.00  0.00    +0.000 C 
ATOM      6  O1  UNL A   1      -0.323  -4.421   1.061  1.00  0.00    +0.000 O 
BRANCH    5    4
ATOM      4  C3  UNL A   1       0.806  -2.639  -0.088  1.00  0.00    +0.000 C 
ATOM     95  H3  UNL A   1       1.873  -2.560  -0.109  1.00  0.00    +0.000 H 
ATOM     96  H4  UNL A   1       0.403  -3.166  -0.927  1.00  0.00    +0.000 H 
BRANCH    4    3
ATOM      2  C1  UNL A   1       1.022  -0.054  -0.158  1.00  0.00    +0.000 C 
ATOM      3  C2  UNL A   1       0.228  -1.235  -0.149  1.00  0.00    +0.000 C 
ATOM     80  C56 UNL A   1      -1.177  -1.136  -0.162  1.00  0.00    +0.000 C 
ATOM     81  C57 UNL A   1      -1.807   0.100  -0.173  1.00  0.00    +0.000 C 
ATOM     82  C58 UNL A   1      -1.041   1.259  -0.177  1.00  0.00    +0.000 C 
ATOM     83  C59 UNL A   1       0.368   1.209  -0.178  1.00  0.00    +0.000 C 
ATOM    125  H33 UNL A   1      -1.747  -1.996  -0.162  1.00  0.00    +0.000 H 
ATOM    126  H34 UNL A   1      -2.837   0.158  -0.178  1.00  0.00    +0.000 H 
ATOM    127  H35 UNL A   1      -1.513   2.177  -0.179  1.00  0.00    +0.000 H 
BRANCH    2    1
ATOM      1  N1  UNL A   1       2.418  -0.163  -0.220  1.00  0.00    +0.000 N 
ATOM     93  H1  UNL A   1       2.844  -1.051  -0.204  1.00  0.00    +0.000 H 
ATOM     94  H2  UNL A   1       2.973   0.648  -0.280  1.00  0.00    +0.000 H 
ENDBRANCH    2    1
BRANCH   83   84
ATOM     84  C60 UNL A   1       1.034   2.557  -0.129  1.00  0.00    +0.000 C 
ATOM     85  O3  UNL A   1       0.377   3.562   0.146  1.00  0.00    +0.000 O 
BRANCH   84   86
ATOM    129  H37 UNL A   1       5.108   3.862   1.479  1.00  0.00    +0.000 H 
ATOM    130  H38 UNL A   1       5.041   2.207  -2.391  1.00  0.00    +0.000 H 
ATOM    131  H39 UNL A   1       2.615   2.026  -2.278  1.00  0.00    +0.000 H 
ATOM     86  C61 UNL A   1       2.483   2.764  -0.300  1.00  0.00    +0.000 C 
ATOM     87  C62 UNL A   1       3.192   3.330   0.768  1.00  0.00    +0.000 C 
ATOM     88  C63 UNL A   1       4.580   3.455   0.692  1.00  0.00    +0.000 C 
ATOM     89  C64 UNL A   1       5.247   3.026  -0.456  1.00  0.00    +0.000 C 
ATOM     90 Br1  UNL A   1       7.133   3.135  -0.532  1.00  0.00    +0.000 Br
ATOM     91  C65 UNL A   1       4.538   2.505  -1.540  1.00  0.00    +0.000 C 
ATOM     92  C66 UNL A   1       3.147   2.388  -1.471  1.00  0.00    +0.000 C 
ATOM    128  H36 UNL A   1       2.689   3.655   1.608  1.00  0.00    +0.000 H 
ENDBRANCH   84   86
ENDBRANCH   83   84
ENDBRANCH    4    3
ENDBRANCH    5    4
ENDBRANCH    7    5
ENDBRANCH    8    7
ENDBRANCH    9    8
ENDBRANCH   10    9
ENDBRANCH   11   10
ENDBRANCH   12   11
ENDBRANCH   13   12
ENDBRANCH   14   13
ENDBRANCH   15   14
ENDBRANCH   17   15
ENDBRANCH   21   20
BRANCH   25   26
ATOM     33  C24 UNL A   1      -1.241  13.064   8.653  1.00  0.00    +0.000 C 
ATOM     34  F4  UNL A   1      -1.901  13.723   7.690  1.00  0.00    +0.000 F 
ATOM     35  C25 UNL A   1       0.001  12.496   8.380  1.00  0.00    +0.000 C 
ATOM     36  F5  UNL A   1       0.506  12.613   7.143  1.00  0.00    +0.000 F 
ATOM     26  C20 UNL A   1       0.720  11.820   9.377  1.00  0.00    +0.000 C 
ATOM     27  C21 UNL A   1       0.148  11.734  10.655  1.00  0.00    +0.000 C 
ATOM     28  F1  UNL A   1       0.790  11.088  11.640  1.00  0.00    +0.000 F 
ATOM     29  C22 UNL A   1      -1.107  12.278  10.917  1.00  0.00    +0.000 C 
ATOM     30  F2  UNL A   1      -1.654  12.142  12.133  1.00  0.00    +0.000 F 
ATOM     31  C23 UNL A   1      -1.797  12.948   9.918  1.00  0.00    +0.000 C 
ATOM     32  F3  UNL A   1      -3.002  13.476  10.173  1.00  0.00    +0.000 F 
ENDBRANCH   25   26
BRANCH   42   43
ATOM     43  C31 UNL A   1       7.372  14.161   7.878  1.00  0.00    +0.000 C 
ATOM     44  C32 UNL A   1       7.755  14.672   6.630  1.00  0.00    +0.000 C 
ATOM     45  F6  UNL A   1       7.530  13.963   5.513  1.00  0.00    +0.000 F 
ATOM     46  C33 UNL A   1       8.406  15.899   6.528  1.00  0.00    +0.000 C 
ATOM     47  F7  UNL A   1       8.802  16.348   5.329  1.00  0.00    +0.000 F 
ATOM     48  C34 UNL A   1       8.658  16.650   7.667  1.00  0.00    +0.000 C 
ATOM     49  F8  UNL A   1       9.279  17.833   7.566  1.00  0.00    +0.000 F 
ATOM     50  C35 UNL A   1       8.273  16.171   8.910  1.00  0.00    +0.000 C 
ATOM     51  F9  UNL A   1       8.505  16.901  10.010  1.00  0.00    +0.000 F 
ATOM     52  C36 UNL A   1       7.646  14.933   9.018  1.00  0.00    +0.000 C 
ATOM     53  F10 UNL A   1       7.296  14.490  10.235  1.00  0.00    +0.000 F 
ENDBRANCH   42   43
BRANCH   57   58
ATOM     65  C44 UNL A   1      10.878   6.284   5.662  1.00  0.00    +0.000 C 
ATOM     66  F14 UNL A   1      11.017   5.616   4.509  1.00  0.00    +0.000 F 
ATOM     67  C45 UNL A   1       9.657   6.875   5.980  1.00  0.00    +0.000 C 
ATOM     68  F15 UNL A   1       8.641   6.769   5.112  1.00  0.00    +0.000 F 
ATOM     58  C40 UNL A   1       9.479   7.559   7.191  1.00  0.00    +0.000 C 
ATOM     59  C41 UNL A   1      10.571   7.635   8.066  1.00  0.00    +0.000 C 
ATOM     60  F11 UNL A   1      10.453   8.296   9.227  1.00  0.00    +0.000 F 
ATOM     61  C42 UNL A   1      11.799   7.066   7.736  1.00  0.00    +0.000 C 
ATOM     62  F12 UNL A   1      12.838   7.189   8.572  1.00  0.00    +0.000 F 
ATOM     63  C43 UNL A   1      11.950   6.387   6.536  1.00  0.00    +0.000 C 
ATOM     64  F13 UNL A   1      13.130   5.836   6.221  1.00  0.00    +0.000 F 
ENDBRANCH   57   58
TORSDOF 19