REMARK  Name = 
REMARK  24 active torsions:
REMARK  status: ('A' for Active; 'I' for Inactive)
REMARK    1  A    between atoms: N_1  and  CA_2
REMARK    2  A    between atoms: CA_2  and  CB_3
REMARK    3  A    between atoms: CA_2  and  C_13
REMARK    4  A    between atoms: CB_3  and  CG_4
REMARK    5  A    between atoms: N_15  and  CA_16
REMARK    6  A    between atoms: CA_16  and  CB_17
REMARK    7  A    between atoms: CA_16  and  C_19
REMARK    8  A    between atoms: CB_17  and  SG_18
REMARK    9  A    between atoms: N_21  and  C_22
REMARK   10  A    between atoms: C_22  and  C_23
REMARK   11  A    between atoms: C_22  and  C_25
REMARK   12  A    between atoms: C_23  and  O_24
REMARK   13  A    between atoms: N_27  and  C_28
REMARK   14  A    between atoms: C_28  and  C_29
REMARK   15  A    between atoms: C_29  and  C_30
REMARK   16  A    between atoms: C_30  and  C_31
REMARK   17  A    between atoms: C_31  and  C_32
REMARK   18  A    between atoms: C_32  and  C_33
REMARK   19  A    between atoms: C_33  and  N_34
REMARK   20  A    between atoms: C_35  and  C_37
REMARK   21  A    between atoms: C_40  and  C_41
REMARK   22  A    between atoms: C_45  and  C_46
REMARK   23  A    between atoms: C_62  and  C_63
REMARK   24  A    between atoms: C_77  and  C_78
REMARK                            x       y       z     vdW  Elec       q    Type
REMARK                         _______ _______ _______ _____ _____    ______ ____
ROOT
ATOM      1  C   UNK A   3      20.655  -1.010  17.206  0.00  0.00    +0.000 C 
ATOM      2  C   UNK A   3      20.189  -0.013  18.235  0.00  0.00    +0.000 C 
ATOM      3  N   UNK A   3      20.548   0.058  19.484  0.00  0.00    +0.000 NA
ATOM      4  C   UNK A   3      19.881   1.118  20.038  0.00  0.00    +0.000 C 
ATOM      5  C   UNK A   3      19.941   1.536  21.321  0.00  0.00    +0.000 C 
ATOM      6  C   UNK A   3      20.748   0.950  22.368  0.00  0.00    +0.000 A 
ATOM      7  C   UNK A   3      20.795   1.329  23.703  0.00  0.00    +0.000 A 
ATOM      8  C   UNK A   3      21.752   0.544  24.359  0.00  0.00    +0.000 A 
ATOM      9  C   UNK A   3      22.264  -0.366  23.453  0.00  0.00    +0.000 A 
ATOM     10  N   UNK A   3      21.643  -0.106  22.239  0.00  0.00    +0.000 N 
ATOM     11  C   UNK A   3      23.245  -1.400  23.667  0.00  0.00    +0.000 C 
ATOM     12  C   UNK A   3      23.686  -2.263  22.721  0.00  0.00    +0.000 C 
ATOM     13  N   UNK A   3      23.292  -2.356  21.390  0.00  0.00    +0.000 NA
ATOM     14  C   UNK A   3      23.985  -3.345  20.878  0.00  0.00    +0.000 C 
ATOM     15  C   UNK A   3      23.933  -3.894  19.467  0.00  0.00    +0.000 C 
ATOM     16  C   UNK A   3      23.092  -3.358  18.555  0.00  0.00    +0.000 A 
ATOM     17  C   UNK A   3      22.931  -3.789  17.171  0.00  0.00    +0.000 A 
ATOM     18  C   UNK A   3      22.047  -2.982  16.555  0.00  0.00    +0.000 A 
ATOM     19  C   UNK A   3      21.551  -1.981  17.510  0.00  0.00    +0.000 A 
ATOM     20  N   UNK A   3      22.213  -2.304  18.675  0.00  0.00    +0.000 N 
ATOM     21  C   UNK A   3      24.908  -3.983  21.826  0.00  0.00    +0.000 C 
ATOM     22  C   UNK A   3      24.678  -3.296  22.939  0.00  0.00    +0.000 C 
ATOM     23  C   UNK A   3      19.082   1.699  18.975  0.00  0.00    +0.000 C 
ATOM     24  C   UNK A   3      19.225   1.020  17.838  0.00  0.00    +0.000 C 
ATOM     25  H   UNK A   3      21.839  -0.640  21.406  0.00  0.00    +0.000 HD
ATOM     26  H   UNK A   3      22.139  -1.819  19.561  0.00  0.00    +0.000 HD
ENDROOT
BRANCH  15  27
ATOM     27  C   UNK A   3      24.813  -5.029  19.086  0.00  0.00    +0.000 A 
ATOM     28  C   UNK A   3      26.086  -4.814  18.534  0.00  0.00    +0.000 A 
ATOM     29  F   UNK A   3      26.532  -3.565  18.326  0.00  0.00    +0.000 F 
ATOM     30  C   UNK A   3      26.923  -5.885  18.215  0.00  0.00    +0.000 A 
ATOM     31  F   UNK A   3      28.136  -5.658  17.687  0.00  0.00    +0.000 F 
ATOM     32  C   UNK A   3      26.510  -7.188  18.455  0.00  0.00    +0.000 A 
ATOM     33  F   UNK A   3      27.326  -8.214  18.178  0.00  0.00    +0.000 F 
ATOM     34  C   UNK A   3      25.254  -7.424  18.998  0.00  0.00    +0.000 A 
ATOM     35  F   UNK A   3      24.862  -8.680  19.255  0.00  0.00    +0.000 F 
ATOM     36  C   UNK A   3      24.408  -6.354  19.301  0.00  0.00    +0.000 A 
ATOM     37  F   UNK A   3      23.205  -6.611  19.835  0.00  0.00    +0.000 F 
ENDBRANCH  15  27
BRANCH  11  38
ATOM     38  C   UNK A   3      23.806  -1.565  25.042  0.00  0.00    +0.000 A 
ATOM     39  C   UNK A   3      24.979  -0.907  25.435  0.00  0.00    +0.000 A 
ATOM     40  F   UNK A   3      25.638  -0.125  24.567  0.00  0.00    +0.000 F 
ATOM     41  C   UNK A   3      25.482  -1.057  26.725  0.00  0.00    +0.000 A 
ATOM     42  F   UNK A   3      26.614  -0.433  27.073  0.00  0.00    +0.000 F 
ATOM     43  C   UNK A   3      24.814  -1.851  27.644  0.00  0.00    +0.000 A 
ATOM     44  F   UNK A   3      25.287  -1.992  28.891  0.00  0.00    +0.000 F 
ATOM     45  C   UNK A   3      23.648  -2.505  27.273  0.00  0.00    +0.000 A 
ATOM     46  F   UNK A   3      23.004  -3.269  28.166  0.00  0.00    +0.000 F 
ATOM     47  C   UNK A   3      23.149  -2.370  25.982  0.00  0.00    +0.000 A 
ATOM     48  F   UNK A   3      22.033  -3.033  25.644  0.00  0.00    +0.000 F 
ENDBRANCH  11  38
BRANCH   5  49
ATOM     49  C   UNK A   3      19.089   2.711  21.664  0.00  0.00    +0.000 A 
ATOM     50  C   UNK A   3      17.767   2.545  22.089  0.00  0.00    +0.000 A 
ATOM     51  F   UNK A   3      17.229   1.318  22.159  0.00  0.00    +0.000 F 
ATOM     52  C   UNK A   3      16.989   3.646  22.437  0.00  0.00    +0.000 A 
ATOM     53  F   UNK A   3      15.716   3.469  22.817  0.00  0.00    +0.000 F 
ATOM     54  C   UNK A   3      17.524   4.925  22.378  0.00  0.00    +0.000 A 
ATOM     55  F   UNK A   3      16.772   5.983  22.710  0.00  0.00    +0.000 F 
ATOM     56  C   UNK A   3      18.835   5.106  21.958  0.00  0.00    +0.000 A 
ATOM     57  F   UNK A   3      19.353   6.339  21.888  0.00  0.00    +0.000 F 
ATOM     58  C   UNK A   3      19.611   4.008  21.600  0.00  0.00    +0.000 A 
ATOM     59  F   UNK A   3      20.872   4.200  21.185  0.00  0.00    +0.000 F 
ENDBRANCH   5  49
BRANCH   1  63
ATOM     60  C   UNK A   3      19.137  -0.648  13.179  0.00  0.00    +0.000 A 
ATOM     61  C   UNK A   3      18.500  -1.483  14.107  0.00  0.00    +0.000 A 
ATOM     62  C   UNK A   3      18.989  -1.598  15.418  0.00  0.00    +0.000 A 
ATOM     63  C   UNK A   3      20.134  -0.898  15.818  0.00  0.00    +0.000 A 
ATOM     64  C   UNK A   3      20.789  -0.079  14.888  0.00  0.00    +0.000 A 
ATOM     65  C   UNK A   3      20.286   0.049  13.585  0.00  0.00    +0.000 A 
BRANCH  60  67
ATOM     66  N   UNK A   3      17.283  -0.722  11.578  0.00  0.00    +0.000 N 
ATOM     67  C   UNK A   3      18.645  -0.515  11.762  0.00  0.00    +0.000 C 
ATOM     68  O   UNK A   3      19.417  -0.234  10.849  0.00  0.00    +0.000 OA
ATOM     69  H   UNK A   3      16.677  -0.795  12.388  0.00  0.00    +0.000 HD
BRANCH  66  70
ATOM     70  C   UNK A   3      16.680  -0.616  10.255  0.00  0.00    +0.000 C 
BRANCH  70  71
ATOM     71  C   UNK A   3      16.236   0.811   9.928  0.00  0.00    +0.000 C 
BRANCH  71  72
ATOM     72  C   UNK A   3      15.657   0.906   8.511  0.00  0.00    +0.000 C 
BRANCH  72  73
ATOM     73  C   UNK A   3      15.185   2.326   8.174  0.00  0.00    +0.000 C 
BRANCH  73  74
ATOM     74  C   UNK A   3      14.596   2.403   6.762  0.00  0.00    +0.000 C 
BRANCH  74  75
ATOM     75  C   UNK A   3      14.102   3.805   6.413  0.00  0.00    +0.000 C 
BRANCH  75  78
ATOM     76  C   UNK A   3      12.236   3.768   4.758  0.00  0.00    +0.000 C 
ATOM     77  O   UNK A   3      11.324   3.577   5.562  0.00  0.00    +0.000 OA
ATOM     78  N   UNK A   3      13.586   3.849   5.051  0.00  0.00    +0.000 N 
ATOM     79  H   UNK A   3      14.260   4.052   4.319  0.00  0.00    +0.000 HD
BRANCH  76  80
ATOM     80  C   UNK A   3      11.803   3.996   3.309  0.00  0.00    +0.000 C 
BRANCH  80  83
ATOM     81  C   CYS A   2       9.594   3.793   2.080  0.00  0.00    +0.000 C 
ATOM     82  O   CYS A   2      10.042   4.046   0.966  0.00  0.00    +0.000 OA
ATOM     83  N   UNK A   3      10.340   3.734   3.245  0.00  0.00    +0.000 N 
ATOM     84  H   UNK A   3       9.894   3.436   4.114  0.00  0.00    +0.000 HD
BRANCH  81  85
ATOM     85  CA  CYS A   2       8.111   3.487   2.226  0.00  0.00    +0.000 C 
BRANCH  85  88
ATOM     86  C   TRP A   1       6.168   3.963   0.710  0.00  0.00    +0.000 C 
ATOM     87  O   TRP A   1       5.374   4.169   1.631  0.00  0.00    +0.000 OA
ATOM     88  N   CYS A   2       7.513   3.708   0.912  0.00  0.00    +0.000 N 
ATOM     89  H   CYS A   2       8.075   3.612   0.058  0.00  0.00    +0.000 HD
BRANCH  86  90
ATOM     90  CA  TRP A   1       5.751   4.047  -0.797  0.00  0.00    +0.000 C 
BRANCH  90  91
ATOM     91  N   TRP A   1       6.551   3.058  -1.568  0.00  0.00    +0.000 NA
ATOM     92  H1  TRP A   1       6.250   3.121  -2.545  0.00  0.00    +0.000 HD
ATOM     93  H2  TRP A   1       6.273   2.121  -1.278  0.00  0.00    +0.000 HD
ENDBRANCH  90  91
BRANCH  90  94
ATOM     94  CB  TRP A   1       4.215   3.875  -0.884  0.00  0.00    +0.000 C 
BRANCH  94  95
ATOM     95  CG  TRP A   1       3.570   3.970  -2.245  0.00  0.00    +0.000 A 
ATOM     96  CD1 TRP A   1       3.062   5.101  -2.863  0.00  0.00    +0.000 A 
ATOM     97  NE1 TRP A   1       2.530   4.738  -4.079  0.00  0.00    +0.000 N 
ATOM     98  CE2 TRP A   1       2.597   3.371  -4.239  0.00  0.00    +0.000 A 
ATOM     99  CZ2 TRP A   1       2.151   2.547  -5.285  0.00  0.00    +0.000 A 
ATOM    100  CH2 TRP A   1       2.324   1.165  -5.137  0.00  0.00    +0.000 A 
ATOM    101  CZ3 TRP A   1       2.916   0.633  -3.994  0.00  0.00    +0.000 A 
ATOM    102  CE3 TRP A   1       3.378   1.470  -2.972  0.00  0.00    +0.000 A 
ATOM    103  CD2 TRP A   1       3.226   2.866  -3.095  0.00  0.00    +0.000 A 
ATOM    104  HE1 TRP A   1       2.107   5.382  -4.734  0.00  0.00    +0.000 HD
ENDBRANCH  94  95
ENDBRANCH  90  94
ENDBRANCH  86  90
ENDBRANCH  85  88
BRANCH  85 105
ATOM    105  CB  CYS A   2       7.852   2.088   2.801  0.00  0.00    +0.000 C 
BRANCH 105 106
ATOM    106  SG  CYS A   2       8.745   0.709   1.988  0.00  0.00    +0.000 S 
ATOM    107  HG  CYS A   2       8.691   1.195   0.738  0.00  0.00    +0.000 HD
ENDBRANCH 105 106
ENDBRANCH  85 105
ENDBRANCH  81  85
ENDBRANCH  80  83
BRANCH  80 108
ATOM    108  C   UNK A   3      12.131   5.419   2.859  0.00  0.00    +0.000 C 
BRANCH 108 109
ATOM    109  O   UNK A   3      11.403   6.450   3.530  0.00  0.00    +0.000 OA
ATOM    110  H   UNK A   3      10.580   6.134   3.935  0.00  0.00    +0.000 HD
ENDBRANCH 108 109
ENDBRANCH  80 108
ENDBRANCH  76  80
ENDBRANCH  75  78
ENDBRANCH  74  75
ENDBRANCH  73  74
ENDBRANCH  72  73
ENDBRANCH  71  72
ENDBRANCH  70  71
ENDBRANCH  66  70
ENDBRANCH  60  67
ENDBRANCH   1  63
TORSDOF 24
