MODEL 1
REMARK VINA RESULT:     -13.5      0.000      0.000
REMARK SMILES C[C@@H]1CC(C)(C)C[C@@](CC(=O)Nc2cccc(C(F)(F)F)c2)(C(=O)NCCCCCCNC(=O)c2ccc(-c3c4nc(c(-c5c(F)c(F)c(F)c(F)c5F)c5ccc([nH]5)c(-c5c(F)c(F)c(F)c(F)c5F)c5nc(c(-c6c(F)c(F)c(F)c(F)c6F)c6ccc3[nH]6)C=C5)C=C4)cc2)C1
REMARK SMILES IDX 27 1 26 2 25 3 23 4 24 5 8 7 1 8 2 9 3 10 98 11 4 12 5 13
REMARK SMILES IDX 6 14 7 15 9 16 10 17 11 18 12 19 13 21 14 22 22 23 15 24
REMARK SMILES IDX 17 25 16 26 18 27 19 28 20 29 21 30 28 31 29 32 30 33 31 34
REMARK SMILES IDX 32 35 33 36 34 38 35 39 36 40 97 41 37 42 96 43 38 44 39 45
REMARK SMILES IDX 40 46 90 47 41 48 95 49 89 50 91 51 42 52 94 53 88 54 87 55
REMARK SMILES IDX 43 57 75 58 55 59 74 60 56 61 59 62 73 63 92 64 57 65 58 66
REMARK SMILES IDX 72 68 93 69 60 70 44 71 45 72 53 73 46 74 47 75 51 76 54 77
REMARK SMILES IDX 48 78 49 79 52 80 50 81 76 82 77 83 85 84 78 85 79 86 83 87
REMARK SMILES IDX 86 88 80 89 81 90 84 91 82 92 61 93 62 94 70 95 63 96 64 97
REMARK SMILES IDX 68 98 71 99 65 100 66 101 69 102 67 103
REMARK H PARENT 25 6 12 20 32 37 91 56 59 67
REMARK Flexibility Score: inf
ROOT
ATOM      1  C   UNL A   1      36.642  22.960  23.518  1.00  0.00     0.021 C 
ENDROOT
BRANCH   1   2
ATOM      2  C   UNL A   1      35.527  23.911  23.985  1.00  0.00     0.116 C 
BRANCH   2   3
ATOM      3  N   UNL A   1      34.981  23.574  25.303  1.00  0.00    -0.356 N 
ATOM      4  C   UNL A   1      34.015  24.125  26.113  1.00  0.00     0.226 C 
ATOM      5  O   UNL A   1      33.837  23.535  27.183  1.00  0.00    -0.274 OA
ATOM      6  H   UNL A   1      35.398  22.774  25.696  1.00  0.00     0.163 HD
BRANCH   4   7
ATOM      7  C   UNL A   1      33.174  25.411  25.738  1.00  0.00     0.059 C 
ATOM      8  C   UNL A   1      32.303  28.700  25.995  1.00  0.00     0.008 C 
ATOM      9  C   UNL A   1      33.583  28.035  25.505  1.00  0.00    -0.013 C 
ATOM     10  C   UNL A   1      33.644  27.935  23.996  1.00  0.00     0.009 C 
ATOM     11  C   UNL A   1      33.973  26.685  26.112  1.00  0.00     0.020 C 
ATOM     12  C   UNL A   1      32.905  26.729  23.379  1.00  0.00    -0.034 C 
ATOM     13  C   UNL A   1      31.404  27.007  23.206  1.00  0.00     0.011 C 
ATOM     14  C   UNL A   1      33.504  26.593  21.953  1.00  0.00     0.011 C 
ATOM     15  C   UNL A   1      33.098  25.389  24.166  1.00  0.00     0.024 C 
BRANCH   7  16
ATOM     16  C   UNL A   1      31.868  25.202  26.544  1.00  0.00     0.117 C 
BRANCH  16  17
ATOM     17  C   UNL A   1      30.637  24.412  26.181  1.00  0.00     0.225 C 
ATOM     18  O   UNL A   1      29.547  24.827  26.612  1.00  0.00    -0.275 OA
ATOM     19  N   UNL A   1      30.540  23.352  25.347  1.00  0.00    -0.326 N 
ATOM     20  H   UNL A   1      29.596  23.179  25.127  1.00  0.00     0.169 HD
BRANCH  19  21
ATOM     21  C   UNL A   1      31.366  22.419  24.694  1.00  0.00     0.041 A 
ATOM     22  C   UNL A   1      31.458  22.618  23.305  1.00  0.00     0.026 A 
ATOM     23  C   UNL A   1      31.961  21.280  25.234  1.00  0.00     0.039 A 
ATOM     24  C   UNL A   1      31.995  21.650  22.459  1.00  0.00     0.003 A 
ATOM     25  C   UNL A   1      32.408  20.241  24.380  1.00  0.00     0.058 A 
ATOM     26  C   UNL A   1      32.435  20.448  22.992  1.00  0.00     0.013 A 
BRANCH  25  27
ATOM     27  C   UNL A   1      32.777  18.873  24.917  1.00  0.00     0.416 C 
ATOM     28  F   UNL A   1      31.902  17.901  24.519  1.00  0.00    -0.166 F 
ATOM     29  F   UNL A   1      34.003  18.458  24.507  1.00  0.00    -0.166 F 
ATOM     30  F   UNL A   1      32.778  18.814  26.274  1.00  0.00    -0.166 F 
ENDBRANCH  25  27
ENDBRANCH  19  21
ENDBRANCH  16  17
ENDBRANCH   7  16
ENDBRANCH   4   7
ENDBRANCH   2   3
ENDBRANCH   1   2
BRANCH   1  31
ATOM     31  C   UNL A   1      37.384  22.181  24.620  1.00  0.00     0.002 C 
BRANCH  31  32
ATOM     32  C   UNL A   1      36.915  20.749  24.908  1.00  0.00     0.002 C 
BRANCH  32  33
ATOM     33  C   UNL A   1      37.998  19.670  25.009  1.00  0.00     0.021 C 
BRANCH  33  34
ATOM     34  C   UNL A   1      39.318  20.084  25.658  1.00  0.00     0.116 C 
BRANCH  34  35
ATOM     35  N   UNL A   1      40.293  19.004  25.745  1.00  0.00    -0.352 N 
ATOM     36  C   UNL A   1      41.633  19.049  26.050  1.00  0.00     0.251 C 
ATOM     37  H   UNL A   1      39.938  18.105  25.556  1.00  0.00     0.163 HD
ATOM     38  O   UNL A   1      42.314  18.025  25.977  1.00  0.00    -0.269 OA
BRANCH  36  39
ATOM     39  C   UNL A   1      42.284  20.325  26.427  1.00  0.00     0.039 A 
ATOM     40  C   UNL A   1      43.012  21.022  25.457  1.00  0.00     0.014 A 
ATOM     41  C   UNL A   1      42.183  20.840  27.722  1.00  0.00     0.014 A 
ATOM     42  C   UNL A   1      43.551  22.278  25.754  1.00  0.00     0.010 A 
ATOM     43  C   UNL A   1      42.665  22.120  28.000  1.00  0.00     0.010 A 
ATOM     44  C   UNL A   1      43.334  22.862  27.013  1.00  0.00    -0.014 A 
BRANCH  44  45
ATOM     45  C   UNL A   1      43.745  24.264  27.296  1.00  0.00     0.031 A 
ATOM     46  C   UNL A   1      42.740  25.281  27.758  1.00  0.00     0.074 A 
ATOM     47  C   UNL A   1      45.015  24.641  27.047  1.00  0.00     0.049 A 
ATOM     48  N   UNL A   1      42.894  26.566  27.958  1.00  0.00    -0.248 NA
ATOM     49  C   UNL A   1      41.374  24.795  28.006  1.00  0.00     0.031 C 
ATOM     50  C   UNL A   1      46.075  23.762  26.552  1.00  0.00     0.029 A 
ATOM     51  N   UNL A   1      45.627  25.866  27.157  1.00  0.00    -0.354 N 
ATOM     52  C   UNL A   1      41.648  27.044  28.341  1.00  0.00     0.074 A 
ATOM     53  C   UNL A   1      40.737  25.919  28.305  1.00  0.00     0.031 C 
ATOM     54  C   UNL A   1      47.206  24.470  26.409  1.00  0.00     0.029 A 
ATOM     55  C   UNL A   1      46.943  25.863  26.759  1.00  0.00     0.049 A 
ATOM     56  H   UNL A   1      45.167  26.671  27.489  1.00  0.00     0.167 HD
ATOM     57  C   UNL A   1      41.301  28.301  28.705  1.00  0.00     0.037 A 
ATOM     58  C   UNL A   1      47.832  26.869  26.663  1.00  0.00     0.037 A 
ATOM     59  C   UNL A   1      42.215  29.413  28.761  1.00  0.00     0.049 A 
ATOM     60  C   UNL A   1      47.413  28.261  27.050  1.00  0.00     0.074 A 
ATOM     61  C   UNL A   1      41.977  30.704  29.199  1.00  0.00     0.029 A 
ATOM     62  N   UNL A   1      43.542  29.369  28.355  1.00  0.00    -0.354 N 
ATOM     63  N   UNL A   1      46.254  28.682  27.493  1.00  0.00    -0.248 NA
ATOM     64  C   UNL A   1      48.426  29.320  26.923  1.00  0.00     0.031 C 
ATOM     65  C   UNL A   1      43.140  31.456  29.002  1.00  0.00     0.029 A 
ATOM     66  C   UNL A   1      44.120  30.620  28.493  1.00  0.00     0.049 A 
ATOM     67  H   UNL A   1      44.002  28.566  28.019  1.00  0.00     0.167 HD
ATOM     68  C   UNL A   1      46.401  30.045  27.713  1.00  0.00     0.074 A 
ATOM     69  C   UNL A   1      47.769  30.378  27.376  1.00  0.00     0.031 C 
ATOM     70  C   UNL A   1      45.483  30.941  28.149  1.00  0.00     0.037 A 
BRANCH  57  71
ATOM     71  C   UNL A   1      39.867  28.554  29.072  1.00  0.00     0.064 A 
ATOM     72  C   UNL A   1      39.392  28.345  30.376  1.00  0.00     0.173 A 
ATOM     73  C   UNL A   1      38.970  29.067  28.122  1.00  0.00     0.173 A 
ATOM     74  F   UNL A   1      40.206  27.849  31.320  1.00  0.00    -0.203 F 
ATOM     75  C   UNL A   1      38.066  28.615  30.708  1.00  0.00     0.198 A 
ATOM     76  C   UNL A   1      37.654  29.365  28.465  1.00  0.00     0.198 A 
ATOM     77  F   UNL A   1      39.375  29.295  26.864  1.00  0.00    -0.203 F 
ATOM     78  F   UNL A   1      37.624  28.368  31.948  1.00  0.00    -0.200 F 
ATOM     79  C   UNL A   1      37.202  29.133  29.754  1.00  0.00     0.200 A 
ATOM     80  F   UNL A   1      36.824  29.879  27.547  1.00  0.00    -0.200 F 
ATOM     81  F   UNL A   1      35.929  29.404  30.079  1.00  0.00    -0.200 F 
ENDBRANCH  57  71
BRANCH  58  82
ATOM     82  C   UNL A   1      49.211  26.599  26.173  1.00  0.00     0.064 A 
ATOM     83  C   UNL A   1      50.198  26.100  27.033  1.00  0.00     0.173 A 
ATOM     84  C   UNL A   1      49.570  26.840  24.839  1.00  0.00     0.173 A 
ATOM     85  F   UNL A   1      49.909  25.876  28.324  1.00  0.00    -0.203 F 
ATOM     86  C   UNL A   1      51.498  25.873  26.585  1.00  0.00     0.198 A 
ATOM     87  C   UNL A   1      50.861  26.583  24.383  1.00  0.00     0.198 A 
ATOM     88  F   UNL A   1      48.663  27.315  23.972  1.00  0.00    -0.203 F 
ATOM     89  F   UNL A   1      52.434  25.443  27.440  1.00  0.00    -0.200 F 
ATOM     90  C   UNL A   1      51.826  26.108  25.258  1.00  0.00     0.200 A 
ATOM     91  F   UNL A   1      51.171  26.797  23.096  1.00  0.00    -0.200 F 
ATOM     92  F   UNL A   1      53.075  25.884  24.825  1.00  0.00    -0.200 F 
ENDBRANCH  58  82
BRANCH  70  93
ATOM     93  C   UNL A   1      45.926  32.368  28.299  1.00  0.00     0.064 A 
ATOM     94  C   UNL A   1      45.765  33.296  27.260  1.00  0.00     0.173 A 
ATOM     95  C   UNL A   1      46.470  32.823  29.510  1.00  0.00     0.173 A 
ATOM     96  F   UNL A   1      45.266  32.907  26.078  1.00  0.00    -0.203 F 
ATOM     97  C   UNL A   1      46.151  34.625  27.422  1.00  0.00     0.198 A 
ATOM     98  C   UNL A   1      46.825  34.158  29.679  1.00  0.00     0.198 A 
ATOM     99  F   UNL A   1      46.640  31.976  30.536  1.00  0.00    -0.203 F 
ATOM    100  F   UNL A   1      46.027  35.486  26.403  1.00  0.00    -0.200 F 
ATOM    101  C   UNL A   1      46.670  35.057  28.633  1.00  0.00     0.200 A 
ATOM    102  F   UNL A   1      47.314  34.577  30.855  1.00  0.00    -0.200 F 
ATOM    103  F   UNL A   1      47.028  36.338  28.792  1.00  0.00    -0.200 F 
ENDBRANCH  70  93
ENDBRANCH  44  45
ENDBRANCH  36  39
ENDBRANCH  34  35
ENDBRANCH  33  34
ENDBRANCH  32  33
ENDBRANCH  31  32
ENDBRANCH   1  31
TORSDOF 17
ENDMDL
MODEL 2
REMARK VINA RESULT:     -13.5      5.421     10.659
REMARK SMILES C[C@@H]1CC(C)(C)C[C@@](CC(=O)Nc2cccc(C(F)(F)F)c2)(C(=O)NCCCCCCNC(=O)c2ccc(-c3c4nc(c(-c5c(F)c(F)c(F)c(F)c5F)c5ccc([nH]5)c(-c5c(F)c(F)c(F)c(F)c5F)c5nc(c(-c6c(F)c(F)c(F)c(F)c6F)c6ccc3[nH]6)C=C5)C=C4)cc2)C1
REMARK SMILES IDX 27 1 26 2 25 3 23 4 24 5 8 7 1 8 2 9 3 10 98 11 4 12 5 13
REMARK SMILES IDX 6 14 7 15 9 16 10 17 11 18 12 19 13 21 14 22 22 23 15 24
REMARK SMILES IDX 17 25 16 26 18 27 19 28 20 29 21 30 28 31 29 32 30 33 31 34
REMARK SMILES IDX 32 35 33 36 34 38 35 39 36 40 97 41 37 42 96 43 38 44 39 45
REMARK SMILES IDX 40 46 90 47 41 48 95 49 89 50 91 51 42 52 94 53 88 54 87 55
REMARK SMILES IDX 43 57 75 58 55 59 74 60 56 61 59 62 73 63 92 64 57 65 58 66
REMARK SMILES IDX 72 68 93 69 60 70 44 71 45 72 53 73 46 74 47 75 51 76 54 77
REMARK SMILES IDX 48 78 49 79 52 80 50 81 76 82 77 83 85 84 78 85 79 86 83 87
REMARK SMILES IDX 86 88 80 89 81 90 84 91 82 92 61 93 62 94 70 95 63 96 64 97
REMARK SMILES IDX 68 98 71 99 65 100 66 101 69 102 67 103
REMARK H PARENT 25 6 12 20 32 37 91 56 59 67
REMARK Flexibility Score: inf
ROOT
ATOM      1  C   UNL A   1      31.219  29.212  23.544  1.00  0.00     0.021 C 
ENDROOT
BRANCH   1   2
ATOM      2  C   UNL A   1      30.128  28.429  22.794  1.00  0.00     0.116 C 
BRANCH   2   3
ATOM      3  N   UNL A   1      29.357  27.525  23.654  1.00  0.00    -0.356 N 
ATOM      4  C   UNL A   1      29.632  26.341  24.295  1.00  0.00     0.226 C 
ATOM      5  O   UNL A   1      28.693  25.870  24.943  1.00  0.00    -0.274 OA
ATOM      6  H   UNL A   1      28.435  27.837  23.805  1.00  0.00     0.163 HD
BRANCH   4   7
ATOM      7  C   UNL A   1      31.033  25.608  24.236  1.00  0.00     0.059 C 
ATOM      8  C   UNL A   1      33.626  24.050  22.657  1.00  0.00     0.008 C 
ATOM      9  C   UNL A   1      33.128  25.487  22.591  1.00  0.00    -0.013 C 
ATOM     10  C   UNL A   1      33.928  26.421  23.474  1.00  0.00     0.009 C 
ATOM     11  C   UNL A   1      31.636  25.745  22.815  1.00  0.00     0.020 C 
ATOM     12  C   UNL A   1      33.510  26.454  24.958  1.00  0.00    -0.034 C 
ATOM     13  C   UNL A   1      34.145  25.305  25.757  1.00  0.00     0.011 C 
ATOM     14  C   UNL A   1      34.120  27.773  25.507  1.00  0.00     0.011 C 
ATOM     15  C   UNL A   1      31.960  26.452  25.188  1.00  0.00     0.024 C 
BRANCH   7  16
ATOM     16  C   UNL A   1      30.670  24.160  24.652  1.00  0.00     0.117 C 
BRANCH  16  17
ATOM     17  C   UNL A   1      30.948  23.438  25.944  1.00  0.00     0.225 C 
ATOM     18  O   UNL A   1      30.345  23.831  26.958  1.00  0.00    -0.275 OA
ATOM     19  N   UNL A   1      31.701  22.331  26.137  1.00  0.00    -0.326 N 
ATOM     20  H   UNL A   1      31.529  21.955  27.031  1.00  0.00     0.169 HD
BRANCH  19  21
ATOM     21  C   UNL A   1      32.652  21.546  25.460  1.00  0.00     0.041 A 
ATOM     22  C   UNL A   1      32.178  20.275  25.088  1.00  0.00     0.026 A 
ATOM     23  C   UNL A   1      34.002  21.828  25.255  1.00  0.00     0.039 A 
ATOM     24  C   UNL A   1      33.040  19.266  24.664  1.00  0.00     0.003 A 
ATOM     25  C   UNL A   1      34.903  20.784  24.931  1.00  0.00     0.058 A 
ATOM     26  C   UNL A   1      34.404  19.509  24.620  1.00  0.00     0.013 A 
BRANCH  25  27
ATOM     27  C   UNL A   1      36.404  20.979  24.997  1.00  0.00     0.416 C 
ATOM     28  F   UNL A   1      36.883  21.719  23.953  1.00  0.00    -0.166 F 
ATOM     29  F   UNL A   1      36.803  21.627  26.123  1.00  0.00    -0.166 F 
ATOM     30  F   UNL A   1      37.098  19.813  24.952  1.00  0.00    -0.166 F 
ENDBRANCH  25  27
ENDBRANCH  19  21
ENDBRANCH  16  17
ENDBRANCH   7  16
ENDBRANCH   4   7
ENDBRANCH   2   3
ENDBRANCH   1   2
BRANCH   1  31
ATOM     31  C   UNL A   1      30.745  30.104  24.706  1.00  0.00     0.002 C 
BRANCH  31  32
ATOM     32  C   UNL A   1      31.775  30.462  25.785  1.00  0.00     0.002 C 
BRANCH  32  33
ATOM     33  C   UNL A   1      31.449  31.656  26.689  1.00  0.00     0.021 C 
BRANCH  33  34
ATOM     34  C   UNL A   1      32.637  32.428  27.260  1.00  0.00     0.116 C 
BRANCH  34  35
ATOM     35  N   UNL A   1      32.351  33.831  27.529  1.00  0.00    -0.352 N 
ATOM     36  C   UNL A   1      32.979  34.713  28.377  1.00  0.00     0.251 C 
ATOM     37  H   UNL A   1      31.592  34.206  27.026  1.00  0.00     0.163 HD
ATOM     38  O   UNL A   1      32.521  35.845  28.536  1.00  0.00    -0.269 OA
BRANCH  36  39
ATOM     39  C   UNL A   1      34.181  34.306  29.140  1.00  0.00     0.039 A 
ATOM     40  C   UNL A   1      34.020  33.816  30.441  1.00  0.00     0.014 A 
ATOM     41  C   UNL A   1      35.462  34.400  28.588  1.00  0.00     0.014 A 
ATOM     42  C   UNL A   1      35.124  33.329  31.148  1.00  0.00     0.010 A 
ATOM     43  C   UNL A   1      36.552  33.856  29.268  1.00  0.00     0.010 A 
ATOM     44  C   UNL A   1      36.392  33.295  30.545  1.00  0.00    -0.014 A 
BRANCH  44  45
ATOM     45  C   UNL A   1      37.544  32.624  31.206  1.00  0.00     0.031 A 
ATOM     46  C   UNL A   1      38.225  31.450  30.560  1.00  0.00     0.074 A 
ATOM     47  C   UNL A   1      37.920  33.022  32.438  1.00  0.00     0.049 A 
ATOM     48  N   UNL A   1      39.175  30.682  31.030  1.00  0.00    -0.248 NA
ATOM     49  C   UNL A   1      37.759  31.074  29.216  1.00  0.00     0.031 C 
ATOM     50  C   UNL A   1      37.310  34.117  33.193  1.00  0.00     0.029 A 
ATOM     51  N   UNL A   1      38.890  32.539  33.282  1.00  0.00    -0.354 N 
ATOM     52  C   UNL A   1      39.413  29.727  30.051  1.00  0.00     0.074 A 
ATOM     53  C   UNL A   1      38.477  29.985  28.976  1.00  0.00     0.031 C 
ATOM     54  C   UNL A   1      37.924  34.230  34.381  1.00  0.00     0.029 A 
ATOM     55  C   UNL A   1      38.940  33.188  34.493  1.00  0.00     0.049 A 
ATOM     56  H   UNL A   1      39.493  31.798  33.043  1.00  0.00     0.167 HD
ATOM     57  C   UNL A   1      40.337  28.737  30.043  1.00  0.00     0.037 A 
ATOM     58  C   UNL A   1      39.700  32.957  35.581  1.00  0.00     0.037 A 
ATOM     59  C   UNL A   1      41.282  28.498  31.104  1.00  0.00     0.049 A 
ATOM     60  C   UNL A   1      40.702  31.835  35.554  1.00  0.00     0.074 A 
ATOM     61  C   UNL A   1      42.312  27.575  31.149  1.00  0.00     0.029 A 
ATOM     62  N   UNL A   1      41.304  29.180  32.313  1.00  0.00    -0.354 N 
ATOM     63  N   UNL A   1      40.975  30.993  34.587  1.00  0.00    -0.248 NA
ATOM     64  C   UNL A   1      41.501  31.629  36.770  1.00  0.00     0.031 C 
ATOM     65  C   UNL A   1      42.919  27.656  32.407  1.00  0.00     0.029 A 
ATOM     66  C   UNL A   1      42.303  28.668  33.125  1.00  0.00     0.049 A 
ATOM     67  H   UNL A   1      40.700  29.918  32.556  1.00  0.00     0.167 HD
ATOM     68  C   UNL A   1      41.985  30.172  35.069  1.00  0.00     0.074 A 
ATOM     69  C   UNL A   1      42.293  30.630  36.407  1.00  0.00     0.031 C 
ATOM     70  C   UNL A   1      42.597  29.129  34.459  1.00  0.00     0.037 A 
BRANCH  57  71
ATOM     71  C   UNL A   1      40.379  27.828  28.848  1.00  0.00     0.064 A 
ATOM     72  C   UNL A   1      39.638  26.638  28.801  1.00  0.00     0.173 A 
ATOM     73  C   UNL A   1      41.125  28.180  27.713  1.00  0.00     0.173 A 
ATOM     74  F   UNL A   1      38.913  26.251  29.862  1.00  0.00    -0.203 F 
ATOM     75  C   UNL A   1      39.662  25.822  27.673  1.00  0.00     0.198 A 
ATOM     76  C   UNL A   1      41.123  27.378  26.575  1.00  0.00     0.198 A 
ATOM     77  F   UNL A   1      41.845  29.313  27.701  1.00  0.00    -0.203 F 
ATOM     78  F   UNL A   1      38.980  24.669  27.667  1.00  0.00    -0.200 F 
ATOM     79  C   UNL A   1      40.398  26.197  26.558  1.00  0.00     0.200 A 
ATOM     80  F   UNL A   1      41.822  27.750  25.494  1.00  0.00    -0.200 F 
ATOM     81  F   UNL A   1      40.410  25.417  25.468  1.00  0.00    -0.200 F 
ENDBRANCH  57  71
BRANCH  58  82
ATOM     82  C   UNL A   1      39.539  33.804  36.793  1.00  0.00     0.064 A 
ATOM     83  C   UNL A   1      40.199  35.035  36.907  1.00  0.00     0.173 A 
ATOM     84  C   UNL A   1      38.730  33.397  37.864  1.00  0.00     0.173 A 
ATOM     85  F   UNL A   1      41.003  35.456  35.919  1.00  0.00    -0.203 F 
ATOM     86  C   UNL A   1      40.073  35.818  38.053  1.00  0.00     0.198 A 
ATOM     87  C   UNL A   1      38.579  34.194  38.997  1.00  0.00     0.198 A 
ATOM     88  F   UNL A   1      38.074  32.228  37.806  1.00  0.00    -0.203 F 
ATOM     89  F   UNL A   1      40.754  36.966  38.156  1.00  0.00    -0.200 F 
ATOM     90  C   UNL A   1      39.258  35.399  39.094  1.00  0.00     0.200 A 
ATOM     91  F   UNL A   1      37.779  33.793  39.994  1.00  0.00    -0.200 F 
ATOM     92  F   UNL A   1      39.133  36.154  40.194  1.00  0.00    -0.200 F 
ENDBRANCH  58  82
BRANCH  70  93
ATOM     93  C   UNL A   1      43.672  28.413  35.226  1.00  0.00     0.064 A 
ATOM     94  C   UNL A   1      43.364  27.393  36.137  1.00  0.00     0.173 A 
ATOM     95  C   UNL A   1      45.025  28.716  35.011  1.00  0.00     0.173 A 
ATOM     96  F   UNL A   1      42.085  27.077  36.391  1.00  0.00    -0.203 F 
ATOM     97  C   UNL A   1      44.371  26.714  36.819  1.00  0.00     0.198 A 
ATOM     98  C   UNL A   1      46.030  28.015  35.671  1.00  0.00     0.198 A 
ATOM     99  F   UNL A   1      45.373  29.681  34.147  1.00  0.00    -0.203 F 
ATOM    100  F   UNL A   1      44.052  25.771  37.716  1.00  0.00    -0.200 F 
ATOM    101  C   UNL A   1      45.702  27.019  36.579  1.00  0.00     0.200 A 
ATOM    102  F   UNL A   1      47.317  28.301  35.427  1.00  0.00    -0.200 F 
ATOM    103  F   UNL A   1      46.670  26.356  37.226  1.00  0.00    -0.200 F 
ENDBRANCH  70  93
ENDBRANCH  44  45
ENDBRANCH  36  39
ENDBRANCH  34  35
ENDBRANCH  33  34
ENDBRANCH  32  33
ENDBRANCH  31  32
ENDBRANCH   1  31
TORSDOF 17
ENDMDL
MODEL 3
REMARK VINA RESULT:     -13.3      6.112     10.336
REMARK SMILES C[C@@H]1CC(C)(C)C[C@@](CC(=O)Nc2cccc(C(F)(F)F)c2)(C(=O)NCCCCCCNC(=O)c2ccc(-c3c4nc(c(-c5c(F)c(F)c(F)c(F)c5F)c5ccc([nH]5)c(-c5c(F)c(F)c(F)c(F)c5F)c5nc(c(-c6c(F)c(F)c(F)c(F)c6F)c6ccc3[nH]6)C=C5)C=C4)cc2)C1
REMARK SMILES IDX 27 1 26 2 25 3 23 4 24 5 8 7 1 8 2 9 3 10 98 11 4 12 5 13
REMARK SMILES IDX 6 14 7 15 9 16 10 17 11 18 12 19 13 21 14 22 22 23 15 24
REMARK SMILES IDX 17 25 16 26 18 27 19 28 20 29 21 30 28 31 29 32 30 33 31 34
REMARK SMILES IDX 32 35 33 36 34 38 35 39 36 40 97 41 37 42 96 43 38 44 39 45
REMARK SMILES IDX 40 46 90 47 41 48 95 49 89 50 91 51 42 52 94 53 88 54 87 55
REMARK SMILES IDX 43 57 75 58 55 59 74 60 56 61 59 62 73 63 92 64 57 65 58 66
REMARK SMILES IDX 72 68 93 69 60 70 44 71 45 72 53 73 46 74 47 75 51 76 54 77
REMARK SMILES IDX 48 78 49 79 52 80 50 81 76 82 77 83 85 84 78 85 79 86 83 87
REMARK SMILES IDX 86 88 80 89 81 90 84 91 82 92 61 93 62 94 70 95 63 96 64 97
REMARK SMILES IDX 68 98 71 99 65 100 66 101 69 102 67 103
REMARK H PARENT 25 6 12 20 32 37 91 56 59 67
REMARK Flexibility Score: inf
ROOT
ATOM      1  C   UNL A   1      34.754  30.217  27.587  1.00  0.00     0.021 C 
ENDROOT
BRANCH   1   2
ATOM      2  C   UNL A   1      34.356  28.992  26.746  1.00  0.00     0.116 C 
BRANCH   2   3
ATOM      3  N   UNL A   1      33.845  29.333  25.415  1.00  0.00    -0.356 N 
ATOM      4  C   UNL A   1      33.122  28.657  24.460  1.00  0.00     0.226 C 
ATOM      5  O   UNL A   1      32.881  29.304  23.437  1.00  0.00    -0.274 OA
ATOM      6  H   UNL A   1      34.070  30.253  25.144  1.00  0.00     0.163 HD
BRANCH   4   7
ATOM      7  C   UNL A   1      32.616  27.167  24.623  1.00  0.00     0.059 C 
ATOM      8  C   UNL A   1      32.027  24.292  26.364  1.00  0.00     0.008 C 
ATOM      9  C   UNL A   1      31.424  25.684  26.490  1.00  0.00    -0.013 C 
ATOM     10  C   UNL A   1      30.086  25.803  25.791  1.00  0.00     0.009 C 
ATOM     11  C   UNL A   1      32.294  26.885  26.113  1.00  0.00     0.020 C 
ATOM     12  C   UNL A   1      30.152  26.083  24.275  1.00  0.00    -0.034 C 
ATOM     13  C   UNL A   1      30.355  24.794  23.465  1.00  0.00     0.011 C 
ATOM     14  C   UNL A   1      28.739  26.620  23.916  1.00  0.00     0.011 C 
ATOM     15  C   UNL A   1      31.238  27.133  23.864  1.00  0.00     0.024 C 
BRANCH   7  16
ATOM     16  C   UNL A   1      33.799  26.348  24.047  1.00  0.00     0.117 C 
BRANCH  16  17
ATOM     17  C   UNL A   1      33.833  25.427  22.856  1.00  0.00     0.225 C 
ATOM     18  O   UNL A   1      33.712  25.945  21.732  1.00  0.00    -0.275 OA
ATOM     19  N   UNL A   1      34.086  24.099  22.834  1.00  0.00    -0.326 N 
ATOM     20  H   UNL A   1      34.261  23.802  21.912  1.00  0.00     0.169 HD
BRANCH  19  21
ATOM     21  C   UNL A   1      34.181  23.007  23.717  1.00  0.00     0.041 A 
ATOM     22  C   UNL A   1      35.347  23.013  24.503  1.00  0.00     0.026 A 
ATOM     23  C   UNL A   1      33.347  21.893  23.789  1.00  0.00     0.039 A 
ATOM     24  C   UNL A   1      35.750  21.892  25.226  1.00  0.00     0.003 A 
ATOM     25  C   UNL A   1      33.797  20.711  24.428  1.00  0.00     0.058 A 
ATOM     26  C   UNL A   1      34.996  20.731  25.159  1.00  0.00     0.013 A 
BRANCH  25  27
ATOM     27  C   UNL A   1      33.065  19.393  24.271  1.00  0.00     0.416 C 
ATOM     28  F   UNL A   1      32.213  19.392  23.203  1.00  0.00    -0.166 F 
ATOM     29  F   UNL A   1      33.905  18.343  24.076  1.00  0.00    -0.166 F 
ATOM     30  F   UNL A   1      32.291  19.080  25.342  1.00  0.00    -0.166 F 
ENDBRANCH  25  27
ENDBRANCH  19  21
ENDBRANCH  16  17
ENDBRANCH   7  16
ENDBRANCH   4   7
ENDBRANCH   2   3
ENDBRANCH   1   2
BRANCH   1  31
ATOM     31  C   UNL A   1      33.736  31.371  27.640  1.00  0.00     0.002 C 
BRANCH  31  32
ATOM     32  C   UNL A   1      34.183  32.674  28.315  1.00  0.00     0.002 C 
BRANCH  32  33
ATOM     33  C   UNL A   1      33.214  33.859  28.248  1.00  0.00     0.021 C 
BRANCH  33  34
ATOM     34  C   UNL A   1      33.713  35.185  28.821  1.00  0.00     0.116 C 
BRANCH  34  35
ATOM     35  N   UNL A   1      32.835  35.752  29.836  1.00  0.00    -0.352 N 
ATOM     36  C   UNL A   1      32.900  35.665  31.207  1.00  0.00     0.251 C 
ATOM     37  H   UNL A   1      32.080  36.280  29.488  1.00  0.00     0.163 HD
ATOM     38  O   UNL A   1      31.998  36.140  31.898  1.00  0.00    -0.269 OA
BRANCH  36  39
ATOM     39  C   UNL A   1      34.025  34.965  31.871  1.00  0.00     0.039 A 
ATOM     40  C   UNL A   1      33.859  33.628  32.248  1.00  0.00     0.014 A 
ATOM     41  C   UNL A   1      35.239  35.611  32.122  1.00  0.00     0.014 A 
ATOM     42  C   UNL A   1      34.936  32.912  32.782  1.00  0.00     0.010 A 
ATOM     43  C   UNL A   1      36.330  34.881  32.595  1.00  0.00     0.010 A 
ATOM     44  C   UNL A   1      36.196  33.519  32.909  1.00  0.00    -0.014 A 
BRANCH  44  45
ATOM     45  C   UNL A   1      37.395  32.732  33.308  1.00  0.00     0.031 A 
ATOM     46  C   UNL A   1      38.124  33.037  34.587  1.00  0.00     0.074 A 
ATOM     47  C   UNL A   1      37.879  31.797  32.467  1.00  0.00     0.049 A 
ATOM     48  N   UNL A   1      39.237  32.525  35.047  1.00  0.00    -0.248 NA
ATOM     49  C   UNL A   1      37.535  34.071  35.452  1.00  0.00     0.031 C 
ATOM     50  C   UNL A   1      37.292  31.439  31.175  1.00  0.00     0.029 A 
ATOM     51  N   UNL A   1      38.988  30.991  32.560  1.00  0.00    -0.354 N 
ATOM     52  C   UNL A   1      39.491  33.181  36.244  1.00  0.00     0.074 A 
ATOM     53  C   UNL A   1      38.438  34.158  36.420  1.00  0.00     0.031 C 
ATOM     54  C   UNL A   1      38.037  30.482  30.601  1.00  0.00     0.029 A 
ATOM     55  C   UNL A   1      39.180  30.187  31.461  1.00  0.00     0.049 A 
ATOM     56  H   UNL A   1      39.588  30.988  33.341  1.00  0.00     0.167 HD
ATOM     57  C   UNL A   1      40.500  32.973  37.123  1.00  0.00     0.037 A 
ATOM     58  C   UNL A   1      40.174  29.329  31.166  1.00  0.00     0.037 A 
ATOM     59  C   UNL A   1      41.534  31.984  36.956  1.00  0.00     0.049 A 
ATOM     60  C   UNL A   1      41.296  29.136  32.149  1.00  0.00     0.074 A 
ATOM     61  C   UNL A   1      42.549  31.642  37.832  1.00  0.00     0.029 A 
ATOM     62  N   UNL A   1      41.692  31.186  35.831  1.00  0.00    -0.354 N 
ATOM     63  N   UNL A   1      41.477  29.701  33.318  1.00  0.00    -0.248 NA
ATOM     64  C   UNL A   1      42.354  28.187  31.772  1.00  0.00     0.031 C 
ATOM     65  C   UNL A   1      43.356  30.680  37.214  1.00  0.00     0.029 A 
ATOM     66  C   UNL A   1      42.812  30.384  35.975  1.00  0.00     0.049 A 
ATOM     67  H   UNL A   1      41.096  31.191  35.048  1.00  0.00     0.167 HD
ATOM     68  C   UNL A   1      42.655  29.166  33.822  1.00  0.00     0.074 A 
ATOM     69  C   UNL A   1      43.136  28.214  32.842  1.00  0.00     0.031 C 
ATOM     70  C   UNL A   1      43.284  29.443  34.990  1.00  0.00     0.037 A 
BRANCH  57  71
ATOM     71  C   UNL A   1      40.546  33.834  38.353  1.00  0.00     0.064 A 
ATOM     72  C   UNL A   1      41.303  35.014  38.401  1.00  0.00     0.173 A 
ATOM     73  C   UNL A   1      39.775  33.504  39.479  1.00  0.00     0.173 A 
ATOM     74  F   UNL A   1      42.063  35.371  37.354  1.00  0.00    -0.203 F 
ATOM     75  C   UNL A   1      41.308  35.817  39.538  1.00  0.00     0.198 A 
ATOM     76  C   UNL A   1      39.758  34.326  40.603  1.00  0.00     0.198 A 
ATOM     77  F   UNL A   1      39.024  32.392  39.484  1.00  0.00    -0.203 F 
ATOM     78  F   UNL A   1      42.073  36.917  39.576  1.00  0.00    -0.200 F 
ATOM     79  C   UNL A   1      40.529  35.477  40.634  1.00  0.00     0.200 A 
ATOM     80  F   UNL A   1      38.994  34.004  41.655  1.00  0.00    -0.200 F 
ATOM     81  F   UNL A   1      40.526  36.259  41.724  1.00  0.00    -0.200 F 
ENDBRANCH  57  71
BRANCH  58  82
ATOM     82  C   UNL A   1      40.157  28.587  29.877  1.00  0.00     0.064 A 
ATOM     83  C   UNL A   1      39.524  27.341  29.769  1.00  0.00     0.173 A 
ATOM     84  C   UNL A   1      40.778  29.104  28.730  1.00  0.00     0.173 A 
ATOM     85  F   UNL A   1      38.936  26.794  30.843  1.00  0.00    -0.203 F 
ATOM     86  C   UNL A   1      39.531  26.630  28.569  1.00  0.00     0.198 A 
ATOM     87  C   UNL A   1      40.758  28.407  27.524  1.00  0.00     0.198 A 
ATOM     88  F   UNL A   1      41.396  30.293  28.778  1.00  0.00    -0.203 F 
ATOM     89  F   UNL A   1      38.962  25.420  28.508  1.00  0.00    -0.200 F 
ATOM     90  C   UNL A   1      40.142  27.168  27.447  1.00  0.00     0.200 A 
ATOM     91  F   UNL A   1      41.337  28.937  26.437  1.00  0.00    -0.200 F 
ATOM     92  F   UNL A   1      40.144  26.486  26.292  1.00  0.00    -0.200 F 
ENDBRANCH  58  82
BRANCH  70  93
ATOM     93  C   UNL A   1      44.558  28.703  35.281  1.00  0.00     0.064 A 
ATOM     94  C   UNL A   1      44.549  27.460  35.930  1.00  0.00     0.173 A 
ATOM     95  C   UNL A   1      45.795  29.218  34.864  1.00  0.00     0.173 A 
ATOM     96  F   UNL A   1      43.394  26.933  36.364  1.00  0.00    -0.203 F 
ATOM     97  C   UNL A   1      45.734  26.768  36.167  1.00  0.00     0.198 A 
ATOM     98  C   UNL A   1      46.974  28.509  35.074  1.00  0.00     0.198 A 
ATOM     99  F   UNL A   1      45.858  30.401  34.235  1.00  0.00    -0.203 F 
ATOM    100  F   UNL A   1      45.706  25.601  36.826  1.00  0.00    -0.200 F 
ATOM    101  C   UNL A   1      46.943  27.287  35.731  1.00  0.00     0.200 A 
ATOM    102  F   UNL A   1      48.140  29.007  34.639  1.00  0.00    -0.200 F 
ATOM    103  F   UNL A   1      48.081  26.614  35.948  1.00  0.00    -0.200 F 
ENDBRANCH  70  93
ENDBRANCH  44  45
ENDBRANCH  36  39
ENDBRANCH  34  35
ENDBRANCH  33  34
ENDBRANCH  32  33
ENDBRANCH  31  32
ENDBRANCH   1  31
TORSDOF 17
ENDMDL
