MODEL 1
REMARK VINA RESULT:     -12.3      0.000      0.000
REMARK SMILES Cc1cnn(C2(C(=O)NCCCCCCNC(=O)c3ccc(-c4c5nc(c(-c6c(F)c(F)c(F)c(F)c6F)c6ccc([nH]6)c(-c6c(F)c(F)c(F)c(F)c6F)c6nc(c(-c7c(F)c(F)c(F)c(F)c7F)c7ccc4[nH]7)C=C6)C=C5)cc3)CCN(C(=O)c3cscn3)CC2)c1
REMARK SMILES IDX 13 1 12 2 11 3 10 4 9 5 7 6 8 7 6 9 82 10 93 11 83 12 92 13
REMARK SMILES IDX 84 14 85 15 86 16 5 17 1 18 2 19 3 20 94 21 4 22 87 23 88 24
REMARK SMILES IDX 91 25 89 26 90 27 14 28 15 29 16 30 17 31 18 33 19 34 20 35
REMARK SMILES IDX 81 36 21 37 80 38 22 39 23 40 24 41 74 42 25 43 79 44 73 45
REMARK SMILES IDX 75 46 26 47 78 48 72 49 71 50 27 52 59 53 39 54 58 55 40 56
REMARK SMILES IDX 43 57 57 58 76 59 41 60 42 61 56 63 77 64 44 65 28 66 29 67
REMARK SMILES IDX 37 68 30 69 31 70 35 71 38 72 32 73 33 74 36 75 34 76 60 77
REMARK SMILES IDX 61 78 69 79 62 80 63 81 67 82 70 83 64 84 65 85 68 86 66 87
REMARK SMILES IDX 45 88 46 89 54 90 47 91 48 92 52 93 55 94 49 95 50 96 53 97
REMARK SMILES IDX 51 98
REMARK H PARENT 9 8 16 32 75 51 43 62
REMARK Flexibility Score: inf
ROOT
ATOM      1  C   UNL A   1      40.728  21.413  27.413  1.00  0.00     0.002 C 
ENDROOT
BRANCH   1   2
ATOM      2  C   UNL A   1      40.207  22.216  26.213  1.00  0.00     0.002 C 
BRANCH   2   3
ATOM      3  C   UNL A   1      38.775  22.748  26.310  1.00  0.00     0.021 C 
BRANCH   3   4
ATOM      4  C   UNL A   1      37.675  21.856  25.726  1.00  0.00     0.116 C 
BRANCH   4   5
ATOM      5  N   UNL A   1      37.408  22.077  24.311  1.00  0.00    -0.354 N 
ATOM      6  C   UNL A   1      36.430  22.783  23.645  1.00  0.00     0.248 C 
ATOM      7  O   UNL A   1      36.750  23.091  22.493  1.00  0.00    -0.272 OA
ATOM      8  H   UNL A   1      38.054  21.635  23.713  1.00  0.00     0.163 HD
BRANCH   6   9
ATOM      9  C   UNL A   1      35.099  23.260  24.344  1.00  0.00     0.144 C 
ATOM     10  C   UNL A   1      35.443  24.226  25.499  1.00  0.00     0.062 C 
ATOM     11  C   UNL A   1      34.256  23.875  23.201  1.00  0.00     0.062 C 
ATOM     12  C   UNL A   1      34.608  25.493  25.649  1.00  0.00     0.123 C 
ATOM     13  C   UNL A   1      33.256  24.920  23.644  1.00  0.00     0.123 C 
ATOM     14  N   UNL A   1      33.862  25.932  24.482  1.00  0.00    -0.337 N 
ATOM     15  C   UNL A   1      33.371  27.253  24.492  1.00  0.00     0.273 C 
ATOM     16  O   UNL A   1      33.955  28.173  25.057  1.00  0.00    -0.267 OA
BRANCH   9  17
ATOM     17  N   UNL A   1      34.324  22.113  24.926  1.00  0.00    -0.257 N 
ATOM     18  C   UNL A   1      32.915  18.749  24.862  1.00  0.00     0.048 C 
ATOM     19  C   UNL A   1      33.407  20.111  25.162  1.00  0.00    -0.013 A 
ATOM     20  C   UNL A   1      33.691  20.724  26.397  1.00  0.00     0.138 A 
ATOM     21  C   UNL A   1      33.692  21.098  24.247  1.00  0.00     0.113 A 
ATOM     22  N   UNL A   1      34.119  21.982  26.254  1.00  0.00    -0.180 NA
ENDBRANCH   9  17
BRANCH  15  23
ATOM     23  C   UNL A   1      32.028  27.422  23.922  1.00  0.00     0.139 A 
ATOM     24  C   UNL A   1      30.882  27.072  24.619  1.00  0.00     0.100 A 
ATOM     25  N   UNL A   1      31.808  27.821  22.606  1.00  0.00    -0.240 NA
ATOM     26  S   UNL A   1      29.503  27.236  23.617  1.00  0.00    -0.130 S 
ATOM     27  C   UNL A   1      30.519  27.777  22.346  1.00  0.00     0.176 A 
ENDBRANCH  15  23
ENDBRANCH   6   9
ENDBRANCH   4   5
ENDBRANCH   3   4
ENDBRANCH   2   3
ENDBRANCH   1   2
BRANCH   1  28
ATOM     28  C   UNL A   1      41.698  20.260  27.112  1.00  0.00     0.021 C 
BRANCH  28  29
ATOM     29  C   UNL A   1      41.863  19.969  25.631  1.00  0.00     0.116 C 
BRANCH  29  30
ATOM     30  N   UNL A   1      43.258  19.732  25.241  1.00  0.00    -0.352 N 
ATOM     31  C   UNL A   1      44.245  20.665  24.946  1.00  0.00     0.251 C 
ATOM     32  H   UNL A   1      43.531  18.788  25.180  1.00  0.00     0.163 HD
ATOM     33  O   UNL A   1      45.244  20.365  24.320  1.00  0.00    -0.269 OA
BRANCH  31  34
ATOM     34  C   UNL A   1      44.059  22.039  25.445  1.00  0.00     0.039 A 
ATOM     35  C   UNL A   1      43.342  23.023  24.754  1.00  0.00     0.014 A 
ATOM     36  C   UNL A   1      44.617  22.312  26.684  1.00  0.00     0.014 A 
ATOM     37  C   UNL A   1      43.175  24.268  25.360  1.00  0.00     0.010 A 
ATOM     38  C   UNL A   1      44.186  23.389  27.387  1.00  0.00     0.010 A 
ATOM     39  C   UNL A   1      43.613  24.430  26.681  1.00  0.00    -0.014 A 
BRANCH  39  40
ATOM     40  C   UNL A   1      43.499  25.670  27.426  1.00  0.00     0.031 A 
ATOM     41  C   UNL A   1      44.479  26.711  27.036  1.00  0.00     0.074 A 
ATOM     42  C   UNL A   1      42.396  25.919  28.169  1.00  0.00     0.049 A 
ATOM     43  N   UNL A   1      45.414  27.218  27.765  1.00  0.00    -0.248 NA
ATOM     44  C   UNL A   1      44.527  27.135  25.627  1.00  0.00     0.031 C 
ATOM     45  C   UNL A   1      41.197  25.083  28.353  1.00  0.00     0.029 A 
ATOM     46  N   UNL A   1      42.057  27.055  28.832  1.00  0.00    -0.354 N 
ATOM     47  C   UNL A   1      46.051  28.166  26.969  1.00  0.00     0.074 A 
ATOM     48  C   UNL A   1      45.599  27.930  25.625  1.00  0.00     0.031 C 
ATOM     49  C   UNL A   1      40.193  25.826  28.869  1.00  0.00     0.029 A 
ATOM     50  C   UNL A   1      40.718  27.133  29.207  1.00  0.00     0.049 A 
ATOM     51  H   UNL A   1      42.707  27.767  29.030  1.00  0.00     0.167 HD
ATOM     52  C   UNL A   1      46.712  29.216  27.533  1.00  0.00     0.037 A 
ATOM     53  C   UNL A   1      40.100  28.229  29.716  1.00  0.00     0.037 A 
ATOM     54  C   UNL A   1      46.907  28.993  28.945  1.00  0.00     0.049 A 
ATOM     55  C   UNL A   1      41.175  29.125  30.225  1.00  0.00     0.074 A 
ATOM     56  C   UNL A   1      47.588  28.049  29.687  1.00  0.00     0.029 A 
ATOM     57  N   UNL A   1      46.012  29.579  29.810  1.00  0.00    -0.354 N 
ATOM     58  N   UNL A   1      41.941  28.818  31.238  1.00  0.00    -0.248 NA
ATOM     59  C   UNL A   1      41.732  30.095  29.292  1.00  0.00     0.031 C 
ATOM     60  C   UNL A   1      46.735  27.773  30.796  1.00  0.00     0.029 A 
ATOM     61  C   UNL A   1      45.633  28.626  30.718  1.00  0.00     0.049 A 
ATOM     62  H   UNL A   1      45.702  30.513  29.781  1.00  0.00     0.167 HD
ATOM     63  C   UNL A   1      43.215  29.215  30.854  1.00  0.00     0.074 A 
ATOM     64  C   UNL A   1      43.014  30.049  29.669  1.00  0.00     0.031 C 
ATOM     65  C   UNL A   1      44.327  28.585  31.336  1.00  0.00     0.037 A 
BRANCH  52  66
ATOM     66  C   UNL A   1      46.849  30.593  26.928  1.00  0.00     0.064 A 
ATOM     67  C   UNL A   1      48.115  31.215  26.955  1.00  0.00     0.173 A 
ATOM     68  C   UNL A   1      45.764  31.438  26.616  1.00  0.00     0.173 A 
ATOM     69  F   UNL A   1      49.221  30.508  27.232  1.00  0.00    -0.203 F 
ATOM     70  C   UNL A   1      48.263  32.595  26.798  1.00  0.00     0.198 A 
ATOM     71  C   UNL A   1      45.924  32.807  26.405  1.00  0.00     0.198 A 
ATOM     72  F   UNL A   1      44.499  31.010  26.610  1.00  0.00    -0.203 F 
ATOM     73  F   UNL A   1      49.466  33.158  26.974  1.00  0.00    -0.200 F 
ATOM     74  C   UNL A   1      47.166  33.391  26.536  1.00  0.00     0.200 A 
ATOM     75  F   UNL A   1      44.846  33.564  26.161  1.00  0.00    -0.200 F 
ATOM     76  F   UNL A   1      47.292  34.722  26.456  1.00  0.00    -0.200 F 
ENDBRANCH  52  66
BRANCH  53  77
ATOM     77  C   UNL A   1      38.708  28.685  29.482  1.00  0.00     0.064 A 
ATOM     78  C   UNL A   1      37.844  28.990  30.547  1.00  0.00     0.173 A 
ATOM     79  C   UNL A   1      38.280  29.084  28.200  1.00  0.00     0.173 A 
ATOM     80  F   UNL A   1      38.195  28.688  31.805  1.00  0.00    -0.203 F 
ATOM     81  C   UNL A   1      36.635  29.667  30.342  1.00  0.00     0.198 A 
ATOM     82  C   UNL A   1      37.074  29.758  27.997  1.00  0.00     0.198 A 
ATOM     83  F   UNL A   1      39.068  28.912  27.129  1.00  0.00    -0.203 F 
ATOM     84  F   UNL A   1      35.861  29.989  31.389  1.00  0.00    -0.200 F 
ATOM     85  C   UNL A   1      36.256  30.059  29.068  1.00  0.00     0.200 A 
ATOM     86  F   UNL A   1      36.739  30.166  26.763  1.00  0.00    -0.200 F 
ATOM     87  F   UNL A   1      35.128  30.759  28.879  1.00  0.00    -0.200 F 
ENDBRANCH  53  77
BRANCH  65  88
ATOM     88  C   UNL A   1      44.154  27.591  32.452  1.00  0.00     0.064 A 
ATOM     89  C   UNL A   1      44.072  26.201  32.261  1.00  0.00     0.173 A 
ATOM     90  C   UNL A   1      44.279  28.050  33.768  1.00  0.00     0.173 A 
ATOM     91  F   UNL A   1      44.049  25.674  31.032  1.00  0.00    -0.203 F 
ATOM     92  C   UNL A   1      44.085  25.316  33.339  1.00  0.00     0.198 A 
ATOM     93  C   UNL A   1      44.327  27.165  34.842  1.00  0.00     0.198 A 
ATOM     94  F   UNL A   1      44.421  29.363  34.010  1.00  0.00    -0.203 F 
ATOM     95  F   UNL A   1      44.011  23.993  33.126  1.00  0.00    -0.200 F 
ATOM     96  C   UNL A   1      44.225  25.800  34.628  1.00  0.00     0.200 A 
ATOM     97  F   UNL A   1      44.516  27.635  36.082  1.00  0.00    -0.200 F 
ATOM     98  F   UNL A   1      44.291  24.950  35.663  1.00  0.00    -0.200 F 
ENDBRANCH  65  88
ENDBRANCH  39  40
ENDBRANCH  31  34
ENDBRANCH  29  30
ENDBRANCH  28  29
ENDBRANCH   1  28
TORSDOF 15
ENDMDL
MODEL 2
REMARK VINA RESULT:     -12.2      2.882      4.587
REMARK SMILES Cc1cnn(C2(C(=O)NCCCCCCNC(=O)c3ccc(-c4c5nc(c(-c6c(F)c(F)c(F)c(F)c6F)c6ccc([nH]6)c(-c6c(F)c(F)c(F)c(F)c6F)c6nc(c(-c7c(F)c(F)c(F)c(F)c7F)c7ccc4[nH]7)C=C6)C=C5)cc3)CCN(C(=O)c3cscn3)CC2)c1
REMARK SMILES IDX 13 1 12 2 11 3 10 4 9 5 7 6 8 7 6 9 82 10 93 11 83 12 92 13
REMARK SMILES IDX 84 14 85 15 86 16 5 17 1 18 2 19 3 20 94 21 4 22 87 23 88 24
REMARK SMILES IDX 91 25 89 26 90 27 14 28 15 29 16 30 17 31 18 33 19 34 20 35
REMARK SMILES IDX 81 36 21 37 80 38 22 39 23 40 24 41 74 42 25 43 79 44 73 45
REMARK SMILES IDX 75 46 26 47 78 48 72 49 71 50 27 52 59 53 39 54 58 55 40 56
REMARK SMILES IDX 43 57 57 58 76 59 41 60 42 61 56 63 77 64 44 65 28 66 29 67
REMARK SMILES IDX 37 68 30 69 31 70 35 71 38 72 32 73 33 74 36 75 34 76 60 77
REMARK SMILES IDX 61 78 69 79 62 80 63 81 67 82 70 83 64 84 65 85 68 86 66 87
REMARK SMILES IDX 45 88 46 89 54 90 47 91 48 92 52 93 55 94 49 95 50 96 53 97
REMARK SMILES IDX 51 98
REMARK H PARENT 9 8 16 32 75 51 43 62
REMARK Flexibility Score: inf
ROOT
ATOM      1  C   UNL A   1      35.113  22.684  26.487  1.00  0.00     0.002 C 
ENDROOT
BRANCH   1   2
ATOM      2  C   UNL A   1      33.902  23.607  26.286  1.00  0.00     0.002 C 
BRANCH   2   3
ATOM      3  C   UNL A   1      32.566  22.931  25.967  1.00  0.00     0.021 C 
BRANCH   3   4
ATOM      4  C   UNL A   1      31.315  23.807  26.082  1.00  0.00     0.116 C 
BRANCH   4   5
ATOM      5  N   UNL A   1      31.556  25.132  26.639  1.00  0.00    -0.354 N 
ATOM      6  C   UNL A   1      31.252  26.400  26.194  1.00  0.00     0.248 C 
ATOM      7  O   UNL A   1      31.233  27.241  27.097  1.00  0.00    -0.272 OA
ATOM      8  H   UNL A   1      32.028  25.117  27.503  1.00  0.00     0.163 HD
BRANCH   6   9
ATOM      9  C   UNL A   1      30.840  26.702  24.702  1.00  0.00     0.144 C 
ATOM     10  C   UNL A   1      29.468  26.057  24.407  1.00  0.00     0.062 C 
ATOM     11  C   UNL A   1      30.877  28.246  24.592  1.00  0.00     0.062 C 
ATOM     12  C   UNL A   1      28.439  26.877  23.638  1.00  0.00     0.123 C 
ATOM     13  C   UNL A   1      29.975  28.826  23.526  1.00  0.00     0.123 C 
ATOM     14  N   UNL A   1      28.624  28.317  23.620  1.00  0.00    -0.337 N 
ATOM     15  C   UNL A   1      27.525  29.102  23.218  1.00  0.00     0.273 C 
ATOM     16  O   UNL A   1      26.362  28.775  23.436  1.00  0.00    -0.267 OA
BRANCH   9  17
ATOM     17  N   UNL A   1      31.827  26.144  23.718  1.00  0.00    -0.257 N 
ATOM     18  C   UNL A   1      32.865  25.016  20.408  1.00  0.00     0.048 C 
ATOM     19  C   UNL A   1      32.721  25.448  21.815  1.00  0.00    -0.013 A 
ATOM     20  C   UNL A   1      33.686  25.915  22.726  1.00  0.00     0.138 A 
ATOM     21  C   UNL A   1      31.557  25.475  22.547  1.00  0.00     0.113 A 
ATOM     22  N   UNL A   1      33.160  26.208  23.920  1.00  0.00    -0.180 NA
ENDBRANCH   9  17
BRANCH  15  23
ATOM     23  C   UNL A   1      27.860  30.257  22.376  1.00  0.00     0.139 A 
ATOM     24  C   UNL A   1      27.948  31.543  22.888  1.00  0.00     0.100 A 
ATOM     25  N   UNL A   1      27.987  30.174  20.992  1.00  0.00    -0.240 NA
ATOM     26  S   UNL A   1      28.187  32.672  21.623  1.00  0.00    -0.130 S 
ATOM     27  C   UNL A   1      28.178  31.378  20.497  1.00  0.00     0.176 A 
ENDBRANCH  15  23
ENDBRANCH   6   9
ENDBRANCH   4   5
ENDBRANCH   3   4
ENDBRANCH   2   3
ENDBRANCH   1   2
BRANCH   1  28
ATOM     28  C   UNL A   1      36.254  22.799  25.465  1.00  0.00     0.021 C 
BRANCH  28  29
ATOM     29  C   UNL A   1      37.476  23.528  25.991  1.00  0.00     0.116 C 
BRANCH  29  30
ATOM     30  N   UNL A   1      38.607  22.633  26.269  1.00  0.00    -0.352 N 
ATOM     31  C   UNL A   1      39.937  22.966  26.500  1.00  0.00     0.251 C 
ATOM     32  H   UNL A   1      38.397  21.672  26.293  1.00  0.00     0.163 HD
ATOM     33  O   UNL A   1      40.832  22.149  26.384  1.00  0.00    -0.269 OA
BRANCH  31  34
ATOM     34  C   UNL A   1      40.234  24.346  26.925  1.00  0.00     0.039 A 
ATOM     35  C   UNL A   1      40.434  25.404  26.032  1.00  0.00     0.014 A 
ATOM     36  C   UNL A   1      40.274  24.560  28.294  1.00  0.00     0.014 A 
ATOM     37  C   UNL A   1      40.639  26.681  26.554  1.00  0.00     0.010 A 
ATOM     38  C   UNL A   1      40.156  25.822  28.775  1.00  0.00     0.010 A 
ATOM     39  C   UNL A   1      40.501  26.866  27.936  1.00  0.00    -0.014 A 
BRANCH  39  40
ATOM     40  C   UNL A   1      40.687  28.139  28.607  1.00  0.00     0.031 A 
ATOM     41  C   UNL A   1      41.827  28.938  28.099  1.00  0.00     0.074 A 
ATOM     42  C   UNL A   1      39.706  28.644  29.391  1.00  0.00     0.049 A 
ATOM     43  N   UNL A   1      42.890  29.281  28.742  1.00  0.00    -0.248 NA
ATOM     44  C   UNL A   1      41.865  29.272  26.665  1.00  0.00     0.031 C 
ATOM     45  C   UNL A   1      38.380  28.080  29.692  1.00  0.00     0.029 A 
ATOM     46  N   UNL A   1      39.646  29.857  29.998  1.00  0.00    -0.354 N 
ATOM     47  C   UNL A   1      43.650  30.038  27.855  1.00  0.00     0.074 A 
ATOM     48  C   UNL A   1      43.071  29.831  26.555  1.00  0.00     0.031 C 
ATOM     49  C   UNL A   1      37.581  29.036  30.214  1.00  0.00     0.029 A 
ATOM     50  C   UNL A   1      38.377  30.225  30.441  1.00  0.00     0.049 A 
ATOM     51  H   UNL A   1      40.436  30.432  30.116  1.00  0.00     0.167 HD
ATOM     52  C   UNL A   1      44.542  30.960  28.314  1.00  0.00     0.037 A 
ATOM     53  C   UNL A   1      38.026  31.448  30.912  1.00  0.00     0.037 A 
ATOM     54  C   UNL A   1      44.782  30.774  29.725  1.00  0.00     0.049 A 
ATOM     55  C   UNL A   1      39.289  32.132  31.305  1.00  0.00     0.074 A 
ATOM     56  C   UNL A   1      45.308  29.749  30.486  1.00  0.00     0.029 A 
ATOM     57  N   UNL A   1      44.081  31.572  30.599  1.00  0.00    -0.354 N 
ATOM     58  N   UNL A   1      40.044  31.727  32.292  1.00  0.00    -0.248 NA
ATOM     59  C   UNL A   1      39.966  32.920  30.283  1.00  0.00     0.031 C 
ATOM     60  C   UNL A   1      44.493  29.709  31.656  1.00  0.00     0.029 A 
ATOM     61  C   UNL A   1      43.580  30.763  31.585  1.00  0.00     0.049 A 
ATOM     62  H   UNL A   1      43.963  32.547  30.528  1.00  0.00     0.167 HD
ATOM     63  C   UNL A   1      41.343  31.837  31.814  1.00  0.00     0.074 A 
ATOM     64  C   UNL A   1      41.235  32.633  30.592  1.00  0.00     0.031 C 
ATOM     65  C   UNL A   1      42.336  31.020  32.274  1.00  0.00     0.037 A 
BRANCH  52  66
ATOM     66  C   UNL A   1      44.911  32.247  27.618  1.00  0.00     0.064 A 
ATOM     67  C   UNL A   1      46.161  32.324  26.967  1.00  0.00     0.173 A 
ATOM     68  C   UNL A   1      44.255  33.479  27.820  1.00  0.00     0.173 A 
ATOM     69  F   UNL A   1      46.872  31.215  26.712  1.00  0.00    -0.203 F 
ATOM     70  C   UNL A   1      46.755  33.548  26.652  1.00  0.00     0.198 A 
ATOM     71  C   UNL A   1      44.829  34.696  27.453  1.00  0.00     0.198 A 
ATOM     72  F   UNL A   1      43.095  33.576  28.474  1.00  0.00    -0.203 F 
ATOM     73  F   UNL A   1      48.003  33.575  26.165  1.00  0.00    -0.200 F 
ATOM     74  C   UNL A   1      46.094  34.733  26.907  1.00  0.00     0.200 A 
ATOM     75  F   UNL A   1      44.176  35.836  27.718  1.00  0.00    -0.200 F 
ATOM     76  F   UNL A   1      46.689  35.910  26.674  1.00  0.00    -0.200 F 
ENDBRANCH  52  66
BRANCH  53  77
ATOM     77  C   UNL A   1      36.740  32.164  30.726  1.00  0.00     0.064 A 
ATOM     78  C   UNL A   1      35.846  32.362  31.792  1.00  0.00     0.173 A 
ATOM     79  C   UNL A   1      36.482  32.902  29.553  1.00  0.00     0.173 A 
ATOM     80  F   UNL A   1      36.044  31.736  32.961  1.00  0.00    -0.203 F 
ATOM     81  C   UNL A   1      34.772  33.255  31.694  1.00  0.00     0.198 A 
ATOM     82  C   UNL A   1      35.410  33.791  29.456  1.00  0.00     0.198 A 
ATOM     83  F   UNL A   1      37.321  32.845  28.509  1.00  0.00    -0.203 F 
ATOM     84  F   UNL A   1      33.970  33.458  32.750  1.00  0.00    -0.200 F 
ATOM     85  C   UNL A   1      34.560  33.976  30.529  1.00  0.00     0.200 A 
ATOM     86  F   UNL A   1      35.242  34.511  28.337  1.00  0.00    -0.200 F 
ATOM     87  F   UNL A   1      33.568  34.875  30.456  1.00  0.00    -0.200 F 
ENDBRANCH  53  77
BRANCH  65  88
ATOM     88  C   UNL A   1      42.043  30.140  33.458  1.00  0.00     0.064 A 
ATOM     89  C   UNL A   1      41.631  28.799  33.359  1.00  0.00     0.173 A 
ATOM     90  C   UNL A   1      42.384  30.612  34.731  1.00  0.00     0.173 A 
ATOM     91  F   UNL A   1      41.380  28.241  32.170  1.00  0.00    -0.203 F 
ATOM     92  C   UNL A   1      41.539  27.981  34.484  1.00  0.00     0.198 A 
ATOM     93  C   UNL A   1      42.326  29.784  35.849  1.00  0.00     0.198 A 
ATOM     94  F   UNL A   1      42.840  31.865  34.880  1.00  0.00    -0.203 F 
ATOM     95  F   UNL A   1      41.149  26.703  34.358  1.00  0.00    -0.200 F 
ATOM     96  C   UNL A   1      41.899  28.472  35.727  1.00  0.00     0.200 A 
ATOM     97  F   UNL A   1      42.725  30.249  37.041  1.00  0.00    -0.200 F 
ATOM     98  F   UNL A   1      41.862  27.673  36.803  1.00  0.00    -0.200 F 
ENDBRANCH  65  88
ENDBRANCH  39  40
ENDBRANCH  31  34
ENDBRANCH  29  30
ENDBRANCH  28  29
ENDBRANCH   1  28
TORSDOF 15
ENDMDL
MODEL 3
REMARK VINA RESULT:     -12.0      3.458      8.602
REMARK SMILES Cc1cnn(C2(C(=O)NCCCCCCNC(=O)c3ccc(-c4c5nc(c(-c6c(F)c(F)c(F)c(F)c6F)c6ccc([nH]6)c(-c6c(F)c(F)c(F)c(F)c6F)c6nc(c(-c7c(F)c(F)c(F)c(F)c7F)c7ccc4[nH]7)C=C6)C=C5)cc3)CCN(C(=O)c3cscn3)CC2)c1
REMARK SMILES IDX 13 1 12 2 11 3 10 4 9 5 7 6 8 7 6 9 82 10 93 11 83 12 92 13
REMARK SMILES IDX 84 14 85 15 86 16 5 17 1 18 2 19 3 20 94 21 4 22 87 23 88 24
REMARK SMILES IDX 91 25 89 26 90 27 14 28 15 29 16 30 17 31 18 33 19 34 20 35
REMARK SMILES IDX 81 36 21 37 80 38 22 39 23 40 24 41 74 42 25 43 79 44 73 45
REMARK SMILES IDX 75 46 26 47 78 48 72 49 71 50 27 52 59 53 39 54 58 55 40 56
REMARK SMILES IDX 43 57 57 58 76 59 41 60 42 61 56 63 77 64 44 65 28 66 29 67
REMARK SMILES IDX 37 68 30 69 31 70 35 71 38 72 32 73 33 74 36 75 34 76 60 77
REMARK SMILES IDX 61 78 69 79 62 80 63 81 67 82 70 83 64 84 65 85 68 86 66 87
REMARK SMILES IDX 45 88 46 89 54 90 47 91 48 92 52 93 55 94 49 95 50 96 53 97
REMARK SMILES IDX 51 98
REMARK H PARENT 9 8 16 32 75 51 43 62
REMARK Flexibility Score: inf
ROOT
ATOM      1  C   UNL A   1      35.928  30.655  27.533  1.00  0.00     0.002 C 
ENDROOT
BRANCH   1   2
ATOM      2  C   UNL A   1      35.190  29.313  27.644  1.00  0.00     0.002 C 
BRANCH   2   3
ATOM      3  C   UNL A   1      33.881  29.180  26.864  1.00  0.00     0.021 C 
BRANCH   3   4
ATOM      4  C   UNL A   1      33.628  27.833  26.179  1.00  0.00     0.116 C 
BRANCH   4   5
ATOM      5  N   UNL A   1      32.506  27.081  26.725  1.00  0.00    -0.354 N 
ATOM      6  C   UNL A   1      31.429  26.454  26.136  1.00  0.00     0.248 C 
ATOM      7  O   UNL A   1      30.923  25.583  26.851  1.00  0.00    -0.272 OA
ATOM      8  H   UNL A   1      32.521  27.006  27.706  1.00  0.00     0.163 HD
BRANCH   6   9
ATOM      9  C   UNL A   1      30.989  26.737  24.649  1.00  0.00     0.144 C 
ATOM     10  C   UNL A   1      29.625  26.063  24.379  1.00  0.00     0.062 C 
ATOM     11  C   UNL A   1      30.995  28.280  24.527  1.00  0.00     0.062 C 
ATOM     12  C   UNL A   1      28.569  26.858  23.620  1.00  0.00     0.123 C 
ATOM     13  C   UNL A   1      30.066  28.835  23.470  1.00  0.00     0.123 C 
ATOM     14  N   UNL A   1      28.726  28.301  23.589  1.00  0.00    -0.337 N 
ATOM     15  C   UNL A   1      27.607  29.062  23.198  1.00  0.00     0.273 C 
ATOM     16  O   UNL A   1      26.454  28.716  23.435  1.00  0.00    -0.267 OA
BRANCH   9  17
ATOM     17  N   UNL A   1      31.971  26.189  23.654  1.00  0.00    -0.257 N 
ATOM     18  C   UNL A   1      33.390  23.554  21.568  1.00  0.00     0.048 C 
ATOM     19  C   UNL A   1      32.991  24.794  22.268  1.00  0.00    -0.013 A 
ATOM     20  C   UNL A   1      33.161  26.142  21.901  1.00  0.00     0.138 A 
ATOM     21  C   UNL A   1      32.346  24.877  23.481  1.00  0.00     0.113 A 
ATOM     22  N   UNL A   1      32.659  26.985  22.809  1.00  0.00    -0.180 NA
ENDBRANCH   9  17
BRANCH  15  23
ATOM     23  C   UNL A   1      27.907  30.217  22.341  1.00  0.00     0.139 A 
ATOM     24  C   UNL A   1      27.991  31.506  22.844  1.00  0.00     0.100 A 
ATOM     25  N   UNL A   1      28.003  30.127  20.955  1.00  0.00    -0.240 NA
ATOM     26  S   UNL A   1      28.186  32.631  21.569  1.00  0.00    -0.130 S 
ATOM     27  C   UNL A   1      28.168  31.331  20.450  1.00  0.00     0.176 A 
ENDBRANCH  15  23
ENDBRANCH   6   9
ENDBRANCH   4   5
ENDBRANCH   3   4
ENDBRANCH   2   3
ENDBRANCH   1   2
BRANCH   1  28
ATOM     28  C   UNL A   1      35.125  31.921  27.865  1.00  0.00     0.021 C 
BRANCH  28  29
ATOM     29  C   UNL A   1      35.915  32.964  28.634  1.00  0.00     0.116 C 
BRANCH  29  30
ATOM     30  N   UNL A   1      35.440  33.149  30.011  1.00  0.00    -0.352 N 
ATOM     31  C   UNL A   1      35.660  32.338  31.119  1.00  0.00     0.251 C 
ATOM     32  H   UNL A   1      34.894  33.952  30.171  1.00  0.00     0.163 HD
ATOM     33  O   UNL A   1      34.956  32.402  32.109  1.00  0.00    -0.269 OA
BRANCH  31  34
ATOM     34  C   UNL A   1      36.803  31.409  31.071  1.00  0.00     0.039 A 
ATOM     35  C   UNL A   1      36.667  30.021  30.963  1.00  0.00     0.014 A 
ATOM     36  C   UNL A   1      38.058  31.996  31.106  1.00  0.00     0.014 A 
ATOM     37  C   UNL A   1      37.825  29.249  30.856  1.00  0.00     0.010 A 
ATOM     38  C   UNL A   1      39.137  31.287  30.688  1.00  0.00     0.010 A 
ATOM     39  C   UNL A   1      39.054  29.907  30.726  1.00  0.00    -0.014 A 
BRANCH  39  40
ATOM     40  C   UNL A   1      40.330  29.226  30.608  1.00  0.00     0.031 A 
ATOM     41  C   UNL A   1      41.013  28.977  31.898  1.00  0.00     0.074 A 
ATOM     42  C   UNL A   1      40.670  28.617  29.448  1.00  0.00     0.049 A 
ATOM     43  N   UNL A   1      42.143  29.459  32.291  1.00  0.00    -0.248 NA
ATOM     44  C   UNL A   1      40.293  28.224  32.939  1.00  0.00     0.031 C 
ATOM     45  C   UNL A   1      39.902  28.515  28.196  1.00  0.00     0.029 A 
ATOM     46  N   UNL A   1      41.752  27.839  29.184  1.00  0.00    -0.354 N 
ATOM     47  C   UNL A   1      42.373  28.919  33.554  1.00  0.00     0.074 A 
ATOM     48  C   UNL A   1      41.127  28.338  33.974  1.00  0.00     0.031 C 
ATOM     49  C   UNL A   1      40.423  27.544  27.413  1.00  0.00     0.029 A 
ATOM     50  C   UNL A   1      41.651  27.075  28.023  1.00  0.00     0.049 A 
ATOM     51  H   UNL A   1      42.544  27.816  29.767  1.00  0.00     0.167 HD
ATOM     52  C   UNL A   1      43.641  28.793  34.036  1.00  0.00     0.037 A 
ATOM     53  C   UNL A   1      42.510  26.098  27.640  1.00  0.00     0.037 A 
ATOM     54  C   UNL A   1      44.566  29.558  33.235  1.00  0.00     0.049 A 
ATOM     55  C   UNL A   1      43.772  26.319  28.399  1.00  0.00     0.074 A 
ATOM     56  C   UNL A   1      44.711  30.901  32.949  1.00  0.00     0.029 A 
ATOM     57  N   UNL A   1      45.271  28.886  32.264  1.00  0.00    -0.354 N 
ATOM     58  N   UNL A   1      44.538  27.363  28.222  1.00  0.00    -0.248 NA
ATOM     59  C   UNL A   1      43.892  25.668  29.697  1.00  0.00     0.031 C 
ATOM     60  C   UNL A   1      45.061  30.942  31.567  1.00  0.00     0.029 A 
ATOM     61  C   UNL A   1      45.199  29.629  31.114  1.00  0.00     0.049 A 
ATOM     62  H   UNL A   1      45.743  28.029  32.375  1.00  0.00     0.167 HD
ATOM     63  C   UNL A   1      44.912  27.750  29.503  1.00  0.00     0.074 A 
ATOM     64  C   UNL A   1      44.531  26.633  30.366  1.00  0.00     0.031 C 
ATOM     65  C   UNL A   1      45.205  29.053  29.789  1.00  0.00     0.037 A 
BRANCH  52  66
ATOM     66  C   UNL A   1      44.121  27.708  34.969  1.00  0.00     0.064 A 
ATOM     67  C   UNL A   1      43.948  26.362  34.581  1.00  0.00     0.173 A 
ATOM     68  C   UNL A   1      44.444  27.910  36.327  1.00  0.00     0.173 A 
ATOM     69  F   UNL A   1      43.648  26.048  33.312  1.00  0.00    -0.203 F 
ATOM     70  C   UNL A   1      43.982  25.316  35.505  1.00  0.00     0.198 A 
ATOM     71  C   UNL A   1      44.531  26.857  37.236  1.00  0.00     0.198 A 
ATOM     72  F   UNL A   1      44.579  29.128  36.859  1.00  0.00    -0.203 F 
ATOM     73  F   UNL A   1      43.671  24.073  35.114  1.00  0.00    -0.200 F 
ATOM     74  C   UNL A   1      44.261  25.566  36.835  1.00  0.00     0.200 A 
ATOM     75  F   UNL A   1      44.793  27.120  38.524  1.00  0.00    -0.200 F 
ATOM     76  F   UNL A   1      44.223  24.577  37.737  1.00  0.00    -0.200 F 
ENDBRANCH  52  66
BRANCH  53  77
ATOM     77  C   UNL A   1      42.196  24.826  26.942  1.00  0.00     0.064 A 
ATOM     78  C   UNL A   1      42.938  24.394  25.830  1.00  0.00     0.173 A 
ATOM     79  C   UNL A   1      41.326  23.878  27.516  1.00  0.00     0.173 A 
ATOM     80  F   UNL A   1      43.824  25.217  25.252  1.00  0.00    -0.203 F 
ATOM     81  C   UNL A   1      42.827  23.089  25.335  1.00  0.00     0.198 A 
ATOM     82  C   UNL A   1      41.215  22.577  27.021  1.00  0.00     0.198 A 
ATOM     83  F   UNL A   1      40.635  24.166  28.628  1.00  0.00    -0.203 F 
ATOM     84  F   UNL A   1      43.590  22.695  24.305  1.00  0.00    -0.200 F 
ATOM     85  C   UNL A   1      41.973  22.179  25.937  1.00  0.00     0.200 A 
ATOM     86  F   UNL A   1      40.414  21.696  27.638  1.00  0.00    -0.200 F 
ATOM     87  F   UNL A   1      41.911  20.912  25.500  1.00  0.00    -0.200 F 
ENDBRANCH  53  77
BRANCH  65  88
ATOM     88  C   UNL A   1      45.319  30.025  28.647  1.00  0.00     0.064 A 
ATOM     89  C   UNL A   1      44.265  30.841  28.200  1.00  0.00     0.173 A 
ATOM     90  C   UNL A   1      46.592  30.278  28.122  1.00  0.00     0.173 A 
ATOM     91  F   UNL A   1      43.039  30.731  28.722  1.00  0.00    -0.203 F 
ATOM     92  C   UNL A   1      44.472  31.844  27.254  1.00  0.00     0.198 A 
ATOM     93  C   UNL A   1      46.804  31.303  27.203  1.00  0.00     0.198 A 
ATOM     94  F   UNL A   1      47.648  29.571  28.553  1.00  0.00    -0.203 F 
ATOM     95  F   UNL A   1      43.448  32.612  26.851  1.00  0.00    -0.200 F 
ATOM     96  C   UNL A   1      45.746  32.081  26.765  1.00  0.00     0.200 A 
ATOM     97  F   UNL A   1      48.047  31.562  26.773  1.00  0.00    -0.200 F 
ATOM     98  F   UNL A   1      45.958  33.079  25.895  1.00  0.00    -0.200 F 
ENDBRANCH  65  88
ENDBRANCH  39  40
ENDBRANCH  31  34
ENDBRANCH  29  30
ENDBRANCH  28  29
ENDBRANCH   1  28
TORSDOF 15
ENDMDL
