MODEL 1
REMARK VINA RESULT:     -12.3      0.000      0.000
REMARK SMILES O=C(NCCCCCCNC(=O)c1ccc(-c2c3nc(c(-c4c(F)c(F)c(F)c(F)c4F)c4ccc([nH]4)c(-c4c(F)c(F)c(F)c(F)c4F)c4nc(c(-c5c(F)c(F)c(F)c(F)c5F)c5ccc2[nH]5)C=C4)C=C3)cc1)c1ccc(C[C@H]2CCCN(C(=O)C3CCS(=O)(=O)CC3)C2)cc1
REMARK SMILES IDX 5 1 4 2 3 3 1 4 2 5 76 7 77 8 98 9 78 10 97 11 79 12 80 13
REMARK SMILES IDX 81 14 82 15 96 16 83 17 85 18 84 19 86 20 87 21 88 22 89 23
REMARK SMILES IDX 95 24 90 25 94 26 91 27 92 28 93 29 6 30 7 31 8 32 9 33
REMARK SMILES IDX 10 34 11 35 12 37 13 38 14 39 75 40 15 41 74 42 16 43 17 44
REMARK SMILES IDX 18 45 68 46 19 47 73 48 67 49 69 50 20 51 72 52 66 53 65 54
REMARK SMILES IDX 21 56 53 57 33 58 52 59 34 60 37 61 51 62 70 63 35 64 36 65
REMARK SMILES IDX 50 67 71 68 38 69 22 70 23 71 31 72 24 73 25 74 29 75 32 76
REMARK SMILES IDX 26 77 27 78 30 79 28 80 54 81 55 82 63 83 56 84 57 85 61 86
REMARK SMILES IDX 64 87 58 88 59 89 62 90 60 91 39 92 40 93 48 94 41 95 42 96
REMARK SMILES IDX 46 97 49 98 43 99 44 100 47 101 45 102
REMARK H PARENT 3 6 10 36 69 55 37 66
REMARK Flexibility Score: inf
ROOT
ATOM      1  C   UNL A   1      34.845  31.591  28.614  1.00  0.00     0.021 C 
ENDROOT
BRANCH   1   2
ATOM      2  C   UNL A   1      34.331  30.555  27.612  1.00  0.00     0.116 C 
BRANCH   2   3
ATOM      3  N   UNL A   1      33.014  30.902  27.099  1.00  0.00    -0.352 N 
ATOM      4  O   UNL A   1      31.231  30.770  25.715  1.00  0.00    -0.269 OA
ATOM      5  C   UNL A   1      32.246  30.251  26.166  1.00  0.00     0.251 C 
ATOM      6  H   UNL A   1      32.617  31.720  27.476  1.00  0.00     0.163 HD
BRANCH   5   7
ATOM      7  C   UNL A   1      32.662  28.918  25.697  1.00  0.00     0.039 A 
ATOM      8  C   UNL A   1      32.571  27.816  26.548  1.00  0.00     0.014 A 
ATOM      9  C   UNL A   1      33.163  28.776  24.401  1.00  0.00     0.014 A 
ATOM     10  C   UNL A   1      33.069  26.585  26.127  1.00  0.00     0.004 A 
ATOM     11  C   UNL A   1      33.694  27.549  23.997  1.00  0.00     0.004 A 
ATOM     12  C   UNL A   1      33.697  26.458  24.876  1.00  0.00    -0.048 A 
BRANCH  12  13
ATOM     13  C   UNL A   1      34.461  25.195  24.530  1.00  0.00     0.041 C 
BRANCH  13  14
ATOM     14  C   UNL A   1      33.587  23.915  24.639  1.00  0.00     0.013 C 
ATOM     15  C   UNL A   1      32.269  24.084  23.853  1.00  0.00     0.007 C 
ATOM     16  C   UNL A   1      34.397  22.674  24.180  1.00  0.00     0.123 C 
ATOM     17  C   UNL A   1      31.521  22.782  23.670  1.00  0.00     0.022 C 
ATOM     18  N   UNL A   1      33.554  21.495  23.904  1.00  0.00    -0.342 N 
ATOM     19  C   UNL A   1      32.449  21.781  23.023  1.00  0.00     0.119 C 
BRANCH  18  20
ATOM     20  C   UNL A   1      33.889  20.264  24.439  1.00  0.00     0.225 C 
ATOM     21  O   UNL A   1      34.967  20.126  25.032  1.00  0.00    -0.275 OA
BRANCH  20  22
ATOM     22  C   UNL A   1      32.976  19.007  24.334  1.00  0.00     0.080 C 
ATOM     23  C   UNL A   1      32.565  18.313  25.637  1.00  0.00     0.029 C 
ATOM     24  C   UNL A   1      33.190  18.057  23.152  1.00  0.00     0.029 C 
ATOM     25  C   UNL A   1      33.404  17.148  26.121  1.00  0.00     0.138 C 
ATOM     26  C   UNL A   1      34.091  16.856  23.355  1.00  0.00     0.138 C 
ATOM     27  S   UNL A   1      33.809  15.949  24.864  1.00  0.00     0.150 S 
ATOM     28  O   UNL A   1      35.084  15.365  25.240  1.00  0.00    -0.229 OA
ATOM     29  O   UNL A   1      32.641  15.114  24.662  1.00  0.00    -0.229 OA
ENDBRANCH  20  22
ENDBRANCH  18  20
ENDBRANCH  13  14
ENDBRANCH  12  13
ENDBRANCH   5   7
ENDBRANCH   2   3
ENDBRANCH   1   2
BRANCH   1  30
ATOM     30  C   UNL A   1      35.503  32.827  27.991  1.00  0.00     0.002 C 
BRANCH  30  31
ATOM     31  C   UNL A   1      35.541  34.074  28.880  1.00  0.00     0.002 C 
BRANCH  31  32
ATOM     32  C   UNL A   1      34.397  35.067  28.667  1.00  0.00     0.021 C 
BRANCH  32  33
ATOM     33  C   UNL A   1      33.048  34.629  29.228  1.00  0.00     0.116 C 
BRANCH  33  34
ATOM     34  N   UNL A   1      32.549  35.531  30.253  1.00  0.00    -0.352 N 
ATOM     35  C   UNL A   1      32.940  35.669  31.563  1.00  0.00     0.251 C 
ATOM     36  H   UNL A   1      31.824  36.132  29.967  1.00  0.00     0.163 HD
ATOM     37  O   UNL A   1      32.292  36.374  32.330  1.00  0.00    -0.269 OA
BRANCH  35  38
ATOM     38  C   UNL A   1      34.132  34.947  32.061  1.00  0.00     0.039 A 
ATOM     39  C   UNL A   1      34.001  33.606  32.432  1.00  0.00     0.014 A 
ATOM     40  C   UNL A   1      35.370  35.587  32.169  1.00  0.00     0.014 A 
ATOM     41  C   UNL A   1      35.124  32.889  32.851  1.00  0.00     0.010 A 
ATOM     42  C   UNL A   1      36.502  34.852  32.514  1.00  0.00     0.010 A 
ATOM     43  C   UNL A   1      36.391  33.496  32.860  1.00  0.00    -0.014 A 
BRANCH  43  44
ATOM     44  C   UNL A   1      37.610  32.728  33.223  1.00  0.00     0.031 A 
ATOM     45  C   UNL A   1      38.328  33.008  34.514  1.00  0.00     0.074 A 
ATOM     46  C   UNL A   1      38.107  31.822  32.359  1.00  0.00     0.049 A 
ATOM     47  N   UNL A   1      39.435  32.486  34.978  1.00  0.00    -0.248 NA
ATOM     48  C   UNL A   1      37.736  34.031  35.390  1.00  0.00     0.031 C 
ATOM     49  C   UNL A   1      37.529  31.490  31.056  1.00  0.00     0.029 A 
ATOM     50  N   UNL A   1      39.219  31.021  32.441  1.00  0.00    -0.354 N 
ATOM     51  C   UNL A   1      39.682  33.128  36.184  1.00  0.00     0.074 A 
ATOM     52  C   UNL A   1      38.638  34.114  36.357  1.00  0.00     0.031 C 
ATOM     53  C   UNL A   1      38.270  30.533  30.476  1.00  0.00     0.029 A 
ATOM     54  C   UNL A   1      39.402  30.216  31.343  1.00  0.00     0.049 A 
ATOM     55  H   UNL A   1      39.829  31.023  33.215  1.00  0.00     0.167 HD
ATOM     56  C   UNL A   1      40.678  32.902  37.074  1.00  0.00     0.037 A 
ATOM     57  C   UNL A   1      40.373  29.326  31.065  1.00  0.00     0.037 A 
ATOM     58  C   UNL A   1      41.699  31.901  36.909  1.00  0.00     0.049 A 
ATOM     59  C   UNL A   1      41.477  29.107  32.065  1.00  0.00     0.074 A 
ATOM     60  C   UNL A   1      42.704  31.541  37.789  1.00  0.00     0.029 A 
ATOM     61  N   UNL A   1      41.850  31.104  35.783  1.00  0.00    -0.354 N 
ATOM     62  N   UNL A   1      41.653  29.660  33.240  1.00  0.00    -0.248 NA
ATOM     63  C   UNL A   1      42.516  28.135  31.698  1.00  0.00     0.031 C 
ATOM     64  C   UNL A   1      43.501  30.571  37.172  1.00  0.00     0.029 A 
ATOM     65  C   UNL A   1      42.954  30.279  35.933  1.00  0.00     0.049 A 
ATOM     66  H   UNL A   1      41.261  31.123  34.995  1.00  0.00     0.167 HD
ATOM     67  C   UNL A   1      42.800  29.081  33.767  1.00  0.00     0.074 A 
ATOM     68  C   UNL A   1      43.270  28.123  32.788  1.00  0.00     0.031 C 
ATOM     69  C   UNL A   1      43.407  29.321  34.955  1.00  0.00     0.037 A 
BRANCH  56  70
ATOM     70  C   UNL A   1      40.719  33.761  38.307  1.00  0.00     0.064 A 
ATOM     71  C   UNL A   1      39.988  33.437  39.461  1.00  0.00     0.173 A 
ATOM     72  C   UNL A   1      41.529  34.907  38.346  1.00  0.00     0.173 A 
ATOM     73  F   UNL A   1      39.191  32.359  39.475  1.00  0.00    -0.203 F 
ATOM     74  C   UNL A   1      40.039  34.247  40.593  1.00  0.00     0.198 A 
ATOM     75  C   UNL A   1      41.603  35.696  39.491  1.00  0.00     0.198 A 
ATOM     76  F   UNL A   1      42.254  35.260  37.274  1.00  0.00    -0.203 F 
ATOM     77  F   UNL A   1      39.288  33.948  41.663  1.00  0.00    -0.200 F 
ATOM     78  C   UNL A   1      40.852  35.370  40.610  1.00  0.00     0.200 A 
ATOM     79  F   UNL A   1      42.401  36.772  39.510  1.00  0.00    -0.200 F 
ATOM     80  F   UNL A   1      40.905  36.146  41.702  1.00  0.00    -0.200 F 
ENDBRANCH  56  70
BRANCH  57  81
ATOM     81  C   UNL A   1      40.331  28.549  29.798  1.00  0.00     0.064 A 
ATOM     82  C   UNL A   1      39.608  27.350  29.716  1.00  0.00     0.173 A 
ATOM     83  C   UNL A   1      41.013  28.978  28.650  1.00  0.00     0.173 A 
ATOM     84  F   UNL A   1      38.956  26.888  30.793  1.00  0.00    -0.203 F 
ATOM     85  C   UNL A   1      39.586  26.599  28.543  1.00  0.00     0.198 A 
ATOM     86  C   UNL A   1      40.966  28.242  27.467  1.00  0.00     0.198 A 
ATOM     87  F   UNL A   1      41.714  30.121  28.672  1.00  0.00    -0.203 F 
ATOM     88  F   UNL A   1      38.927  25.434  28.508  1.00  0.00    -0.200 F 
ATOM     89  C   UNL A   1      40.260  27.049  27.417  1.00  0.00     0.200 A 
ATOM     90  F   UNL A   1      41.604  28.688  26.377  1.00  0.00    -0.200 F 
ATOM     91  F   UNL A   1      40.235  26.330  26.287  1.00  0.00    -0.200 F 
ENDBRANCH  57  81
BRANCH  69  92
ATOM     92  C   UNL A   1      44.623  28.503  35.287  1.00  0.00     0.064 A 
ATOM     93  C   UNL A   1      44.535  27.312  36.022  1.00  0.00     0.173 A 
ATOM     94  C   UNL A   1      45.889  28.900  34.828  1.00  0.00     0.173 A 
ATOM     95  F   UNL A   1      43.351  26.896  36.496  1.00  0.00    -0.203 F 
ATOM     96  C   UNL A   1      45.674  26.563  36.309  1.00  0.00     0.198 A 
ATOM     97  C   UNL A   1      47.020  28.130  35.089  1.00  0.00     0.198 A 
ATOM     98  F   UNL A   1      46.028  30.027  34.116  1.00  0.00    -0.203 F 
ATOM     99  F   UNL A   1      45.573  25.455  37.058  1.00  0.00    -0.200 F 
ATOM    100  C   UNL A   1      46.912  26.968  35.835  1.00  0.00     0.200 A 
ATOM    101  F   UNL A   1      48.213  28.516  34.616  1.00  0.00    -0.200 F 
ATOM    102  F   UNL A   1      48.005  26.240  36.106  1.00  0.00    -0.200 F 
ENDBRANCH  69  92
ENDBRANCH  43  44
ENDBRANCH  35  38
ENDBRANCH  33  34
ENDBRANCH  32  33
ENDBRANCH  31  32
ENDBRANCH  30  31
ENDBRANCH   1  30
TORSDOF 17
ENDMDL
MODEL 2
REMARK VINA RESULT:     -12.1      0.467      6.981
REMARK SMILES O=C(NCCCCCCNC(=O)c1ccc(-c2c3nc(c(-c4c(F)c(F)c(F)c(F)c4F)c4ccc([nH]4)c(-c4c(F)c(F)c(F)c(F)c4F)c4nc(c(-c5c(F)c(F)c(F)c(F)c5F)c5ccc2[nH]5)C=C4)C=C3)cc1)c1ccc(C[C@H]2CCCN(C(=O)C3CCS(=O)(=O)CC3)C2)cc1
REMARK SMILES IDX 5 1 4 2 3 3 1 4 2 5 76 7 77 8 98 9 78 10 97 11 79 12 80 13
REMARK SMILES IDX 81 14 82 15 96 16 83 17 85 18 84 19 86 20 87 21 88 22 89 23
REMARK SMILES IDX 95 24 90 25 94 26 91 27 92 28 93 29 6 30 7 31 8 32 9 33
REMARK SMILES IDX 10 34 11 35 12 37 13 38 14 39 75 40 15 41 74 42 16 43 17 44
REMARK SMILES IDX 18 45 68 46 19 47 73 48 67 49 69 50 20 51 72 52 66 53 65 54
REMARK SMILES IDX 21 56 53 57 33 58 52 59 34 60 37 61 51 62 70 63 35 64 36 65
REMARK SMILES IDX 50 67 71 68 38 69 22 70 23 71 31 72 24 73 25 74 29 75 32 76
REMARK SMILES IDX 26 77 27 78 30 79 28 80 54 81 55 82 63 83 56 84 57 85 61 86
REMARK SMILES IDX 64 87 58 88 59 89 62 90 60 91 39 92 40 93 48 94 41 95 42 96
REMARK SMILES IDX 46 97 49 98 43 99 44 100 47 101 45 102
REMARK H PARENT 3 6 10 36 69 55 37 66
REMARK Flexibility Score: inf
ROOT
ATOM      1  C   UNL A   1      35.164  31.498  28.616  1.00  0.00     0.021 C 
ENDROOT
BRANCH   1   2
ATOM      2  C   UNL A   1      34.572  30.498  27.620  1.00  0.00     0.116 C 
BRANCH   2   3
ATOM      3  N   UNL A   1      33.238  30.886  27.188  1.00  0.00    -0.352 N 
ATOM      4  O   UNL A   1      31.380  30.825  25.902  1.00  0.00    -0.269 OA
ATOM      5  C   UNL A   1      32.405  30.274  26.285  1.00  0.00     0.251 C 
ATOM      6  H   UNL A   1      32.882  31.704  27.603  1.00  0.00     0.163 HD
BRANCH   5   7
ATOM      7  C   UNL A   1      32.763  28.943  25.765  1.00  0.00     0.039 A 
ATOM      8  C   UNL A   1      32.708  27.827  26.600  1.00  0.00     0.014 A 
ATOM      9  C   UNL A   1      33.173  28.817  24.436  1.00  0.00     0.014 A 
ATOM     10  C   UNL A   1      33.153  26.595  26.124  1.00  0.00     0.004 A 
ATOM     11  C   UNL A   1      33.653  27.589  23.975  1.00  0.00     0.004 A 
ATOM     12  C   UNL A   1      33.693  26.481  24.832  1.00  0.00    -0.048 A 
BRANCH  12  13
ATOM     13  C   UNL A   1      34.408  25.212  24.412  1.00  0.00     0.041 C 
BRANCH  13  14
ATOM     14  C   UNL A   1      33.537  23.940  24.603  1.00  0.00     0.013 C 
ATOM     15  C   UNL A   1      32.165  24.109  23.913  1.00  0.00     0.007 C 
ATOM     16  C   UNL A   1      34.302  22.686  24.103  1.00  0.00     0.123 C 
ATOM     17  C   UNL A   1      31.397  22.810  23.803  1.00  0.00     0.022 C 
ATOM     18  N   UNL A   1      33.434  21.511  23.906  1.00  0.00    -0.342 N 
ATOM     19  C   UNL A   1      32.269  21.794  23.104  1.00  0.00     0.119 C 
BRANCH  18  20
ATOM     20  C   UNL A   1      33.798  20.284  24.432  1.00  0.00     0.225 C 
ATOM     21  O   UNL A   1      34.891  20.162  25.001  1.00  0.00    -0.275 OA
BRANCH  20  22
ATOM     22  C   UNL A   1      32.902  19.013  24.346  1.00  0.00     0.080 C 
ATOM     23  C   UNL A   1      32.528  18.314  25.657  1.00  0.00     0.029 C 
ATOM     24  C   UNL A   1      33.107  18.067  23.160  1.00  0.00     0.029 C 
ATOM     25  C   UNL A   1      33.394  17.162  26.123  1.00  0.00     0.138 C 
ATOM     26  C   UNL A   1      34.029  16.879  23.345  1.00  0.00     0.138 C 
ATOM     27  S   UNL A   1      33.792  15.969  24.859  1.00  0.00     0.150 S 
ATOM     28  O   UNL A   1      35.082  15.404  25.209  1.00  0.00    -0.229 OA
ATOM     29  O   UNL A   1      32.633  15.116  24.680  1.00  0.00    -0.229 OA
ENDBRANCH  20  22
ENDBRANCH  18  20
ENDBRANCH  13  14
ENDBRANCH  12  13
ENDBRANCH   5   7
ENDBRANCH   2   3
ENDBRANCH   1   2
BRANCH   1  30
ATOM     30  C   UNL A   1      35.670  32.807  28.000  1.00  0.00     0.002 C 
BRANCH  30  31
ATOM     31  C   UNL A   1      35.680  34.018  28.939  1.00  0.00     0.002 C 
BRANCH  31  32
ATOM     32  C   UNL A   1      34.514  34.993  28.765  1.00  0.00     0.021 C 
BRANCH  32  33
ATOM     33  C   UNL A   1      33.159  34.472  29.237  1.00  0.00     0.116 C 
BRANCH  33  34
ATOM     34  N   UNL A   1      32.547  35.332  30.236  1.00  0.00    -0.352 N 
ATOM     35  C   UNL A   1      32.872  35.505  31.560  1.00  0.00     0.251 C 
ATOM     36  H   UNL A   1      31.787  35.870  29.917  1.00  0.00     0.163 HD
ATOM     37  O   UNL A   1      32.138  36.157  32.296  1.00  0.00    -0.269 OA
BRANCH  35  38
ATOM     38  C   UNL A   1      34.097  34.885  32.110  1.00  0.00     0.039 A 
ATOM     39  C   UNL A   1      34.038  33.566  32.567  1.00  0.00     0.014 A 
ATOM     40  C   UNL A   1      35.297  35.599  32.183  1.00  0.00     0.014 A 
ATOM     41  C   UNL A   1      35.196  32.942  33.037  1.00  0.00     0.010 A 
ATOM     42  C   UNL A   1      36.465  34.953  32.581  1.00  0.00     0.010 A 
ATOM     43  C   UNL A   1      36.427  33.619  33.014  1.00  0.00    -0.014 A 
BRANCH  43  44
ATOM     44  C   UNL A   1      37.683  32.945  33.432  1.00  0.00     0.031 A 
ATOM     45  C   UNL A   1      38.321  31.911  32.547  1.00  0.00     0.074 A 
ATOM     46  C   UNL A   1      38.215  33.218  34.640  1.00  0.00     0.049 A 
ATOM     47  N   UNL A   1      39.382  31.174  32.762  1.00  0.00    -0.248 NA
ATOM     48  C   UNL A   1      37.664  31.650  31.256  1.00  0.00     0.031 C 
ATOM     49  C   UNL A   1      37.669  34.168  35.609  1.00  0.00     0.029 A 
ATOM     50  N   UNL A   1      39.330  32.714  35.263  1.00  0.00    -0.354 N 
ATOM     51  C   UNL A   1      39.507  30.353  31.649  1.00  0.00     0.074 A 
ATOM     52  C   UNL A   1      38.385  30.645  30.782  1.00  0.00     0.031 C 
ATOM     53  C   UNL A   1      38.464  34.203  36.689  1.00  0.00     0.029 A 
ATOM     54  C   UNL A   1      39.552  33.245  36.510  1.00  0.00     0.049 A 
ATOM     55  H   UNL A   1      39.915  32.035  34.854  1.00  0.00     0.167 HD
ATOM     56  C   UNL A   1      40.479  29.453  31.367  1.00  0.00     0.037 A 
ATOM     57  C   UNL A   1      40.520  32.986  37.409  1.00  0.00     0.037 A 
ATOM     58  C   UNL A   1      41.606  29.186  32.221  1.00  0.00     0.049 A 
ATOM     59  C   UNL A   1      41.578  31.968  37.077  1.00  0.00     0.074 A 
ATOM     60  C   UNL A   1      42.685  28.350  31.989  1.00  0.00     0.029 A 
ATOM     61  N   UNL A   1      41.797  29.745  33.477  1.00  0.00    -0.354 N 
ATOM     62  N   UNL A   1      41.733  31.259  35.986  1.00  0.00    -0.248 NA
ATOM     63  C   UNL A   1      42.599  31.718  38.103  1.00  0.00     0.031 C 
ATOM     64  C   UNL A   1      43.496  28.356  33.129  1.00  0.00     0.029 A 
ATOM     65  C   UNL A   1      42.959  29.244  34.045  1.00  0.00     0.049 A 
ATOM     66  H   UNL A   1      41.197  30.399  33.901  1.00  0.00     0.167 HD
ATOM     67  C   UNL A   1      42.883  30.506  36.179  1.00  0.00     0.074 A 
ATOM     68  C   UNL A   1      43.394  30.856  37.487  1.00  0.00     0.031 C 
ATOM     69  C   UNL A   1      43.463  29.607  35.346  1.00  0.00     0.037 A 
BRANCH  56  70
ATOM     70  C   UNL A   1      40.361  28.679  30.084  1.00  0.00     0.064 A 
ATOM     71  C   UNL A   1      39.641  27.477  30.006  1.00  0.00     0.173 A 
ATOM     72  C   UNL A   1      40.950  29.166  28.906  1.00  0.00     0.173 A 
ATOM     73  F   UNL A   1      39.066  26.962  31.104  1.00  0.00    -0.203 F 
ATOM     74  C   UNL A   1      39.543  26.775  28.807  1.00  0.00     0.198 A 
ATOM     75  C   UNL A   1      40.822  28.478  27.702  1.00  0.00     0.198 A 
ATOM     76  F   UNL A   1      41.644  30.313  28.921  1.00  0.00    -0.203 F 
ATOM     77  F   UNL A   1      38.898  25.600  28.771  1.00  0.00    -0.200 F 
ATOM     78  C   UNL A   1      40.127  27.279  27.655  1.00  0.00     0.200 A 
ATOM     79  F   UNL A   1      41.374  28.975  26.587  1.00  0.00    -0.200 F 
ATOM     80  F   UNL A   1      40.028  26.606  26.501  1.00  0.00    -0.200 F 
ENDBRANCH  56  70
BRANCH  57  81
ATOM     81  C   UNL A   1      40.556  33.725  38.699  1.00  0.00     0.064 A 
ATOM     82  C   UNL A   1      39.720  33.352  39.761  1.00  0.00     0.173 A 
ATOM     83  C   UNL A   1      41.414  34.815  38.898  1.00  0.00     0.173 A 
ATOM     84  F   UNL A   1      38.867  32.328  39.614  1.00  0.00    -0.203 F 
ATOM     85  C   UNL A   1      39.725  34.055  40.964  1.00  0.00     0.198 A 
ATOM     86  C   UNL A   1      41.441  35.500  40.112  1.00  0.00     0.198 A 
ATOM     87  F   UNL A   1      42.239  35.209  37.917  1.00  0.00    -0.203 F 
ATOM     88  F   UNL A   1      38.881  33.708  41.944  1.00  0.00    -0.200 F 
ATOM     89  C   UNL A   1      40.590  35.125  41.141  1.00  0.00     0.200 A 
ATOM     90  F   UNL A   1      42.290  36.521  40.284  1.00  0.00    -0.200 F 
ATOM     91  F   UNL A   1      40.598  35.798  42.299  1.00  0.00    -0.200 F 
ENDBRANCH  57  81
BRANCH  69  92
ATOM     92  C   UNL A   1      44.745  28.969  35.803  1.00  0.00     0.064 A 
ATOM     93  C   UNL A   1      45.995  29.549  35.541  1.00  0.00     0.173 A 
ATOM     94  C   UNL A   1      44.716  27.780  36.548  1.00  0.00     0.173 A 
ATOM     95  F   UNL A   1      46.078  30.677  34.820  1.00  0.00    -0.203 F 
ATOM     96  C   UNL A   1      47.169  28.946  35.983  1.00  0.00     0.198 A 
ATOM     97  C   UNL A   1      45.891  27.199  37.018  1.00  0.00     0.198 A 
ATOM     98  F   UNL A   1      43.547  27.188  36.833  1.00  0.00    -0.203 F 
ATOM     99  F   UNL A   1      48.356  29.490  35.675  1.00  0.00    -0.200 F 
ATOM    100  C   UNL A   1      47.116  27.778  36.728  1.00  0.00     0.200 A 
ATOM    101  F   UNL A   1      45.835  26.079  37.751  1.00  0.00    -0.200 F 
ATOM    102  F   UNL A   1      48.248  27.205  37.160  1.00  0.00    -0.200 F 
ENDBRANCH  69  92
ENDBRANCH  43  44
ENDBRANCH  35  38
ENDBRANCH  33  34
ENDBRANCH  32  33
ENDBRANCH  31  32
ENDBRANCH  30  31
ENDBRANCH   1  30
TORSDOF 17
ENDMDL
MODEL 3
REMARK VINA RESULT:     -11.7      0.946      7.258
REMARK SMILES O=C(NCCCCCCNC(=O)c1ccc(-c2c3nc(c(-c4c(F)c(F)c(F)c(F)c4F)c4ccc([nH]4)c(-c4c(F)c(F)c(F)c(F)c4F)c4nc(c(-c5c(F)c(F)c(F)c(F)c5F)c5ccc2[nH]5)C=C4)C=C3)cc1)c1ccc(C[C@H]2CCCN(C(=O)C3CCS(=O)(=O)CC3)C2)cc1
REMARK SMILES IDX 5 1 4 2 3 3 1 4 2 5 76 7 77 8 98 9 78 10 97 11 79 12 80 13
REMARK SMILES IDX 81 14 82 15 96 16 83 17 85 18 84 19 86 20 87 21 88 22 89 23
REMARK SMILES IDX 95 24 90 25 94 26 91 27 92 28 93 29 6 30 7 31 8 32 9 33
REMARK SMILES IDX 10 34 11 35 12 37 13 38 14 39 75 40 15 41 74 42 16 43 17 44
REMARK SMILES IDX 18 45 68 46 19 47 73 48 67 49 69 50 20 51 72 52 66 53 65 54
REMARK SMILES IDX 21 56 53 57 33 58 52 59 34 60 37 61 51 62 70 63 35 64 36 65
REMARK SMILES IDX 50 67 71 68 38 69 22 70 23 71 31 72 24 73 25 74 29 75 32 76
REMARK SMILES IDX 26 77 27 78 30 79 28 80 54 81 55 82 63 83 56 84 57 85 61 86
REMARK SMILES IDX 64 87 58 88 59 89 62 90 60 91 39 92 40 93 48 94 41 95 42 96
REMARK SMILES IDX 46 97 49 98 43 99 44 100 47 101 45 102
REMARK H PARENT 3 6 10 36 69 55 37 66
REMARK Flexibility Score: inf
ROOT
ATOM      1  C   UNL A   1      35.404  31.601  28.510  1.00  0.00     0.021 C 
ENDROOT
BRANCH   1   2
ATOM      2  C   UNL A   1      34.490  30.851  27.540  1.00  0.00     0.116 C 
BRANCH   2   3
ATOM      3  N   UNL A   1      33.210  31.522  27.370  1.00  0.00    -0.352 N 
ATOM      4  O   UNL A   1      31.124  31.824  26.553  1.00  0.00    -0.269 OA
ATOM      5  C   UNL A   1      32.064  31.068  26.766  1.00  0.00     0.251 C 
ATOM      6  H   UNL A   1      33.158  32.432  27.742  1.00  0.00     0.163 HD
BRANCH   5   7
ATOM      7  C   UNL A   1      31.977  29.654  26.361  1.00  0.00     0.039 A 
ATOM      8  C   UNL A   1      31.904  29.317  25.009  1.00  0.00     0.014 A 
ATOM      9  C   UNL A   1      31.952  28.663  27.344  1.00  0.00     0.014 A 
ATOM     10  C   UNL A   1      31.713  27.985  24.647  1.00  0.00     0.004 A 
ATOM     11  C   UNL A   1      31.723  27.334  26.978  1.00  0.00     0.004 A 
ATOM     12  C   UNL A   1      31.552  26.993  25.630  1.00  0.00    -0.048 A 
BRANCH  12  13
ATOM     13  C   UNL A   1      31.090  25.602  25.243  1.00  0.00     0.041 C 
BRANCH  13  14
ATOM     14  C   UNL A   1      32.271  24.641  24.934  1.00  0.00     0.013 C 
ATOM     15  C   UNL A   1      33.612  25.406  24.929  1.00  0.00     0.007 C 
ATOM     16  C   UNL A   1      32.270  23.453  25.933  1.00  0.00     0.123 C 
ATOM     17  C   UNL A   1      34.814  24.488  24.936  1.00  0.00     0.022 C 
ATOM     18  N   UNL A   1      33.539  22.703  25.951  1.00  0.00    -0.342 N 
ATOM     19  C   UNL A   1      34.696  23.549  26.113  1.00  0.00     0.119 C 
BRANCH  18  20
ATOM     20  C   UNL A   1      33.529  21.322  25.865  1.00  0.00     0.225 C 
ATOM     21  O   UNL A   1      33.269  20.647  26.870  1.00  0.00    -0.275 OA
BRANCH  20  22
ATOM     22  C   UNL A   1      33.839  20.542  24.554  1.00  0.00     0.080 C 
ATOM     23  C   UNL A   1      32.653  20.087  23.697  1.00  0.00     0.029 C 
ATOM     24  C   UNL A   1      35.028  19.577  24.553  1.00  0.00     0.029 C 
ATOM     25  C   UNL A   1      32.117  18.686  23.909  1.00  0.00     0.138 C 
ATOM     26  C   UNL A   1      34.761  18.116  24.850  1.00  0.00     0.138 C 
ATOM     27  S   UNL A   1      33.365  17.414  23.992  1.00  0.00     0.150 S 
ATOM     28  O   UNL A   1      32.837  16.367  24.848  1.00  0.00    -0.229 OA
ATOM     29  O   UNL A   1      33.785  17.123  22.636  1.00  0.00    -0.229 OA
ENDBRANCH  20  22
ENDBRANCH  18  20
ENDBRANCH  13  14
ENDBRANCH  12  13
ENDBRANCH   5   7
ENDBRANCH   2   3
ENDBRANCH   1   2
BRANCH   1  30
ATOM     30  C   UNL A   1      35.902  32.963  28.014  1.00  0.00     0.002 C 
BRANCH  30  31
ATOM     31  C   UNL A   1      35.681  34.137  28.972  1.00  0.00     0.002 C 
BRANCH  31  32
ATOM     32  C   UNL A   1      34.417  34.961  28.720  1.00  0.00     0.021 C 
BRANCH  32  33
ATOM     33  C   UNL A   1      33.149  34.413  29.368  1.00  0.00     0.116 C 
BRANCH  33  34
ATOM     34  N   UNL A   1      32.594  35.317  30.363  1.00  0.00    -0.352 N 
ATOM     35  C   UNL A   1      32.972  35.522  31.667  1.00  0.00     0.251 C 
ATOM     36  H   UNL A   1      31.834  35.863  30.055  1.00  0.00     0.163 HD
ATOM     37  O   UNL A   1      32.280  36.212  32.409  1.00  0.00    -0.269 OA
BRANCH  35  38
ATOM     38  C   UNL A   1      34.203  34.891  32.190  1.00  0.00     0.039 A 
ATOM     39  C   UNL A   1      34.143  33.570  32.645  1.00  0.00     0.014 A 
ATOM     40  C   UNL A   1      35.410  35.595  32.240  1.00  0.00     0.014 A 
ATOM     41  C   UNL A   1      35.305  32.936  33.090  1.00  0.00     0.010 A 
ATOM     42  C   UNL A   1      36.581  34.938  32.613  1.00  0.00     0.010 A 
ATOM     43  C   UNL A   1      36.541  33.603  33.043  1.00  0.00    -0.014 A 
BRANCH  43  44
ATOM     44  C   UNL A   1      37.800  32.918  33.433  1.00  0.00     0.031 A 
ATOM     45  C   UNL A   1      38.417  31.889  32.527  1.00  0.00     0.074 A 
ATOM     46  C   UNL A   1      38.353  33.176  34.634  1.00  0.00     0.049 A 
ATOM     47  N   UNL A   1      39.477  31.144  32.717  1.00  0.00    -0.248 NA
ATOM     48  C   UNL A   1      37.737  31.645  31.245  1.00  0.00     0.031 C 
ATOM     49  C   UNL A   1      37.829  34.120  35.622  1.00  0.00     0.029 A 
ATOM     50  N   UNL A   1      39.475  32.659  35.234  1.00  0.00    -0.354 N 
ATOM     51  C   UNL A   1      39.579  30.334  31.594  1.00  0.00     0.074 A 
ATOM     52  C   UNL A   1      38.444  30.641  30.749  1.00  0.00     0.031 C 
ATOM     53  C   UNL A   1      38.642  34.139  36.689  1.00  0.00     0.029 A 
ATOM     54  C   UNL A   1      39.721  33.177  36.482  1.00  0.00     0.049 A 
ATOM     55  H   UNL A   1      40.050  31.981  34.809  1.00  0.00     0.167 HD
ATOM     56  C   UNL A   1      40.541  29.431  31.287  1.00  0.00     0.037 A 
ATOM     57  C   UNL A   1      40.703  32.903  37.362  1.00  0.00     0.037 A 
ATOM     58  C   UNL A   1      41.680  29.149  32.119  1.00  0.00     0.049 A 
ATOM     59  C   UNL A   1      41.749  31.882  37.002  1.00  0.00     0.074 A 
ATOM     60  C   UNL A   1      42.750  28.309  31.861  1.00  0.00     0.029 A 
ATOM     61  N   UNL A   1      41.895  29.694  33.377  1.00  0.00    -0.354 N 
ATOM     62  N   UNL A   1      41.881  31.183  35.902  1.00  0.00    -0.248 NA
ATOM     63  C   UNL A   1      42.786  31.617  38.009  1.00  0.00     0.031 C 
ATOM     64  C   UNL A   1      43.580  28.299  32.987  1.00  0.00     0.029 A 
ATOM     65  C   UNL A   1      43.063  29.181  33.921  1.00  0.00     0.049 A 
ATOM     66  H   UNL A   1      41.306  30.348  33.818  1.00  0.00     0.167 HD
ATOM     67  C   UNL A   1      43.030  30.422  36.068  1.00  0.00     0.074 A 
ATOM     68  C   UNL A   1      43.565  30.756  37.371  1.00  0.00     0.031 C 
ATOM     69  C   UNL A   1      43.591  29.529  35.217  1.00  0.00     0.037 A 
BRANCH  56  70
ATOM     70  C   UNL A   1      40.397  28.671  29.999  1.00  0.00     0.064 A 
ATOM     71  C   UNL A   1      40.990  29.114  28.806  1.00  0.00     0.173 A 
ATOM     72  C   UNL A   1      39.684  27.462  29.964  1.00  0.00     0.173 A 
ATOM     73  F   UNL A   1      41.675  30.268  28.781  1.00  0.00    -0.203 F 
ATOM     74  C   UNL A   1      40.845  28.395  27.622  1.00  0.00     0.198 A 
ATOM     75  C   UNL A   1      39.569  26.729  28.786  1.00  0.00     0.198 A 
ATOM     76  F   UNL A   1      39.102  26.987  31.075  1.00  0.00    -0.203 F 
ATOM     77  F   UNL A   1      41.372  28.869  26.484  1.00  0.00    -0.200 F 
ATOM     78  C   UNL A   1      40.141  27.201  27.614  1.00  0.00     0.200 A 
ATOM     79  F   UNL A   1      38.902  25.567  28.784  1.00  0.00    -0.200 F 
ATOM     80  F   UNL A   1      40.007  26.507  26.475  1.00  0.00    -0.200 F 
ENDBRANCH  56  70
BRANCH  57  81
ATOM     81  C   UNL A   1      40.765  33.629  38.658  1.00  0.00     0.064 A 
ATOM     82  C   UNL A   1      41.641  34.710  38.833  1.00  0.00     0.173 A 
ATOM     83  C   UNL A   1      39.962  33.259  39.747  1.00  0.00     0.173 A 
ATOM     84  F   UNL A   1      42.444  35.090  37.828  1.00  0.00    -0.203 F 
ATOM     85  C   UNL A   1      41.728  35.379  40.053  1.00  0.00     0.198 A 
ATOM     86  C   UNL A   1      40.027  33.947  40.957  1.00  0.00     0.198 A 
ATOM     87  F   UNL A   1      39.102  32.237  39.631  1.00  0.00    -0.203 F 
ATOM     88  F   UNL A   1      42.608  36.376  40.206  1.00  0.00    -0.200 F 
ATOM     89  C   UNL A   1      40.916  35.001  41.112  1.00  0.00     0.200 A 
ATOM     90  F   UNL A   1      39.230  33.590  41.972  1.00  0.00    -0.200 F 
ATOM     91  F   UNL A   1      40.996  35.646  42.283  1.00  0.00    -0.200 F 
ENDBRANCH  57  81
BRANCH  69  92
ATOM     92  C   UNL A   1      44.877  28.879  35.646  1.00  0.00     0.064 A 
ATOM     93  C   UNL A   1      46.126  29.449  35.360  1.00  0.00     0.173 A 
ATOM     94  C   UNL A   1      44.853  27.687  36.389  1.00  0.00     0.173 A 
ATOM     95  F   UNL A   1      46.204  30.579  34.641  1.00  0.00    -0.203 F 
ATOM     96  C   UNL A   1      47.304  28.835  35.777  1.00  0.00     0.198 A 
ATOM     97  C   UNL A   1      46.033  27.095  36.833  1.00  0.00     0.198 A 
ATOM     98  F   UNL A   1      43.686  27.104  36.695  1.00  0.00    -0.203 F 
ATOM     99  F   UNL A   1      48.489  29.370  35.447  1.00  0.00    -0.200 F 
ATOM    100  C   UNL A   1      47.256  27.665  36.519  1.00  0.00     0.200 A 
ATOM    101  F   UNL A   1      45.982  25.974  37.564  1.00  0.00    -0.200 F 
ATOM    102  F   UNL A   1      48.392  27.082  36.927  1.00  0.00    -0.200 F 
ENDBRANCH  69  92
ENDBRANCH  43  44
ENDBRANCH  35  38
ENDBRANCH  33  34
ENDBRANCH  32  33
ENDBRANCH  31  32
ENDBRANCH  30  31
ENDBRANCH   1  30
TORSDOF 17
ENDMDL
