MODEL 1
REMARK VINA RESULT:     -11.3      0.000      0.000
REMARK SMILES O=C(NCCCCCCNC(=O)[C@H]1C=C[C@@H](NS(=O)(=O)c2ccc(Br)cc2)C1)c1ccc(-c2c3nc(c(-c4c(F)c(F)c(F)c(F)c4F)c4ccc([nH]4)c(-c4c(F)c(F)c(F)c(F)c4F)c4nc(c(-c5c(F)c(F)c(F)c(F)c5F)c5ccc2[nH]5)C=C4)C=C3)cc1
REMARK SMILES IDX 7 1 6 2 5 3 4 4 3 5 1 6 2 7 29 9 30 10 91 11 31 12 90 13
REMARK SMILES IDX 32 14 33 15 34 16 84 17 35 18 89 19 83 20 85 21 36 22 88 23
REMARK SMILES IDX 82 24 81 25 37 27 69 28 49 29 68 30 50 31 53 32 67 33 86 34
REMARK SMILES IDX 51 35 52 36 66 38 87 39 54 40 38 41 39 42 47 43 40 44 41 45
REMARK SMILES IDX 45 46 48 47 42 48 43 49 46 50 44 51 70 52 71 53 79 54 72 55
REMARK SMILES IDX 73 56 77 57 80 58 74 59 75 60 78 61 76 62 55 63 56 64 64 65
REMARK SMILES IDX 57 66 58 67 62 68 65 69 59 70 60 71 63 72 61 73 8 74 9 75
REMARK SMILES IDX 10 76 11 77 12 79 13 80 14 81 28 82 15 83 16 84 17 85 18 87
REMARK SMILES IDX 19 88 20 89 21 90 22 91 27 92 23 93 26 94 24 95 25 96
REMARK H PARENT 3 8 85 26 53 37 10 78 17 86
REMARK Flexibility Score: inf
ROOT
ATOM      1  C   UNL A   1      34.991  33.232  28.910  1.00  0.00     0.002 C 
ENDROOT
BRANCH   1   2
ATOM      2  C   UNL A   1      35.160  34.663  28.390  1.00  0.00     0.002 C 
BRANCH   2   3
ATOM      3  C   UNL A   1      34.003  35.610  28.714  1.00  0.00     0.021 C 
BRANCH   3   4
ATOM      4  C   UNL A   1      32.888  34.985  29.545  1.00  0.00     0.116 C 
BRANCH   4   5
ATOM      5  N   UNL A   1      32.463  35.856  30.628  1.00  0.00    -0.352 N 
ATOM      6  O   UNL A   1      32.261  36.540  32.768  1.00  0.00    -0.269 OA
ATOM      7  C   UNL A   1      32.869  35.871  31.937  1.00  0.00     0.251 C 
ATOM      8  H   UNL A   1      31.789  36.531  30.387  1.00  0.00     0.163 HD
BRANCH   7   9
ATOM      9  C   UNL A   1      34.037  35.069  32.355  1.00  0.00     0.039 A 
ATOM     10  C   UNL A   1      33.870  33.799  32.916  1.00  0.00     0.014 A 
ATOM     11  C   UNL A   1      35.318  35.585  32.148  1.00  0.00     0.014 A 
ATOM     12  C   UNL A   1      34.978  33.088  33.365  1.00  0.00     0.010 A 
ATOM     13  C   UNL A   1      36.434  34.842  32.538  1.00  0.00     0.010 A 
ATOM     14  C   UNL A   1      36.270  33.597  33.165  1.00  0.00    -0.014 A 
BRANCH  14  15
ATOM     15  C   UNL A   1      37.456  32.795  33.553  1.00  0.00     0.031 A 
ATOM     16  C   UNL A   1      38.200  33.089  34.821  1.00  0.00     0.074 A 
ATOM     17  C   UNL A   1      37.884  31.826  32.723  1.00  0.00     0.049 A 
ATOM     18  N   UNL A   1      39.305  32.554  35.274  1.00  0.00    -0.248 NA
ATOM     19  C   UNL A   1      37.633  34.129  35.691  1.00  0.00     0.031 C 
ATOM     20  C   UNL A   1      37.246  31.464  31.455  1.00  0.00     0.029 A 
ATOM     21  N   UNL A   1      38.963  30.985  32.807  1.00  0.00    -0.354 N 
ATOM     22  C   UNL A   1      39.580  33.205  36.467  1.00  0.00     0.074 A 
ATOM     23  C   UNL A   1      38.538  34.192  36.658  1.00  0.00     0.031 C 
ATOM     24  C   UNL A   1      37.945  30.476  30.881  1.00  0.00     0.029 A 
ATOM     25  C   UNL A   1      39.109  30.176  31.708  1.00  0.00     0.049 A 
ATOM     26  H   UNL A   1      39.573  30.962  33.580  1.00  0.00     0.167 HD
ATOM     27  C   UNL A   1      40.610  32.995  37.323  1.00  0.00     0.037 A 
ATOM     28  C   UNL A   1      40.091  29.315  31.381  1.00  0.00     0.037 A 
ATOM     29  C   UNL A   1      41.637  32.005  37.124  1.00  0.00     0.049 A 
ATOM     30  C   UNL A   1      41.238  29.119  32.329  1.00  0.00     0.074 A 
ATOM     31  C   UNL A   1      42.689  31.672  37.958  1.00  0.00     0.029 A 
ATOM     32  N   UNL A   1      41.749  31.197  36.000  1.00  0.00    -0.354 N 
ATOM     33  N   UNL A   1      41.462  29.702  33.482  1.00  0.00    -0.248 NA
ATOM     34  C   UNL A   1      42.266  28.147  31.934  1.00  0.00     0.031 C 
ATOM     35  C   UNL A   1      43.469  30.703  37.316  1.00  0.00     0.029 A 
ATOM     36  C   UNL A   1      42.870  30.390  36.105  1.00  0.00     0.049 A 
ATOM     37  H   UNL A   1      41.123  31.198  35.240  1.00  0.00     0.167 HD
ATOM     38  C   UNL A   1      42.644  29.157  33.962  1.00  0.00     0.074 A 
ATOM     39  C   UNL A   1      43.087  28.189  32.977  1.00  0.00     0.031 C 
ATOM     40  C   UNL A   1      43.297  29.430  35.117  1.00  0.00     0.037 A 
BRANCH  27  41
ATOM     41  C   UNL A   1      40.694  33.874  38.538  1.00  0.00     0.064 A 
ATOM     42  C   UNL A   1      40.034  33.554  39.733  1.00  0.00     0.173 A 
ATOM     43  C   UNL A   1      41.462  35.049  38.510  1.00  0.00     0.173 A 
ATOM     44  F   UNL A   1      39.278  32.448  39.812  1.00  0.00    -0.203 F 
ATOM     45  C   UNL A   1      40.109  34.395  40.842  1.00  0.00     0.198 A 
ATOM     46  C   UNL A   1      41.560  35.871  39.629  1.00  0.00     0.198 A 
ATOM     47  F   UNL A   1      42.121  35.400  37.394  1.00  0.00    -0.203 F 
ATOM     48  F   UNL A   1      39.423  34.096  41.953  1.00  0.00    -0.200 F 
ATOM     49  C   UNL A   1      40.876  35.549  40.790  1.00  0.00     0.200 A 
ATOM     50  F   UNL A   1      42.312  36.980  39.581  1.00  0.00    -0.200 F 
ATOM     51  F   UNL A   1      40.945  36.356  41.857  1.00  0.00    -0.200 F 
ENDBRANCH  27  41
BRANCH  28  52
ATOM     52  C   UNL A   1      40.017  28.598  30.084  1.00  0.00     0.064 A 
ATOM     53  C   UNL A   1      40.607  29.129  28.930  1.00  0.00     0.173 A 
ATOM     54  C   UNL A   1      39.411  27.337  29.990  1.00  0.00     0.173 A 
ATOM     55  F   UNL A   1      41.185  30.338  28.969  1.00  0.00    -0.203 F 
ATOM     56  C   UNL A   1      40.595  28.422  27.729  1.00  0.00     0.198 A 
ATOM     57  C   UNL A   1      39.423  26.620  28.796  1.00  0.00     0.198 A 
ATOM     58  F   UNL A   1      38.842  26.784  31.071  1.00  0.00    -0.203 F 
ATOM     59  F   UNL A   1      41.151  28.958  26.634  1.00  0.00    -0.200 F 
ATOM     60  C   UNL A   1      40.013  27.164  27.666  1.00  0.00     0.200 A 
ATOM     61  F   UNL A   1      38.877  25.397  28.746  1.00  0.00    -0.200 F 
ATOM     62  F   UNL A   1      40.023  26.476  26.517  1.00  0.00    -0.200 F 
ENDBRANCH  28  52
BRANCH  40  63
ATOM     63  C   UNL A   1      44.548  28.654  35.403  1.00  0.00     0.064 A 
ATOM     64  C   UNL A   1      45.813  29.135  35.038  1.00  0.00     0.173 A 
ATOM     65  C   UNL A   1      44.483  27.447  36.117  1.00  0.00     0.173 A 
ATOM     66  F   UNL A   1      45.926  30.275  34.339  1.00  0.00    -0.203 F 
ATOM     67  C   UNL A   1      46.968  28.432  35.370  1.00  0.00     0.198 A 
ATOM     68  C   UNL A   1      45.641  26.760  36.470  1.00  0.00     0.198 A 
ATOM     69  F   UNL A   1      43.296  26.947  36.492  1.00  0.00    -0.203 F 
ATOM     70  F   UNL A   1      48.166  28.894  34.984  1.00  0.00    -0.200 F 
ATOM     71  C   UNL A   1      46.882  27.251  36.094  1.00  0.00     0.200 A 
ATOM     72  F   UNL A   1      45.556  25.627  37.181  1.00  0.00    -0.200 F 
ATOM     73  F   UNL A   1      47.995  26.585  36.428  1.00  0.00    -0.200 F 
ENDBRANCH  40  63
ENDBRANCH  14  15
ENDBRANCH   7   9
ENDBRANCH   4   5
ENDBRANCH   3   4
ENDBRANCH   2   3
ENDBRANCH   1   2
BRANCH   1  74
ATOM     74  C   UNL A   1      35.566  32.137  28.001  1.00  0.00     0.021 C 
BRANCH  74  75
ATOM     75  C   UNL A   1      35.046  30.736  28.315  1.00  0.00     0.116 C 
BRANCH  75  76
ATOM     76  N   UNL A   1      33.642  30.619  27.971  1.00  0.00    -0.356 N 
ATOM     77  C   UNL A   1      33.059  30.001  26.900  1.00  0.00     0.226 C 
ATOM     78  H   UNL A   1      33.017  31.047  28.601  1.00  0.00     0.163 HD
ATOM     79  O   UNL A   1      31.840  30.093  26.766  1.00  0.00    -0.274 OA
BRANCH  77  80
ATOM     80  C   UNL A   1      33.945  29.177  25.967  1.00  0.00     0.103 C 
ATOM     81  C   UNL A   1      33.896  27.751  26.431  1.00  0.00    -0.016 C 
ATOM     82  C   UNL A   1      33.415  29.081  24.529  1.00  0.00     0.042 C 
ATOM     83  C   UNL A   1      33.633  26.905  25.432  1.00  0.00    -0.011 C 
ATOM     84  C   UNL A   1      33.530  27.601  24.124  1.00  0.00     0.093 C 
BRANCH  84  85
ATOM     85  N   UNL A   1      32.352  27.215  23.358  1.00  0.00    -0.204 NA
ATOM     86  H   UNL A   1      31.933  28.081  23.020  1.00  0.00     0.142 HD
BRANCH  85  87
ATOM     87  S   UNL A   1      32.466  26.192  22.034  1.00  0.00     0.241 S 
ATOM     88  O   UNL A   1      31.266  26.333  21.244  1.00  0.00    -0.207 OA
ATOM     89  O   UNL A   1      33.772  26.419  21.451  1.00  0.00    -0.207 OA
BRANCH  87  90
ATOM     90  C   UNL A   1      32.475  24.573  22.759  1.00  0.00     0.082 A 
ATOM     91  C   UNL A   1      31.295  24.062  23.312  1.00  0.00     0.023 A 
ATOM     92  C   UNL A   1      33.655  23.825  22.769  1.00  0.00     0.023 A 
ATOM     93  C   UNL A   1      31.298  22.791  23.887  1.00  0.00     0.017 A 
ATOM     94  C   UNL A   1      33.653  22.554  23.350  1.00  0.00     0.017 A 
ATOM     95  C   UNL A   1      32.477  22.045  23.905  1.00  0.00     0.018 A 
ATOM     96  Br  UNL A   1      32.476  20.323  24.684  1.00  0.00    -0.051 Br
ENDBRANCH  87  90
ENDBRANCH  85  87
ENDBRANCH  84  85
ENDBRANCH  77  80
ENDBRANCH  75  76
ENDBRANCH  74  75
ENDBRANCH   1  74
TORSDOF 16
ENDMDL
MODEL 2
REMARK VINA RESULT:     -11.2      2.199      7.878
REMARK SMILES O=C(NCCCCCCNC(=O)[C@H]1C=C[C@@H](NS(=O)(=O)c2ccc(Br)cc2)C1)c1ccc(-c2c3nc(c(-c4c(F)c(F)c(F)c(F)c4F)c4ccc([nH]4)c(-c4c(F)c(F)c(F)c(F)c4F)c4nc(c(-c5c(F)c(F)c(F)c(F)c5F)c5ccc2[nH]5)C=C4)C=C3)cc1
REMARK SMILES IDX 7 1 6 2 5 3 4 4 3 5 1 6 2 7 29 9 30 10 91 11 31 12 90 13
REMARK SMILES IDX 32 14 33 15 34 16 84 17 35 18 89 19 83 20 85 21 36 22 88 23
REMARK SMILES IDX 82 24 81 25 37 27 69 28 49 29 68 30 50 31 53 32 67 33 86 34
REMARK SMILES IDX 51 35 52 36 66 38 87 39 54 40 38 41 39 42 47 43 40 44 41 45
REMARK SMILES IDX 45 46 48 47 42 48 43 49 46 50 44 51 70 52 71 53 79 54 72 55
REMARK SMILES IDX 73 56 77 57 80 58 74 59 75 60 78 61 76 62 55 63 56 64 64 65
REMARK SMILES IDX 57 66 58 67 62 68 65 69 59 70 60 71 63 72 61 73 8 74 9 75
REMARK SMILES IDX 10 76 11 77 12 79 13 80 14 81 28 82 15 83 16 84 17 85 18 87
REMARK SMILES IDX 19 88 20 89 21 90 22 91 27 92 23 93 26 94 24 95 25 96
REMARK H PARENT 3 8 85 26 53 37 10 78 17 86
REMARK Flexibility Score: inf
ROOT
ATOM      1  C   UNL A   1      32.636  30.235  26.871  1.00  0.00     0.002 C 
ENDROOT
BRANCH   1   2
ATOM      2  C   UNL A   1      31.329  30.965  26.545  1.00  0.00     0.002 C 
BRANCH   2   3
ATOM      3  C   UNL A   1      31.402  32.491  26.626  1.00  0.00     0.021 C 
BRANCH   3   4
ATOM      4  C   UNL A   1      32.665  33.029  27.290  1.00  0.00     0.116 C 
BRANCH   4   5
ATOM      5  N   UNL A   1      32.483  34.383  27.786  1.00  0.00    -0.352 N 
ATOM      6  O   UNL A   1      32.685  36.090  29.246  1.00  0.00    -0.269 OA
ATOM      7  C   UNL A   1      33.102  35.012  28.835  1.00  0.00     0.251 C 
ATOM      8  H   UNL A   1      31.821  34.925  27.300  1.00  0.00     0.163 HD
BRANCH   7   9
ATOM      9  C   UNL A   1      34.272  34.383  29.483  1.00  0.00     0.039 A 
ATOM     10  C   UNL A   1      34.107  33.501  30.556  1.00  0.00     0.014 A 
ATOM     11  C   UNL A   1      35.547  34.657  28.984  1.00  0.00     0.014 A 
ATOM     12  C   UNL A   1      35.224  32.972  31.196  1.00  0.00     0.010 A 
ATOM     13  C   UNL A   1      36.663  34.073  29.584  1.00  0.00     0.010 A 
ATOM     14  C   UNL A   1      36.510  33.242  30.705  1.00  0.00    -0.014 A 
BRANCH  14  15
ATOM     15  C   UNL A   1      37.694  32.599  31.325  1.00  0.00     0.031 A 
ATOM     16  C   UNL A   1      38.376  31.442  30.661  1.00  0.00     0.074 A 
ATOM     17  C   UNL A   1      38.121  33.043  32.522  1.00  0.00     0.049 A 
ATOM     18  N   UNL A   1      39.364  30.702  31.097  1.00  0.00    -0.248 NA
ATOM     19  C   UNL A   1      37.876  31.056  29.333  1.00  0.00     0.031 C 
ATOM     20  C   UNL A   1      37.524  34.153  33.267  1.00  0.00     0.029 A 
ATOM     21  N   UNL A   1      39.139  32.606  33.330  1.00  0.00    -0.354 N 
ATOM     22  C   UNL A   1      39.589  29.750  30.113  1.00  0.00     0.074 A 
ATOM     23  C   UNL A   1      38.619  29.991  29.065  1.00  0.00     0.031 C 
ATOM     24  C   UNL A   1      38.185  34.310  34.422  1.00  0.00     0.029 A 
ATOM     25  C   UNL A   1      39.211  33.278  34.525  1.00  0.00     0.049 A 
ATOM     26  H   UNL A   1      39.758  31.883  33.078  1.00  0.00     0.167 HD
ATOM     27  C   UNL A   1      40.522  28.767  30.090  1.00  0.00     0.037 A 
ATOM     28  C   UNL A   1      39.990  33.063  35.602  1.00  0.00     0.037 A 
ATOM     29  C   UNL A   1      41.485  28.543  31.137  1.00  0.00     0.049 A 
ATOM     30  C   UNL A   1      40.996  31.951  35.567  1.00  0.00     0.074 A 
ATOM     31  C   UNL A   1      42.509  27.614  31.184  1.00  0.00     0.029 A 
ATOM     32  N   UNL A   1      41.533  29.249  32.332  1.00  0.00    -0.354 N 
ATOM     33  N   UNL A   1      41.238  31.088  34.610  1.00  0.00    -0.248 NA
ATOM     34  C   UNL A   1      41.838  31.780  36.759  1.00  0.00     0.031 C 
ATOM     35  C   UNL A   1      43.140  27.719  32.428  1.00  0.00     0.029 A 
ATOM     36  C   UNL A   1      42.547  28.754  33.135  1.00  0.00     0.049 A 
ATOM     37  H   UNL A   1      40.933  29.992  32.573  1.00  0.00     0.167 HD
ATOM     38  C   UNL A   1      42.270  30.285  35.070  1.00  0.00     0.074 A 
ATOM     39  C   UNL A   1      42.616  30.768  36.393  1.00  0.00     0.031 C 
ATOM     40  C   UNL A   1      42.879  29.247  34.450  1.00  0.00     0.037 A 
BRANCH  27  41
ATOM     41  C   UNL A   1      40.524  27.840  28.908  1.00  0.00     0.064 A 
ATOM     42  C   UNL A   1      41.277  28.109  27.755  1.00  0.00     0.173 A 
ATOM     43  C   UNL A   1      39.774  26.655  28.937  1.00  0.00     0.173 A 
ATOM     44  F   UNL A   1      42.005  29.233  27.671  1.00  0.00    -0.203 F 
ATOM     45  C   UNL A   1      41.250  27.245  26.662  1.00  0.00     0.198 A 
ATOM     46  C   UNL A   1      39.772  25.778  27.855  1.00  0.00     0.198 A 
ATOM     47  F   UNL A   1      39.042  26.344  30.018  1.00  0.00    -0.203 F 
ATOM     48  F   UNL A   1      41.931  27.553  25.551  1.00  0.00    -0.200 F 
ATOM     49  C   UNL A   1      40.502  26.079  26.716  1.00  0.00     0.200 A 
ATOM     50  F   UNL A   1      39.059  24.645  27.914  1.00  0.00    -0.200 F 
ATOM     51  F   UNL A   1      40.475  25.250  25.663  1.00  0.00    -0.200 F 
ENDBRANCH  27  41
BRANCH  28  52
ATOM     52  C   UNL A   1      39.817  33.925  36.798  1.00  0.00     0.064 A 
ATOM     53  C   UNL A   1      40.442  35.175  36.883  1.00  0.00     0.173 A 
ATOM     54  C   UNL A   1      38.969  33.542  37.847  1.00  0.00     0.173 A 
ATOM     55  F   UNL A   1      41.272  35.577  35.909  1.00  0.00    -0.203 F 
ATOM     56  C   UNL A   1      40.224  36.013  37.975  1.00  0.00     0.198 A 
ATOM     57  C   UNL A   1      38.731  34.391  38.926  1.00  0.00     0.198 A 
ATOM     58  F   UNL A   1      38.340  32.359  37.804  1.00  0.00    -0.203 F 
ATOM     59  F   UNL A   1      40.847  37.196  38.044  1.00  0.00    -0.200 F 
ATOM     60  C   UNL A   1      39.361  35.624  38.990  1.00  0.00     0.200 A 
ATOM     61  F   UNL A   1      37.880  34.020  39.892  1.00  0.00    -0.200 F 
ATOM     62  F   UNL A   1      39.134  36.440  40.028  1.00  0.00    -0.200 F 
ENDBRANCH  28  52
BRANCH  40  63
ATOM     63  C   UNL A   1      44.008  28.574  35.175  1.00  0.00     0.064 A 
ATOM     64  C   UNL A   1      43.799  27.433  35.963  1.00  0.00     0.173 A 
ATOM     65  C   UNL A   1      45.323  29.035  35.018  1.00  0.00     0.173 A 
ATOM     66  F   UNL A   1      42.557  26.964  36.157  1.00  0.00    -0.203 F 
ATOM     67  C   UNL A   1      44.867  26.784  36.576  1.00  0.00     0.198 A 
ATOM     68  C   UNL A   1      46.392  28.369  35.611  1.00  0.00     0.198 A 
ATOM     69  F   UNL A   1      45.574  30.120  34.271  1.00  0.00    -0.203 F 
ATOM     70  F   UNL A   1      44.643  25.713  37.350  1.00  0.00    -0.200 F 
ATOM     71  C   UNL A   1      46.163  27.245  36.391  1.00  0.00     0.200 A 
ATOM     72  F   UNL A   1      47.643  28.808  35.420  1.00  0.00    -0.200 F 
ATOM     73  F   UNL A   1      47.191  26.609  36.967  1.00  0.00    -0.200 F 
ENDBRANCH  40  63
ENDBRANCH  14  15
ENDBRANCH   7   9
ENDBRANCH   4   5
ENDBRANCH   3   4
ENDBRANCH   2   3
ENDBRANCH   1   2
BRANCH   1  74
ATOM     74  C   UNL A   1      33.152  29.301  25.767  1.00  0.00     0.021 C 
BRANCH  74  75
ATOM     75  C   UNL A   1      32.443  29.478  24.426  1.00  0.00     0.116 C 
BRANCH  75  76
ATOM     76  N   UNL A   1      33.371  29.299  23.325  1.00  0.00    -0.356 N 
ATOM     77  C   UNL A   1      33.541  28.223  22.501  1.00  0.00     0.226 C 
ATOM     78  H   UNL A   1      33.965  30.065  23.146  1.00  0.00     0.163 HD
ATOM     79  O   UNL A   1      34.452  28.260  21.674  1.00  0.00    -0.274 OA
BRANCH  77  80
ATOM     80  C   UNL A   1      32.554  27.062  22.607  1.00  0.00     0.103 C 
ATOM     81  C   UNL A   1      32.540  26.351  21.286  1.00  0.00    -0.016 C 
ATOM     82  C   UNL A   1      32.992  25.958  23.580  1.00  0.00     0.042 C 
ATOM     83  C   UNL A   1      32.692  25.031  21.423  1.00  0.00    -0.011 C 
ATOM     84  C   UNL A   1      32.762  24.623  22.850  1.00  0.00     0.093 C 
BRANCH  84  85
ATOM     85  N   UNL A   1      33.867  23.718  23.135  1.00  0.00    -0.204 NA
ATOM     86  H   UNL A   1      34.666  24.306  23.371  1.00  0.00     0.142 HD
BRANCH  85  87
ATOM     87  S   UNL A   1      33.758  22.556  24.341  1.00  0.00     0.241 S 
ATOM     88  O   UNL A   1      32.999  23.107  25.438  1.00  0.00    -0.207 OA
ATOM     89  O   UNL A   1      33.347  21.329  23.692  1.00  0.00    -0.207 OA
BRANCH  87  90
ATOM     90  C   UNL A   1      35.439  22.347  24.868  1.00  0.00     0.082 A 
ATOM     91  C   UNL A   1      36.229  23.477  25.109  1.00  0.00     0.023 A 
ATOM     92  C   UNL A   1      35.957  21.061  25.039  1.00  0.00     0.023 A 
ATOM     93  C   UNL A   1      37.553  23.318  25.520  1.00  0.00     0.017 A 
ATOM     94  C   UNL A   1      37.284  20.907  25.447  1.00  0.00     0.017 A 
ATOM     95  C   UNL A   1      38.074  22.034  25.685  1.00  0.00     0.018 A 
ATOM     96  Br  UNL A   1      39.867  21.823  26.243  1.00  0.00    -0.051 Br
ENDBRANCH  87  90
ENDBRANCH  85  87
ENDBRANCH  84  85
ENDBRANCH  77  80
ENDBRANCH  75  76
ENDBRANCH  74  75
ENDBRANCH   1  74
TORSDOF 16
ENDMDL
MODEL 3
REMARK VINA RESULT:     -11.2      1.997      7.730
REMARK SMILES O=C(NCCCCCCNC(=O)[C@H]1C=C[C@@H](NS(=O)(=O)c2ccc(Br)cc2)C1)c1ccc(-c2c3nc(c(-c4c(F)c(F)c(F)c(F)c4F)c4ccc([nH]4)c(-c4c(F)c(F)c(F)c(F)c4F)c4nc(c(-c5c(F)c(F)c(F)c(F)c5F)c5ccc2[nH]5)C=C4)C=C3)cc1
REMARK SMILES IDX 7 1 6 2 5 3 4 4 3 5 1 6 2 7 29 9 30 10 91 11 31 12 90 13
REMARK SMILES IDX 32 14 33 15 34 16 84 17 35 18 89 19 83 20 85 21 36 22 88 23
REMARK SMILES IDX 82 24 81 25 37 27 69 28 49 29 68 30 50 31 53 32 67 33 86 34
REMARK SMILES IDX 51 35 52 36 66 38 87 39 54 40 38 41 39 42 47 43 40 44 41 45
REMARK SMILES IDX 45 46 48 47 42 48 43 49 46 50 44 51 70 52 71 53 79 54 72 55
REMARK SMILES IDX 73 56 77 57 80 58 74 59 75 60 78 61 76 62 55 63 56 64 64 65
REMARK SMILES IDX 57 66 58 67 62 68 65 69 59 70 60 71 63 72 61 73 8 74 9 75
REMARK SMILES IDX 10 76 11 77 12 79 13 80 14 81 28 82 15 83 16 84 17 85 18 87
REMARK SMILES IDX 19 88 20 89 21 90 22 91 27 92 23 93 26 94 24 95 25 96
REMARK H PARENT 3 8 85 26 53 37 10 78 17 86
REMARK Flexibility Score: inf
ROOT
ATOM      1  C   UNL A   1      32.721  30.223  26.842  1.00  0.00     0.002 C 
ENDROOT
BRANCH   1   2
ATOM      2  C   UNL A   1      31.379  30.881  26.507  1.00  0.00     0.002 C 
BRANCH   2   3
ATOM      3  C   UNL A   1      31.358  32.406  26.626  1.00  0.00     0.021 C 
BRANCH   3   4
ATOM      4  C   UNL A   1      32.635  33.013  27.198  1.00  0.00     0.116 C 
BRANCH   4   5
ATOM      5  N   UNL A   1      32.420  34.363  27.692  1.00  0.00    -0.352 N 
ATOM      6  O   UNL A   1      32.569  36.073  29.155  1.00  0.00    -0.269 OA
ATOM      7  C   UNL A   1      33.012  35.003  28.750  1.00  0.00     0.251 C 
ATOM      8  H   UNL A   1      31.754  34.892  27.197  1.00  0.00     0.163 HD
BRANCH   7   9
ATOM      9  C   UNL A   1      34.184  34.396  29.414  1.00  0.00     0.039 A 
ATOM     10  C   UNL A   1      34.025  33.575  30.536  1.00  0.00     0.014 A 
ATOM     11  C   UNL A   1      35.454  34.626  28.883  1.00  0.00     0.014 A 
ATOM     12  C   UNL A   1      35.145  33.068  31.188  1.00  0.00     0.010 A 
ATOM     13  C   UNL A   1      36.573  34.063  29.498  1.00  0.00     0.010 A 
ATOM     14  C   UNL A   1      36.427  33.295  30.665  1.00  0.00    -0.014 A 
BRANCH  14  15
ATOM     15  C   UNL A   1      37.613  32.673  31.302  1.00  0.00     0.031 A 
ATOM     16  C   UNL A   1      38.318  31.520  30.652  1.00  0.00     0.074 A 
ATOM     17  C   UNL A   1      38.021  33.130  32.500  1.00  0.00     0.049 A 
ATOM     18  N   UNL A   1      39.311  30.797  31.104  1.00  0.00    -0.248 NA
ATOM     19  C   UNL A   1      37.838  31.120  29.322  1.00  0.00     0.031 C 
ATOM     20  C   UNL A   1      37.400  34.236  33.232  1.00  0.00     0.029 A 
ATOM     21  N   UNL A   1      39.035  32.712  33.322  1.00  0.00    -0.354 N 
ATOM     22  C   UNL A   1      39.560  29.843  30.128  1.00  0.00     0.074 A 
ATOM     23  C   UNL A   1      38.598  30.064  29.068  1.00  0.00     0.031 C 
ATOM     24  C   UNL A   1      38.046  34.409  34.393  1.00  0.00     0.029 A 
ATOM     25  C   UNL A   1      39.085  33.391  34.513  1.00  0.00     0.049 A 
ATOM     26  H   UNL A   1      39.667  31.996  33.081  1.00  0.00     0.167 HD
ATOM     27  C   UNL A   1      40.506  28.873  30.122  1.00  0.00     0.037 A 
ATOM     28  C   UNL A   1      39.855  33.194  35.600  1.00  0.00     0.037 A 
ATOM     29  C   UNL A   1      41.461  28.668  31.180  1.00  0.00     0.049 A 
ATOM     30  C   UNL A   1      40.876  32.096  35.584  1.00  0.00     0.074 A 
ATOM     31  C   UNL A   1      42.497  27.753  31.245  1.00  0.00     0.029 A 
ATOM     32  N   UNL A   1      41.486  29.382  32.372  1.00  0.00    -0.354 N 
ATOM     33  N   UNL A   1      41.140  31.231  34.634  1.00  0.00    -0.248 NA
ATOM     34  C   UNL A   1      41.708  31.944  36.786  1.00  0.00     0.031 C 
ATOM     35  C   UNL A   1      43.113  27.875  32.495  1.00  0.00     0.029 A 
ATOM     36  C   UNL A   1      42.498  28.905  33.189  1.00  0.00     0.049 A 
ATOM     37  H   UNL A   1      40.874  30.118  32.601  1.00  0.00     0.167 HD
ATOM     38  C   UNL A   1      42.179  30.445  35.111  1.00  0.00     0.074 A 
ATOM     39  C   UNL A   1      42.503  30.940  36.435  1.00  0.00     0.031 C 
ATOM     40  C   UNL A   1      42.809  29.411  34.504  1.00  0.00     0.037 A 
BRANCH  27  41
ATOM     41  C   UNL A   1      40.535  27.938  28.946  1.00  0.00     0.064 A 
ATOM     42  C   UNL A   1      39.776  26.759  28.916  1.00  0.00     0.173 A 
ATOM     43  C   UNL A   1      41.322  28.238  27.823  1.00  0.00     0.173 A 
ATOM     44  F   UNL A   1      39.013  26.420  29.967  1.00  0.00    -0.203 F 
ATOM     45  C   UNL A   1      39.832  25.897  27.823  1.00  0.00     0.198 A 
ATOM     46  C   UNL A   1      41.353  27.389  26.719  1.00  0.00     0.198 A 
ATOM     47  F   UNL A   1      42.062  29.357  27.795  1.00  0.00    -0.203 F 
ATOM     48  F   UNL A   1      39.142  24.749  27.842  1.00  0.00    -0.200 F 
ATOM     49  C   UNL A   1      40.616  26.215  26.725  1.00  0.00     0.200 A 
ATOM     50  F   UNL A   1      42.101  27.706  25.654  1.00  0.00    -0.200 F 
ATOM     51  F   UNL A   1      40.670  25.384  25.675  1.00  0.00    -0.200 F 
ENDBRANCH  27  41
BRANCH  28  52
ATOM     52  C   UNL A   1      39.657  34.062  36.789  1.00  0.00     0.064 A 
ATOM     53  C   UNL A   1      38.862  33.644  37.863  1.00  0.00     0.173 A 
ATOM     54  C   UNL A   1      40.314  35.295  36.898  1.00  0.00     0.173 A 
ATOM     55  F   UNL A   1      38.204  32.478  37.796  1.00  0.00    -0.203 F 
ATOM     56  C   UNL A   1      38.733  34.430  39.007  1.00  0.00     0.198 A 
ATOM     57  C   UNL A   1      40.206  36.068  38.052  1.00  0.00     0.198 A 
ATOM     58  F   UNL A   1      41.095  35.732  35.899  1.00  0.00    -0.203 F 
ATOM     59  F   UNL A   1      37.953  34.019  40.015  1.00  0.00    -0.200 F 
ATOM     60  C   UNL A   1      39.414  35.635  39.105  1.00  0.00     0.200 A 
ATOM     61  F   UNL A   1      40.881  37.221  38.150  1.00  0.00    -0.200 F 
ATOM     62  F   UNL A   1      39.307  36.379  40.214  1.00  0.00    -0.200 F 
ENDBRANCH  28  52
BRANCH  40  63
ATOM     63  C   UNL A   1      43.938  28.758  35.246  1.00  0.00     0.064 A 
ATOM     64  C   UNL A   1      45.266  29.176  35.080  1.00  0.00     0.173 A 
ATOM     65  C   UNL A   1      43.676  27.750  36.185  1.00  0.00     0.173 A 
ATOM     66  F   UNL A   1      45.569  30.124  34.181  1.00  0.00    -0.203 F 
ATOM     67  C   UNL A   1      46.293  28.603  35.825  1.00  0.00     0.198 A 
ATOM     68  C   UNL A   1      44.701  27.197  36.947  1.00  0.00     0.198 A 
ATOM     69  F   UNL A   1      42.421  27.318  36.382  1.00  0.00    -0.203 F 
ATOM     70  F   UNL A   1      47.559  28.996  35.631  1.00  0.00    -0.200 F 
ATOM     71  C   UNL A   1      46.009  27.622  36.765  1.00  0.00     0.200 A 
ATOM     72  F   UNL A   1      44.423  26.259  37.863  1.00  0.00    -0.200 F 
ATOM     73  F   UNL A   1      46.996  27.083  37.493  1.00  0.00    -0.200 F 
ENDBRANCH  40  63
ENDBRANCH  14  15
ENDBRANCH   7   9
ENDBRANCH   4   5
ENDBRANCH   3   4
ENDBRANCH   2   3
ENDBRANCH   1   2
BRANCH   1  74
ATOM     74  C   UNL A   1      33.316  29.354  25.724  1.00  0.00     0.021 C 
BRANCH  74  75
ATOM     75  C   UNL A   1      32.534  29.413  24.413  1.00  0.00     0.116 C 
BRANCH  75  76
ATOM     76  N   UNL A   1      33.414  29.202  23.279  1.00  0.00    -0.356 N 
ATOM     77  C   UNL A   1      33.550  28.103  22.479  1.00  0.00     0.226 C 
ATOM     78  H   UNL A   1      33.998  29.963  23.053  1.00  0.00     0.163 HD
ATOM     79  O   UNL A   1      34.424  28.118  21.612  1.00  0.00    -0.274 OA
BRANCH  77  80
ATOM     80  C   UNL A   1      32.569  26.947  22.660  1.00  0.00     0.103 C 
ATOM     81  C   UNL A   1      32.781  25.986  21.527  1.00  0.00    -0.016 C 
ATOM     82  C   UNL A   1      32.851  26.079  23.895  1.00  0.00     0.042 C 
ATOM     83  C   UNL A   1      32.921  24.728  21.954  1.00  0.00    -0.011 C 
ATOM     84  C   UNL A   1      32.758  24.617  23.426  1.00  0.00     0.093 C 
BRANCH  84  85
ATOM     85  N   UNL A   1      33.809  23.835  24.063  1.00  0.00    -0.204 NA
ATOM     86  H   UNL A   1      34.575  24.481  24.249  1.00  0.00     0.142 HD
BRANCH  85  87
ATOM     87  S   UNL A   1      33.535  23.000  25.492  1.00  0.00     0.241 S 
ATOM     88  O   UNL A   1      34.634  23.260  26.391  1.00  0.00    -0.207 OA
ATOM     89  O   UNL A   1      32.171  23.289  25.882  1.00  0.00    -0.207 OA
BRANCH  87  90
ATOM     90  C   UNL A   1      33.602  21.298  24.999  1.00  0.00     0.082 A 
ATOM     91  C   UNL A   1      32.432  20.660  24.571  1.00  0.00     0.023 A 
ATOM     92  C   UNL A   1      34.818  20.611  25.039  1.00  0.00     0.023 A 
ATOM     93  C   UNL A   1      32.478  19.320  24.186  1.00  0.00     0.017 A 
ATOM     94  C   UNL A   1      34.859  19.268  24.655  1.00  0.00     0.017 A 
ATOM     95  C   UNL A   1      33.690  18.631  24.232  1.00  0.00     0.018 A 
ATOM     96  Br  UNL A   1      33.749  16.816  23.708  1.00  0.00    -0.051 Br
ENDBRANCH  87  90
ENDBRANCH  85  87
ENDBRANCH  84  85
ENDBRANCH  77  80
ENDBRANCH  75  76
ENDBRANCH  74  75
ENDBRANCH   1  74
TORSDOF 16
ENDMDL
