MODEL 1
REMARK VINA RESULT:     -11.4      0.000      0.000
REMARK SMILES CCCC[C@@H](C(=O)NCCCCCCNC(=O)c1ccc(-c2c3nc(c(-c4c(F)c(F)c(F)c(F)c4F)c4ccc([nH]4)c(-c4c(F)c(F)c(F)c(F)c4F)c4nc(c(-c5c(F)c(F)c(F)c(F)c5F)c5ccc2[nH]5)C=C4)C=C3)cc1)[C@@H](O)c1cccc(C(F)(F)F)c1
REMARK SMILES IDX 11 1 10 2 9 3 8 4 6 5 7 6 5 8 4 9 3 10 2 11 1 12 81 13 82 14
REMARK SMILES IDX 83 16 84 17 92 18 85 19 87 20 86 21 88 22 89 23 90 24 91 25
REMARK SMILES IDX 12 26 13 27 14 28 15 29 16 30 17 32 18 33 19 34 80 35 20 36
REMARK SMILES IDX 79 37 21 38 22 39 23 40 73 41 24 42 78 43 72 44 74 45 25 46
REMARK SMILES IDX 77 47 71 48 70 49 26 51 58 52 38 53 57 54 39 55 42 56 56 57
REMARK SMILES IDX 75 58 40 59 41 60 55 62 76 63 43 64 27 65 28 66 36 67 29 68
REMARK SMILES IDX 30 69 34 70 37 71 31 72 32 73 35 74 33 75 59 76 60 77 68 78
REMARK SMILES IDX 61 79 62 80 66 81 69 82 63 83 64 84 67 85 65 86 44 87 45 88
REMARK SMILES IDX 53 89 46 90 47 91 51 92 54 93 48 94 49 95 52 96 50 97
REMARK H PARENT 8 7 82 15 15 31 74 50 42 61
REMARK Flexibility Score: inf
ROOT
ATOM      1  C   UNL A   1      32.149  29.931  27.098  1.00  0.00     0.002 C 
ENDROOT
BRANCH   1   2
ATOM      2  C   UNL A   1      32.095  28.442  26.751  1.00  0.00     0.021 C 
BRANCH   2   3
ATOM      3  C   UNL A   1      33.447  27.852  26.339  1.00  0.00     0.116 C 
BRANCH   3   4
ATOM      4  N   UNL A   1      33.907  28.475  25.115  1.00  0.00    -0.356 N 
ATOM      5  C   UNL A   1      33.657  28.165  23.812  1.00  0.00     0.226 C 
ATOM      6  O   UNL A   1      34.355  28.719  22.960  1.00  0.00    -0.275 OA
ATOM      7  H   UNL A   1      34.497  29.252  25.246  1.00  0.00     0.163 HD
BRANCH   5   8
ATOM      8  C   UNL A   1      32.566  27.163  23.428  1.00  0.00     0.111 C 
BRANCH   8   9
ATOM      9  C   UNL A   1      33.179  25.882  22.796  1.00  0.00     0.016 C 
BRANCH   9  10
ATOM     10  C   UNL A   1      32.852  24.540  23.463  1.00  0.00     0.001 C 
BRANCH  10  11
ATOM     11  C   UNL A   1      33.338  24.356  24.905  1.00  0.00    -0.003 C 
ATOM     12  C   UNL A   1      34.818  24.646  25.087  1.00  0.00     0.004 C 
ENDBRANCH  10  11
ENDBRANCH   9  10
ENDBRANCH   8   9
BRANCH   8  13
ATOM     13  C   UNL A   1      31.644  27.866  22.388  1.00  0.00     0.157 C 
BRANCH  13  14
ATOM     14  O   UNL A   1      31.420  26.985  21.278  1.00  0.00    -0.388 OA
ATOM     15  H   UNL A   1      31.492  27.484  20.449  1.00  0.00     0.211 HD
ENDBRANCH  13  14
BRANCH  13  16
ATOM     16  C   UNL A   1      30.250  28.274  22.833  1.00  0.00    -0.018 A 
ATOM     17  C   UNL A   1      29.248  27.351  23.164  1.00  0.00     0.006 A 
ATOM     18  C   UNL A   1      29.916  29.642  22.827  1.00  0.00     0.019 A 
ATOM     19  C   UNL A   1      27.962  27.783  23.496  1.00  0.00     0.001 A 
ATOM     20  C   UNL A   1      28.624  30.088  23.147  1.00  0.00     0.056 A 
ATOM     21  C   UNL A   1      27.650  29.141  23.487  1.00  0.00     0.013 A 
BRANCH  20  22
ATOM     22  C   UNL A   1      28.268  31.553  23.099  1.00  0.00     0.416 C 
ATOM     23  F   UNL A   1      28.192  32.030  21.825  1.00  0.00    -0.166 F 
ATOM     24  F   UNL A   1      27.059  31.818  23.668  1.00  0.00    -0.166 F 
ATOM     25  F   UNL A   1      29.164  32.357  23.740  1.00  0.00    -0.166 F 
ENDBRANCH  20  22
ENDBRANCH  13  16
ENDBRANCH   8  13
ENDBRANCH   5   8
ENDBRANCH   3   4
ENDBRANCH   2   3
ENDBRANCH   1   2
BRANCH   1  26
ATOM     26  C   UNL A   1      31.406  30.839  26.114  1.00  0.00     0.002 C 
BRANCH  26  27
ATOM     27  C   UNL A   1      31.353  32.322  26.498  1.00  0.00     0.021 C 
BRANCH  27  28
ATOM     28  C   UNL A   1      32.583  32.846  27.235  1.00  0.00     0.116 C 
BRANCH  28  29
ATOM     29  N   UNL A   1      32.431  34.235  27.630  1.00  0.00    -0.352 N 
ATOM     30  C   UNL A   1      33.032  34.930  28.648  1.00  0.00     0.251 C 
ATOM     31  H   UNL A   1      31.800  34.757  27.083  1.00  0.00     0.163 HD
ATOM     32  O   UNL A   1      32.618  36.043  28.957  1.00  0.00    -0.269 OA
BRANCH  30  33
ATOM     33  C   UNL A   1      34.177  34.347  29.379  1.00  0.00     0.039 A 
ATOM     34  C   UNL A   1      35.466  34.548  28.878  1.00  0.00     0.014 A 
ATOM     35  C   UNL A   1      33.983  33.554  30.515  1.00  0.00     0.014 A 
ATOM     36  C   UNL A   1      36.562  33.979  29.529  1.00  0.00     0.010 A 
ATOM     37  C   UNL A   1      35.081  33.040  31.199  1.00  0.00     0.010 A 
ATOM     38  C   UNL A   1      36.380  33.230  30.701  1.00  0.00    -0.014 A 
BRANCH  38  39
ATOM     39  C   UNL A   1      37.530  32.593  31.388  1.00  0.00     0.031 A 
ATOM     40  C   UNL A   1      38.273  31.469  30.719  1.00  0.00     0.074 A 
ATOM     41  C   UNL A   1      37.880  32.994  32.624  1.00  0.00     0.049 A 
ATOM     42  N   UNL A   1      39.265  30.744  31.171  1.00  0.00    -0.248 NA
ATOM     43  C   UNL A   1      37.824  31.094  29.369  1.00  0.00     0.031 C 
ATOM     44  C   UNL A   1      37.215  34.048  33.391  1.00  0.00     0.029 A 
ATOM     45  N   UNL A   1      38.881  32.558  33.456  1.00  0.00    -0.354 N 
ATOM     46  C   UNL A   1      39.544  29.820  30.172  1.00  0.00     0.074 A 
ATOM     47  C   UNL A   1      38.587  30.042  29.110  1.00  0.00     0.031 C 
ATOM     48  C   UNL A   1      37.838  34.191  34.572  1.00  0.00     0.029 A 
ATOM     49  C   UNL A   1      38.925  33.221  34.658  1.00  0.00     0.049 A 
ATOM     50  H   UNL A   1      39.507  31.838  33.214  1.00  0.00     0.167 HD
ATOM     51  C   UNL A   1      40.526  28.889  30.132  1.00  0.00     0.037 A 
ATOM     52  C   UNL A   1      39.754  33.061  35.708  1.00  0.00     0.037 A 
ATOM     53  C   UNL A   1      41.498  28.693  31.175  1.00  0.00     0.049 A 
ATOM     54  C   UNL A   1      40.846  32.028  35.631  1.00  0.00     0.074 A 
ATOM     55  C   UNL A   1      42.556  27.801  31.215  1.00  0.00     0.029 A 
ATOM     56  N   UNL A   1      41.532  29.409  32.362  1.00  0.00    -0.354 N 
ATOM     57  N   UNL A   1      41.131  31.194  34.660  1.00  0.00    -0.248 NA
ATOM     58  C   UNL A   1      41.738  31.922  36.794  1.00  0.00     0.031 C 
ATOM     59  C   UNL A   1      43.213  27.957  32.441  1.00  0.00     0.029 A 
ATOM     60  C   UNL A   1      42.590  28.975  33.145  1.00  0.00     0.049 A 
ATOM     61  H   UNL A   1      40.899  30.120  32.612  1.00  0.00     0.167 HD
ATOM     62  C   UNL A   1      42.255  30.495  35.077  1.00  0.00     0.074 A 
ATOM     63  C   UNL A   1      42.605  31.006  36.385  1.00  0.00     0.031 C 
ATOM     64  C   UNL A   1      42.937  29.516  34.433  1.00  0.00     0.037 A 
BRANCH  51  65
ATOM     65  C   UNL A   1      40.605  28.017  28.912  1.00  0.00     0.064 A 
ATOM     66  C   UNL A   1      39.855  26.835  28.805  1.00  0.00     0.173 A 
ATOM     67  C   UNL A   1      41.413  28.381  27.824  1.00  0.00     0.173 A 
ATOM     68  F   UNL A   1      39.077  26.436  29.822  1.00  0.00    -0.203 F 
ATOM     69  C   UNL A   1      39.932  26.037  27.667  1.00  0.00     0.198 A 
ATOM     70  C   UNL A   1      41.465  27.596  26.675  1.00  0.00     0.198 A 
ATOM     71  F   UNL A   1      42.146  29.503  27.873  1.00  0.00    -0.203 F 
ATOM     72  F   UNL A   1      39.244  24.889  27.608  1.00  0.00    -0.200 F 
ATOM     73  C   UNL A   1      40.731  26.422  26.600  1.00  0.00     0.200 A 
ATOM     74  F   UNL A   1      42.229  27.974  25.641  1.00  0.00    -0.200 F 
ATOM     75  F   UNL A   1      40.799  25.656  25.503  1.00  0.00    -0.200 F 
ENDBRANCH  51  65
BRANCH  52  76
ATOM     76  C   UNL A   1      39.609  33.926  36.908  1.00  0.00     0.064 A 
ATOM     77  C   UNL A   1      38.848  33.505  38.007  1.00  0.00     0.173 A 
ATOM     78  C   UNL A   1      40.211  35.190  36.976  1.00  0.00     0.173 A 
ATOM     79  F   UNL A   1      38.236  32.311  37.980  1.00  0.00    -0.203 F 
ATOM     80  C   UNL A   1      38.674  34.326  39.119  1.00  0.00     0.198 A 
ATOM     81  C   UNL A   1      40.060  35.998  38.100  1.00  0.00     0.198 A 
ATOM     82  F   UNL A   1      40.954  35.635  35.952  1.00  0.00    -0.203 F 
ATOM     83  F   UNL A   1      37.901  33.919  40.136  1.00  0.00    -0.200 F 
ATOM     84  C   UNL A   1      39.283  35.570  39.167  1.00  0.00     0.200 A 
ATOM     85  F   UNL A   1      40.661  37.195  38.148  1.00  0.00    -0.200 F 
ATOM     86  F   UNL A   1      39.116  36.360  40.237  1.00  0.00    -0.200 F 
ENDBRANCH  52  76
BRANCH  64  87
ATOM     87  C   UNL A   1      44.162  28.975  35.109  1.00  0.00     0.064 A 
ATOM     88  C   UNL A   1      44.104  27.868  35.968  1.00  0.00     0.173 A 
ATOM     89  C   UNL A   1      45.418  29.552  34.862  1.00  0.00     0.173 A 
ATOM     90  F   UNL A   1      42.925  27.290  36.246  1.00  0.00    -0.203 F 
ATOM     91  C   UNL A   1      45.254  27.377  36.578  1.00  0.00     0.198 A 
ATOM     92  C   UNL A   1      46.569  29.040  35.451  1.00  0.00     0.198 A 
ATOM     93  F   UNL A   1      45.526  30.608  34.042  1.00  0.00    -0.203 F 
ATOM     94  F   UNL A   1      45.169  26.348  37.433  1.00  0.00    -0.200 F 
ATOM     95  C   UNL A   1      46.487  27.958  36.314  1.00  0.00     0.200 A 
ATOM     96  F   UNL A   1      47.759  29.596  35.187  1.00  0.00    -0.200 F 
ATOM     97  F   UNL A   1      47.594  27.480  36.900  1.00  0.00    -0.200 F 
ENDBRANCH  64  87
ENDBRANCH  38  39
ENDBRANCH  30  33
ENDBRANCH  28  29
ENDBRANCH  27  28
ENDBRANCH  26  27
ENDBRANCH   1  26
TORSDOF 20
ENDMDL
MODEL 2
REMARK VINA RESULT:     -11.3      0.627      7.312
REMARK SMILES CCCC[C@@H](C(=O)NCCCCCCNC(=O)c1ccc(-c2c3nc(c(-c4c(F)c(F)c(F)c(F)c4F)c4ccc([nH]4)c(-c4c(F)c(F)c(F)c(F)c4F)c4nc(c(-c5c(F)c(F)c(F)c(F)c5F)c5ccc2[nH]5)C=C4)C=C3)cc1)[C@@H](O)c1cccc(C(F)(F)F)c1
REMARK SMILES IDX 11 1 10 2 9 3 8 4 6 5 7 6 5 8 4 9 3 10 2 11 1 12 81 13 82 14
REMARK SMILES IDX 83 16 84 17 92 18 85 19 87 20 86 21 88 22 89 23 90 24 91 25
REMARK SMILES IDX 12 26 13 27 14 28 15 29 16 30 17 32 18 33 19 34 80 35 20 36
REMARK SMILES IDX 79 37 21 38 22 39 23 40 73 41 24 42 78 43 72 44 74 45 25 46
REMARK SMILES IDX 77 47 71 48 70 49 26 51 58 52 38 53 57 54 39 55 42 56 56 57
REMARK SMILES IDX 75 58 40 59 41 60 55 62 76 63 43 64 27 65 28 66 36 67 29 68
REMARK SMILES IDX 30 69 34 70 37 71 31 72 32 73 35 74 33 75 59 76 60 77 68 78
REMARK SMILES IDX 61 79 62 80 66 81 69 82 63 83 64 84 67 85 65 86 44 87 45 88
REMARK SMILES IDX 53 89 46 90 47 91 51 92 54 93 48 94 49 95 52 96 50 97
REMARK H PARENT 8 7 82 15 15 31 74 50 42 61
REMARK Flexibility Score: inf
ROOT
ATOM      1  C   UNL A   1      31.911  29.893  27.039  1.00  0.00     0.002 C 
ENDROOT
BRANCH   1   2
ATOM      2  C   UNL A   1      31.783  28.407  26.698  1.00  0.00     0.021 C 
BRANCH   2   3
ATOM      3  C   UNL A   1      33.122  27.723  26.402  1.00  0.00     0.116 C 
BRANCH   3   4
ATOM      4  N   UNL A   1      33.746  28.333  25.246  1.00  0.00    -0.356 N 
ATOM      5  C   UNL A   1      33.685  28.003  23.926  1.00  0.00     0.226 C 
ATOM      6  O   UNL A   1      34.493  28.553  23.173  1.00  0.00    -0.275 OA
ATOM      7  H   UNL A   1      34.305  29.119  25.448  1.00  0.00     0.163 HD
BRANCH   5   8
ATOM      8  C   UNL A   1      32.668  26.985  23.406  1.00  0.00     0.111 C 
BRANCH   8   9
ATOM      9  C   UNL A   1      33.375  25.809  22.675  1.00  0.00     0.016 C 
BRANCH   9  10
ATOM     10  C   UNL A   1      33.415  24.454  23.393  1.00  0.00     0.001 C 
BRANCH  10  11
ATOM     11  C   UNL A   1      33.546  24.492  24.919  1.00  0.00    -0.003 C 
ATOM     12  C   UNL A   1      34.984  24.576  25.402  1.00  0.00     0.004 C 
ENDBRANCH  10  11
ENDBRANCH   9  10
ENDBRANCH   8   9
BRANCH   8  13
ATOM     13  C   UNL A   1      31.740  27.736  22.406  1.00  0.00     0.157 C 
BRANCH  13  14
ATOM     14  O   UNL A   1      31.532  26.919  21.245  1.00  0.00    -0.388 OA
ATOM     15  H   UNL A   1      30.625  27.038  20.923  1.00  0.00     0.211 HD
ENDBRANCH  13  14
BRANCH  13  16
ATOM     16  C   UNL A   1      30.338  28.096  22.868  1.00  0.00    -0.018 A 
ATOM     17  C   UNL A   1      29.380  27.140  23.234  1.00  0.00     0.006 A 
ATOM     18  C   UNL A   1      29.950  29.449  22.844  1.00  0.00     0.019 A 
ATOM     19  C   UNL A   1      28.083  27.526  23.581  1.00  0.00     0.001 A 
ATOM     20  C   UNL A   1      28.646  29.849  23.180  1.00  0.00     0.056 A 
ATOM     21  C   UNL A   1      27.716  28.870  23.554  1.00  0.00     0.013 A 
BRANCH  20  22
ATOM     22  C   UNL A   1      28.231  31.297  23.112  1.00  0.00     0.416 C 
ATOM     23  F   UNL A   1      27.119  31.556  23.856  1.00  0.00    -0.166 F 
ATOM     24  F   UNL A   1      29.194  32.141  23.577  1.00  0.00    -0.166 F 
ATOM     25  F   UNL A   1      27.939  31.727  21.851  1.00  0.00    -0.166 F 
ENDBRANCH  20  22
ENDBRANCH  13  16
ENDBRANCH   8  13
ENDBRANCH   5   8
ENDBRANCH   3   4
ENDBRANCH   2   3
ENDBRANCH   1   2
BRANCH   1  26
ATOM     26  C   UNL A   1      31.189  30.831  26.067  1.00  0.00     0.002 C 
BRANCH  26  27
ATOM     27  C   UNL A   1      31.266  32.323  26.412  1.00  0.00     0.021 C 
BRANCH  27  28
ATOM     28  C   UNL A   1      32.521  32.750  27.169  1.00  0.00     0.116 C 
BRANCH  28  29
ATOM     29  N   UNL A   1      32.445  34.130  27.616  1.00  0.00    -0.352 N 
ATOM     30  C   UNL A   1      33.123  34.766  28.623  1.00  0.00     0.251 C 
ATOM     31  H   UNL A   1      31.809  34.694  27.118  1.00  0.00     0.163 HD
ATOM     32  O   UNL A   1      32.770  35.883  28.987  1.00  0.00    -0.269 OA
BRANCH  30  33
ATOM     33  C   UNL A   1      34.278  34.115  29.276  1.00  0.00     0.039 A 
ATOM     34  C   UNL A   1      35.568  34.497  28.896  1.00  0.00     0.014 A 
ATOM     35  C   UNL A   1      34.099  33.090  30.210  1.00  0.00     0.014 A 
ATOM     36  C   UNL A   1      36.677  33.873  29.471  1.00  0.00     0.010 A 
ATOM     37  C   UNL A   1      35.204  32.512  30.829  1.00  0.00     0.010 A 
ATOM     38  C   UNL A   1      36.504  32.884  30.451  1.00  0.00    -0.014 A 
BRANCH  38  39
ATOM     39  C   UNL A   1      37.670  32.189  31.049  1.00  0.00     0.031 A 
ATOM     40  C   UNL A   1      38.142  32.568  32.426  1.00  0.00     0.074 A 
ATOM     41  C   UNL A   1      38.328  31.251  30.343  1.00  0.00     0.049 A 
ATOM     42  N   UNL A   1      39.171  32.125  33.103  1.00  0.00    -0.248 NA
ATOM     43  C   UNL A   1      37.365  33.603  33.128  1.00  0.00     0.031 C 
ATOM     44  C   UNL A   1      37.989  30.823  28.985  1.00  0.00     0.029 A 
ATOM     45  N   UNL A   1      39.424  30.492  30.668  1.00  0.00    -0.354 N 
ATOM     46  C   UNL A   1      39.174  32.837  34.296  1.00  0.00     0.074 A 
ATOM     47  C   UNL A   1      38.076  33.776  34.233  1.00  0.00     0.031 C 
ATOM     48  C   UNL A   1      38.847  29.863  28.601  1.00  0.00     0.029 A 
ATOM     49  C   UNL A   1      39.812  29.630  29.672  1.00  0.00     0.049 A 
ATOM     50  H   UNL A   1      39.889  30.560  31.533  1.00  0.00     0.167 HD
ATOM     51  C   UNL A   1      40.002  32.701  35.359  1.00  0.00     0.037 A 
ATOM     52  C   UNL A   1      40.831  28.750  29.632  1.00  0.00     0.037 A 
ATOM     53  C   UNL A   1      41.073  31.743  35.433  1.00  0.00     0.049 A 
ATOM     54  C   UNL A   1      41.728  28.610  30.833  1.00  0.00     0.074 A 
ATOM     55  C   UNL A   1      41.947  31.501  36.480  1.00  0.00     0.029 A 
ATOM     56  N   UNL A   1      41.412  30.862  34.417  1.00  0.00    -0.354 N 
ATOM     57  N   UNL A   1      41.690  29.254  31.974  1.00  0.00    -0.248 NA
ATOM     58  C   UNL A   1      42.802  27.612  30.742  1.00  0.00     0.031 C 
ATOM     59  C   UNL A   1      42.833  30.493  36.085  1.00  0.00     0.029 A 
ATOM     60  C   UNL A   1      42.485  30.078  34.810  1.00  0.00     0.049 A 
ATOM     61  H   UNL A   1      40.957  30.802  33.546  1.00  0.00     0.167 HD
ATOM     62  C   UNL A   1      42.706  28.713  32.750  1.00  0.00     0.074 A 
ATOM     63  C   UNL A   1      43.338  27.684  31.952  1.00  0.00     0.031 C 
ATOM     64  C   UNL A   1      43.083  29.041  34.010  1.00  0.00     0.037 A 
BRANCH  51  65
ATOM     65  C   UNL A   1      39.774  33.606  36.535  1.00  0.00     0.064 A 
ATOM     66  C   UNL A   1      40.379  34.870  36.618  1.00  0.00     0.173 A 
ATOM     67  C   UNL A   1      38.914  33.222  37.575  1.00  0.00     0.173 A 
ATOM     68  F   UNL A   1      41.220  35.279  35.656  1.00  0.00    -0.203 F 
ATOM     69  C   UNL A   1      40.156  35.702  37.711  1.00  0.00     0.198 A 
ATOM     70  C   UNL A   1      38.669  34.069  38.653  1.00  0.00     0.198 A 
ATOM     71  F   UNL A   1      38.305  32.027  37.543  1.00  0.00    -0.203 F 
ATOM     72  F   UNL A   1      40.784  36.883  37.791  1.00  0.00    -0.200 F 
ATOM     73  C   UNL A   1      39.295  35.304  38.724  1.00  0.00     0.200 A 
ATOM     74  F   UNL A   1      37.829  33.689  39.625  1.00  0.00    -0.200 F 
ATOM     75  F   UNL A   1      39.076  36.110  39.772  1.00  0.00    -0.200 F 
ENDBRANCH  51  65
BRANCH  52  76
ATOM     76  C   UNL A   1      41.037  27.905  28.427  1.00  0.00     0.064 A 
ATOM     77  C   UNL A   1      41.888  28.322  27.395  1.00  0.00     0.173 A 
ATOM     78  C   UNL A   1      40.378  26.676  28.275  1.00  0.00     0.173 A 
ATOM     79  F   UNL A   1      42.524  29.500  27.488  1.00  0.00    -0.203 F 
ATOM     80  C   UNL A   1      42.056  27.554  26.245  1.00  0.00     0.198 A 
ATOM     81  C   UNL A   1      40.569  25.896  27.137  1.00  0.00     0.198 A 
ATOM     82  F   UNL A   1      39.558  26.230  29.237  1.00  0.00    -0.203 F 
ATOM     83  F   UNL A   1      42.838  27.999  25.253  1.00  0.00    -0.200 F 
ATOM     84  C   UNL A   1      41.399  26.339  26.118  1.00  0.00     0.200 A 
ATOM     85  F   UNL A   1      39.942  24.716  27.023  1.00  0.00    -0.200 F 
ATOM     86  F   UNL A   1      41.560  25.601  25.012  1.00  0.00    -0.200 F 
ENDBRANCH  52  76
BRANCH  64  87
ATOM     87  C   UNL A   1      44.192  28.239  34.625  1.00  0.00     0.064 A 
ATOM     88  C   UNL A   1      43.941  27.054  35.333  1.00  0.00     0.173 A 
ATOM     89  C   UNL A   1      45.526  28.646  34.472  1.00  0.00     0.173 A 
ATOM     90  F   UNL A   1      42.681  26.632  35.518  1.00  0.00    -0.203 F 
ATOM     91  C   UNL A   1      44.985  26.321  35.888  1.00  0.00     0.198 A 
ATOM     92  C   UNL A   1      46.569  27.894  35.005  1.00  0.00     0.198 A 
ATOM     93  F   UNL A   1      45.818  29.768  33.798  1.00  0.00    -0.203 F 
ATOM     94  F   UNL A   1      44.720  25.217  36.601  1.00  0.00    -0.200 F 
ATOM     95  C   UNL A   1      46.298  26.737  35.719  1.00  0.00     0.200 A 
ATOM     96  F   UNL A   1      47.837  28.291  34.831  1.00  0.00    -0.200 F 
ATOM     97  F   UNL A   1      47.302  26.026  36.252  1.00  0.00    -0.200 F 
ENDBRANCH  64  87
ENDBRANCH  38  39
ENDBRANCH  30  33
ENDBRANCH  28  29
ENDBRANCH  27  28
ENDBRANCH  26  27
ENDBRANCH   1  26
TORSDOF 20
ENDMDL
MODEL 3
REMARK VINA RESULT:     -11.2      3.125      4.645
REMARK SMILES CCCC[C@@H](C(=O)NCCCCCCNC(=O)c1ccc(-c2c3nc(c(-c4c(F)c(F)c(F)c(F)c4F)c4ccc([nH]4)c(-c4c(F)c(F)c(F)c(F)c4F)c4nc(c(-c5c(F)c(F)c(F)c(F)c5F)c5ccc2[nH]5)C=C4)C=C3)cc1)[C@@H](O)c1cccc(C(F)(F)F)c1
REMARK SMILES IDX 11 1 10 2 9 3 8 4 6 5 7 6 5 8 4 9 3 10 2 11 1 12 81 13 82 14
REMARK SMILES IDX 83 16 84 17 92 18 85 19 87 20 86 21 88 22 89 23 90 24 91 25
REMARK SMILES IDX 12 26 13 27 14 28 15 29 16 30 17 32 18 33 19 34 80 35 20 36
REMARK SMILES IDX 79 37 21 38 22 39 23 40 73 41 24 42 78 43 72 44 74 45 25 46
REMARK SMILES IDX 77 47 71 48 70 49 26 51 58 52 38 53 57 54 39 55 42 56 56 57
REMARK SMILES IDX 75 58 40 59 41 60 55 62 76 63 43 64 27 65 28 66 36 67 29 68
REMARK SMILES IDX 30 69 34 70 37 71 31 72 32 73 35 74 33 75 59 76 60 77 68 78
REMARK SMILES IDX 61 79 62 80 66 81 69 82 63 83 64 84 67 85 65 86 44 87 45 88
REMARK SMILES IDX 53 89 46 90 47 91 51 92 54 93 48 94 49 95 52 96 50 97
REMARK H PARENT 8 7 82 15 15 31 74 50 42 61
REMARK Flexibility Score: inf
ROOT
ATOM      1  C   UNL A   1      32.481  29.602  26.711  1.00  0.00     0.002 C 
ENDROOT
BRANCH   1   2
ATOM      2  C   UNL A   1      31.837  28.364  27.338  1.00  0.00     0.021 C 
BRANCH   2   3
ATOM      3  C   UNL A   1      31.943  27.104  26.472  1.00  0.00     0.116 C 
BRANCH   3   4
ATOM      4  N   UNL A   1      30.909  26.160  26.843  1.00  0.00    -0.356 N 
ATOM      5  C   UNL A   1      30.676  24.887  26.419  1.00  0.00     0.226 C 
ATOM      6  O   UNL A   1      29.594  24.382  26.727  1.00  0.00    -0.275 OA
ATOM      7  H   UNL A   1      30.269  26.493  27.513  1.00  0.00     0.163 HD
BRANCH   5   8
ATOM      8  C   UNL A   1      31.709  24.123  25.586  1.00  0.00     0.111 C 
BRANCH   8   9
ATOM      9  C   UNL A   1      31.173  23.835  24.156  1.00  0.00     0.016 C 
BRANCH   9  10
ATOM     10  C   UNL A   1      32.150  24.015  22.987  1.00  0.00     0.001 C 
BRANCH  10  11
ATOM     11  C   UNL A   1      32.887  22.759  22.510  1.00  0.00    -0.003 C 
ATOM     12  C   UNL A   1      31.965  21.582  22.239  1.00  0.00     0.004 C 
ENDBRANCH  10  11
ENDBRANCH   9  10
ENDBRANCH   8   9
BRANCH   8  13
ATOM     13  C   UNL A   1      31.984  22.777  26.320  1.00  0.00     0.157 C 
BRANCH  13  14
ATOM     14  O   UNL A   1      30.889  21.879  26.094  1.00  0.00    -0.388 OA
ATOM     15  H   UNL A   1      30.287  21.904  26.854  1.00  0.00     0.211 HD
ENDBRANCH  13  14
BRANCH  13  16
ATOM     16  C   UNL A   1      33.213  21.983  25.913  1.00  0.00    -0.018 A 
ATOM     17  C   UNL A   1      34.498  22.538  25.842  1.00  0.00     0.006 A 
ATOM     18  C   UNL A   1      33.042  20.647  25.499  1.00  0.00     0.019 A 
ATOM     19  C   UNL A   1      35.580  21.777  25.391  1.00  0.00     0.001 A 
ATOM     20  C   UNL A   1      34.119  19.876  25.032  1.00  0.00     0.056 A 
ATOM     21  C   UNL A   1      35.393  20.456  24.987  1.00  0.00     0.013 A 
BRANCH  20  22
ATOM     22  C   UNL A   1      33.917  18.460  24.555  1.00  0.00     0.416 C 
ATOM     23  F   UNL A   1      35.090  17.773  24.448  1.00  0.00    -0.166 F 
ATOM     24  F   UNL A   1      33.135  17.729  25.398  1.00  0.00    -0.166 F 
ATOM     25  F   UNL A   1      33.326  18.372  23.330  1.00  0.00    -0.166 F 
ENDBRANCH  20  22
ENDBRANCH  13  16
ENDBRANCH   8  13
ENDBRANCH   5   8
ENDBRANCH   3   4
ENDBRANCH   2   3
ENDBRANCH   1   2
BRANCH   1  26
ATOM     26  C   UNL A   1      31.512  30.494  25.929  1.00  0.00     0.002 C 
BRANCH  26  27
ATOM     27  C   UNL A   1      31.370  31.928  26.450  1.00  0.00     0.021 C 
BRANCH  27  28
ATOM     28  C   UNL A   1      32.589  32.473  27.190  1.00  0.00     0.116 C 
BRANCH  28  29
ATOM     29  N   UNL A   1      32.435  33.876  27.533  1.00  0.00    -0.352 N 
ATOM     30  C   UNL A   1      33.040  34.610  28.521  1.00  0.00     0.251 C 
ATOM     31  H   UNL A   1      31.800  34.375  26.970  1.00  0.00     0.163 HD
ATOM     32  O   UNL A   1      32.625  35.733  28.789  1.00  0.00    -0.269 OA
BRANCH  30  33
ATOM     33  C   UNL A   1      34.189  34.058  29.268  1.00  0.00     0.039 A 
ATOM     34  C   UNL A   1      35.481  34.404  28.863  1.00  0.00     0.014 A 
ATOM     35  C   UNL A   1      34.003  33.156  30.320  1.00  0.00     0.014 A 
ATOM     36  C   UNL A   1      36.586  33.868  29.529  1.00  0.00     0.010 A 
ATOM     37  C   UNL A   1      35.102  32.672  31.024  1.00  0.00     0.010 A 
ATOM     38  C   UNL A   1      36.405  33.007  30.622  1.00  0.00    -0.014 A 
BRANCH  38  39
ATOM     39  C   UNL A   1      37.567  32.405  31.321  1.00  0.00     0.031 A 
ATOM     40  C   UNL A   1      38.353  31.307  30.658  1.00  0.00     0.074 A 
ATOM     41  C   UNL A   1      37.891  32.815  32.561  1.00  0.00     0.049 A 
ATOM     42  N   UNL A   1      39.362  30.612  31.121  1.00  0.00    -0.248 NA
ATOM     43  C   UNL A   1      37.931  30.920  29.302  1.00  0.00     0.031 C 
ATOM     44  C   UNL A   1      37.183  33.846  33.322  1.00  0.00     0.029 A 
ATOM     45  N   UNL A   1      38.895  32.409  33.404  1.00  0.00    -0.354 N 
ATOM     46  C   UNL A   1      39.681  29.700  30.123  1.00  0.00     0.074 A 
ATOM     47  C   UNL A   1      38.730  29.893  29.051  1.00  0.00     0.031 C 
ATOM     48  C   UNL A   1      37.789  34.006  34.511  1.00  0.00     0.029 A 
ATOM     49  C   UNL A   1      38.905  33.070  34.607  1.00  0.00     0.049 A 
ATOM     50  H   UNL A   1      39.546  31.709  33.168  1.00  0.00     0.167 HD
ATOM     51  C   UNL A   1      40.693  28.800  30.093  1.00  0.00     0.037 A 
ATOM     52  C   UNL A   1      39.726  32.935  35.667  1.00  0.00     0.037 A 
ATOM     53  C   UNL A   1      41.658  28.633  31.147  1.00  0.00     0.049 A 
ATOM     54  C   UNL A   1      40.851  31.937  35.601  1.00  0.00     0.074 A 
ATOM     55  C   UNL A   1      42.744  27.775  31.198  1.00  0.00     0.029 A 
ATOM     56  N   UNL A   1      41.656  29.347  32.335  1.00  0.00    -0.354 N 
ATOM     57  N   UNL A   1      41.173  31.115  34.631  1.00  0.00    -0.248 NA
ATOM     58  C   UNL A   1      41.733  31.857  36.773  1.00  0.00     0.031 C 
ATOM     59  C   UNL A   1      43.381  27.949  32.431  1.00  0.00     0.029 A 
ATOM     60  C   UNL A   1      42.719  28.945  33.129  1.00  0.00     0.049 A 
ATOM     61  H   UNL A   1      40.998  30.037  32.579  1.00  0.00     0.167 HD
ATOM     62  C   UNL A   1      42.314  30.450  35.060  1.00  0.00     0.074 A 
ATOM     63  C   UNL A   1      42.632  30.970  36.373  1.00  0.00     0.031 C 
ATOM     64  C   UNL A   1      43.033  29.494  34.423  1.00  0.00     0.037 A 
BRANCH  51  65
ATOM     65  C   UNL A   1      40.813  27.933  28.873  1.00  0.00     0.064 A 
ATOM     66  C   UNL A   1      41.693  28.254  27.828  1.00  0.00     0.173 A 
ATOM     67  C   UNL A   1      40.066  26.751  28.761  1.00  0.00     0.173 A 
ATOM     68  F   UNL A   1      42.421  29.380  27.881  1.00  0.00    -0.203 F 
ATOM     69  C   UNL A   1      41.800  27.439  26.704  1.00  0.00     0.198 A 
ATOM     70  C   UNL A   1      40.196  25.923  27.649  1.00  0.00     0.198 A 
ATOM     71  F   UNL A   1      39.214  26.394  29.733  1.00  0.00    -0.203 F 
ATOM     72  F   UNL A   1      42.611  27.793  25.697  1.00  0.00    -0.200 F 
ATOM     73  C   UNL A   1      41.057  26.271  26.619  1.00  0.00     0.200 A 
ATOM     74  F   UNL A   1      39.487  24.788  27.572  1.00  0.00    -0.200 F 
ATOM     75  F   UNL A   1      41.166  25.485  25.539  1.00  0.00    -0.200 F 
ENDBRANCH  51  65
BRANCH  52  76
ATOM     76  C   UNL A   1      39.540  33.792  36.866  1.00  0.00     0.064 A 
ATOM     77  C   UNL A   1      40.112  35.071  36.929  1.00  0.00     0.173 A 
ATOM     78  C   UNL A   1      38.805  33.350  37.975  1.00  0.00     0.173 A 
ATOM     79  F   UNL A   1      40.841  35.528  35.900  1.00  0.00    -0.203 F 
ATOM     80  C   UNL A   1      39.976  35.866  38.065  1.00  0.00     0.198 A 
ATOM     81  C   UNL A   1      38.646  34.158  39.099  1.00  0.00     0.198 A 
ATOM     82  F   UNL A   1      38.234  32.138  37.961  1.00  0.00    -0.203 F 
ATOM     83  F   UNL A   1      40.573  37.064  38.117  1.00  0.00    -0.200 F 
ATOM     84  C   UNL A   1      39.240  35.410  39.147  1.00  0.00     0.200 A 
ATOM     85  F   UNL A   1      37.923  33.719  40.139  1.00  0.00    -0.200 F 
ATOM     86  F   UNL A   1      39.109  36.175  40.240  1.00  0.00    -0.200 F 
ENDBRANCH  52  76
BRANCH  64  87
ATOM     87  C   UNL A   1      44.268  28.991  35.111  1.00  0.00     0.064 A 
ATOM     88  C   UNL A   1      44.234  27.883  35.970  1.00  0.00     0.173 A 
ATOM     89  C   UNL A   1      45.507  29.607  34.878  1.00  0.00     0.173 A 
ATOM     90  F   UNL A   1      43.071  27.269  36.235  1.00  0.00    -0.203 F 
ATOM     91  C   UNL A   1      45.392  27.427  36.592  1.00  0.00     0.198 A 
ATOM     92  C   UNL A   1      46.667  29.130  35.479  1.00  0.00     0.198 A 
ATOM     93  F   UNL A   1      45.592  30.666  34.059  1.00  0.00    -0.203 F 
ATOM     94  F   UNL A   1      45.330  26.396  37.446  1.00  0.00    -0.200 F 
ATOM     95  C   UNL A   1      46.609  28.046  36.342  1.00  0.00     0.200 A 
ATOM     96  F   UNL A   1      47.843  29.722  35.227  1.00  0.00    -0.200 F 
ATOM     97  F   UNL A   1      47.724  27.602  36.939  1.00  0.00    -0.200 F 
ENDBRANCH  64  87
ENDBRANCH  38  39
ENDBRANCH  30  33
ENDBRANCH  28  29
ENDBRANCH  27  28
ENDBRANCH  26  27
ENDBRANCH   1  26
TORSDOF 20
ENDMDL
