MODEL 1
REMARK VINA RESULT:     -10.6      0.000      0.000
REMARK SMILES CCn1cc(S(=O)(=O)N2CCC(CCc3ccc(C(=O)NCCCCCCNC(=O)c4ccc(-c5c6nc(c(-c7c(F)c(F)c(F)c(F)c7F)c7ccc([nH]7)c(-c7c(F)c(F)c(F)c(F)c7F)c7nc(c(-c8c(F)c(F)c(F)c(F)c8F)c8ccc5[nH]8)C=C7)C=C6)cc4)cc3)CC2)cn1
REMARK SMILES IDX 22 1 21 2 19 3 20 4 18 6 15 7 16 8 95 9 17 10 94 11 14 12
REMARK SMILES IDX 13 13 12 14 9 15 10 16 97 17 11 18 96 19 6 20 7 21 8 22 5 23
REMARK SMILES IDX 3 24 4 25 99 26 98 27 2 28 1 29 23 30 24 31 25 32 26 33
REMARK SMILES IDX 27 34 28 35 29 36 30 38 31 39 32 40 93 41 33 42 92 43 34 44
REMARK SMILES IDX 35 45 36 46 86 47 37 48 91 49 85 50 87 51 38 52 90 53 84 54
REMARK SMILES IDX 83 55 39 57 71 58 51 59 70 60 52 61 55 62 69 63 88 64 53 65
REMARK SMILES IDX 54 66 68 68 89 69 56 70 40 71 41 72 49 73 42 74 43 75 47 76
REMARK SMILES IDX 50 77 44 78 45 79 48 80 46 81 72 82 73 83 81 84 74 85 75 86
REMARK SMILES IDX 79 87 82 88 76 89 77 90 80 91 78 92 57 93 58 94 66 95 59 96
REMARK SMILES IDX 60 97 64 98 67 99 61 100 62 101 65 102 63 103
REMARK H PARENT 21 5 28 37 87 56 55 67
REMARK Flexibility Score: inf
ROOT
ATOM      1  C   UNL A   1      39.250  31.721  34.792  1.00  0.00     0.116 C 
ENDROOT
BRANCH   1   2
ATOM      2  N   UNL A   1      38.925  33.135  34.830  1.00  0.00    -0.352 N 
ATOM      3  C   UNL A   1      39.322  34.236  34.111  1.00  0.00     0.251 C 
ATOM      4  O   UNL A   1      38.837  35.319  34.443  1.00  0.00    -0.269 OA
ATOM      5  H   UNL A   1      38.271  33.356  35.533  1.00  0.00     0.163 HD
BRANCH   3   6
ATOM      6  C   UNL A   1      40.257  34.195  32.950  1.00  0.00     0.039 A 
ATOM      7  C   UNL A   1      42.134  34.182  30.814  1.00  0.00    -0.048 A 
ATOM      8  C   UNL A   1      42.539  34.507  32.113  1.00  0.00     0.004 A 
ATOM      9  C   UNL A   1      40.775  33.960  30.604  1.00  0.00     0.004 A 
ATOM     10  C   UNL A   1      41.602  34.543  33.161  1.00  0.00     0.014 A 
ATOM     11  C   UNL A   1      39.882  33.840  31.663  1.00  0.00     0.014 A 
BRANCH   7  12
ATOM     12  C   UNL A   1      43.122  34.065  29.674  1.00  0.00     0.036 C 
BRANCH  12  13
ATOM     13  C   UNL A   1      42.728  34.821  28.373  1.00  0.00     0.008 C 
BRANCH  13  14
ATOM     14  C   UNL A   1      43.182  36.293  28.268  1.00  0.00    -0.008 C 
ATOM     15  N   UNL A   1      43.564  38.984  27.240  1.00  0.00    -0.198 NA
ATOM     16  C   UNL A   1      44.621  37.965  27.049  1.00  0.00     0.103 C 
ATOM     17  C   UNL A   1      42.603  38.729  28.348  1.00  0.00     0.103 C 
ATOM     18  C   UNL A   1      44.043  36.558  27.027  1.00  0.00     0.020 C 
ATOM     19  C   UNL A   1      42.033  37.306  28.276  1.00  0.00     0.020 C 
BRANCH  15  20
ATOM     20  S   UNL A   1      44.104  40.604  27.095  1.00  0.00     0.246 S 
ATOM     21  O   UNL A   1      45.511  40.603  26.788  1.00  0.00    -0.207 OA
ATOM     22  O   UNL A   1      43.553  41.375  28.194  1.00  0.00    -0.207 OA
BRANCH  20  23
ATOM     23  C   UNL A   1      43.396  41.333  25.715  1.00  0.00     0.120 A 
ATOM     24  N   UNL A   1      42.949  42.549  23.965  1.00  0.00    -0.272 N 
ATOM     25  C   UNL A   1      43.959  42.206  24.813  1.00  0.00     0.130 A 
ATOM     26  N   UNL A   1      41.789  41.921  24.218  1.00  0.00    -0.180 NA
ATOM     27  C   UNL A   1      42.070  41.166  25.289  1.00  0.00     0.156 A 
BRANCH  24  28
ATOM     28  C   UNL A   1      43.034  43.556  22.928  1.00  0.00     0.141 C 
ATOM     29  C   UNL A   1      41.938  43.371  21.891  1.00  0.00     0.029 C 
ENDBRANCH  24  28
ENDBRANCH  20  23
ENDBRANCH  15  20
ENDBRANCH  13  14
ENDBRANCH  12  13
ENDBRANCH   7  12
ENDBRANCH   3   6
ENDBRANCH   1   2
BRANCH   1  30
ATOM     30  C   UNL A   1      38.056  30.906  34.287  1.00  0.00     0.021 C 
BRANCH  30  31
ATOM     31  C   UNL A   1      37.701  31.185  32.820  1.00  0.00     0.002 C 
BRANCH  31  32
ATOM     32  C   UNL A   1      36.218  31.006  32.447  1.00  0.00     0.002 C 
BRANCH  32  33
ATOM     33  C   UNL A   1      35.334  32.258  32.538  1.00  0.00     0.021 C 
BRANCH  33  34
ATOM     34  C   UNL A   1      35.254  33.050  31.240  1.00  0.00     0.116 C 
BRANCH  34  35
ATOM     35  N   UNL A   1      34.405  32.431  30.235  1.00  0.00    -0.352 N 
ATOM     36  C   UNL A   1      34.800  31.740  29.108  1.00  0.00     0.251 C 
ATOM     37  H   UNL A   1      33.433  32.515  30.375  1.00  0.00     0.163 HD
ATOM     38  O   UNL A   1      34.049  31.653  28.143  1.00  0.00    -0.269 OA
BRANCH  36  39
ATOM     39  C   UNL A   1      36.133  31.103  29.065  1.00  0.00     0.039 A 
ATOM     40  C   UNL A   1      37.291  31.887  29.064  1.00  0.00     0.014 A 
ATOM     41  C   UNL A   1      36.228  29.714  28.981  1.00  0.00     0.014 A 
ATOM     42  C   UNL A   1      38.535  31.260  29.043  1.00  0.00     0.010 A 
ATOM     43  C   UNL A   1      37.451  29.091  29.082  1.00  0.00     0.010 A 
ATOM     44  C   UNL A   1      38.610  29.856  29.072  1.00  0.00    -0.014 A 
BRANCH  44  45
ATOM     45  C   UNL A   1      39.901  29.194  29.258  1.00  0.00     0.031 A 
ATOM     46  C   UNL A   1      40.229  28.956  30.688  1.00  0.00     0.074 A 
ATOM     47  C   UNL A   1      40.637  28.666  28.253  1.00  0.00     0.049 A 
ATOM     48  N   UNL A   1      41.149  29.537  31.383  1.00  0.00    -0.248 NA
ATOM     49  C   UNL A   1      39.334  28.104  31.488  1.00  0.00     0.031 C 
ATOM     50  C   UNL A   1      40.265  28.567  26.837  1.00  0.00     0.029 A 
ATOM     51  N   UNL A   1      41.834  28.006  28.291  1.00  0.00    -0.354 N 
ATOM     52  C   UNL A   1      41.102  28.942  32.643  1.00  0.00     0.074 A 
ATOM     53  C   UNL A   1      39.850  28.242  32.711  1.00  0.00     0.031 C 
ATOM     54  C   UNL A   1      41.086  27.696  26.210  1.00  0.00     0.029 A 
ATOM     55  C   UNL A   1      42.137  27.300  27.128  1.00  0.00     0.049 A 
ATOM     56  H   UNL A   1      42.431  28.027  29.074  1.00  0.00     0.167 HD
ATOM     57  C   UNL A   1      42.249  28.802  33.362  1.00  0.00     0.037 A 
ATOM     58  C   UNL A   1      43.169  26.440  26.932  1.00  0.00     0.037 A 
ATOM     59  C   UNL A   1      43.281  29.656  32.818  1.00  0.00     0.049 A 
ATOM     60  C   UNL A   1      44.198  26.755  27.947  1.00  0.00     0.074 A 
ATOM     61  C   UNL A   1      43.504  31.009  32.694  1.00  0.00     0.029 A 
ATOM     62  N   UNL A   1      44.084  29.027  31.905  1.00  0.00    -0.354 N 
ATOM     63  N   UNL A   1      44.903  27.850  27.943  1.00  0.00    -0.248 NA
ATOM     64  C   UNL A   1      44.217  26.000  29.192  1.00  0.00     0.031 C 
ATOM     65  C   UNL A   1      44.287  31.168  31.508  1.00  0.00     0.029 A 
ATOM     66  C   UNL A   1      44.566  29.907  30.981  1.00  0.00     0.049 A 
ATOM     67  H   UNL A   1      44.288  28.065  31.915  1.00  0.00     0.167 HD
ATOM     68  C   UNL A   1      45.054  28.155  29.282  1.00  0.00     0.074 A 
ATOM     69  C   UNL A   1      44.795  26.904  29.986  1.00  0.00     0.031 C 
ATOM     70  C   UNL A   1      45.041  29.457  29.691  1.00  0.00     0.037 A 
BRANCH  57  71
ATOM     71  C   UNL A   1      42.631  27.542  34.133  1.00  0.00     0.064 A 
ATOM     72  C   UNL A   1      42.577  27.584  35.545  1.00  0.00     0.173 A 
ATOM     73  C   UNL A   1      43.375  26.469  33.595  1.00  0.00     0.173 A 
ATOM     74  F   UNL A   1      41.915  28.566  36.174  1.00  0.00    -0.203 F 
ATOM     75  C   UNL A   1      43.300  26.691  36.343  1.00  0.00     0.198 A 
ATOM     76  C   UNL A   1      44.055  25.551  34.398  1.00  0.00     0.198 A 
ATOM     77  F   UNL A   1      43.585  26.320  32.284  1.00  0.00    -0.203 F 
ATOM     78  F   UNL A   1      43.337  26.867  37.672  1.00  0.00    -0.200 F 
ATOM     79  C   UNL A   1      44.048  25.683  35.769  1.00  0.00     0.200 A 
ATOM     80  F   UNL A   1      44.801  24.599  33.819  1.00  0.00    -0.200 F 
ATOM     81  F   UNL A   1      44.803  24.875  36.525  1.00  0.00    -0.200 F 
ENDBRANCH  57  71
BRANCH  58  82
ATOM     82  C   UNL A   1      43.274  25.239  26.066  1.00  0.00     0.064 A 
ATOM     83  C   UNL A   1      44.383  25.047  25.220  1.00  0.00     0.173 A 
ATOM     84  C   UNL A   1      42.452  24.117  26.275  1.00  0.00     0.173 A 
ATOM     85  F   UNL A   1      45.240  26.053  24.990  1.00  0.00    -0.203 F 
ATOM     86  C   UNL A   1      44.679  23.799  24.661  1.00  0.00     0.198 A 
ATOM     87  C   UNL A   1      42.744  22.871  25.711  1.00  0.00     0.198 A 
ATOM     88  F   UNL A   1      41.406  24.177  27.112  1.00  0.00    -0.203 F 
ATOM     89  F   UNL A   1      45.789  23.641  23.927  1.00  0.00    -0.200 F 
ATOM     90  C   UNL A   1      43.867  22.709  24.921  1.00  0.00     0.200 A 
ATOM     91  F   UNL A   1      41.971  21.815  26.000  1.00  0.00    -0.200 F 
ATOM     92  F   UNL A   1      44.189  21.495  24.450  1.00  0.00    -0.200 F 
ENDBRANCH  58  82
BRANCH  70  93
ATOM     93  C   UNL A   1      45.401  30.499  28.677  1.00  0.00     0.064 A 
ATOM     94  C   UNL A   1      44.488  31.171  27.849  1.00  0.00     0.173 A 
ATOM     95  C   UNL A   1      46.750  30.876  28.594  1.00  0.00     0.173 A 
ATOM     96  F   UNL A   1      43.172  30.931  27.927  1.00  0.00    -0.203 F 
ATOM     97  C   UNL A   1      44.920  32.139  26.943  1.00  0.00     0.198 A 
ATOM     98  C   UNL A   1      47.170  31.872  27.722  1.00  0.00     0.198 A 
ATOM     99  F   UNL A   1      47.660  30.294  29.392  1.00  0.00    -0.203 F 
ATOM    100  F   UNL A   1      44.035  32.746  26.137  1.00  0.00    -0.200 F 
ATOM    101  C   UNL A   1      46.258  32.492  26.885  1.00  0.00     0.200 A 
ATOM    102  F   UNL A   1      48.459  32.239  27.703  1.00  0.00    -0.200 F 
ATOM    103  F   UNL A   1      46.669  33.445  26.036  1.00  0.00    -0.200 F 
ENDBRANCH  70  93
ENDBRANCH  44  45
ENDBRANCH  36  39
ENDBRANCH  34  35
ENDBRANCH  33  34
ENDBRANCH  32  33
ENDBRANCH  31  32
ENDBRANCH  30  31
ENDBRANCH   1  30
TORSDOF 19
ENDMDL
MODEL 2
REMARK VINA RESULT:     -10.1      5.299     12.073
REMARK SMILES CCn1cc(S(=O)(=O)N2CCC(CCc3ccc(C(=O)NCCCCCCNC(=O)c4ccc(-c5c6nc(c(-c7c(F)c(F)c(F)c(F)c7F)c7ccc([nH]7)c(-c7c(F)c(F)c(F)c(F)c7F)c7nc(c(-c8c(F)c(F)c(F)c(F)c8F)c8ccc5[nH]8)C=C7)C=C6)cc4)cc3)CC2)cn1
REMARK SMILES IDX 22 1 21 2 19 3 20 4 18 6 15 7 16 8 95 9 17 10 94 11 14 12
REMARK SMILES IDX 13 13 12 14 9 15 10 16 97 17 11 18 96 19 6 20 7 21 8 22 5 23
REMARK SMILES IDX 3 24 4 25 99 26 98 27 2 28 1 29 23 30 24 31 25 32 26 33
REMARK SMILES IDX 27 34 28 35 29 36 30 38 31 39 32 40 93 41 33 42 92 43 34 44
REMARK SMILES IDX 35 45 36 46 86 47 37 48 91 49 85 50 87 51 38 52 90 53 84 54
REMARK SMILES IDX 83 55 39 57 71 58 51 59 70 60 52 61 55 62 69 63 88 64 53 65
REMARK SMILES IDX 54 66 68 68 89 69 56 70 40 71 41 72 49 73 42 74 43 75 47 76
REMARK SMILES IDX 50 77 44 78 45 79 48 80 46 81 72 82 73 83 81 84 74 85 75 86
REMARK SMILES IDX 79 87 82 88 76 89 77 90 80 91 78 92 57 93 58 94 66 95 59 96
REMARK SMILES IDX 60 97 64 98 67 99 61 100 62 101 65 102 63 103
REMARK H PARENT 21 5 28 37 87 56 55 67
REMARK Flexibility Score: inf
ROOT
ATOM      1  C   UNL A   1      39.803  21.470  26.507  1.00  0.00     0.116 C 
ENDROOT
BRANCH   1   2
ATOM      2  N   UNL A   1      39.396  22.838  26.769  1.00  0.00    -0.352 N 
ATOM      3  C   UNL A   1      38.290  23.591  26.460  1.00  0.00     0.251 C 
ATOM      4  O   UNL A   1      38.294  24.764  26.841  1.00  0.00    -0.269 OA
ATOM      5  H   UNL A   1      40.067  23.342  27.285  1.00  0.00     0.163 HD
BRANCH   3   6
ATOM      6  C   UNL A   1      37.090  23.076  25.740  1.00  0.00     0.039 A 
ATOM      7  C   UNL A   1      34.733  22.096  24.486  1.00  0.00    -0.048 A 
ATOM      8  C   UNL A   1      34.686  22.605  25.788  1.00  0.00     0.004 A 
ATOM      9  C   UNL A   1      35.984  22.010  23.878  1.00  0.00     0.004 A 
ATOM     10  C   UNL A   1      35.858  23.060  26.416  1.00  0.00     0.014 A 
ATOM     11  C   UNL A   1      37.110  22.603  24.437  1.00  0.00     0.014 A 
BRANCH   7  12
ATOM     12  C   UNL A   1      33.484  21.662  23.750  1.00  0.00     0.036 C 
BRANCH  12  13
ATOM     13  C   UNL A   1      32.857  22.737  22.817  1.00  0.00     0.008 C 
BRANCH  13  14
ATOM     14  C   UNL A   1      32.603  24.127  23.440  1.00  0.00    -0.008 C 
ATOM     15  N   UNL A   1      32.004  26.959  23.688  1.00  0.00    -0.198 NA
ATOM     16  C   UNL A   1      33.412  26.502  23.678  1.00  0.00     0.103 C 
ATOM     17  C   UNL A   1      30.988  25.938  24.062  1.00  0.00     0.103 C 
ATOM     18  C   UNL A   1      33.569  25.195  22.914  1.00  0.00     0.020 C 
ATOM     19  C   UNL A   1      31.173  24.644  23.257  1.00  0.00     0.020 C 
BRANCH  15  20
ATOM     20  S   UNL A   1      31.767  28.514  24.369  1.00  0.00     0.246 S 
ATOM     21  O   UNL A   1      32.925  29.326  24.096  1.00  0.00    -0.207 OA
ATOM     22  O   UNL A   1      31.232  28.355  25.708  1.00  0.00    -0.207 OA
BRANCH  20  23
ATOM     23  C   UNL A   1      30.507  29.328  23.540  1.00  0.00     0.120 A 
ATOM     24  N   UNL A   1      28.900  30.664  22.931  1.00  0.00    -0.272 N 
ATOM     25  C   UNL A   1      29.884  30.512  23.860  1.00  0.00     0.130 A 
ATOM     26  N   UNL A   1      28.874  29.695  22.002  1.00  0.00    -0.180 NA
ATOM     27  C   UNL A   1      29.870  28.879  22.374  1.00  0.00     0.156 A 
BRANCH  24  28
ATOM     28  C   UNL A   1      27.890  31.702  22.945  1.00  0.00     0.141 C 
ATOM     29  C   UNL A   1      28.509  33.074  22.733  1.00  0.00     0.029 C 
ENDBRANCH  24  28
ENDBRANCH  20  23
ENDBRANCH  15  20
ENDBRANCH  13  14
ENDBRANCH  12  13
ENDBRANCH   7  12
ENDBRANCH   3   6
ENDBRANCH   1   2
BRANCH   1  30
ATOM     30  C   UNL A   1      40.942  21.057  27.445  1.00  0.00     0.021 C 
BRANCH  30  31
ATOM     31  C   UNL A   1      42.068  20.289  26.739  1.00  0.00     0.002 C 
BRANCH  31  32
ATOM     32  C   UNL A   1      42.987  21.132  25.836  1.00  0.00     0.002 C 
BRANCH  32  33
ATOM     33  C   UNL A   1      43.305  22.554  26.323  1.00  0.00     0.021 C 
BRANCH  33  34
ATOM     34  C   UNL A   1      43.412  23.578  25.202  1.00  0.00     0.116 C 
BRANCH  34  35
ATOM     35  N   UNL A   1      44.770  24.045  24.973  1.00  0.00    -0.352 N 
ATOM     36  C   UNL A   1      45.245  25.336  25.076  1.00  0.00     0.251 C 
ATOM     37  H   UNL A   1      45.428  23.359  24.714  1.00  0.00     0.163 HD
ATOM     38  O   UNL A   1      46.249  25.675  24.457  1.00  0.00    -0.269 OA
BRANCH  36  39
ATOM     39  C   UNL A   1      44.544  26.313  25.934  1.00  0.00     0.039 A 
ATOM     40  C   UNL A   1      44.831  26.388  27.301  1.00  0.00     0.014 A 
ATOM     41  C   UNL A   1      43.561  27.134  25.380  1.00  0.00     0.014 A 
ATOM     42  C   UNL A   1      44.170  27.331  28.083  1.00  0.00     0.010 A 
ATOM     43  C   UNL A   1      42.996  28.146  26.123  1.00  0.00     0.010 A 
ATOM     44  C   UNL A   1      43.265  28.225  27.484  1.00  0.00    -0.014 A 
BRANCH  44  45
ATOM     45  C   UNL A   1      42.724  29.347  28.250  1.00  0.00     0.031 A 
ATOM     46  C   UNL A   1      43.559  30.573  28.150  1.00  0.00     0.074 A 
ATOM     47  C   UNL A   1      41.501  29.355  28.828  1.00  0.00     0.049 A 
ATOM     48  N   UNL A   1      44.272  31.109  29.084  1.00  0.00    -0.248 NA
ATOM     49  C   UNL A   1      43.766  31.183  26.826  1.00  0.00     0.031 C 
ATOM     50  C   UNL A   1      40.466  28.319  28.730  1.00  0.00     0.029 A 
ATOM     51  N   UNL A   1      40.871  30.335  29.543  1.00  0.00    -0.354 N 
ATOM     52  C   UNL A   1      44.821  32.261  28.525  1.00  0.00     0.074 A 
ATOM     53  C   UNL A   1      44.656  32.137  27.104  1.00  0.00     0.031 C 
ATOM     54  C   UNL A   1      39.281  28.817  29.148  1.00  0.00     0.029 A 
ATOM     55  C   UNL A   1      39.498  30.144  29.694  1.00  0.00     0.049 A 
ATOM     56  H   UNL A   1      41.347  31.112  29.920  1.00  0.00     0.167 HD
ATOM     57  C   UNL A   1      45.040  33.350  29.313  1.00  0.00     0.037 A 
ATOM     58  C   UNL A   1      38.598  31.014  30.218  1.00  0.00     0.037 A 
ATOM     59  C   UNL A   1      44.996  32.969  30.706  1.00  0.00     0.049 A 
ATOM     60  C   UNL A   1      39.352  31.967  31.060  1.00  0.00     0.074 A 
ATOM     61  C   UNL A   1      45.741  32.183  31.558  1.00  0.00     0.029 A 
ATOM     62  N   UNL A   1      43.763  33.128  31.277  1.00  0.00    -0.354 N 
ATOM     63  N   UNL A   1      39.926  31.641  32.183  1.00  0.00    -0.248 NA
ATOM     64  C   UNL A   1      39.774  33.238  30.486  1.00  0.00     0.031 C 
ATOM     65  C   UNL A   1      44.822  31.685  32.532  1.00  0.00     0.029 A 
ATOM     66  C   UNL A   1      43.562  32.227  32.281  1.00  0.00     0.049 A 
ATOM     67  H   UNL A   1      43.105  33.806  30.999  1.00  0.00     0.167 HD
ATOM     68  C   UNL A   1      41.080  32.400  32.202  1.00  0.00     0.074 A 
ATOM     69  C   UNL A   1      40.836  33.484  31.258  1.00  0.00     0.031 C 
ATOM     70  C   UNL A   1      42.230  31.880  32.724  1.00  0.00     0.037 A 
BRANCH  57  71
ATOM     71  C   UNL A   1      44.715  34.783  28.903  1.00  0.00     0.064 A 
ATOM     72  C   UNL A   1      43.411  35.062  28.435  1.00  0.00     0.173 A 
ATOM     73  C   UNL A   1      45.681  35.769  28.602  1.00  0.00     0.173 A 
ATOM     74  F   UNL A   1      42.411  34.193  28.645  1.00  0.00    -0.203 F 
ATOM     75  C   UNL A   1      43.128  36.177  27.639  1.00  0.00     0.198 A 
ATOM     76  C   UNL A   1      45.382  36.905  27.847  1.00  0.00     0.198 A 
ATOM     77  F   UNL A   1      46.974  35.631  28.908  1.00  0.00    -0.203 F 
ATOM     78  F   UNL A   1      41.911  36.314  27.095  1.00  0.00    -0.200 F 
ATOM     79  C   UNL A   1      44.117  37.091  27.336  1.00  0.00     0.200 A 
ATOM     80  F   UNL A   1      46.364  37.764  27.538  1.00  0.00    -0.200 F 
ATOM     81  F   UNL A   1      43.870  38.118  26.511  1.00  0.00    -0.200 F 
ENDBRANCH  57  71
BRANCH  58  82
ATOM     82  C   UNL A   1      37.161  31.219  29.909  1.00  0.00     0.064 A 
ATOM     83  C   UNL A   1      36.298  31.831  30.838  1.00  0.00     0.173 A 
ATOM     84  C   UNL A   1      36.675  31.102  28.593  1.00  0.00     0.173 A 
ATOM     85  F   UNL A   1      36.690  32.014  32.107  1.00  0.00    -0.203 F 
ATOM     86  C   UNL A   1      35.049  32.340  30.462  1.00  0.00     0.198 A 
ATOM     87  C   UNL A   1      35.425  31.606  28.220  1.00  0.00     0.198 A 
ATOM     88  F   UNL A   1      37.442  30.591  27.621  1.00  0.00    -0.203 F 
ATOM     89  F   UNL A   1      34.293  32.986  31.360  1.00  0.00    -0.200 F 
ATOM     90  C   UNL A   1      34.622  32.241  29.150  1.00  0.00     0.200 A 
ATOM     91  F   UNL A   1      35.038  31.535  26.939  1.00  0.00    -0.200 F 
ATOM     92  F   UNL A   1      33.461  32.794  28.770  1.00  0.00    -0.200 F 
ENDBRANCH  58  82
BRANCH  70  93
ATOM     93  C   UNL A   1      42.091  30.767  33.717  1.00  0.00     0.064 A 
ATOM     94  C   UNL A   1      41.928  29.411  33.392  1.00  0.00     0.173 A 
ATOM     95  C   UNL A   1      42.195  31.101  35.075  1.00  0.00     0.173 A 
ATOM     96  F   UNL A   1      41.905  28.999  32.117  1.00  0.00    -0.203 F 
ATOM     97  C   UNL A   1      41.822  28.443  34.390  1.00  0.00     0.198 A 
ATOM     98  C   UNL A   1      42.133  30.127  36.065  1.00  0.00     0.198 A 
ATOM     99  F   UNL A   1      42.392  32.377  35.441  1.00  0.00    -0.203 F 
ATOM    100  F   UNL A   1      41.634  27.156  34.060  1.00  0.00    -0.200 F 
ATOM    101  C   UNL A   1      41.931  28.801  35.724  1.00  0.00     0.200 A 
ATOM    102  F   UNL A   1      42.283  30.477  37.351  1.00  0.00    -0.200 F 
ATOM    103  F   UNL A   1      41.860  27.866  36.682  1.00  0.00    -0.200 F 
ENDBRANCH  70  93
ENDBRANCH  44  45
ENDBRANCH  36  39
ENDBRANCH  34  35
ENDBRANCH  33  34
ENDBRANCH  32  33
ENDBRANCH  31  32
ENDBRANCH  30  31
ENDBRANCH   1  30
TORSDOF 19
ENDMDL
MODEL 3
REMARK VINA RESULT:      -9.9      5.022     10.079
REMARK SMILES CCn1cc(S(=O)(=O)N2CCC(CCc3ccc(C(=O)NCCCCCCNC(=O)c4ccc(-c5c6nc(c(-c7c(F)c(F)c(F)c(F)c7F)c7ccc([nH]7)c(-c7c(F)c(F)c(F)c(F)c7F)c7nc(c(-c8c(F)c(F)c(F)c(F)c8F)c8ccc5[nH]8)C=C7)C=C6)cc4)cc3)CC2)cn1
REMARK SMILES IDX 22 1 21 2 19 3 20 4 18 6 15 7 16 8 95 9 17 10 94 11 14 12
REMARK SMILES IDX 13 13 12 14 9 15 10 16 97 17 11 18 96 19 6 20 7 21 8 22 5 23
REMARK SMILES IDX 3 24 4 25 99 26 98 27 2 28 1 29 23 30 24 31 25 32 26 33
REMARK SMILES IDX 27 34 28 35 29 36 30 38 31 39 32 40 93 41 33 42 92 43 34 44
REMARK SMILES IDX 35 45 36 46 86 47 37 48 91 49 85 50 87 51 38 52 90 53 84 54
REMARK SMILES IDX 83 55 39 57 71 58 51 59 70 60 52 61 55 62 69 63 88 64 53 65
REMARK SMILES IDX 54 66 68 68 89 69 56 70 40 71 41 72 49 73 42 74 43 75 47 76
REMARK SMILES IDX 50 77 44 78 45 79 48 80 46 81 72 82 73 83 81 84 74 85 75 86
REMARK SMILES IDX 79 87 82 88 76 89 77 90 80 91 78 92 57 93 58 94 66 95 59 96
REMARK SMILES IDX 60 97 64 98 67 99 61 100 62 101 65 102 63 103
REMARK H PARENT 21 5 28 37 87 56 55 67
REMARK Flexibility Score: inf
ROOT
ATOM      1  C   UNL A   1      33.361  34.318  29.161  1.00  0.00     0.116 C 
ENDROOT
BRANCH   1   2
ATOM      2  N   UNL A   1      34.630  33.832  28.653  1.00  0.00    -0.352 N 
ATOM      3  C   UNL A   1      35.044  32.675  28.039  1.00  0.00     0.251 C 
ATOM      4  O   UNL A   1      36.241  32.597  27.753  1.00  0.00    -0.269 OA
ATOM      5  H   UNL A   1      35.362  34.479  28.777  1.00  0.00     0.163 HD
BRANCH   3   6
ATOM      6  C   UNL A   1      34.144  31.545  27.669  1.00  0.00     0.039 A 
ATOM      7  C   UNL A   1      32.539  29.305  26.966  1.00  0.00    -0.048 A 
ATOM      8  C   UNL A   1      33.855  29.126  27.404  1.00  0.00     0.004 A 
ATOM      9  C   UNL A   1      32.091  30.615  26.806  1.00  0.00     0.004 A 
ATOM     10  C   UNL A   1      34.656  30.237  27.721  1.00  0.00     0.014 A 
ATOM     11  C   UNL A   1      32.827  31.700  27.268  1.00  0.00     0.014 A 
BRANCH   7  12
ATOM     12  C   UNL A   1      31.623  28.134  26.682  1.00  0.00     0.036 C 
BRANCH  12  13
ATOM     13  C   UNL A   1      31.874  27.409  25.329  1.00  0.00     0.008 C 
BRANCH  13  14
ATOM     14  C   UNL A   1      32.433  25.971  25.412  1.00  0.00    -0.008 C 
ATOM     15  N   UNL A   1      33.817  23.615  26.398  1.00  0.00    -0.198 NA
ATOM     16  C   UNL A   1      34.491  24.517  25.437  1.00  0.00     0.103 C 
ATOM     17  C   UNL A   1      32.331  23.684  26.428  1.00  0.00     0.103 C 
ATOM     18  C   UNL A   1      33.961  25.939  25.541  1.00  0.00     0.020 C 
ATOM     19  C   UNL A   1      31.841  25.133  26.550  1.00  0.00     0.020 C 
BRANCH  15  20
ATOM     20  S   UNL A   1      34.480  22.036  26.476  1.00  0.00     0.246 S 
ATOM     21  O   UNL A   1      34.200  21.473  27.771  1.00  0.00    -0.207 OA
ATOM     22  O   UNL A   1      35.821  22.071  25.921  1.00  0.00    -0.207 OA
BRANCH  20  23
ATOM     23  C   UNL A   1      33.642  20.998  25.400  1.00  0.00     0.120 A 
ATOM     24  N   UNL A   1      32.717  19.305  24.391  1.00  0.00    -0.272 N 
ATOM     25  C   UNL A   1      33.279  19.682  25.573  1.00  0.00     0.130 A 
ATOM     26  N   UNL A   1      32.639  20.293  23.485  1.00  0.00    -0.180 NA
ATOM     27  C   UNL A   1      33.200  21.336  24.112  1.00  0.00     0.156 A 
BRANCH  24  28
ATOM     28  C   UNL A   1      32.308  17.958  24.053  1.00  0.00     0.141 C 
ATOM     29  C   UNL A   1      33.211  17.360  22.987  1.00  0.00     0.029 C 
ENDBRANCH  24  28
ENDBRANCH  20  23
ENDBRANCH  15  20
ENDBRANCH  13  14
ENDBRANCH  12  13
ENDBRANCH   7  12
ENDBRANCH   3   6
ENDBRANCH   1   2
BRANCH   1  30
ATOM     30  C   UNL A   1      33.350  35.849  29.209  1.00  0.00     0.021 C 
BRANCH  30  31
ATOM     31  C   UNL A   1      32.701  36.417  30.479  1.00  0.00     0.002 C 
BRANCH  31  32
ATOM     32  C   UNL A   1      33.426  37.615  31.119  1.00  0.00     0.002 C 
BRANCH  32  33
ATOM     33  C   UNL A   1      33.888  37.437  32.573  1.00  0.00     0.021 C 
BRANCH  33  34
ATOM     34  C   UNL A   1      34.544  36.092  32.851  1.00  0.00     0.116 C 
BRANCH  34  35
ATOM     35  N   UNL A   1      33.623  35.095  33.371  1.00  0.00    -0.352 N 
ATOM     36  C   UNL A   1      33.724  33.723  33.274  1.00  0.00     0.251 C 
ATOM     37  H   UNL A   1      32.834  35.440  33.849  1.00  0.00     0.163 HD
ATOM     38  O   UNL A   1      32.720  33.023  33.350  1.00  0.00    -0.269 OA
BRANCH  36  39
ATOM     39  C   UNL A   1      35.047  33.094  33.080  1.00  0.00     0.039 A 
ATOM     40  C   UNL A   1      35.309  32.338  31.932  1.00  0.00     0.014 A 
ATOM     41  C   UNL A   1      36.021  33.222  34.070  1.00  0.00     0.014 A 
ATOM     42  C   UNL A   1      36.570  31.773  31.764  1.00  0.00     0.010 A 
ATOM     43  C   UNL A   1      37.303  32.768  33.851  1.00  0.00     0.010 A 
ATOM     44  C   UNL A   1      37.574  32.008  32.721  1.00  0.00    -0.014 A 
BRANCH  44  45
ATOM     45  C   UNL A   1      38.952  31.596  32.456  1.00  0.00     0.031 A 
ATOM     46  C   UNL A   1      39.747  31.401  33.697  1.00  0.00     0.074 A 
ATOM     47  C   UNL A   1      39.417  31.232  31.239  1.00  0.00     0.049 A 
ATOM     48  N   UNL A   1      40.723  32.131  34.120  1.00  0.00    -0.248 NA
ATOM     49  C   UNL A   1      39.308  30.383  34.666  1.00  0.00     0.031 C 
ATOM     50  C   UNL A   1      38.643  31.089  29.999  1.00  0.00     0.029 A 
ATOM     51  N   UNL A   1      40.660  30.807  30.862  1.00  0.00    -0.354 N 
ATOM     52  C   UNL A   1      41.175  31.518  35.286  1.00  0.00     0.074 A 
ATOM     53  C   UNL A   1      40.149  30.595  35.680  1.00  0.00     0.031 C 
ATOM     54  C   UNL A   1      39.364  30.397  29.089  1.00  0.00     0.029 A 
ATOM     55  C   UNL A   1      40.702  30.190  29.613  1.00  0.00     0.049 A 
ATOM     56  H   UNL A   1      41.459  30.927  31.425  1.00  0.00     0.167 HD
ATOM     57  C   UNL A   1      42.497  31.584  35.610  1.00  0.00     0.037 A 
ATOM     58  C   UNL A   1      41.753  29.542  29.049  1.00  0.00     0.037 A 
ATOM     59  C   UNL A   1      43.142  32.624  34.842  1.00  0.00     0.049 A 
ATOM     60  C   UNL A   1      42.977  30.027  29.723  1.00  0.00     0.074 A 
ATOM     61  C   UNL A   1      43.078  33.997  34.757  1.00  0.00     0.029 A 
ATOM     62  N   UNL A   1      43.715  32.172  33.685  1.00  0.00    -0.354 N 
ATOM     63  N   UNL A   1      43.445  31.235  29.586  1.00  0.00    -0.248 NA
ATOM     64  C   UNL A   1      43.515  29.268  30.844  1.00  0.00     0.031 C 
ATOM     65  C   UNL A   1      43.411  34.319  33.404  1.00  0.00     0.029 A 
ATOM     66  C   UNL A   1      43.725  33.141  32.726  1.00  0.00     0.049 A 
ATOM     67  H   UNL A   1      44.076  31.265  33.561  1.00  0.00     0.167 HD
ATOM     68  C   UNL A   1      43.952  31.540  30.834  1.00  0.00     0.074 A 
ATOM     69  C   UNL A   1      44.146  30.252  31.489  1.00  0.00     0.031 C 
ATOM     70  C   UNL A   1      43.843  32.810  31.323  1.00  0.00     0.037 A 
BRANCH  57  71
ATOM     71  C   UNL A   1      43.311  30.404  36.133  1.00  0.00     0.064 A 
ATOM     72  C   UNL A   1      44.184  30.630  37.221  1.00  0.00     0.173 A 
ATOM     73  C   UNL A   1      43.552  29.214  35.411  1.00  0.00     0.173 A 
ATOM     74  F   UNL A   1      44.068  31.735  37.973  1.00  0.00    -0.203 F 
ATOM     75  C   UNL A   1      45.270  29.790  37.490  1.00  0.00     0.198 A 
ATOM     76  C   UNL A   1      44.608  28.354  35.715  1.00  0.00     0.198 A 
ATOM     77  F   UNL A   1      42.865  28.884  34.314  1.00  0.00    -0.203 F 
ATOM     78  F   UNL A   1      46.155  30.130  38.438  1.00  0.00    -0.200 F 
ATOM     79  C   UNL A   1      45.488  28.659  36.729  1.00  0.00     0.200 A 
ATOM     80  F   UNL A   1      44.820  27.278  34.943  1.00  0.00    -0.200 F 
ATOM     81  F   UNL A   1      46.569  27.894  36.933  1.00  0.00    -0.200 F 
ENDBRANCH  57  71
BRANCH  58  82
ATOM     82  C   UNL A   1      41.788  28.396  28.106  1.00  0.00     0.064 A 
ATOM     83  C   UNL A   1      41.030  27.234  28.345  1.00  0.00     0.173 A 
ATOM     84  C   UNL A   1      42.316  28.536  26.809  1.00  0.00     0.173 A 
ATOM     85  F   UNL A   1      40.461  27.032  29.543  1.00  0.00    -0.203 F 
ATOM     86  C   UNL A   1      40.774  26.298  27.337  1.00  0.00     0.198 A 
ATOM     87  C   UNL A   1      42.065  27.598  25.804  1.00  0.00     0.198 A 
ATOM     88  F   UNL A   1      43.000  29.636  26.461  1.00  0.00    -0.203 F 
ATOM     89  F   UNL A   1      39.982  25.246  27.585  1.00  0.00    -0.200 F 
ATOM     90  C   UNL A   1      41.279  26.490  26.063  1.00  0.00     0.200 A 
ATOM     91  F   UNL A   1      42.530  27.813  24.565  1.00  0.00    -0.200 F 
ATOM     92  F   UNL A   1      40.973  25.636  25.075  1.00  0.00    -0.200 F 
ENDBRANCH  58  82
BRANCH  70  93
ATOM     93  C   UNL A   1      43.682  33.918  30.327  1.00  0.00     0.064 A 
ATOM     94  C   UNL A   1      42.455  34.388  29.833  1.00  0.00     0.173 A 
ATOM     95  C   UNL A   1      44.847  34.575  29.904  1.00  0.00     0.173 A 
ATOM     96  F   UNL A   1      41.293  33.871  30.252  1.00  0.00    -0.203 F 
ATOM     97  C   UNL A   1      42.408  35.438  28.915  1.00  0.00     0.198 A 
ATOM     98  C   UNL A   1      44.792  35.649  29.024  1.00  0.00     0.198 A 
ATOM     99  F   UNL A   1      46.044  34.192  30.376  1.00  0.00    -0.203 F 
ATOM    100  F   UNL A   1      41.227  35.852  28.430  1.00  0.00    -0.200 F 
ATOM    101  C   UNL A   1      43.574  36.070  28.517  1.00  0.00     0.200 A 
ATOM    102  F   UNL A   1      45.921  36.284  28.678  1.00  0.00    -0.200 F 
ATOM    103  F   UNL A   1      43.525  37.099  27.660  1.00  0.00    -0.200 F 
ENDBRANCH  70  93
ENDBRANCH  44  45
ENDBRANCH  36  39
ENDBRANCH  34  35
ENDBRANCH  33  34
ENDBRANCH  32  33
ENDBRANCH  31  32
ENDBRANCH  30  31
ENDBRANCH   1  30
TORSDOF 19
ENDMDL
