MODEL 1
REMARK VINA RESULT:     -11.0      0.000      0.000
REMARK SMILES CCC(CC)(CC(=O)NNC(=O)c1cc(C)oc1C)C(=O)NCCCCCCNC(=O)c1ccc(-c2c3nc(c(-c4c(F)c(F)c(F)c(F)c4F)c4ccc([nH]4)c(-c4c(F)c(F)c(F)c(F)c4F)c4nc(c(-c5c(F)c(F)c(F)c(F)c5F)c5ccc2[nH]5)C=C4)C=C3)cc1
REMARK SMILES IDX 24 1 23 2 22 3 20 4 21 5 3 7 2 8 1 9 4 10 5 11 6 12 7 13
REMARK SMILES IDX 8 14 9 15 10 17 11 18 12 20 13 21 14 22 18 23 15 24 17 25
REMARK SMILES IDX 19 26 16 27 25 28 26 29 27 30 28 31 29 32 30 33 31 35 32 36
REMARK SMILES IDX 33 37 94 38 34 39 93 40 35 41 36 42 37 43 87 44 38 45 92 46
REMARK SMILES IDX 86 47 88 48 39 49 91 50 85 51 84 52 40 54 72 55 52 56 71 57
REMARK SMILES IDX 53 58 56 59 70 60 89 61 54 62 55 63 69 65 90 66 57 67 41 68
REMARK SMILES IDX 42 69 50 70 43 71 44 72 48 73 51 74 45 75 46 76 49 77 47 78
REMARK SMILES IDX 73 79 74 80 82 81 75 82 76 83 80 84 83 85 77 86 78 87 81 88
REMARK SMILES IDX 79 89 58 90 59 91 67 92 60 93 61 94 65 95 68 96 62 97 63 98
REMARK SMILES IDX 66 99 64 100
REMARK H PARENT 22 6 9 16 10 19 29 34 88 53 56 64
REMARK Flexibility Score: inf
ROOT
ATOM      1  C   UNL A   1      37.136  23.283  24.766  1.00  0.00     0.021 C 
ENDROOT
BRANCH   1   2
ATOM      2  C   UNL A   1      36.234  22.270  24.061  1.00  0.00     0.116 C 
BRANCH   2   3
ATOM      3  N   UNL A   1      35.397  21.525  24.979  1.00  0.00    -0.356 N 
ATOM      4  C   UNL A   1      34.102  21.646  25.367  1.00  0.00     0.226 C 
ATOM      5  O   UNL A   1      33.720  20.812  26.195  1.00  0.00    -0.274 OA
ATOM      6  H   UNL A   1      35.865  20.774  25.412  1.00  0.00     0.163 HD
BRANCH   4   7
ATOM      7  C   UNL A   1      33.143  22.754  24.845  1.00  0.00     0.057 C 
BRANCH   7   8
ATOM      8  C   UNL A   1      33.040  22.614  23.283  1.00  0.00     0.014 C 
ATOM      9  C   UNL A   1      32.149  21.486  22.761  1.00  0.00     0.005 C 
ENDBRANCH   7   8
BRANCH   7  10
ATOM     10  C   UNL A   1      33.691  24.168  25.211  1.00  0.00     0.014 C 
ATOM     11  C   UNL A   1      33.968  25.093  24.028  1.00  0.00     0.005 C 
ENDBRANCH   7  10
BRANCH   7  12
ATOM     12  C   UNL A   1      31.715  22.549  25.427  1.00  0.00     0.118 C 
BRANCH  12  13
ATOM     13  C   UNL A   1      31.395  23.376  26.663  1.00  0.00     0.239 C 
ATOM     14  O   UNL A   1      31.943  23.138  27.741  1.00  0.00    -0.273 OA
ATOM     15  N   UNL A   1      30.515  24.424  26.579  1.00  0.00    -0.267 N 
ATOM     16  H   UNL A   1      30.330  24.928  27.405  1.00  0.00     0.191 HD
BRANCH  15  17
ATOM     17  N   UNL A   1      29.861  24.836  25.418  1.00  0.00    -0.263 N 
ATOM     18  C   UNL A   1      29.882  26.127  24.925  1.00  0.00     0.273 C 
ATOM     19  H   UNL A   1      29.350  24.160  24.915  1.00  0.00     0.191 HD
ATOM     20  O   UNL A   1      29.002  26.481  24.143  1.00  0.00    -0.267 OA
BRANCH  18  21
ATOM     21  C   UNL A   1      30.963  27.010  25.324  1.00  0.00     0.082 A 
ATOM     22  C   UNL A   1      31.518  27.239  26.620  1.00  0.00     0.059 A 
ATOM     23  C   UNL A   1      31.747  27.748  24.455  1.00  0.00     0.113 A 
ATOM     24  C   UNL A   1      32.578  28.102  26.452  1.00  0.00     0.101 A 
ATOM     25  O   UNL A   1      32.715  28.420  25.137  1.00  0.00    -0.466 OA
ATOM     26  C   UNL A   1      31.744  27.935  22.988  1.00  0.00     0.088 C 
ATOM     27  C   UNL A   1      33.569  28.692  27.372  1.00  0.00     0.087 C 
ENDBRANCH  18  21
ENDBRANCH  15  17
ENDBRANCH  12  13
ENDBRANCH   7  12
ENDBRANCH   4   7
ENDBRANCH   2   3
ENDBRANCH   1   2
BRANCH   1  28
ATOM     28  C   UNL A   1      37.717  22.848  26.116  1.00  0.00     0.002 C 
BRANCH  28  29
ATOM     29  C   UNL A   1      39.162  22.341  26.106  1.00  0.00     0.002 C 
BRANCH  29  30
ATOM     30  C   UNL A   1      39.403  20.971  25.463  1.00  0.00     0.021 C 
BRANCH  30  31
ATOM     31  C   UNL A   1      39.592  19.799  26.424  1.00  0.00     0.116 C 
BRANCH  31  32
ATOM     32  N   UNL A   1      40.690  18.925  26.059  1.00  0.00    -0.352 N 
ATOM     33  C   UNL A   1      42.032  19.211  25.976  1.00  0.00     0.251 C 
ATOM     34  H   UNL A   1      40.440  17.998  25.839  1.00  0.00     0.163 HD
ATOM     35  O   UNL A   1      42.817  18.365  25.559  1.00  0.00    -0.269 OA
BRANCH  33  36
ATOM     36  C   UNL A   1      42.539  20.552  26.352  1.00  0.00     0.039 A 
ATOM     37  C   UNL A   1      43.054  21.374  25.343  1.00  0.00     0.014 A 
ATOM     38  C   UNL A   1      42.549  20.988  27.680  1.00  0.00     0.014 A 
ATOM     39  C   UNL A   1      43.520  22.656  25.652  1.00  0.00     0.010 A 
ATOM     40  C   UNL A   1      42.991  22.278  27.986  1.00  0.00     0.010 A 
ATOM     41  C   UNL A   1      43.471  23.123  26.973  1.00  0.00    -0.014 A 
BRANCH  41  42
ATOM     42  C   UNL A   1      43.902  24.499  27.313  1.00  0.00     0.031 A 
ATOM     43  C   UNL A   1      42.911  25.504  27.819  1.00  0.00     0.074 A 
ATOM     44  C   UNL A   1      45.180  24.865  27.103  1.00  0.00     0.049 A 
ATOM     45  N   UNL A   1      43.075  26.782  28.049  1.00  0.00    -0.248 NA
ATOM     46  C   UNL A   1      41.552  25.009  28.090  1.00  0.00     0.031 C 
ATOM     47  C   UNL A   1      46.237  23.991  26.594  1.00  0.00     0.029 A 
ATOM     48  N   UNL A   1      45.801  26.076  27.277  1.00  0.00    -0.354 N 
ATOM     49  C   UNL A   1      41.835  27.254  28.454  1.00  0.00     0.074 A 
ATOM     50  C   UNL A   1      40.930  26.123  28.454  1.00  0.00     0.031 C 
ATOM     51  C   UNL A   1      47.377  24.696  26.495  1.00  0.00     0.029 A 
ATOM     52  C   UNL A   1      47.123  26.072  26.914  1.00  0.00     0.049 A 
ATOM     53  H   UNL A   1      45.340  26.873  27.629  1.00  0.00     0.167 HD
ATOM     54  C   UNL A   1      41.483  28.517  28.788  1.00  0.00     0.037 A 
ATOM     55  C   UNL A   1      48.026  27.069  26.906  1.00  0.00     0.037 A 
ATOM     56  C   UNL A   1      42.381  29.639  28.832  1.00  0.00     0.049 A 
ATOM     57  C   UNL A   1      47.626  28.447  27.345  1.00  0.00     0.074 A 
ATOM     58  C   UNL A   1      42.113  30.950  29.191  1.00  0.00     0.029 A 
ATOM     59  N   UNL A   1      43.728  29.579  28.516  1.00  0.00    -0.354 N 
ATOM     60  N   UNL A   1      46.450  28.879  27.725  1.00  0.00    -0.248 NA
ATOM     61  C   UNL A   1      48.678  29.474  27.349  1.00  0.00     0.031 C 
ATOM     62  C   UNL A   1      43.301  31.685  29.090  1.00  0.00     0.029 A 
ATOM     63  C   UNL A   1      44.306  30.828  28.674  1.00  0.00     0.049 A 
ATOM     64  H   UNL A   1      44.205  28.768  28.223  1.00  0.00     0.167 HD
ATOM     65  C   UNL A   1      46.618  30.225  28.015  1.00  0.00     0.074 A 
ATOM     66  C   UNL A   1      48.011  30.539  27.776  1.00  0.00     0.031 C 
ATOM     67  C   UNL A   1      45.694  31.120  28.438  1.00  0.00     0.037 A 
BRANCH  54  68
ATOM     68  C   UNL A   1      40.046  28.757  29.119  1.00  0.00     0.064 A 
ATOM     69  C   UNL A   1      39.131  29.162  28.139  1.00  0.00     0.173 A 
ATOM     70  C   UNL A   1      39.577  28.546  30.422  1.00  0.00     0.173 A 
ATOM     71  F   UNL A   1      39.543  29.386  26.882  1.00  0.00    -0.203 F 
ATOM     72  C   UNL A   1      37.789  29.356  28.457  1.00  0.00     0.198 A 
ATOM     73  C   UNL A   1      38.234  28.733  30.735  1.00  0.00     0.198 A 
ATOM     74  F   UNL A   1      40.422  28.161  31.390  1.00  0.00    -0.203 F 
ATOM     75  F   UNL A   1      36.929  29.760  27.512  1.00  0.00    -0.200 F 
ATOM     76  C   UNL A   1      37.342  29.139  29.753  1.00  0.00     0.200 A 
ATOM     77  F   UNL A   1      37.802  28.526  31.986  1.00  0.00    -0.200 F 
ATOM     78  F   UNL A   1      36.050  29.328  30.057  1.00  0.00    -0.200 F 
ENDBRANCH  54  68
BRANCH  55  79
ATOM     79  C   UNL A   1      49.410  26.793  26.461  1.00  0.00     0.064 A 
ATOM     80  C   UNL A   1      49.787  26.994  25.127  1.00  0.00     0.173 A 
ATOM     81  C   UNL A   1      50.381  26.337  27.361  1.00  0.00     0.173 A 
ATOM     82  F   UNL A   1      48.880  27.412  24.232  1.00  0.00    -0.203 F 
ATOM     83  C   UNL A   1      51.091  26.747  24.708  1.00  0.00     0.198 A 
ATOM     84  C   UNL A   1      51.688  26.098  26.943  1.00  0.00     0.198 A 
ATOM     85  F   UNL A   1      50.059  26.129  28.647  1.00  0.00    -0.203 F 
ATOM     86  F   UNL A   1      51.427  26.932  23.424  1.00  0.00    -0.200 F 
ATOM     87  C   UNL A   1      52.042  26.302  25.616  1.00  0.00     0.200 A 
ATOM     88  F   UNL A   1      52.603  25.671  27.822  1.00  0.00    -0.200 F 
ATOM     89  F   UNL A   1      53.297  26.065  25.213  1.00  0.00    -0.200 F 
ENDBRANCH  55  79
BRANCH  67  90
ATOM     90  C   UNL A   1      46.164  32.519  28.675  1.00  0.00     0.064 A 
ATOM     91  C   UNL A   1      46.113  33.477  27.655  1.00  0.00     0.173 A 
ATOM     92  C   UNL A   1      46.637  32.910  29.934  1.00  0.00     0.173 A 
ATOM     93  F   UNL A   1      45.679  33.139  26.431  1.00  0.00    -0.203 F 
ATOM     94  C   UNL A   1      46.525  34.786  27.888  1.00  0.00     0.198 A 
ATOM     95  C   UNL A   1      47.045  34.221  30.165  1.00  0.00     0.198 A 
ATOM     96  F   UNL A   1      46.709  32.019  30.935  1.00  0.00    -0.203 F 
ATOM     97  F   UNL A   1      46.484  35.687  26.897  1.00  0.00    -0.200 F 
ATOM     98  C   UNL A   1      46.988  35.157  29.143  1.00  0.00     0.200 A 
ATOM     99  F   UNL A   1      47.497  34.577  31.375  1.00  0.00    -0.200 F 
ATOM    100  F   UNL A   1      47.389  36.417  29.364  1.00  0.00    -0.200 F 
ENDBRANCH  67  90
ENDBRANCH  41  42
ENDBRANCH  33  36
ENDBRANCH  31  32
ENDBRANCH  30  31
ENDBRANCH  29  30
ENDBRANCH  28  29
ENDBRANCH   1  28
TORSDOF 19
ENDMDL
MODEL 2
REMARK VINA RESULT:     -10.8      1.219      2.152
REMARK SMILES CCC(CC)(CC(=O)NNC(=O)c1cc(C)oc1C)C(=O)NCCCCCCNC(=O)c1ccc(-c2c3nc(c(-c4c(F)c(F)c(F)c(F)c4F)c4ccc([nH]4)c(-c4c(F)c(F)c(F)c(F)c4F)c4nc(c(-c5c(F)c(F)c(F)c(F)c5F)c5ccc2[nH]5)C=C4)C=C3)cc1
REMARK SMILES IDX 24 1 23 2 22 3 20 4 21 5 3 7 2 8 1 9 4 10 5 11 6 12 7 13
REMARK SMILES IDX 8 14 9 15 10 17 11 18 12 20 13 21 14 22 18 23 15 24 17 25
REMARK SMILES IDX 19 26 16 27 25 28 26 29 27 30 28 31 29 32 30 33 31 35 32 36
REMARK SMILES IDX 33 37 94 38 34 39 93 40 35 41 36 42 37 43 87 44 38 45 92 46
REMARK SMILES IDX 86 47 88 48 39 49 91 50 85 51 84 52 40 54 72 55 52 56 71 57
REMARK SMILES IDX 53 58 56 59 70 60 89 61 54 62 55 63 69 65 90 66 57 67 41 68
REMARK SMILES IDX 42 69 50 70 43 71 44 72 48 73 51 74 45 75 46 76 49 77 47 78
REMARK SMILES IDX 73 79 74 80 82 81 75 82 76 83 80 84 83 85 77 86 78 87 81 88
REMARK SMILES IDX 79 89 58 90 59 91 67 92 60 93 61 94 65 95 68 96 62 97 63 98
REMARK SMILES IDX 66 99 64 100
REMARK H PARENT 22 6 9 16 10 19 29 34 88 53 56 64
REMARK Flexibility Score: inf
ROOT
ATOM      1  C   UNL A   1      34.458  20.271  25.068  1.00  0.00     0.021 C 
ENDROOT
BRANCH   1   2
ATOM      2  C   UNL A   1      33.543  21.158  24.223  1.00  0.00     0.116 C 
BRANCH   2   3
ATOM      3  N   UNL A   1      32.223  21.317  24.798  1.00  0.00    -0.356 N 
ATOM      4  C   UNL A   1      31.623  22.317  25.493  1.00  0.00     0.226 C 
ATOM      5  O   UNL A   1      30.457  22.093  25.837  1.00  0.00    -0.274 OA
ATOM      6  H   UNL A   1      31.639  20.537  24.653  1.00  0.00     0.163 HD
BRANCH   4   7
ATOM      7  C   UNL A   1      32.327  23.653  25.867  1.00  0.00     0.057 C 
BRANCH   7   8
ATOM      8  C   UNL A   1      32.767  24.362  24.535  1.00  0.00     0.014 C 
ATOM      9  C   UNL A   1      34.260  24.663  24.388  1.00  0.00     0.005 C 
ENDBRANCH   7   8
BRANCH   7  10
ATOM     10  C   UNL A   1      33.579  23.381  26.756  1.00  0.00     0.014 C 
ATOM     11  C   UNL A   1      33.355  22.443  27.940  1.00  0.00     0.005 C 
ENDBRANCH   7  10
BRANCH   7  12
ATOM     12  C   UNL A   1      31.331  24.601  26.593  1.00  0.00     0.118 C 
BRANCH  12  13
ATOM     13  C   UNL A   1      31.457  26.074  26.230  1.00  0.00     0.239 C 
ATOM     14  O   UNL A   1      32.412  26.743  26.630  1.00  0.00    -0.273 OA
ATOM     15  N   UNL A   1      30.523  26.663  25.417  1.00  0.00    -0.267 N 
ATOM     16  H   UNL A   1      30.639  27.620  25.214  1.00  0.00     0.191 HD
BRANCH  15  17
ATOM     17  N   UNL A   1      29.423  26.017  24.855  1.00  0.00    -0.263 N 
ATOM     18  C   UNL A   1      28.542  26.605  23.966  1.00  0.00     0.273 C 
ATOM     19  H   UNL A   1      29.263  25.079  25.107  1.00  0.00     0.191 HD
ATOM     20  O   UNL A   1      27.425  26.113  23.821  1.00  0.00    -0.267 OA
BRANCH  18  21
ATOM     21  C   UNL A   1      28.980  27.765  23.212  1.00  0.00     0.082 A 
ATOM     22  C   UNL A   1      28.410  29.073  23.143  1.00  0.00     0.059 A 
ATOM     23  C   UNL A   1      30.143  27.833  22.466  1.00  0.00     0.113 A 
ATOM     24  C   UNL A   1      29.249  29.832  22.357  1.00  0.00     0.101 A 
ATOM     25  O   UNL A   1      30.299  29.078  21.937  1.00  0.00    -0.466 OA
ATOM     26  C   UNL A   1      31.211  26.860  22.150  1.00  0.00     0.088 C 
ATOM     27  C   UNL A   1      29.247  31.245  21.933  1.00  0.00     0.087 C 
ENDBRANCH  18  21
ENDBRANCH  15  17
ENDBRANCH  12  13
ENDBRANCH   7  12
ENDBRANCH   4   7
ENDBRANCH   2   3
ENDBRANCH   1   2
BRANCH   1  28
ATOM     28  C   UNL A   1      35.730  20.933  25.610  1.00  0.00     0.002 C 
BRANCH  28  29
ATOM     29  C   UNL A   1      36.897  21.073  24.629  1.00  0.00     0.002 C 
BRANCH  29  30
ATOM     30  C   UNL A   1      37.998  20.011  24.717  1.00  0.00     0.021 C 
BRANCH  30  31
ATOM     31  C   UNL A   1      39.046  20.214  25.809  1.00  0.00     0.116 C 
BRANCH  31  32
ATOM     32  N   UNL A   1      40.085  19.203  25.807  1.00  0.00    -0.352 N 
ATOM     33  C   UNL A   1      41.433  19.348  26.034  1.00  0.00     0.251 C 
ATOM     34  H   UNL A   1      39.784  18.285  25.614  1.00  0.00     0.163 HD
ATOM     35  O   UNL A   1      42.186  18.388  25.902  1.00  0.00    -0.269 OA
BRANCH  33  36
ATOM     36  C   UNL A   1      41.995  20.668  26.406  1.00  0.00     0.039 A 
ATOM     37  C   UNL A   1      42.286  21.577  25.382  1.00  0.00     0.014 A 
ATOM     38  C   UNL A   1      42.272  21.002  27.735  1.00  0.00     0.014 A 
ATOM     39  C   UNL A   1      42.794  22.843  25.692  1.00  0.00     0.010 A 
ATOM     40  C   UNL A   1      42.756  22.274  28.047  1.00  0.00     0.010 A 
ATOM     41  C   UNL A   1      43.012  23.206  27.029  1.00  0.00    -0.014 A 
BRANCH  41  42
ATOM     42  C   UNL A   1      43.492  24.563  27.382  1.00  0.00     0.031 A 
ATOM     43  C   UNL A   1      42.545  25.583  27.940  1.00  0.00     0.074 A 
ATOM     44  C   UNL A   1      44.772  24.898  27.139  1.00  0.00     0.049 A 
ATOM     45  N   UNL A   1      42.751  26.851  28.190  1.00  0.00    -0.248 NA
ATOM     46  C   UNL A   1      41.182  25.120  28.244  1.00  0.00     0.031 C 
ATOM     47  C   UNL A   1      45.788  24.007  26.579  1.00  0.00     0.029 A 
ATOM     48  N   UNL A   1      45.431  26.088  27.317  1.00  0.00    -0.354 N 
ATOM     49  C   UNL A   1      41.539  27.347  28.645  1.00  0.00     0.074 A 
ATOM     50  C   UNL A   1      40.603  26.241  28.651  1.00  0.00     0.031 C 
ATOM     51  C   UNL A   1      46.943  24.682  26.458  1.00  0.00     0.029 A 
ATOM     52  C   UNL A   1      46.741  26.056  26.913  1.00  0.00     0.049 A 
ATOM     53  H   UNL A   1      45.004  26.889  27.701  1.00  0.00     0.167 HD
ATOM     54  C   UNL A   1      41.232  28.613  29.015  1.00  0.00     0.037 A 
ATOM     55  C   UNL A   1      47.671  27.028  26.897  1.00  0.00     0.037 A 
ATOM     56  C   UNL A   1      42.162  29.709  29.054  1.00  0.00     0.049 A 
ATOM     57  C   UNL A   1      47.323  28.407  27.376  1.00  0.00     0.074 A 
ATOM     58  C   UNL A   1      41.942  31.018  29.448  1.00  0.00     0.029 A 
ATOM     59  N   UNL A   1      43.496  29.619  28.694  1.00  0.00    -0.354 N 
ATOM     60  N   UNL A   1      46.172  28.863  27.802  1.00  0.00    -0.248 NA
ATOM     61  C   UNL A   1      48.402  29.404  27.368  1.00  0.00     0.031 C 
ATOM     62  C   UNL A   1      43.145  31.722  29.324  1.00  0.00     0.029 A 
ATOM     63  C   UNL A   1      44.114  30.847  28.858  1.00  0.00     0.049 A 
ATOM     64  H   UNL A   1      43.941  28.802  28.369  1.00  0.00     0.167 HD
ATOM     65  C   UNL A   1      46.386  30.197  28.114  1.00  0.00     0.074 A 
ATOM     66  C   UNL A   1      47.779  30.478  27.837  1.00  0.00     0.031 C 
ATOM     67  C   UNL A   1      45.501  31.107  28.584  1.00  0.00     0.037 A 
BRANCH  54  68
ATOM     68  C   UNL A   1      39.813  28.884  29.397  1.00  0.00     0.064 A 
ATOM     69  C   UNL A   1      38.875  29.316  28.451  1.00  0.00     0.173 A 
ATOM     70  C   UNL A   1      39.384  28.676  30.714  1.00  0.00     0.173 A 
ATOM     71  F   UNL A   1      39.249  29.538  27.182  1.00  0.00    -0.203 F 
ATOM     72  C   UNL A   1      37.550  29.539  28.816  1.00  0.00     0.198 A 
ATOM     73  C   UNL A   1      38.058  28.893  31.074  1.00  0.00     0.198 A 
ATOM     74  F   UNL A   1      40.253  28.266  31.651  1.00  0.00    -0.203 F 
ATOM     75  F   UNL A   1      36.668  29.969  27.904  1.00  0.00    -0.200 F 
ATOM     76  C   UNL A   1      37.143  29.326  30.126  1.00  0.00     0.200 A 
ATOM     77  F   UNL A   1      37.664  28.689  32.339  1.00  0.00    -0.200 F 
ATOM     78  F   UNL A   1      35.866  29.543  30.475  1.00  0.00    -0.200 F 
ENDBRANCH  54  68
BRANCH  55  79
ATOM     79  C   UNL A   1      49.032  26.724  26.402  1.00  0.00     0.064 A 
ATOM     80  C   UNL A   1      50.017  26.237  27.270  1.00  0.00     0.173 A 
ATOM     81  C   UNL A   1      49.367  26.904  25.054  1.00  0.00     0.173 A 
ATOM     82  F   UNL A   1      49.739  26.070  28.571  1.00  0.00    -0.203 F 
ATOM     83  C   UNL A   1      51.295  25.939  26.805  1.00  0.00     0.198 A 
ATOM     84  C   UNL A   1      50.643  26.598  24.588  1.00  0.00     0.198 A 
ATOM     85  F   UNL A   1      48.452  27.372  24.192  1.00  0.00    -0.203 F 
ATOM     86  F   UNL A   1      52.228  25.487  27.655  1.00  0.00    -0.200 F 
ATOM     87  C   UNL A   1      51.607  26.117  25.463  1.00  0.00     0.200 A 
ATOM     88  F   UNL A   1      50.940  26.768  23.293  1.00  0.00    -0.200 F 
ATOM     89  F   UNL A   1      52.836  25.830  25.016  1.00  0.00    -0.200 F 
ENDBRANCH  55  79
BRANCH  67  90
ATOM     90  C   UNL A   1      46.016  32.488  28.835  1.00  0.00     0.064 A 
ATOM     91  C   UNL A   1      45.967  33.466  27.834  1.00  0.00     0.173 A 
ATOM     92  C   UNL A   1      46.533  32.841  30.089  1.00  0.00     0.173 A 
ATOM     93  F   UNL A   1      45.493  33.164  26.616  1.00  0.00    -0.203 F 
ATOM     94  C   UNL A   1      46.423  34.758  28.080  1.00  0.00     0.198 A 
ATOM     95  C   UNL A   1      46.983  34.135  30.332  1.00  0.00     0.198 A 
ATOM     96  F   UNL A   1      46.604  31.929  31.070  1.00  0.00    -0.203 F 
ATOM     97  F   UNL A   1      46.382  35.679  27.108  1.00  0.00    -0.200 F 
ATOM     98  C   UNL A   1      46.928  35.092  29.330  1.00  0.00     0.200 A 
ATOM     99  F   UNL A   1      47.476  34.456  31.537  1.00  0.00    -0.200 F 
ATOM    100  F   UNL A   1      47.370  36.336  29.564  1.00  0.00    -0.200 F 
ENDBRANCH  67  90
ENDBRANCH  41  42
ENDBRANCH  33  36
ENDBRANCH  31  32
ENDBRANCH  30  31
ENDBRANCH  29  30
ENDBRANCH  28  29
ENDBRANCH   1  28
TORSDOF 19
ENDMDL
MODEL 3
REMARK VINA RESULT:     -10.7      3.587      8.603
REMARK SMILES CCC(CC)(CC(=O)NNC(=O)c1cc(C)oc1C)C(=O)NCCCCCCNC(=O)c1ccc(-c2c3nc(c(-c4c(F)c(F)c(F)c(F)c4F)c4ccc([nH]4)c(-c4c(F)c(F)c(F)c(F)c4F)c4nc(c(-c5c(F)c(F)c(F)c(F)c5F)c5ccc2[nH]5)C=C4)C=C3)cc1
REMARK SMILES IDX 24 1 23 2 22 3 20 4 21 5 3 7 2 8 1 9 4 10 5 11 6 12 7 13
REMARK SMILES IDX 8 14 9 15 10 17 11 18 12 20 13 21 14 22 18 23 15 24 17 25
REMARK SMILES IDX 19 26 16 27 25 28 26 29 27 30 28 31 29 32 30 33 31 35 32 36
REMARK SMILES IDX 33 37 94 38 34 39 93 40 35 41 36 42 37 43 87 44 38 45 92 46
REMARK SMILES IDX 86 47 88 48 39 49 91 50 85 51 84 52 40 54 72 55 52 56 71 57
REMARK SMILES IDX 53 58 56 59 70 60 89 61 54 62 55 63 69 65 90 66 57 67 41 68
REMARK SMILES IDX 42 69 50 70 43 71 44 72 48 73 51 74 45 75 46 76 49 77 47 78
REMARK SMILES IDX 73 79 74 80 82 81 75 82 76 83 80 84 83 85 77 86 78 87 81 88
REMARK SMILES IDX 79 89 58 90 59 91 67 92 60 93 61 94 65 95 68 96 62 97 63 98
REMARK SMILES IDX 66 99 64 100
REMARK H PARENT 22 6 9 16 10 19 29 34 88 53 56 64
REMARK Flexibility Score: inf
ROOT
ATOM      1  C   UNL A   1      33.715  21.097  25.925  1.00  0.00     0.021 C 
ENDROOT
BRANCH   1   2
ATOM      2  C   UNL A   1      32.506  21.695  25.206  1.00  0.00     0.116 C 
BRANCH   2   3
ATOM      3  N   UNL A   1      31.546  22.290  26.113  1.00  0.00    -0.356 N 
ATOM      4  C   UNL A   1      31.166  23.569  26.361  1.00  0.00     0.226 C 
ATOM      5  O   UNL A   1      30.299  23.702  27.232  1.00  0.00    -0.274 OA
ATOM      6  H   UNL A   1      31.069  21.627  26.664  1.00  0.00     0.163 HD
BRANCH   4   7
ATOM      7  C   UNL A   1      31.772  24.806  25.638  1.00  0.00     0.057 C 
BRANCH   7   8
ATOM      8  C   UNL A   1      33.224  25.035  26.195  1.00  0.00     0.014 C 
ATOM      9  C   UNL A   1      34.255  25.569  25.200  1.00  0.00     0.005 C 
ENDBRANCH   7   8
BRANCH   7  10
ATOM     10  C   UNL A   1      30.902  26.074  25.901  1.00  0.00     0.014 C 
ATOM     11  C   UNL A   1      31.348  26.947  27.072  1.00  0.00     0.005 C 
ENDBRANCH   7  10
BRANCH   7  12
ATOM     12  C   UNL A   1      31.896  24.530  24.112  1.00  0.00     0.118 C 
BRANCH  12  13
ATOM     13  C   UNL A   1      30.867  25.236  23.240  1.00  0.00     0.239 C 
ATOM     14  O   UNL A   1      29.662  25.019  23.384  1.00  0.00    -0.273 OA
ATOM     15  N   UNL A   1      31.273  26.155  22.307  1.00  0.00    -0.267 N 
ATOM     16  H   UNL A   1      30.575  26.582  21.759  1.00  0.00     0.191 HD
BRANCH  15  17
ATOM     17  N   UNL A   1      32.594  26.533  22.071  1.00  0.00    -0.263 N 
ATOM     18  C   UNL A   1      33.121  27.772  22.388  1.00  0.00     0.273 C 
ATOM     19  H   UNL A   1      33.193  25.874  21.651  1.00  0.00     0.191 HD
ATOM     20  O   UNL A   1      34.145  28.147  21.821  1.00  0.00    -0.267 OA
BRANCH  18  21
ATOM     21  C   UNL A   1      32.462  28.572  23.405  1.00  0.00     0.082 A 
ATOM     22  C   UNL A   1      32.940  28.989  24.685  1.00  0.00     0.059 A 
ATOM     23  C   UNL A   1      31.229  29.182  23.258  1.00  0.00     0.113 A 
ATOM     24  C   UNL A   1      31.969  29.801  25.227  1.00  0.00     0.101 A 
ATOM     25  O   UNL A   1      30.924  29.913  24.366  1.00  0.00    -0.466 OA
ATOM     26  C   UNL A   1      30.222  29.200  22.175  1.00  0.00     0.088 C 
ATOM     27  C   UNL A   1      31.864  30.564  26.485  1.00  0.00     0.087 C 
ENDBRANCH  18  21
ENDBRANCH  15  17
ENDBRANCH  12  13
ENDBRANCH   7  12
ENDBRANCH   4   7
ENDBRANCH   2   3
ENDBRANCH   1   2
BRANCH   1  28
ATOM     28  C   UNL A   1      34.862  20.613  25.032  1.00  0.00     0.002 C 
BRANCH  28  29
ATOM     29  C   UNL A   1      36.186  21.373  25.149  1.00  0.00     0.002 C 
BRANCH  29  30
ATOM     30  C   UNL A   1      36.115  22.787  25.737  1.00  0.00     0.021 C 
BRANCH  30  31
ATOM     31  C   UNL A   1      37.415  23.589  25.726  1.00  0.00     0.116 C 
BRANCH  31  32
ATOM     32  N   UNL A   1      38.604  22.760  25.743  1.00  0.00    -0.352 N 
ATOM     33  C   UNL A   1      39.864  23.064  26.202  1.00  0.00     0.251 C 
ATOM     34  H   UNL A   1      38.495  21.853  25.375  1.00  0.00     0.163 HD
ATOM     35  O   UNL A   1      40.783  22.264  26.054  1.00  0.00    -0.269 OA
BRANCH  33  36
ATOM     36  C   UNL A   1      40.134  24.372  26.844  1.00  0.00     0.039 A 
ATOM     37  C   UNL A   1      39.774  24.540  28.187  1.00  0.00     0.014 A 
ATOM     38  C   UNL A   1      40.697  25.437  26.135  1.00  0.00     0.014 A 
ATOM     39  C   UNL A   1      40.034  25.750  28.836  1.00  0.00     0.010 A 
ATOM     40  C   UNL A   1      40.980  26.638  26.790  1.00  0.00     0.010 A 
ATOM     41  C   UNL A   1      40.659  26.799  28.147  1.00  0.00    -0.014 A 
BRANCH  41  42
ATOM     42  C   UNL A   1      40.999  28.068  28.833  1.00  0.00     0.031 A 
ATOM     43  C   UNL A   1      42.372  28.284  29.394  1.00  0.00     0.074 A 
ATOM     44  C   UNL A   1      40.048  29.003  29.009  1.00  0.00     0.049 A 
ATOM     45  N   UNL A   1      42.817  29.270  30.132  1.00  0.00    -0.248 NA
ATOM     46  C   UNL A   1      43.375  27.249  29.100  1.00  0.00     0.031 C 
ATOM     47  C   UNL A   1      38.668  28.906  28.532  1.00  0.00     0.029 A 
ATOM     48  N   UNL A   1      40.096  30.213  29.654  1.00  0.00    -0.354 N 
ATOM     49  C   UNL A   1      44.137  28.958  30.421  1.00  0.00     0.074 A 
ATOM     50  C   UNL A   1      44.428  27.698  29.768  1.00  0.00     0.031 C 
ATOM     51  C   UNL A   1      37.999  30.011  28.902  1.00  0.00     0.029 A 
ATOM     52  C   UNL A   1      38.898  30.881  29.658  1.00  0.00     0.049 A 
ATOM     53  H   UNL A   1      40.913  30.569  30.074  1.00  0.00     0.167 HD
ATOM     54  C   UNL A   1      45.023  29.656  31.171  1.00  0.00     0.037 A 
ATOM     55  C   UNL A   1      38.558  32.055  30.219  1.00  0.00     0.037 A 
ATOM     56  C   UNL A   1      44.759  30.927  31.788  1.00  0.00     0.049 A 
ATOM     57  C   UNL A   1      39.578  32.841  30.989  1.00  0.00     0.074 A 
ATOM     58  C   UNL A   1      45.611  31.719  32.539  1.00  0.00     0.029 A 
ATOM     59  N   UNL A   1      43.550  31.599  31.716  1.00  0.00    -0.354 N 
ATOM     60  N   UNL A   1      40.822  32.534  31.256  1.00  0.00    -0.248 NA
ATOM     61  C   UNL A   1      39.144  34.134  31.538  1.00  0.00     0.031 C 
ATOM     62  C   UNL A   1      44.916  32.871  32.924  1.00  0.00     0.029 A 
ATOM     63  C   UNL A   1      43.633  32.797  32.406  1.00  0.00     0.049 A 
ATOM     64  H   UNL A   1      42.749  31.273  31.243  1.00  0.00     0.167 HD
ATOM     65  C   UNL A   1      41.322  33.592  32.001  1.00  0.00     0.074 A 
ATOM     66  C   UNL A   1      40.250  34.556  32.138  1.00  0.00     0.031 C 
ATOM     67  C   UNL A   1      42.559  33.745  32.527  1.00  0.00     0.037 A 
BRANCH  54  68
ATOM     68  C   UNL A   1      46.369  29.042  31.378  1.00  0.00     0.064 A 
ATOM     69  C   UNL A   1      46.614  28.168  32.445  1.00  0.00     0.173 A 
ATOM     70  C   UNL A   1      47.412  29.307  30.480  1.00  0.00     0.173 A 
ATOM     71  F   UNL A   1      45.646  27.898  33.332  1.00  0.00    -0.203 F 
ATOM     72  C   UNL A   1      47.866  27.583  32.610  1.00  0.00     0.198 A 
ATOM     73  C   UNL A   1      48.660  28.715  30.644  1.00  0.00     0.198 A 
ATOM     74  F   UNL A   1      47.219  30.142  29.448  1.00  0.00    -0.203 F 
ATOM     75  F   UNL A   1      48.090  26.762  33.645  1.00  0.00    -0.200 F 
ATOM     76  C   UNL A   1      48.887  27.855  31.709  1.00  0.00     0.200 A 
ATOM     77  F   UNL A   1      49.646  28.979  29.776  1.00  0.00    -0.200 F 
ATOM     78  F   UNL A   1      50.093  27.291  31.871  1.00  0.00    -0.200 F 
ENDBRANCH  54  68
BRANCH  55  79
ATOM     79  C   UNL A   1      37.174  32.558  30.072  1.00  0.00     0.064 A 
ATOM     80  C   UNL A   1      36.795  33.290  28.939  1.00  0.00     0.173 A 
ATOM     81  C   UNL A   1      36.206  32.306  31.052  1.00  0.00     0.173 A 
ATOM     82  F   UNL A   1      37.699  33.566  27.989  1.00  0.00    -0.203 F 
ATOM     83  C   UNL A   1      35.491  33.754  28.792  1.00  0.00     0.198 A 
ATOM     84  C   UNL A   1      34.899  32.764  30.900  1.00  0.00     0.198 A 
ATOM     85  F   UNL A   1      36.530  31.612  32.153  1.00  0.00    -0.203 F 
ATOM     86  F   UNL A   1      35.152  34.465  27.707  1.00  0.00    -0.200 F 
ATOM     87  C   UNL A   1      34.543  33.489  29.771  1.00  0.00     0.200 A 
ATOM     88  F   UNL A   1      33.987  32.505  31.845  1.00  0.00    -0.200 F 
ATOM     89  F   UNL A   1      33.288  33.935  29.629  1.00  0.00    -0.200 F 
ENDBRANCH  55  79
BRANCH  67  90
ATOM     90  C   UNL A   1      42.821  35.002  33.292  1.00  0.00     0.064 A 
ATOM     91  C   UNL A   1      42.599  35.064  34.673  1.00  0.00     0.173 A 
ATOM     92  C   UNL A   1      43.324  36.140  32.646  1.00  0.00     0.173 A 
ATOM     93  F   UNL A   1      42.104  34.001  35.325  1.00  0.00    -0.203 F 
ATOM     94  C   UNL A   1      42.870  36.228  35.386  1.00  0.00     0.198 A 
ATOM     95  C   UNL A   1      43.597  37.301  33.363  1.00  0.00     0.198 A 
ATOM     96  F   UNL A   1      43.542  36.124  31.322  1.00  0.00    -0.203 F 
ATOM     97  F   UNL A   1      42.638  36.275  36.705  1.00  0.00    -0.200 F 
ATOM     98  C   UNL A   1      43.371  37.345  34.730  1.00  0.00     0.200 A 
ATOM     99  F   UNL A   1      44.076  38.381  32.729  1.00  0.00    -0.200 F 
ATOM    100  F   UNL A   1      43.627  38.467  35.418  1.00  0.00    -0.200 F 
ENDBRANCH  67  90
ENDBRANCH  41  42
ENDBRANCH  33  36
ENDBRANCH  31  32
ENDBRANCH  30  31
ENDBRANCH  29  30
ENDBRANCH  28  29
ENDBRANCH   1  28
TORSDOF 19
ENDMDL
