MODEL 1
REMARK VINA RESULT:     -10.0      0.000      0.000
REMARK SMILES CC1=C(C)C[C@H](C(=O)Nc2sc3c(c2C(=O)NC2CCCC2)CCCC3)[C@@H](C(=O)NCCCCCCNC(=O)c2ccc(-c3c4nc(c(-c5c(F)c(F)c(F)c(F)c5F)c5ccc([nH]5)c(-c5c(F)c(F)c(F)c(F)c5F)c5nc(c(-c6c(F)c(F)c(F)c(F)c6F)c6ccc3[nH]6)C=C5)C=C4)cc2)C1
REMARK SMILES IDX 32 1 31 2 30 3 28 4 29 5 27 7 1 8 2 9 3 10 103 11 4 12 5 13
REMARK SMILES IDX 6 14 7 15 8 16 9 17 10 19 11 20 14 21 12 22 13 23 26 24
REMARK SMILES IDX 23 25 25 26 24 27 15 28 16 29 17 30 18 32 19 33 22 34 20 35
REMARK SMILES IDX 21 36 33 37 34 38 35 39 36 40 37 41 38 42 39 44 40 45 41 46
REMARK SMILES IDX 102 47 42 48 101 49 43 50 44 51 45 52 95 53 46 54 100 55
REMARK SMILES IDX 94 56 96 57 47 58 99 59 93 60 92 61 48 63 80 64 60 65 79 66
REMARK SMILES IDX 61 67 64 68 78 69 97 70 62 71 63 72 77 74 98 75 65 76 49 77
REMARK SMILES IDX 50 78 58 79 51 80 52 81 56 82 59 83 53 84 54 85 57 86 55 87
REMARK SMILES IDX 81 88 82 89 90 90 83 91 84 92 88 93 91 94 85 95 86 96 89 97
REMARK SMILES IDX 87 98 66 99 67 100 75 101 68 102 69 103 73 104 76 105 70 106
REMARK SMILES IDX 71 107 74 108 72 109
REMARK H PARENT 30 6 9 18 17 31 37 43 96 62 64 73
REMARK Flexibility Score: inf
ROOT
ATOM      1  C   UNL A   1      46.683  28.561  30.136  1.00  0.00     0.021 C 
ENDROOT
BRANCH   1   2
ATOM      2  C   UNL A   1      46.182  29.974  30.289  1.00  0.00     0.116 C 
BRANCH   2   3
ATOM      3  N   UNL A   1      45.364  30.335  31.407  1.00  0.00    -0.356 N 
ATOM      4  C   UNL A   1      44.165  31.015  31.279  1.00  0.00     0.224 C 
ATOM      5  O   UNL A   1      43.519  31.262  32.293  1.00  0.00    -0.275 OA
ATOM      6  H   UNL A   1      45.668  30.088  32.310  1.00  0.00     0.163 HD
BRANCH   4   7
ATOM      7  C   UNL A   1      43.698  31.391  29.849  1.00  0.00     0.095 C 
ATOM      8  C   UNL A   1      40.691  33.710  30.617  1.00  0.00     0.039 C 
ATOM      9  C   UNL A   1      42.085  33.376  30.147  1.00  0.00    -0.074 C 
ATOM     10  C   UNL A   1      43.117  34.234  30.030  1.00  0.00    -0.074 C 
ATOM     11  C   UNL A   1      42.261  31.918  29.823  1.00  0.00     0.045 C 
ATOM     12  C   UNL A   1      43.058  35.697  30.405  1.00  0.00     0.039 C 
ATOM     13  C   UNL A   1      44.485  33.791  29.535  1.00  0.00     0.045 C 
ATOM     14  C   UNL A   1      44.706  32.295  29.132  1.00  0.00     0.095 C 
BRANCH  14  15
ATOM     15  C   UNL A   1      45.007  32.081  27.596  1.00  0.00     0.229 C 
ATOM     16  O   UNL A   1      44.080  32.210  26.783  1.00  0.00    -0.274 OA
ATOM     17  N   UNL A   1      46.284  32.124  27.053  1.00  0.00    -0.317 N 
ATOM     18  H   UNL A   1      46.353  32.719  26.271  1.00  0.00     0.170 HD
BRANCH  17  19
ATOM     19  C   UNL A   1      47.492  31.503  27.381  1.00  0.00     0.108 A 
ATOM     20  S   UNL A   1      48.302  32.129  28.749  1.00  0.00    -0.122 S 
ATOM     21  C   UNL A   1      48.021  30.274  26.874  1.00  0.00     0.078 A 
ATOM     22  C   UNL A   1      49.753  31.399  28.280  1.00  0.00     0.011 A 
ATOM     23  C   UNL A   1      49.503  30.253  27.184  1.00  0.00    -0.019 A 
ATOM     24  C   UNL A   1      51.397  31.983  28.998  1.00  0.00     0.047 C 
ATOM     25  C   UNL A   1      50.982  29.239  26.460  1.00  0.00     0.037 C 
ATOM     26  C   UNL A   1      53.035  31.218  28.299  1.00  0.00     0.006 C 
ATOM     27  C   UNL A   1      52.851  29.771  26.975  1.00  0.00     0.005 C 
BRANCH  21  28
ATOM     28  C   UNL A   1      47.064  29.436  26.068  1.00  0.00     0.254 C 
ATOM     29  O   UNL A   1      46.276  29.995  25.293  1.00  0.00    -0.269 OA
ATOM     30  N   UNL A   1      46.950  28.062  26.064  1.00  0.00    -0.349 N 
ATOM     31  H   UNL A   1      46.301  27.699  25.419  1.00  0.00     0.164 HD
BRANCH  30  32
ATOM     32  C   UNL A   1      47.624  27.090  26.849  1.00  0.00     0.082 C 
ATOM     33  C   UNL A   1      46.760  26.071  27.567  1.00  0.00     0.025 C 
ATOM     34  C   UNL A   1      48.693  26.232  26.196  1.00  0.00     0.025 C 
ATOM     35  C   UNL A   1      47.795  25.132  28.190  1.00  0.00     0.002 C 
ATOM     36  C   UNL A   1      49.055  25.255  27.321  1.00  0.00     0.002 C 
ENDBRANCH  30  32
ENDBRANCH  21  28
ENDBRANCH  17  19
ENDBRANCH  14  15
ENDBRANCH   4   7
ENDBRANCH   2   3
ENDBRANCH   1   2
BRANCH   1  37
ATOM     37  C   UNL A   1      47.293  27.965  31.407  1.00  0.00     0.002 C 
BRANCH  37  38
ATOM     38  C   UNL A   1      47.663  26.284  31.583  1.00  0.00     0.002 C 
BRANCH  38  39
ATOM     39  C   UNL A   1      48.331  24.910  33.082  1.00  0.00     0.021 C 
BRANCH  39  40
ATOM     40  C   UNL A   1      47.642  23.946  34.417  1.00  0.00     0.116 C 
BRANCH  40  41
ATOM     41  N   UNL A   1      47.676  24.325  35.850  1.00  0.00    -0.352 N 
ATOM     42  C   UNL A   1      47.091  25.354  36.527  1.00  0.00     0.251 C 
ATOM     43  H   UNL A   1      48.219  23.727  36.414  1.00  0.00     0.163 HD
ATOM     44  O   UNL A   1      47.402  25.598  37.686  1.00  0.00    -0.269 OA
BRANCH  42  45
ATOM     45  C   UNL A   1      46.036  26.113  35.875  1.00  0.00     0.039 A 
ATOM     46  C   UNL A   1      46.352  27.298  35.216  1.00  0.00     0.014 A 
ATOM     47  C   UNL A   1      44.728  25.634  35.960  1.00  0.00     0.014 A 
ATOM     48  C   UNL A   1      45.338  27.979  34.563  1.00  0.00     0.010 A 
ATOM     49  C   UNL A   1      43.732  26.277  35.256  1.00  0.00     0.010 A 
ATOM     50  C   UNL A   1      44.038  27.446  34.548  1.00  0.00    -0.014 A 
BRANCH  50  51
ATOM     51  C   UNL A   1      42.988  28.085  33.742  1.00  0.00     0.031 A 
ATOM     52  C   UNL A   1      42.861  27.755  32.291  1.00  0.00     0.074 A 
ATOM     53  C   UNL A   1      42.204  28.995  34.344  1.00  0.00     0.049 A 
ATOM     54  N   UNL A   1      41.998  28.203  31.420  1.00  0.00    -0.248 NA
ATOM     55  C   UNL A   1      43.852  26.818  31.734  1.00  0.00     0.031 C 
ATOM     56  C   UNL A   1      42.324  29.416  35.744  1.00  0.00     0.029 A 
ATOM     57  N   UNL A   1      41.154  29.726  33.865  1.00  0.00    -0.354 N 
ATOM     58  C   UNL A   1      42.340  27.603  30.218  1.00  0.00     0.074 A 
ATOM     59  C   UNL A   1      43.529  26.817  30.450  1.00  0.00     0.031 C 
ATOM     60  C   UNL A   1      41.352  30.296  36.022  1.00  0.00     0.029 A 
ATOM     61  C   UNL A   1      40.573  30.531  34.813  1.00  0.00     0.049 A 
ATOM     62  H   UNL A   1      40.843  29.680  32.932  1.00  0.00     0.167 HD
ATOM     63  C   UNL A   1      41.689  27.689  29.035  1.00  0.00     0.037 A 
ATOM     64  C   UNL A   1      39.522  31.363  34.704  1.00  0.00     0.037 A 
ATOM     65  C   UNL A   1      40.506  28.484  28.844  1.00  0.00     0.049 A 
ATOM     66  C   UNL A   1      38.826  31.443  33.374  1.00  0.00     0.074 A 
ATOM     67  C   UNL A   1      39.729  28.621  27.709  1.00  0.00     0.029 A 
ATOM     68  N   UNL A   1      39.936  29.292  29.821  1.00  0.00    -0.354 N 
ATOM     69  N   UNL A   1      39.097  30.807  32.258  1.00  0.00    -0.248 NA
ATOM     70  C   UNL A   1      37.674  32.346  33.289  1.00  0.00     0.031 C 
ATOM     71  C   UNL A   1      38.727  29.559  27.982  1.00  0.00     0.029 A 
ATOM     72  C   UNL A   1      38.834  29.953  29.308  1.00  0.00     0.049 A 
ATOM     73  H   UNL A   1      40.268  29.380  30.744  1.00  0.00     0.167 HD
ATOM     74  C   UNL A   1      38.136  31.212  31.344  1.00  0.00     0.074 A 
ATOM     75  C   UNL A   1      37.262  32.132  32.048  1.00  0.00     0.031 C 
ATOM     76  C   UNL A   1      37.988  30.862  30.042  1.00  0.00     0.037 A 
BRANCH  63  77
ATOM     77  C   UNL A   1      42.249  26.914  27.878  1.00  0.00     0.064 A 
ATOM     78  C   UNL A   1      43.137  27.497  26.958  1.00  0.00     0.173 A 
ATOM     79  C   UNL A   1      41.901  25.569  27.684  1.00  0.00     0.173 A 
ATOM     80  F   UNL A   1      43.491  28.785  27.083  1.00  0.00    -0.203 F 
ATOM     81  C   UNL A   1      43.624  26.775  25.871  1.00  0.00     0.198 A 
ATOM     82  C   UNL A   1      42.418  24.839  26.617  1.00  0.00     0.198 A 
ATOM     83  F   UNL A   1      41.055  24.962  28.530  1.00  0.00    -0.203 F 
ATOM     84  F   UNL A   1      44.418  27.373  24.972  1.00  0.00    -0.200 F 
ATOM     85  C   UNL A   1      43.270  25.445  25.706  1.00  0.00     0.200 A 
ATOM     86  F   UNL A   1      42.083  23.551  26.465  1.00  0.00    -0.200 F 
ATOM     87  F   UNL A   1      43.742  24.749  24.662  1.00  0.00    -0.200 F 
ENDBRANCH  63  77
BRANCH  64  88
ATOM     88  C   UNL A   1      39.061  32.140  35.882  1.00  0.00     0.064 A 
ATOM     89  C   UNL A   1      38.217  31.565  36.843  1.00  0.00     0.173 A 
ATOM     90  C   UNL A   1      39.464  33.470  36.083  1.00  0.00     0.173 A 
ATOM     91  F   UNL A   1      37.800  30.299  36.695  1.00  0.00    -0.203 F 
ATOM     92  C   UNL A   1      37.771  32.297  37.941  1.00  0.00     0.198 A 
ATOM     93  C   UNL A   1      39.044  34.190  37.200  1.00  0.00     0.198 A 
ATOM     94  F   UNL A   1      40.285  34.063  35.206  1.00  0.00    -0.203 F 
ATOM     95  F   UNL A   1      36.927  31.736  38.818  1.00  0.00    -0.200 F 
ATOM     96  C   UNL A   1      38.189  33.607  38.122  1.00  0.00     0.200 A 
ATOM     97  F   UNL A   1      39.469  35.447  37.382  1.00  0.00    -0.200 F 
ATOM     98  F   UNL A   1      37.765  34.308  39.182  1.00  0.00    -0.200 F 
ENDBRANCH  64  88
BRANCH  76  99
ATOM     99  C   UNL A   1      36.819  31.455  29.311  1.00  0.00     0.064 A 
ATOM    100  C   UNL A   1      36.805  32.799  28.910  1.00  0.00     0.173 A 
ATOM    101  C   UNL A   1      35.716  30.655  28.975  1.00  0.00     0.173 A 
ATOM    102  F   UNL A   1      37.829  33.608  29.220  1.00  0.00    -0.203 F 
ATOM    103  C   UNL A   1      35.713  33.328  28.227  1.00  0.00     0.198 A 
ATOM    104  C   UNL A   1      34.646  31.178  28.258  1.00  0.00     0.198 A 
ATOM    105  F   UNL A   1      35.685  29.361  29.330  1.00  0.00    -0.203 F 
ATOM    106  F   UNL A   1      35.695  34.629  27.905  1.00  0.00    -0.200 F 
ATOM    107  C   UNL A   1      34.640  32.515  27.893  1.00  0.00     0.200 A 
ATOM    108  F   UNL A   1      33.619  30.386  27.919  1.00  0.00    -0.200 F 
ATOM    109  F   UNL A   1      33.596  33.024  27.227  1.00  0.00    -0.200 F 
ENDBRANCH  76  99
ENDBRANCH  50  51
ENDBRANCH  42  45
ENDBRANCH  40  41
ENDBRANCH  39  40
ENDBRANCH  38  39
ENDBRANCH  37  38
ENDBRANCH   1  37
TORSDOF 17
ENDMDL
MODEL 2
REMARK VINA RESULT:      -9.8      4.487      9.322
REMARK SMILES CC1=C(C)C[C@H](C(=O)Nc2sc3c(c2C(=O)NC2CCCC2)CCCC3)[C@@H](C(=O)NCCCCCCNC(=O)c2ccc(-c3c4nc(c(-c5c(F)c(F)c(F)c(F)c5F)c5ccc([nH]5)c(-c5c(F)c(F)c(F)c(F)c5F)c5nc(c(-c6c(F)c(F)c(F)c(F)c6F)c6ccc3[nH]6)C=C5)C=C4)cc2)C1
REMARK SMILES IDX 32 1 31 2 30 3 28 4 29 5 27 7 1 8 2 9 3 10 103 11 4 12 5 13
REMARK SMILES IDX 6 14 7 15 8 16 9 17 10 19 11 20 14 21 12 22 13 23 26 24
REMARK SMILES IDX 23 25 25 26 24 27 15 28 16 29 17 30 18 32 19 33 22 34 20 35
REMARK SMILES IDX 21 36 33 37 34 38 35 39 36 40 37 41 38 42 39 44 40 45 41 46
REMARK SMILES IDX 102 47 42 48 101 49 43 50 44 51 45 52 95 53 46 54 100 55
REMARK SMILES IDX 94 56 96 57 47 58 99 59 93 60 92 61 48 63 80 64 60 65 79 66
REMARK SMILES IDX 61 67 64 68 78 69 97 70 62 71 63 72 77 74 98 75 65 76 49 77
REMARK SMILES IDX 50 78 58 79 51 80 52 81 56 82 59 83 53 84 54 85 57 86 55 87
REMARK SMILES IDX 81 88 82 89 90 90 83 91 84 92 88 93 91 94 85 95 86 96 89 97
REMARK SMILES IDX 87 98 66 99 67 100 75 101 68 102 69 103 73 104 76 105 70 106
REMARK SMILES IDX 71 107 74 108 72 109
REMARK H PARENT 30 6 9 18 17 31 37 43 96 62 64 73
REMARK Flexibility Score: inf
ROOT
ATOM      1  C   UNL A   1      43.144  29.812  33.819  1.00  0.00     0.021 C 
ENDROOT
BRANCH   1   2
ATOM      2  C   UNL A   1      43.282  30.259  32.386  1.00  0.00     0.116 C 
BRANCH   2   3
ATOM      3  N   UNL A   1      42.295  31.110  31.794  1.00  0.00    -0.356 N 
ATOM      4  C   UNL A   1      41.572  30.759  30.667  1.00  0.00     0.224 C 
ATOM      5  O   UNL A   1      40.729  31.544  30.243  1.00  0.00    -0.275 OA
ATOM      6  H   UNL A   1      42.122  31.985  32.207  1.00  0.00     0.163 HD
BRANCH   4   7
ATOM      7  C   UNL A   1      41.853  29.373  30.031  1.00  0.00     0.095 C 
ATOM      8  C   UNL A   1      38.649  27.426  31.004  1.00  0.00     0.039 C 
ATOM      9  C   UNL A   1      39.602  28.125  30.067  1.00  0.00    -0.074 C 
ATOM     10  C   UNL A   1      39.307  28.618  28.848  1.00  0.00    -0.074 C 
ATOM     11  C   UNL A   1      40.986  28.265  30.635  1.00  0.00     0.045 C 
ATOM     12  C   UNL A   1      37.929  28.593  28.226  1.00  0.00     0.039 C 
ATOM     13  C   UNL A   1      40.352  29.300  27.978  1.00  0.00     0.045 C 
ATOM     14  C   UNL A   1      41.821  29.423  28.500  1.00  0.00     0.095 C 
BRANCH  14  15
ATOM     15  C   UNL A   1      42.873  28.597  27.660  1.00  0.00     0.229 C 
ATOM     16  O   UNL A   1      42.475  27.638  26.983  1.00  0.00    -0.274 OA
ATOM     17  N   UNL A   1      44.133  29.076  27.328  1.00  0.00    -0.317 N 
ATOM     18  H   UNL A   1      44.341  28.991  26.369  1.00  0.00     0.170 HD
BRANCH  17  19
ATOM     19  C   UNL A   1      45.170  29.654  28.066  1.00  0.00     0.108 A 
ATOM     20  S   UNL A   1      45.682  28.778  29.441  1.00  0.00    -0.122 S 
ATOM     21  C   UNL A   1      46.012  30.751  27.699  1.00  0.00     0.078 A 
ATOM     22  C   UNL A   1      46.442  30.144  30.084  1.00  0.00     0.011 A 
ATOM     23  C   UNL A   1      46.657  31.274  28.965  1.00  0.00    -0.019 A 
ATOM     24  C   UNL A   1      46.890  30.221  31.915  1.00  0.00     0.047 C 
ATOM     25  C   UNL A   1      47.509  32.954  29.407  1.00  0.00     0.037 C 
ATOM     26  C   UNL A   1      47.610  31.875  32.623  1.00  0.00     0.006 C 
ATOM     27  C   UNL A   1      47.955  33.323  31.332  1.00  0.00     0.005 C 
BRANCH  21  28
ATOM     28  C   UNL A   1      45.928  31.183  26.259  1.00  0.00     0.254 C 
ATOM     29  O   UNL A   1      46.406  30.454  25.380  1.00  0.00    -0.269 OA
ATOM     30  N   UNL A   1      45.347  32.330  25.760  1.00  0.00    -0.349 N 
ATOM     31  H   UNL A   1      45.341  32.401  24.778  1.00  0.00     0.164 HD
BRANCH  30  32
ATOM     32  C   UNL A   1      44.758  33.425  26.444  1.00  0.00     0.082 C 
ATOM     33  C   UNL A   1      43.883  34.354  25.624  1.00  0.00     0.025 C 
ATOM     34  C   UNL A   1      43.910  33.152  27.674  1.00  0.00     0.025 C 
ATOM     35  C   UNL A   1      43.328  35.313  26.680  1.00  0.00     0.002 C 
ATOM     36  C   UNL A   1      43.371  34.548  28.011  1.00  0.00     0.002 C 
ENDBRANCH  30  32
ENDBRANCH  21  28
ENDBRANCH  17  19
ENDBRANCH  14  15
ENDBRANCH   4   7
ENDBRANCH   2   3
ENDBRANCH   1   2
BRANCH   1  37
ATOM     37  C   UNL A   1      41.808  29.141  34.144  1.00  0.00     0.002 C 
BRANCH  37  38
ATOM     38  C   UNL A   1      41.583  27.425  34.137  1.00  0.00     0.002 C 
BRANCH  38  39
ATOM     39  C   UNL A   1      41.027  25.848  35.474  1.00  0.00     0.021 C 
BRANCH  39  40
ATOM     40  C   UNL A   1      41.814  24.545  36.407  1.00  0.00     0.116 C 
BRANCH  40  41
ATOM     41  N   UNL A   1      42.870  24.746  37.429  1.00  0.00    -0.352 N 
ATOM     42  C   UNL A   1      44.225  24.847  37.321  1.00  0.00     0.251 C 
ATOM     43  H   UNL A   1      42.531  24.819  38.351  1.00  0.00     0.163 HD
ATOM     44  O   UNL A   1      44.936  24.822  38.318  1.00  0.00    -0.269 OA
BRANCH  42  45
ATOM     45  C   UNL A   1      44.811  25.059  36.007  1.00  0.00     0.039 A 
ATOM     46  C   UNL A   1      45.445  24.001  35.362  1.00  0.00     0.014 A 
ATOM     47  C   UNL A   1      44.738  26.337  35.450  1.00  0.00     0.014 A 
ATOM     48  C   UNL A   1      45.953  24.215  34.090  1.00  0.00     0.010 A 
ATOM     49  C   UNL A   1      45.187  26.531  34.161  1.00  0.00     0.010 A 
ATOM     50  C   UNL A   1      45.786  25.468  33.476  1.00  0.00    -0.014 A 
BRANCH  50  51
ATOM     51  C   UNL A   1      46.196  25.663  32.078  1.00  0.00     0.031 A 
ATOM     52  C   UNL A   1      45.371  25.087  30.974  1.00  0.00     0.074 A 
ATOM     53  C   UNL A   1      47.346  26.319  31.848  1.00  0.00     0.049 A 
ATOM     54  N   UNL A   1      45.560  25.160  29.685  1.00  0.00    -0.248 NA
ATOM     55  C   UNL A   1      44.190  24.301  31.369  1.00  0.00     0.031 C 
ATOM     56  C   UNL A   1      48.237  26.845  32.888  1.00  0.00     0.029 A 
ATOM     57  N   UNL A   1      47.961  26.662  30.677  1.00  0.00    -0.354 N 
ATOM     58  C   UNL A   1      44.524  24.433  29.117  1.00  0.00     0.074 A 
ATOM     59  C   UNL A   1      43.751  23.867  30.198  1.00  0.00     0.031 C 
ATOM     60  C   UNL A   1      49.261  27.485  32.305  1.00  0.00     0.029 A 
ATOM     61  C   UNL A   1      49.119  27.377  30.859  1.00  0.00     0.049 A 
ATOM     62  H   UNL A   1      47.610  26.420  29.790  1.00  0.00     0.167 HD
ATOM     63  C   UNL A   1      44.239  24.285  27.803  1.00  0.00     0.037 A 
ATOM     64  C   UNL A   1      49.964  27.886  29.946  1.00  0.00     0.037 A 
ATOM     65  C   UNL A   1      45.036  24.865  26.755  1.00  0.00     0.049 A 
ATOM     66  C   UNL A   1      49.625  27.696  28.494  1.00  0.00     0.074 A 
ATOM     67  C   UNL A   1      44.830  24.825  25.389  1.00  0.00     0.029 A 
ATOM     68  N   UNL A   1      46.205  25.587  26.965  1.00  0.00    -0.354 N 
ATOM     69  N   UNL A   1      48.596  27.082  27.957  1.00  0.00    -0.248 NA
ATOM     70  C   UNL A   1      50.555  28.276  27.520  1.00  0.00     0.031 C 
ATOM     71  C   UNL A   1      45.908  25.469  24.771  1.00  0.00     0.029 A 
ATOM     72  C   UNL A   1      46.749  25.972  25.752  1.00  0.00     0.049 A 
ATOM     73  H   UNL A   1      46.590  25.793  27.848  1.00  0.00     0.167 HD
ATOM     74  C   UNL A   1      48.740  27.222  26.585  1.00  0.00     0.074 A 
ATOM     75  C   UNL A   1      49.946  28.001  26.376  1.00  0.00     0.031 C 
ATOM     76  C   UNL A   1      47.954  26.749  25.586  1.00  0.00     0.037 A 
BRANCH  63  77
ATOM     77  C   UNL A   1      43.035  23.464  27.443  1.00  0.00     0.064 A 
ATOM     78  C   UNL A   1      43.154  22.195  26.851  1.00  0.00     0.173 A 
ATOM     79  C   UNL A   1      41.742  23.947  27.695  1.00  0.00     0.173 A 
ATOM     80  F   UNL A   1      44.366  21.692  26.570  1.00  0.00    -0.203 F 
ATOM     81  C   UNL A   1      42.027  21.460  26.494  1.00  0.00     0.198 A 
ATOM     82  C   UNL A   1      40.618  23.193  27.370  1.00  0.00     0.198 A 
ATOM     83  F   UNL A   1      41.568  25.153  28.256  1.00  0.00    -0.203 F 
ATOM     84  F   UNL A   1      42.168  20.281  25.872  1.00  0.00    -0.200 F 
ATOM     85  C   UNL A   1      40.760  21.955  26.760  1.00  0.00     0.200 A 
ATOM     86  F   UNL A   1      39.394  23.669  27.638  1.00  0.00    -0.200 F 
ATOM     87  F   UNL A   1      39.676  21.245  26.420  1.00  0.00    -0.200 F 
ENDBRANCH  63  77
BRANCH  64  88
ATOM     88  C   UNL A   1      51.167  28.639  30.381  1.00  0.00     0.064 A 
ATOM     89  C   UNL A   1      52.388  27.986  30.603  1.00  0.00     0.173 A 
ATOM     90  C   UNL A   1      51.130  30.030  30.571  1.00  0.00     0.173 A 
ATOM     91  F   UNL A   1      52.475  26.658  30.440  1.00  0.00    -0.203 F 
ATOM     92  C   UNL A   1      53.515  28.689  31.027  1.00  0.00     0.198 A 
ATOM     93  C   UNL A   1      52.266  30.735  30.962  1.00  0.00     0.198 A 
ATOM     94  F   UNL A   1      49.994  30.707  30.356  1.00  0.00    -0.203 F 
ATOM     95  F   UNL A   1      54.655  28.031  31.277  1.00  0.00    -0.200 F 
ATOM     96  C   UNL A   1      53.454  30.063  31.200  1.00  0.00     0.200 A 
ATOM     97  F   UNL A   1      52.209  32.066  31.105  1.00  0.00    -0.200 F 
ATOM     98  F   UNL A   1      54.540  30.738  31.601  1.00  0.00    -0.200 F 
ENDBRANCH  64  88
BRANCH  76  99
ATOM     99  C   UNL A   1      48.362  27.093  24.183  1.00  0.00     0.064 A 
ATOM    100  C   UNL A   1      49.581  26.656  23.642  1.00  0.00     0.173 A 
ATOM    101  C   UNL A   1      47.503  27.835  23.359  1.00  0.00     0.173 A 
ATOM    102  F   UNL A   1      50.442  25.956  24.395  1.00  0.00    -0.203 F 
ATOM    103  C   UNL A   1      49.937  26.980  22.337  1.00  0.00     0.198 A 
ATOM    104  C   UNL A   1      47.846  28.122  22.043  1.00  0.00     0.198 A 
ATOM    105  F   UNL A   1      46.323  28.269  23.828  1.00  0.00    -0.203 F 
ATOM    106  F   UNL A   1      51.132  26.604  21.859  1.00  0.00    -0.200 F 
ATOM    107  C   UNL A   1      49.066  27.703  21.536  1.00  0.00     0.200 A 
ATOM    108  F   UNL A   1      46.994  28.804  21.265  1.00  0.00    -0.200 F 
ATOM    109  F   UNL A   1      49.408  28.005  20.276  1.00  0.00    -0.200 F 
ENDBRANCH  76  99
ENDBRANCH  50  51
ENDBRANCH  42  45
ENDBRANCH  40  41
ENDBRANCH  39  40
ENDBRANCH  38  39
ENDBRANCH  37  38
ENDBRANCH   1  37
TORSDOF 17
ENDMDL
MODEL 3
REMARK VINA RESULT:      -9.6      5.296     10.947
REMARK SMILES CC1=C(C)C[C@H](C(=O)Nc2sc3c(c2C(=O)NC2CCCC2)CCCC3)[C@@H](C(=O)NCCCCCCNC(=O)c2ccc(-c3c4nc(c(-c5c(F)c(F)c(F)c(F)c5F)c5ccc([nH]5)c(-c5c(F)c(F)c(F)c(F)c5F)c5nc(c(-c6c(F)c(F)c(F)c(F)c6F)c6ccc3[nH]6)C=C5)C=C4)cc2)C1
REMARK SMILES IDX 32 1 31 2 30 3 28 4 29 5 27 7 1 8 2 9 3 10 103 11 4 12 5 13
REMARK SMILES IDX 6 14 7 15 8 16 9 17 10 19 11 20 14 21 12 22 13 23 26 24
REMARK SMILES IDX 23 25 25 26 24 27 15 28 16 29 17 30 18 32 19 33 22 34 20 35
REMARK SMILES IDX 21 36 33 37 34 38 35 39 36 40 37 41 38 42 39 44 40 45 41 46
REMARK SMILES IDX 102 47 42 48 101 49 43 50 44 51 45 52 95 53 46 54 100 55
REMARK SMILES IDX 94 56 96 57 47 58 99 59 93 60 92 61 48 63 80 64 60 65 79 66
REMARK SMILES IDX 61 67 64 68 78 69 97 70 62 71 63 72 77 74 98 75 65 76 49 77
REMARK SMILES IDX 50 78 58 79 51 80 52 81 56 82 59 83 53 84 54 85 57 86 55 87
REMARK SMILES IDX 81 88 82 89 90 90 83 91 84 92 88 93 91 94 85 95 86 96 89 97
REMARK SMILES IDX 87 98 66 99 67 100 75 101 68 102 69 103 73 104 76 105 70 106
REMARK SMILES IDX 71 107 74 108 72 109
REMARK H PARENT 30 6 9 18 17 31 37 43 96 62 64 73
REMARK Flexibility Score: inf
ROOT
ATOM      1  C   UNL A   1      45.919  28.031  26.810  1.00  0.00     0.021 C 
ENDROOT
BRANCH   1   2
ATOM      2  C   UNL A   1      45.181  27.292  25.724  1.00  0.00     0.116 C 
BRANCH   2   3
ATOM      3  N   UNL A   1      44.092  27.916  25.035  1.00  0.00    -0.356 N 
ATOM      4  C   UNL A   1      42.797  27.931  25.523  1.00  0.00     0.224 C 
ATOM      5  O   UNL A   1      41.931  28.511  24.873  1.00  0.00    -0.275 OA
ATOM      6  H   UNL A   1      44.272  28.355  24.173  1.00  0.00     0.163 HD
BRANCH   4   7
ATOM      7  C   UNL A   1      42.531  27.239  26.885  1.00  0.00     0.095 C 
ATOM      8  C   UNL A   1      41.405  30.243  29.057  1.00  0.00     0.039 C 
ATOM      9  C   UNL A   1      41.225  28.956  28.291  1.00  0.00    -0.074 C 
ATOM     10  C   UNL A   1      40.064  28.462  27.819  1.00  0.00    -0.074 C 
ATOM     11  C   UNL A   1      42.520  28.231  28.052  1.00  0.00     0.045 C 
ATOM     12  C   UNL A   1      38.727  29.156  27.942  1.00  0.00     0.039 C 
ATOM     13  C   UNL A   1      39.994  27.143  27.064  1.00  0.00     0.045 C 
ATOM     14  C   UNL A   1      41.306  26.321  26.837  1.00  0.00     0.095 C 
BRANCH  14  15
ATOM     15  C   UNL A   1      41.330  24.930  27.585  1.00  0.00     0.229 C 
ATOM     16  O   UNL A   1      40.305  24.547  28.166  1.00  0.00    -0.274 OA
ATOM     17  N   UNL A   1      42.275  23.944  27.337  1.00  0.00    -0.317 N 
ATOM     18  H   UNL A   1      41.878  23.059  27.168  1.00  0.00     0.170 HD
BRANCH  17  19
ATOM     19  C   UNL A   1      43.671  23.941  27.276  1.00  0.00     0.108 A 
ATOM     20  S   UNL A   1      44.482  24.099  28.772  1.00  0.00    -0.122 S 
ATOM     21  C   UNL A   1      44.508  23.590  26.169  1.00  0.00     0.078 A 
ATOM     22  C   UNL A   1      45.919  24.539  27.999  1.00  0.00     0.011 A 
ATOM     23  C   UNL A   1      45.885  24.155  26.441  1.00  0.00    -0.019 A 
ATOM     24  C   UNL A   1      47.295  25.409  28.953  1.00  0.00     0.047 C 
ATOM     25  C   UNL A   1      47.398  24.537  25.297  1.00  0.00     0.037 C 
ATOM     26  C   UNL A   1      48.847  26.032  27.976  1.00  0.00     0.006 C 
ATOM     27  C   UNL A   1      48.935  25.583  26.060  1.00  0.00     0.005 C 
BRANCH  21  28
ATOM     28  C   UNL A   1      43.810  22.926  25.011  1.00  0.00     0.254 C 
ATOM     29  O   UNL A   1      43.017  23.584  24.325  1.00  0.00    -0.269 OA
ATOM     30  N   UNL A   1      43.953  21.624  24.580  1.00  0.00    -0.349 N 
ATOM     31  H   UNL A   1      43.453  21.398  23.762  1.00  0.00     0.164 HD
BRANCH  30  32
ATOM     32  C   UNL A   1      44.711  20.559  25.133  1.00  0.00     0.082 C 
ATOM     33  C   UNL A   1      44.181  19.155  24.911  1.00  0.00     0.025 C 
ATOM     34  C   UNL A   1      46.179  20.433  24.768  1.00  0.00     0.025 C 
ATOM     35  C   UNL A   1      45.283  18.281  25.515  1.00  0.00     0.002 C 
ATOM     36  C   UNL A   1      46.570  19.116  25.448  1.00  0.00     0.002 C 
ENDBRANCH  30  32
ENDBRANCH  21  28
ENDBRANCH  17  19
ENDBRANCH  14  15
ENDBRANCH   4   7
ENDBRANCH   2   3
ENDBRANCH   1   2
BRANCH   1  37
ATOM     37  C   UNL A   1      46.906  29.083  26.300  1.00  0.00     0.002 C 
BRANCH  37  38
ATOM     38  C   UNL A   1      46.533  30.771  26.216  1.00  0.00     0.002 C 
BRANCH  38  39
ATOM     39  C   UNL A   1      47.377  32.658  26.773  1.00  0.00     0.021 C 
BRANCH  39  40
ATOM     40  C   UNL A   1      46.829  34.235  27.403  1.00  0.00     0.116 C 
BRANCH  40  41
ATOM     41  N   UNL A   1      45.467  34.524  27.914  1.00  0.00    -0.352 N 
ATOM     42  C   UNL A   1      44.609  33.781  28.669  1.00  0.00     0.251 C 
ATOM     43  H   UNL A   1      45.120  35.411  27.662  1.00  0.00     0.163 HD
ATOM     44  O   UNL A   1      43.446  34.133  28.824  1.00  0.00    -0.269 OA
BRANCH  42  45
ATOM     45  C   UNL A   1      45.115  32.600  29.350  1.00  0.00     0.039 A 
ATOM     46  C   UNL A   1      44.670  31.341  28.958  1.00  0.00     0.014 A 
ATOM     47  C   UNL A   1      46.015  32.779  30.401  1.00  0.00     0.014 A 
ATOM     48  C   UNL A   1      45.202  30.228  29.590  1.00  0.00     0.010 A 
ATOM     49  C   UNL A   1      46.592  31.671  30.985  1.00  0.00     0.010 A 
ATOM     50  C   UNL A   1      46.193  30.393  30.573  1.00  0.00    -0.014 A 
BRANCH  50  51
ATOM     51  C   UNL A   1      46.863  29.218  31.148  1.00  0.00     0.031 A 
ATOM     52  C   UNL A   1      48.253  28.873  30.722  1.00  0.00     0.074 A 
ATOM     53  C   UNL A   1      46.166  28.460  32.010  1.00  0.00     0.049 A 
ATOM     54  N   UNL A   1      49.012  27.889  31.120  1.00  0.00    -0.248 NA
ATOM     55  C   UNL A   1      48.863  29.730  29.692  1.00  0.00     0.031 C 
ATOM     56  C   UNL A   1      44.776  28.703  32.413  1.00  0.00     0.029 A 
ATOM     57  N   UNL A   1      46.523  27.339  32.706  1.00  0.00    -0.354 N 
ATOM     58  C   UNL A   1      50.186  28.009  30.393  1.00  0.00     0.074 A 
ATOM     59  C   UNL A   1      50.016  29.114  29.479  1.00  0.00     0.031 C 
ATOM     60  C   UNL A   1      44.416  27.786  33.322  1.00  0.00     0.029 A 
ATOM     61  C   UNL A   1      45.531  26.870  33.531  1.00  0.00     0.049 A 
ATOM     62  H   UNL A   1      47.405  26.910  32.625  1.00  0.00     0.167 HD
ATOM     63  C   UNL A   1      51.313  27.270  30.510  1.00  0.00     0.037 A 
ATOM     64  C   UNL A   1      45.536  25.815  34.363  1.00  0.00     0.037 A 
ATOM     65  C   UNL A   1      51.443  26.175  31.434  1.00  0.00     0.049 A 
ATOM     66  C   UNL A   1      46.800  25.007  34.464  1.00  0.00     0.074 A 
ATOM     67  C   UNL A   1      52.543  25.377  31.681  1.00  0.00     0.029 A 
ATOM     68  N   UNL A   1      50.422  25.720  32.260  1.00  0.00    -0.354 N 
ATOM     69  N   UNL A   1      47.941  25.175  33.839  1.00  0.00    -0.248 NA
ATOM     70  C   UNL A   1      46.782  23.871  35.391  1.00  0.00     0.031 C 
ATOM     71  C   UNL A   1      52.169  24.399  32.609  1.00  0.00     0.029 A 
ATOM     72  C   UNL A   1      50.857  24.631  32.997  1.00  0.00     0.049 A 
ATOM     73  H   UNL A   1      49.521  26.114  32.314  1.00  0.00     0.167 HD
ATOM     74  C   UNL A   1      48.787  24.183  34.313  1.00  0.00     0.074 A 
ATOM     75  C   UNL A   1      48.029  23.434  35.297  1.00  0.00     0.031 C 
ATOM     76  C   UNL A   1      50.070  23.911  33.969  1.00  0.00     0.037 A 
BRANCH  63  77
ATOM     77  C   UNL A   1      52.468  27.621  29.619  1.00  0.00     0.064 A 
ATOM     78  C   UNL A   1      53.325  28.697  29.907  1.00  0.00     0.173 A 
ATOM     79  C   UNL A   1      52.730  26.871  28.463  1.00  0.00     0.173 A 
ATOM     80  F   UNL A   1      53.111  29.460  30.990  1.00  0.00    -0.203 F 
ATOM     81  C   UNL A   1      54.374  29.029  29.054  1.00  0.00     0.198 A 
ATOM     82  C   UNL A   1      53.802  27.184  27.630  1.00  0.00     0.198 A 
ATOM     83  F   UNL A   1      51.943  25.835  28.136  1.00  0.00    -0.203 F 
ATOM     84  F   UNL A   1      55.137  30.100  29.317  1.00  0.00    -0.200 F 
ATOM     85  C   UNL A   1      54.616  28.269  27.920  1.00  0.00     0.200 A 
ATOM     86  F   UNL A   1      54.041  26.441  26.541  1.00  0.00    -0.200 F 
ATOM     87  F   UNL A   1      55.628  28.587  27.101  1.00  0.00    -0.200 F 
ENDBRANCH  63  77
BRANCH  64  88
ATOM     88  C   UNL A   1      44.332  25.497  35.172  1.00  0.00     0.064 A 
ATOM     89  C   UNL A   1      43.387  24.562  34.727  1.00  0.00     0.173 A 
ATOM     90  C   UNL A   1      44.105  26.109  36.415  1.00  0.00     0.173 A 
ATOM     91  F   UNL A   1      43.555  23.953  33.544  1.00  0.00    -0.203 F 
ATOM     92  C   UNL A   1      42.249  24.274  35.478  1.00  0.00     0.198 A 
ATOM     93  C   UNL A   1      42.984  25.795  37.180  1.00  0.00     0.198 A 
ATOM     94  F   UNL A   1      44.986  26.997  36.897  1.00  0.00    -0.203 F 
ATOM     95  F   UNL A   1      41.339  23.411  35.005  1.00  0.00    -0.200 F 
ATOM     96  C   UNL A   1      42.051  24.886  36.706  1.00  0.00     0.200 A 
ATOM     97  F   UNL A   1      42.809  26.372  38.377  1.00  0.00    -0.200 F 
ATOM     98  F   UNL A   1      40.960  24.604  37.430  1.00  0.00    -0.200 F 
ENDBRANCH  64  88
BRANCH  76  99
ATOM     99  C   UNL A   1      50.737  22.775  34.687  1.00  0.00     0.064 A 
ATOM    100  C   UNL A   1      50.566  21.443  34.279  1.00  0.00     0.173 A 
ATOM    101  C   UNL A   1      51.589  23.028  35.772  1.00  0.00     0.173 A 
ATOM    102  F   UNL A   1      49.751  21.149  33.256  1.00  0.00    -0.203 F 
ATOM    103  C   UNL A   1      51.199  20.404  34.955  1.00  0.00     0.198 A 
ATOM    104  C   UNL A   1      52.251  21.990  36.419  1.00  0.00     0.198 A 
ATOM    105  F   UNL A   1      51.792  24.285  36.195  1.00  0.00    -0.203 F 
ATOM    106  F   UNL A   1      50.975  19.135  34.587  1.00  0.00    -0.200 F 
ATOM    107  C   UNL A   1      52.048  20.679  36.017  1.00  0.00     0.200 A 
ATOM    108  F   UNL A   1      53.086  22.260  37.432  1.00  0.00    -0.200 F 
ATOM    109  F   UNL A   1      52.664  19.678  36.659  1.00  0.00    -0.200 F 
ENDBRANCH  76  99
ENDBRANCH  50  51
ENDBRANCH  42  45
ENDBRANCH  40  41
ENDBRANCH  39  40
ENDBRANCH  38  39
ENDBRANCH  37  38
ENDBRANCH   1  37
TORSDOF 17
ENDMDL
