MODEL 1
REMARK VINA RESULT:     -13.0      0.000      0.000
REMARK SMILES O=C(NCCCCCCNC(=O)c1cccc(S(=O)(=O)Nc2ccccc2N2CCOCC2)c1)c1ccc(-c2c3nc(c(-c4c(F)c(F)c(F)c(F)c4F)c4ccc([nH]4)c(-c4c(F)c(F)c(F)c(F)c4F)c4nc(c(-c5c(F)c(F)c(F)c(F)c5F)c5ccc2[nH]5)C=C4)C=C3)cc1
REMARK SMILES IDX 7 1 6 2 5 3 4 4 3 5 1 6 2 7 35 9 36 10 97 11 37 12 96 13
REMARK SMILES IDX 38 14 39 15 40 16 90 17 41 18 95 19 89 20 91 21 42 22 94 23
REMARK SMILES IDX 88 24 87 25 43 27 75 28 55 29 74 30 56 31 59 32 73 33 92 34
REMARK SMILES IDX 57 35 58 36 72 38 93 39 60 40 44 41 45 42 53 43 46 44 47 45
REMARK SMILES IDX 51 46 54 47 48 48 49 49 52 50 50 51 76 52 77 53 85 54 78 55
REMARK SMILES IDX 79 56 83 57 86 58 80 59 81 60 84 61 82 62 61 63 62 64 70 65
REMARK SMILES IDX 63 66 64 67 68 68 71 69 65 70 66 71 69 72 67 73 8 74 9 75
REMARK SMILES IDX 10 76 11 77 12 79 13 80 14 81 34 82 15 83 17 84 16 85 18 86
REMARK SMILES IDX 19 87 20 88 21 89 22 91 23 92 27 93 24 94 26 95 25 96 28 97
REMARK SMILES IDX 29 98 33 99 30 100 32 101 31 102
REMARK H PARENT 3 8 91 26 59 37 10 78 21 90
REMARK Flexibility Score: inf
ROOT
ATOM      1  C   UNL A   1      32.110  29.549  27.136  1.00  0.00     0.002 C 
ENDROOT
BRANCH   1   2
ATOM      2  C   UNL A   1      31.648  30.579  26.102  1.00  0.00     0.002 C 
BRANCH   2   3
ATOM      3  C   UNL A   1      31.378  31.998  26.602  1.00  0.00     0.021 C 
BRANCH   3   4
ATOM      4  C   UNL A   1      32.549  32.731  27.243  1.00  0.00     0.116 C 
BRANCH   4   5
ATOM      5  N   UNL A   1      32.260  34.100  27.623  1.00  0.00    -0.352 N 
ATOM      6  O   UNL A   1      32.519  36.036  28.756  1.00  0.00    -0.269 OA
ATOM      7  C   UNL A   1      32.931  34.907  28.512  1.00  0.00     0.251 C 
ATOM      8  H   UNL A   1      31.478  34.507  27.185  1.00  0.00     0.163 HD
BRANCH   7   9
ATOM      9  C   UNL A   1      34.125  34.390  29.220  1.00  0.00     0.039 A 
ATOM     10  C   UNL A   1      35.413  34.594  28.719  1.00  0.00     0.014 A 
ATOM     11  C   UNL A   1      33.943  33.663  30.400  1.00  0.00     0.014 A 
ATOM     12  C   UNL A   1      36.493  33.940  29.303  1.00  0.00     0.010 A 
ATOM     13  C   UNL A   1      35.041  33.074  31.034  1.00  0.00     0.010 A 
ATOM     14  C   UNL A   1      36.320  33.170  30.465  1.00  0.00    -0.014 A 
BRANCH  14  15
ATOM     15  C   UNL A   1      37.493  32.491  31.076  1.00  0.00     0.031 A 
ATOM     16  C   UNL A   1      37.946  32.832  32.470  1.00  0.00     0.074 A 
ATOM     17  C   UNL A   1      38.132  31.536  30.375  1.00  0.00     0.049 A 
ATOM     18  N   UNL A   1      38.929  32.318  33.167  1.00  0.00    -0.248 NA
ATOM     19  C   UNL A   1      37.210  33.895  33.170  1.00  0.00     0.031 C 
ATOM     20  C   UNL A   1      37.795  31.127  29.010  1.00  0.00     0.029 A 
ATOM     21  N   UNL A   1      39.182  30.722  30.717  1.00  0.00    -0.354 N 
ATOM     22  C   UNL A   1      38.947  33.010  34.372  1.00  0.00     0.074 A 
ATOM     23  C   UNL A   1      37.890  33.995  34.305  1.00  0.00     0.031 C 
ATOM     24  C   UNL A   1      38.586  30.106  28.650  1.00  0.00     0.029 A 
ATOM     25  C   UNL A   1      39.517  29.822  29.736  1.00  0.00     0.049 A 
ATOM     26  H   UNL A   1      39.649  30.778  31.582  1.00  0.00     0.167 HD
ATOM     27  C   UNL A   1      39.765  32.833  35.438  1.00  0.00     0.037 A 
ATOM     28  C   UNL A   1      40.472  28.874  29.712  1.00  0.00     0.037 A 
ATOM     29  C   UNL A   1      40.795  31.827  35.515  1.00  0.00     0.049 A 
ATOM     30  C   UNL A   1      41.356  28.692  30.912  1.00  0.00     0.074 A 
ATOM     31  C   UNL A   1      41.644  31.541  36.570  1.00  0.00     0.029 A 
ATOM     32  N   UNL A   1      41.112  30.941  34.497  1.00  0.00    -0.354 N 
ATOM     33  N   UNL A   1      41.338  29.330  32.057  1.00  0.00    -0.248 NA
ATOM     34  C   UNL A   1      42.394  27.657  30.816  1.00  0.00     0.031 C 
ATOM     35  C   UNL A   1      42.502  30.507  36.176  1.00  0.00     0.029 A 
ATOM     36  C   UNL A   1      42.156  30.120  34.891  1.00  0.00     0.049 A 
ATOM     37  H   UNL A   1      40.661  30.902  33.622  1.00  0.00     0.167 HD
ATOM     38  C   UNL A   1      42.342  28.760  32.825  1.00  0.00     0.074 A 
ATOM     39  C   UNL A   1      42.940  27.714  32.022  1.00  0.00     0.031 C 
ATOM     40  C   UNL A   1      42.733  29.077  34.083  1.00  0.00     0.037 A 
BRANCH  27  41
ATOM     41  C   UNL A   1      39.595  33.758  36.608  1.00  0.00     0.064 A 
ATOM     42  C   UNL A   1      38.805  33.414  37.714  1.00  0.00     0.173 A 
ATOM     43  C   UNL A   1      40.271  34.988  36.641  1.00  0.00     0.173 A 
ATOM     44  F   UNL A   1      38.128  32.256  37.727  1.00  0.00    -0.203 F 
ATOM     45  C   UNL A   1      38.677  34.279  38.800  1.00  0.00     0.198 A 
ATOM     46  C   UNL A   1      40.162  35.837  37.740  1.00  0.00     0.198 A 
ATOM     47  F   UNL A   1      41.047  35.362  35.612  1.00  0.00    -0.203 F 
ATOM     48  F   UNL A   1      37.883  33.949  39.828  1.00  0.00    -0.200 F 
ATOM     49  C   UNL A   1      39.361  35.485  38.815  1.00  0.00     0.200 A 
ATOM     50  F   UNL A   1      40.833  36.998  37.756  1.00  0.00    -0.200 F 
ATOM     51  F   UNL A   1      39.242  36.313  39.863  1.00  0.00    -0.200 F 
ENDBRANCH  27  41
BRANCH  28  52
ATOM     52  C   UNL A   1      40.618  28.007  28.515  1.00  0.00     0.064 A 
ATOM     53  C   UNL A   1      39.975  26.764  28.447  1.00  0.00     0.173 A 
ATOM     54  C   UNL A   1      41.385  28.410  27.412  1.00  0.00     0.173 A 
ATOM     55  F   UNL A   1      39.245  26.329  29.484  1.00  0.00    -0.203 F 
ATOM     56  C   UNL A   1      40.103  25.949  27.325  1.00  0.00     0.198 A 
ATOM     57  C   UNL A   1      41.491  27.607  26.280  1.00  0.00     0.198 A 
ATOM     58  F   UNL A   1      42.014  29.593  27.429  1.00  0.00    -0.203 F 
ATOM     59  F   UNL A   1      39.508  24.749  27.298  1.00  0.00    -0.200 F 
ATOM     60  C   UNL A   1      40.856  26.375  26.239  1.00  0.00     0.200 A 
ATOM     61  F   UNL A   1      42.205  28.027  25.228  1.00  0.00    -0.200 F 
ATOM     62  F   UNL A   1      40.972  25.594  25.156  1.00  0.00    -0.200 F 
ENDBRANCH  28  52
BRANCH  40  63
ATOM     63  C   UNL A   1      43.836  28.253  34.681  1.00  0.00     0.064 A 
ATOM     64  C   UNL A   1      45.176  28.659  34.612  1.00  0.00     0.173 A 
ATOM     65  C   UNL A   1      43.544  27.052  35.344  1.00  0.00     0.173 A 
ATOM     66  F   UNL A   1      45.507  29.791  33.973  1.00  0.00    -0.203 F 
ATOM     67  C   UNL A   1      46.188  27.877  35.162  1.00  0.00     0.198 A 
ATOM     68  C   UNL A   1      44.555  26.287  35.916  1.00  0.00     0.198 A 
ATOM     69  F   UNL A   1      42.276  26.624  35.440  1.00  0.00    -0.203 F 
ATOM     70  F   UNL A   1      47.467  28.258  35.042  1.00  0.00    -0.200 F 
ATOM     71  C   UNL A   1      45.877  26.695  35.817  1.00  0.00     0.200 A 
ATOM     72  F   UNL A   1      44.251  25.149  36.557  1.00  0.00    -0.200 F 
ATOM     73  F   UNL A   1      46.852  25.943  36.346  1.00  0.00    -0.200 F 
ENDBRANCH  40  63
ENDBRANCH  14  15
ENDBRANCH   7   9
ENDBRANCH   4   5
ENDBRANCH   3   4
ENDBRANCH   2   3
ENDBRANCH   1   2
BRANCH   1  74
ATOM     74  C   UNL A   1      33.590  29.159  27.124  1.00  0.00     0.021 C 
BRANCH  74  75
ATOM     75  C   UNL A   1      33.999  28.141  26.073  1.00  0.00     0.116 C 
BRANCH  75  76
ATOM     76  N   UNL A   1      34.361  28.746  24.807  1.00  0.00    -0.352 N 
ATOM     77  C   UNL A   1      34.012  28.364  23.534  1.00  0.00     0.251 C 
ATOM     78  H   UNL A   1      34.936  29.543  24.867  1.00  0.00     0.163 HD
ATOM     79  O   UNL A   1      34.507  28.938  22.568  1.00  0.00    -0.269 OA
BRANCH  77  80
ATOM     80  C   UNL A   1      33.019  27.285  23.299  1.00  0.00     0.041 A 
ATOM     81  C   UNL A   1      31.667  27.526  23.566  1.00  0.00     0.014 A 
ATOM     82  C   UNL A   1      33.426  26.000  22.945  1.00  0.00     0.036 A 
ATOM     83  C   UNL A   1      30.734  26.489  23.457  1.00  0.00     0.002 A 
ATOM     84  C   UNL A   1      32.507  24.956  22.875  1.00  0.00     0.088 A 
ATOM     85  C   UNL A   1      31.152  25.199  23.114  1.00  0.00     0.022 A 
BRANCH  84  86
ATOM     86  S   UNL A   1      33.083  23.345  22.385  1.00  0.00     0.261 S 
ATOM     87  O   UNL A   1      33.219  23.369  20.941  1.00  0.00    -0.201 OA
ATOM     88  O   UNL A   1      34.208  23.026  23.238  1.00  0.00    -0.201 OA
BRANCH  86  89
ATOM     89  N   UNL A   1      31.812  22.273  22.692  1.00  0.00    -0.278 N 
ATOM     90  H   UNL A   1      30.898  22.494  22.399  1.00  0.00     0.180 HD
BRANCH  89  91
ATOM     91  C   UNL A   1      32.066  21.038  23.381  1.00  0.00     0.072 A 
ATOM     92  C   UNL A   1      32.360  19.890  22.637  1.00  0.00     0.029 A 
ATOM     93  C   UNL A   1      32.151  21.037  24.797  1.00  0.00     0.061 A 
ATOM     94  C   UNL A   1      32.747  18.719  23.285  1.00  0.00     0.002 A 
ATOM     95  C   UNL A   1      32.557  19.846  25.419  1.00  0.00     0.028 A 
ATOM     96  C   UNL A   1      32.851  18.699  24.674  1.00  0.00     0.002 A 
BRANCH  93  97
ATOM     97  N   UNL A   1      31.913  22.201  25.523  1.00  0.00    -0.365 N 
ATOM     98  C   UNL A   1      30.599  22.366  26.172  1.00  0.00     0.145 C 
ATOM     99  C   UNL A   1      33.002  22.829  26.299  1.00  0.00     0.145 C 
ATOM    100  C   UNL A   1      30.344  23.872  26.351  1.00  0.00     0.181 C 
ATOM    101  C   UNL A   1      32.665  24.313  26.522  1.00  0.00     0.181 C 
ATOM    102  O   UNL A   1      31.377  24.481  27.145  1.00  0.00    -0.378 OA
ENDBRANCH  93  97
ENDBRANCH  89  91
ENDBRANCH  86  89
ENDBRANCH  84  86
ENDBRANCH  77  80
ENDBRANCH  75  76
ENDBRANCH  74  75
ENDBRANCH   1  74
TORSDOF 17
ENDMDL
MODEL 2
REMARK VINA RESULT:     -12.6      5.247     10.878
REMARK SMILES O=C(NCCCCCCNC(=O)c1cccc(S(=O)(=O)Nc2ccccc2N2CCOCC2)c1)c1ccc(-c2c3nc(c(-c4c(F)c(F)c(F)c(F)c4F)c4ccc([nH]4)c(-c4c(F)c(F)c(F)c(F)c4F)c4nc(c(-c5c(F)c(F)c(F)c(F)c5F)c5ccc2[nH]5)C=C4)C=C3)cc1
REMARK SMILES IDX 7 1 6 2 5 3 4 4 3 5 1 6 2 7 35 9 36 10 97 11 37 12 96 13
REMARK SMILES IDX 38 14 39 15 40 16 90 17 41 18 95 19 89 20 91 21 42 22 94 23
REMARK SMILES IDX 88 24 87 25 43 27 75 28 55 29 74 30 56 31 59 32 73 33 92 34
REMARK SMILES IDX 57 35 58 36 72 38 93 39 60 40 44 41 45 42 53 43 46 44 47 45
REMARK SMILES IDX 51 46 54 47 48 48 49 49 52 50 50 51 76 52 77 53 85 54 78 55
REMARK SMILES IDX 79 56 83 57 86 58 80 59 81 60 84 61 82 62 61 63 62 64 70 65
REMARK SMILES IDX 63 66 64 67 68 68 71 69 65 70 66 71 69 72 67 73 8 74 9 75
REMARK SMILES IDX 10 76 11 77 12 79 13 80 14 81 34 82 15 83 17 84 16 85 18 86
REMARK SMILES IDX 19 87 20 88 21 89 22 91 23 92 27 93 24 94 26 95 25 96 28 97
REMARK SMILES IDX 29 98 33 99 30 100 32 101 31 102
REMARK H PARENT 3 8 91 26 59 37 10 78 21 90
REMARK Flexibility Score: inf
ROOT
ATOM      1  C   UNL A   1      37.132  21.884  24.092  1.00  0.00     0.002 C 
ENDROOT
BRANCH   1   2
ATOM      2  C   UNL A   1      36.975  20.682  25.027  1.00  0.00     0.002 C 
BRANCH   2   3
ATOM      3  C   UNL A   1      38.102  19.650  25.033  1.00  0.00     0.021 C 
BRANCH   3   4
ATOM      4  C   UNL A   1      39.352  20.008  25.826  1.00  0.00     0.116 C 
BRANCH   4   5
ATOM      5  N   UNL A   1      40.384  18.990  25.804  1.00  0.00    -0.352 N 
ATOM      6  O   UNL A   1      42.479  18.157  25.943  1.00  0.00    -0.269 OA
ATOM      7  C   UNL A   1      41.730  19.123  26.053  1.00  0.00     0.251 C 
ATOM      8  H   UNL A   1      40.080  18.080  25.581  1.00  0.00     0.163 HD
BRANCH   7   9
ATOM      9  C   UNL A   1      42.288  20.450  26.402  1.00  0.00     0.039 A 
ATOM     10  C   UNL A   1      42.299  20.910  27.721  1.00  0.00     0.014 A 
ATOM     11  C   UNL A   1      42.787  21.259  25.377  1.00  0.00     0.014 A 
ATOM     12  C   UNL A   1      42.655  22.228  27.990  1.00  0.00     0.010 A 
ATOM     13  C   UNL A   1      43.222  22.557  25.661  1.00  0.00     0.010 A 
ATOM     14  C   UNL A   1      43.117  23.068  26.964  1.00  0.00    -0.014 A 
BRANCH  14  15
ATOM     15  C   UNL A   1      43.503  24.468  27.280  1.00  0.00     0.031 A 
ATOM     16  C   UNL A   1      44.884  24.980  26.973  1.00  0.00     0.074 A 
ATOM     17  C   UNL A   1      42.584  25.291  27.820  1.00  0.00     0.049 A 
ATOM     18  N   UNL A   1      45.379  26.180  27.155  1.00  0.00    -0.248 NA
ATOM     19  C   UNL A   1      45.838  24.022  26.398  1.00  0.00     0.031 C 
ATOM     20  C   UNL A   1      41.217  24.907  28.176  1.00  0.00     0.029 A 
ATOM     21  N   UNL A   1      42.651  26.622  28.145  1.00  0.00    -0.354 N 
ATOM     22  C   UNL A   1      46.704  26.113  26.744  1.00  0.00     0.074 A 
ATOM     23  C   UNL A   1      46.944  24.750  26.321  1.00  0.00     0.031 C 
ATOM     24  C   UNL A   1      40.559  25.988  28.620  1.00  0.00     0.029 A 
ATOM     25  C   UNL A   1      41.469  27.127  28.628  1.00  0.00     0.049 A 
ATOM     26  H   UNL A   1      43.468  27.162  28.041  1.00  0.00     0.167 HD
ATOM     27  C   UNL A   1      47.632  27.101  26.714  1.00  0.00     0.037 A 
ATOM     28  C   UNL A   1      41.155  28.370  29.036  1.00  0.00     0.037 A 
ATOM     29  C   UNL A   1      47.380  28.466  27.103  1.00  0.00     0.049 A 
ATOM     30  C   UNL A   1      42.199  29.448  28.981  1.00  0.00     0.074 A 
ATOM     31  C   UNL A   1      48.244  29.547  27.066  1.00  0.00     0.029 A 
ATOM     32  N   UNL A   1      46.173  28.937  27.598  1.00  0.00    -0.354 N 
ATOM     33  N   UNL A   1      43.437  29.378  28.557  1.00  0.00    -0.248 NA
ATOM     34  C   UNL A   1      41.801  30.777  29.461  1.00  0.00     0.031 C 
ATOM     35  C   UNL A   1      47.571  30.664  27.574  1.00  0.00     0.029 A 
ATOM     36  C   UNL A   1      46.274  30.288  27.887  1.00  0.00     0.049 A 
ATOM     37  H   UNL A   1      45.365  28.390  27.725  1.00  0.00     0.167 HD
ATOM     38  C   UNL A   1      43.959  30.655  28.696  1.00  0.00     0.074 A 
ATOM     39  C   UNL A   1      42.898  31.484  29.230  1.00  0.00     0.031 C 
ATOM     40  C   UNL A   1      45.206  31.101  28.408  1.00  0.00     0.037 A 
BRANCH  27  41
ATOM     41  C   UNL A   1      49.018  26.742  26.261  1.00  0.00     0.064 A 
ATOM     42  C   UNL A   1      49.955  26.168  27.132  1.00  0.00     0.173 A 
ATOM     43  C   UNL A   1      49.397  26.934  24.923  1.00  0.00     0.173 A 
ATOM     44  F   UNL A   1      49.647  25.975  28.423  1.00  0.00    -0.203 F 
ATOM     45  C   UNL A   1      51.230  25.823  26.687  1.00  0.00     0.198 A 
ATOM     46  C   UNL A   1      50.663  26.563  24.475  1.00  0.00     0.198 A 
ATOM     47  F   UNL A   1      48.536  27.472  24.046  1.00  0.00    -0.203 F 
ATOM     48  F   UNL A   1      52.124  25.315  27.546  1.00  0.00    -0.200 F 
ATOM     49  C   UNL A   1      51.579  26.014  25.358  1.00  0.00     0.200 A 
ATOM     50  F   UNL A   1      50.995  26.739  23.189  1.00  0.00    -0.200 F 
ATOM     51  F   UNL A   1      52.804  25.676  24.930  1.00  0.00    -0.200 F 
ENDBRANCH  27  41
BRANCH  28  52
ATOM     52  C   UNL A   1      39.777  28.663  29.506  1.00  0.00     0.064 A 
ATOM     53  C   UNL A   1      38.805  29.150  28.622  1.00  0.00     0.173 A 
ATOM     54  C   UNL A   1      39.400  28.446  30.839  1.00  0.00     0.173 A 
ATOM     55  F   UNL A   1      39.124  29.390  27.341  1.00  0.00    -0.203 F 
ATOM     56  C   UNL A   1      37.510  29.421  29.056  1.00  0.00     0.198 A 
ATOM     57  C   UNL A   1      38.098  28.691  31.266  1.00  0.00     0.198 A 
ATOM     58  F   UNL A   1      40.293  27.976  31.721  1.00  0.00    -0.203 F 
ATOM     59  F   UNL A   1      36.609  29.920  28.199  1.00  0.00    -0.200 F 
ATOM     60  C   UNL A   1      37.155  29.184  30.376  1.00  0.00     0.200 A 
ATOM     61  F   UNL A   1      37.755  28.447  32.537  1.00  0.00    -0.200 F 
ATOM     62  F   UNL A   1      35.906  29.437  30.791  1.00  0.00    -0.200 F 
ENDBRANCH  28  52
BRANCH  40  63
ATOM     63  C   UNL A   1      45.476  32.560  28.628  1.00  0.00     0.064 A 
ATOM     64  C   UNL A   1      45.218  33.513  27.633  1.00  0.00     0.173 A 
ATOM     65  C   UNL A   1      45.984  33.009  29.857  1.00  0.00     0.173 A 
ATOM     66  F   UNL A   1      44.749  33.130  26.436  1.00  0.00    -0.203 F 
ATOM     67  C   UNL A   1      45.486  34.863  27.850  1.00  0.00     0.198 A 
ATOM     68  C   UNL A   1      46.224  34.361  30.079  1.00  0.00     0.198 A 
ATOM     69  F   UNL A   1      46.242  32.136  30.841  1.00  0.00    -0.203 F 
ATOM     70  F   UNL A   1      45.280  35.751  26.868  1.00  0.00    -0.200 F 
ATOM     71  C   UNL A   1      45.984  35.285  29.073  1.00  0.00     0.200 A 
ATOM     72  F   UNL A   1      46.697  34.770  31.265  1.00  0.00    -0.200 F 
ATOM     73  F   UNL A   1      46.241  36.584  29.281  1.00  0.00    -0.200 F 
ENDBRANCH  40  63
ENDBRANCH  14  15
ENDBRANCH   7   9
ENDBRANCH   4   5
ENDBRANCH   3   4
ENDBRANCH   2   3
ENDBRANCH   1   2
BRANCH   1  74
ATOM     74  C   UNL A   1      36.414  23.177  24.487  1.00  0.00     0.021 C 
BRANCH  74  75
ATOM     75  C   UNL A   1      35.382  23.692  23.497  1.00  0.00     0.116 C 
BRANCH  75  76
ATOM     76  N   UNL A   1      34.479  22.658  23.029  1.00  0.00    -0.352 N 
ATOM     77  C   UNL A   1      33.350  22.158  23.632  1.00  0.00     0.251 C 
ATOM     78  H   UNL A   1      34.706  22.260  22.158  1.00  0.00     0.163 HD
ATOM     79  O   UNL A   1      32.767  21.199  23.134  1.00  0.00    -0.269 OA
BRANCH  77  80
ATOM     80  C   UNL A   1      32.797  22.776  24.863  1.00  0.00     0.041 A 
ATOM     81  C   UNL A   1      33.097  22.214  26.109  1.00  0.00     0.014 A 
ATOM     82  C   UNL A   1      31.878  23.821  24.790  1.00  0.00     0.036 A 
ATOM     83  C   UNL A   1      32.496  22.714  27.269  1.00  0.00     0.002 A 
ATOM     84  C   UNL A   1      31.246  24.295  25.938  1.00  0.00     0.088 A 
ATOM     85  C   UNL A   1      31.564  23.755  27.186  1.00  0.00     0.022 A 
BRANCH  84  86
ATOM     86  S   UNL A   1      30.108  25.655  25.784  1.00  0.00     0.261 S 
ATOM     87  O   UNL A   1      28.955  25.331  26.602  1.00  0.00    -0.201 OA
ATOM     88  O   UNL A   1      30.869  26.865  26.009  1.00  0.00    -0.201 OA
BRANCH  86  89
ATOM     89  N   UNL A   1      29.543  25.623  24.191  1.00  0.00    -0.278 N 
ATOM     90  H   UNL A   1      29.549  24.779  23.682  1.00  0.00     0.180 HD
BRANCH  89  91
ATOM     91  C   UNL A   1      29.055  26.828  23.579  1.00  0.00     0.072 A 
ATOM     92  C   UNL A   1      27.757  27.262  23.871  1.00  0.00     0.029 A 
ATOM     93  C   UNL A   1      29.939  27.623  22.806  1.00  0.00     0.061 A 
ATOM     94  C   UNL A   1      27.313  28.497  23.402  1.00  0.00     0.002 A 
ATOM     95  C   UNL A   1      29.467  28.867  22.361  1.00  0.00     0.028 A 
ATOM     96  C   UNL A   1      28.169  29.301  22.653  1.00  0.00     0.002 A 
BRANCH  93  97
ATOM     97  N   UNL A   1      31.247  27.206  22.572  1.00  0.00    -0.365 N 
ATOM     98  C   UNL A   1      31.514  26.367  21.389  1.00  0.00     0.145 C 
ATOM     99  C   UNL A   1      32.380  28.100  22.889  1.00  0.00     0.145 C 
ATOM    100  C   UNL A   1      32.790  25.554  21.663  1.00  0.00     0.181 C 
ATOM    101  C   UNL A   1      33.649  27.251  23.075  1.00  0.00     0.181 C 
ATOM    102  O   UNL A   1      33.908  26.420  21.929  1.00  0.00    -0.378 OA
ENDBRANCH  93  97
ENDBRANCH  89  91
ENDBRANCH  86  89
ENDBRANCH  84  86
ENDBRANCH  77  80
ENDBRANCH  75  76
ENDBRANCH  74  75
ENDBRANCH   1  74
TORSDOF 17
ENDMDL
MODEL 3
REMARK VINA RESULT:     -12.5      1.118      2.088
REMARK SMILES O=C(NCCCCCCNC(=O)c1cccc(S(=O)(=O)Nc2ccccc2N2CCOCC2)c1)c1ccc(-c2c3nc(c(-c4c(F)c(F)c(F)c(F)c4F)c4ccc([nH]4)c(-c4c(F)c(F)c(F)c(F)c4F)c4nc(c(-c5c(F)c(F)c(F)c(F)c5F)c5ccc2[nH]5)C=C4)C=C3)cc1
REMARK SMILES IDX 7 1 6 2 5 3 4 4 3 5 1 6 2 7 35 9 36 10 97 11 37 12 96 13
REMARK SMILES IDX 38 14 39 15 40 16 90 17 41 18 95 19 89 20 91 21 42 22 94 23
REMARK SMILES IDX 88 24 87 25 43 27 75 28 55 29 74 30 56 31 59 32 73 33 92 34
REMARK SMILES IDX 57 35 58 36 72 38 93 39 60 40 44 41 45 42 53 43 46 44 47 45
REMARK SMILES IDX 51 46 54 47 48 48 49 49 52 50 50 51 76 52 77 53 85 54 78 55
REMARK SMILES IDX 79 56 83 57 86 58 80 59 81 60 84 61 82 62 61 63 62 64 70 65
REMARK SMILES IDX 63 66 64 67 68 68 71 69 65 70 66 71 69 72 67 73 8 74 9 75
REMARK SMILES IDX 10 76 11 77 12 79 13 80 14 81 34 82 15 83 17 84 16 85 18 86
REMARK SMILES IDX 19 87 20 88 21 89 22 91 23 92 27 93 24 94 26 95 25 96 28 97
REMARK SMILES IDX 29 98 33 99 30 100 32 101 31 102
REMARK H PARENT 3 8 91 26 59 37 10 78 21 90
REMARK Flexibility Score: inf
ROOT
ATOM      1  C   UNL A   1      32.670  30.054  27.148  1.00  0.00     0.002 C 
ENDROOT
BRANCH   1   2
ATOM      2  C   UNL A   1      31.690  30.846  26.278  1.00  0.00     0.002 C 
BRANCH   2   3
ATOM      3  C   UNL A   1      31.500  32.325  26.610  1.00  0.00     0.021 C 
BRANCH   3   4
ATOM      4  C   UNL A   1      32.622  33.000  27.387  1.00  0.00     0.116 C 
BRANCH   4   5
ATOM      5  N   UNL A   1      32.318  34.350  27.820  1.00  0.00    -0.352 N 
ATOM      6  O   UNL A   1      32.557  36.243  29.030  1.00  0.00    -0.269 OA
ATOM      7  C   UNL A   1      32.981  35.128  28.742  1.00  0.00     0.251 C 
ATOM      8  H   UNL A   1      31.533  34.767  27.398  1.00  0.00     0.163 HD
BRANCH   7   9
ATOM      9  C   UNL A   1      34.179  34.595  29.431  1.00  0.00     0.039 A 
ATOM     10  C   UNL A   1      35.452  34.707  28.867  1.00  0.00     0.014 A 
ATOM     11  C   UNL A   1      34.015  33.948  30.659  1.00  0.00     0.014 A 
ATOM     12  C   UNL A   1      36.525  34.035  29.445  1.00  0.00     0.010 A 
ATOM     13  C   UNL A   1      35.111  33.344  31.282  1.00  0.00     0.010 A 
ATOM     14  C   UNL A   1      36.367  33.343  30.657  1.00  0.00    -0.014 A 
BRANCH  14  15
ATOM     15  C   UNL A   1      37.533  32.645  31.259  1.00  0.00     0.031 A 
ATOM     16  C   UNL A   1      38.002  32.979  32.649  1.00  0.00     0.074 A 
ATOM     17  C   UNL A   1      38.150  31.679  30.553  1.00  0.00     0.049 A 
ATOM     18  N   UNL A   1      38.982  32.448  33.339  1.00  0.00    -0.248 NA
ATOM     19  C   UNL A   1      37.290  34.054  33.354  1.00  0.00     0.031 C 
ATOM     20  C   UNL A   1      37.795  31.275  29.192  1.00  0.00     0.029 A 
ATOM     21  N   UNL A   1      39.188  30.847  30.887  1.00  0.00    -0.354 N 
ATOM     22  C   UNL A   1      39.021  33.140  34.543  1.00  0.00     0.074 A 
ATOM     23  C   UNL A   1      37.980  34.144  34.484  1.00  0.00     0.031 C 
ATOM     24  C   UNL A   1      38.565  30.241  28.826  1.00  0.00     0.029 A 
ATOM     25  C   UNL A   1      39.500  29.941  29.905  1.00  0.00     0.049 A 
ATOM     26  H   UNL A   1      39.663  30.895  31.749  1.00  0.00     0.167 HD
ATOM     27  C   UNL A   1      39.843  32.949  35.603  1.00  0.00     0.037 A 
ATOM     28  C   UNL A   1      40.438  28.977  29.874  1.00  0.00     0.037 A 
ATOM     29  C   UNL A   1      40.856  31.926  35.673  1.00  0.00     0.049 A 
ATOM     30  C   UNL A   1      41.328  28.780  31.068  1.00  0.00     0.074 A 
ATOM     31  C   UNL A   1      41.709  31.625  36.722  1.00  0.00     0.029 A 
ATOM     32  N   UNL A   1      41.150  31.034  34.653  1.00  0.00    -0.354 N 
ATOM     33  N   UNL A   1      41.330  29.418  32.212  1.00  0.00    -0.248 NA
ATOM     34  C   UNL A   1      42.347  27.727  30.964  1.00  0.00     0.031 C 
ATOM     35  C   UNL A   1      42.545  30.577  36.321  1.00  0.00     0.029 A 
ATOM     36  C   UNL A   1      42.183  30.195  35.039  1.00  0.00     0.049 A 
ATOM     37  H   UNL A   1      40.692  31.003  33.782  1.00  0.00     0.167 HD
ATOM     38  C   UNL A   1      42.330  28.832  32.973  1.00  0.00     0.074 A 
ATOM     39  C   UNL A   1      42.904  27.775  32.165  1.00  0.00     0.031 C 
ATOM     40  C   UNL A   1      42.736  29.142  34.228  1.00  0.00     0.037 A 
BRANCH  27  41
ATOM     41  C   UNL A   1      39.699  33.878  36.774  1.00  0.00     0.064 A 
ATOM     42  C   UNL A   1      38.894  33.557  37.877  1.00  0.00     0.173 A 
ATOM     43  C   UNL A   1      40.412  35.086  36.811  1.00  0.00     0.173 A 
ATOM     44  F   UNL A   1      38.182  32.420  37.886  1.00  0.00    -0.203 F 
ATOM     45  C   UNL A   1      38.790  34.424  38.963  1.00  0.00     0.198 A 
ATOM     46  C   UNL A   1      40.326  35.937  37.910  1.00  0.00     0.198 A 
ATOM     47  F   UNL A   1      41.202  35.437  35.785  1.00  0.00    -0.203 F 
ATOM     48  F   UNL A   1      37.983  34.117  39.989  1.00  0.00    -0.200 F 
ATOM     49  C   UNL A   1      39.511  35.608  38.982  1.00  0.00     0.200 A 
ATOM     50  F   UNL A   1      41.032  37.076  37.931  1.00  0.00    -0.200 F 
ATOM     51  F   UNL A   1      39.414  36.438  40.031  1.00  0.00    -0.200 F 
ENDBRANCH  27  41
BRANCH  28  52
ATOM     52  C   UNL A   1      40.560  28.106  28.677  1.00  0.00     0.064 A 
ATOM     53  C   UNL A   1      41.345  28.496  27.584  1.00  0.00     0.173 A 
ATOM     54  C   UNL A   1      39.912  26.864  28.609  1.00  0.00     0.173 A 
ATOM     55  F   UNL A   1      41.968  29.683  27.595  1.00  0.00    -0.203 F 
ATOM     56  C   UNL A   1      41.467  27.681  26.461  1.00  0.00     0.198 A 
ATOM     57  C   UNL A   1      40.057  26.039  27.498  1.00  0.00     0.198 A 
ATOM     58  F   UNL A   1      39.155  26.446  29.633  1.00  0.00    -0.203 F 
ATOM     59  F   UNL A   1      42.194  28.093  25.413  1.00  0.00    -0.200 F 
ATOM     60  C   UNL A   1      40.829  26.450  26.421  1.00  0.00     0.200 A 
ATOM     61  F   UNL A   1      39.452  24.844  27.470  1.00  0.00    -0.200 F 
ATOM     62  F   UNL A   1      40.954  25.663  25.344  1.00  0.00    -0.200 F 
ENDBRANCH  28  52
BRANCH  40  63
ATOM     63  C   UNL A   1      43.829  28.300  34.818  1.00  0.00     0.064 A 
ATOM     64  C   UNL A   1      43.549  27.119  35.521  1.00  0.00     0.173 A 
ATOM     65  C   UNL A   1      45.172  28.672  34.663  1.00  0.00     0.173 A 
ATOM     66  F   UNL A   1      42.279  26.732  35.710  1.00  0.00    -0.203 F 
ATOM     67  C   UNL A   1      44.574  26.356  36.072  1.00  0.00     0.198 A 
ATOM     68  C   UNL A   1      46.196  27.893  35.192  1.00  0.00     0.198 A 
ATOM     69  F   UNL A   1      45.491  29.790  33.994  1.00  0.00    -0.203 F 
ATOM     70  F   UNL A   1      44.283  25.259  36.783  1.00  0.00    -0.200 F 
ATOM     71  C   UNL A   1      45.896  26.741  35.903  1.00  0.00     0.200 A 
ATOM     72  F   UNL A   1      47.474  28.261  35.020  1.00  0.00    -0.200 F 
ATOM     73  F   UNL A   1      46.883  26.006  36.435  1.00  0.00    -0.200 F 
ENDBRANCH  40  63
ENDBRANCH  14  15
ENDBRANCH   7   9
ENDBRANCH   4   5
ENDBRANCH   3   4
ENDBRANCH   2   3
ENDBRANCH   1   2
BRANCH   1  74
ATOM     74  C   UNL A   1      33.917  29.490  26.462  1.00  0.00     0.021 C 
BRANCH  74  75
ATOM     75  C   UNL A   1      33.675  28.373  25.460  1.00  0.00     0.116 C 
BRANCH  75  76
ATOM     76  N   UNL A   1      34.071  28.726  24.110  1.00  0.00    -0.352 N 
ATOM     77  C   UNL A   1      33.824  28.059  22.935  1.00  0.00     0.251 C 
ATOM     78  H   UNL A   1      34.588  29.559  24.025  1.00  0.00     0.163 HD
ATOM     79  O   UNL A   1      34.337  28.455  21.891  1.00  0.00    -0.269 OA
BRANCH  77  80
ATOM     80  C   UNL A   1      32.919  26.883  22.891  1.00  0.00     0.041 A 
ATOM     81  C   UNL A   1      31.545  27.066  23.079  1.00  0.00     0.014 A 
ATOM     82  C   UNL A   1      33.429  25.589  22.800  1.00  0.00     0.036 A 
ATOM     83  C   UNL A   1      30.693  25.959  23.152  1.00  0.00     0.002 A 
ATOM     84  C   UNL A   1      32.589  24.483  22.913  1.00  0.00     0.088 A 
ATOM     85  C   UNL A   1      31.213  24.663  23.073  1.00  0.00     0.022 A 
BRANCH  84  86
ATOM     86  S   UNL A   1      33.296  22.857  22.754  1.00  0.00     0.261 S 
ATOM     87  O   UNL A   1      32.525  22.162  21.742  1.00  0.00    -0.201 OA
ATOM     88  O   UNL A   1      34.726  23.034  22.617  1.00  0.00    -0.201 OA
BRANCH  86  89
ATOM     89  N   UNL A   1      32.956  22.050  24.200  1.00  0.00    -0.278 N 
ATOM     90  H   UNL A   1      32.576  22.543  24.964  1.00  0.00     0.180 HD
BRANCH  89  91
ATOM     91  C   UNL A   1      33.223  20.643  24.315  1.00  0.00     0.072 A 
ATOM     92  C   UNL A   1      32.262  19.728  23.870  1.00  0.00     0.029 A 
ATOM     93  C   UNL A   1      34.504  20.210  24.747  1.00  0.00     0.061 A 
ATOM     94  C   UNL A   1      32.556  18.366  23.841  1.00  0.00     0.002 A 
ATOM     95  C   UNL A   1      34.773  18.834  24.693  1.00  0.00     0.028 A 
ATOM     96  C   UNL A   1      33.811  17.921  24.246  1.00  0.00     0.002 A 
BRANCH  93  97
ATOM     97  N   UNL A   1      35.471  21.135  25.133  1.00  0.00    -0.365 N 
ATOM     98  C   UNL A   1      35.234  21.928  26.354  1.00  0.00     0.145 C 
ATOM     99  C   UNL A   1      36.904  20.840  24.928  1.00  0.00     0.145 C 
ATOM    100  C   UNL A   1      36.048  23.228  26.239  1.00  0.00     0.181 C 
ATOM    101  C   UNL A   1      37.687  22.164  24.900  1.00  0.00     0.181 C 
ATOM    102  O   UNL A   1      37.450  22.949  26.084  1.00  0.00    -0.378 OA
ENDBRANCH  93  97
ENDBRANCH  89  91
ENDBRANCH  86  89
ENDBRANCH  84  86
ENDBRANCH  77  80
ENDBRANCH  75  76
ENDBRANCH  74  75
ENDBRANCH   1  74
TORSDOF 17
ENDMDL
