MODEL 1
REMARK VINA RESULT:     -11.5      0.000      0.000
REMARK SMILES CC[C@@H](Oc1ccccc1/C=C1/SC(=S)N(c2ccc(NC(C)=O)cc2)C1=O)C(=O)NCCCCCCNC(=O)c1ccc(-c2c3nc(c(-c4c(F)c(F)c(F)c(F)c4F)c4ccc([nH]4)c(-c4c(F)c(F)c(F)c(F)c4F)c4nc(c(-c5c(F)c(F)c(F)c(F)c5F)c5ccc2[nH]5)C=C4)C=C3)cc1
REMARK SMILES IDX 33 1 32 2 31 3 29 4 30 5 3 7 2 8 1 9 4 10 5 11 6 12 10 13
REMARK SMILES IDX 7 14 9 15 8 16 11 17 12 18 13 19 27 20 14 21 16 22 28 23
REMARK SMILES IDX 15 24 17 25 18 26 26 27 19 28 25 29 20 30 21 31 22 32 23 34
REMARK SMILES IDX 24 35 34 36 35 37 36 38 37 39 38 40 39 41 40 43 41 44 42 45
REMARK SMILES IDX 103 46 43 47 102 48 44 49 45 50 46 51 96 52 47 53 101 54
REMARK SMILES IDX 95 55 97 56 48 57 100 58 94 59 93 60 49 62 81 63 61 64 80 65
REMARK SMILES IDX 62 66 65 67 79 68 98 69 63 70 64 71 78 73 99 74 66 75 50 76
REMARK SMILES IDX 51 77 59 78 52 79 53 80 57 81 60 82 54 83 55 84 58 85 56 86
REMARK SMILES IDX 82 87 83 88 91 89 84 90 85 91 89 92 92 93 86 94 87 95 90 96
REMARK SMILES IDX 88 97 67 98 68 99 76 100 69 101 70 102 74 103 77 104 71 105
REMARK SMILES IDX 72 106 75 107 73 108
REMARK H PARENT 31 6 21 33 38 42 97 61 65 72
REMARK Flexibility Score: inf
ROOT
ATOM      1  C   UNL A   1      31.488  28.146  27.025  1.00  0.00     0.021 C 
ENDROOT
BRANCH   1   2
ATOM      2  C   UNL A   1      31.492  27.305  25.747  1.00  0.00     0.116 C 
BRANCH   2   3
ATOM      3  N   UNL A   1      30.168  27.045  25.214  1.00  0.00    -0.353 N 
ATOM      4  C   UNL A   1      29.745  26.950  23.915  1.00  0.00     0.261 C 
ATOM      5  O   UNL A   1      28.599  26.529  23.724  1.00  0.00    -0.271 OA
ATOM      6  H   UNL A   1      29.465  26.917  25.891  1.00  0.00     0.163 HD
BRANCH   4   7
ATOM      7  C   UNL A   1      30.599  27.450  22.726  1.00  0.00     0.261 C 
BRANCH   7   8
ATOM      8  C   UNL A   1      30.532  28.989  22.707  1.00  0.00     0.052 C 
ATOM      9  C   UNL A   1      29.100  29.511  22.674  1.00  0.00     0.008 C 
ENDBRANCH   7   8
BRANCH   7  10
ATOM     10  O   UNL A   1      31.954  27.006  22.839  1.00  0.00    -0.480 OA
BRANCH  10  11
ATOM     11  C   UNL A   1      32.319  26.035  21.940  1.00  0.00     0.127 A 
ATOM     12  C   UNL A   1      32.592  26.401  20.621  1.00  0.00     0.047 A 
ATOM     13  C   UNL A   1      32.224  24.674  22.288  1.00  0.00     0.018 A 
ATOM     14  C   UNL A   1      32.816  25.415  19.658  1.00  0.00     0.004 A 
ATOM     15  C   UNL A   1      32.484  23.694  21.322  1.00  0.00     0.012 A 
ATOM     16  C   UNL A   1      32.774  24.065  20.009  1.00  0.00     0.001 A 
BRANCH  13  17
ATOM     17  C   UNL A   1      31.810  24.234  23.625  1.00  0.00     0.033 C 
ATOM     18  C   UNL A   1      32.646  23.709  24.531  1.00  0.00     0.081 C 
ATOM     19  S   UNL A   1      32.113  23.092  26.049  1.00  0.00    -0.054 SA
ATOM     20  C   UNL A   1      34.121  23.544  24.394  1.00  0.00     0.270 C 
ATOM     21  C   UNL A   1      33.716  22.492  26.474  1.00  0.00     0.152 C 
ATOM     22  N   UNL A   1      34.614  22.834  25.480  1.00  0.00    -0.261 N 
ATOM     23  O   UNL A   1      34.793  24.028  23.493  1.00  0.00    -0.268 OA
ATOM     24  S   UNL A   1      33.963  21.570  27.846  1.00  0.00    -0.051 S 
BRANCH  22  25
ATOM     25  C   UNL A   1      36.004  22.576  25.535  1.00  0.00     0.051 A 
ATOM     26  C   UNL A   1      36.507  21.342  25.129  1.00  0.00     0.029 A 
ATOM     27  C   UNL A   1      36.873  23.534  26.064  1.00  0.00     0.029 A 
ATOM     28  C   UNL A   1      37.877  21.078  25.229  1.00  0.00     0.028 A 
ATOM     29  C   UNL A   1      38.247  23.293  26.102  1.00  0.00     0.028 A 
ATOM     30  C   UNL A   1      38.758  22.058  25.692  1.00  0.00     0.041 A 
BRANCH  30  31
ATOM     31  N   UNL A   1      40.154  21.890  25.747  1.00  0.00    -0.326 N 
ATOM     32  C   UNL A   1      40.902  21.508  26.843  1.00  0.00     0.221 C 
ATOM     33  H   UNL A   1      40.650  22.066  24.916  1.00  0.00     0.169 HD
ATOM     34  C   UNL A   1      42.341  21.236  26.494  1.00  0.00     0.114 C 
ATOM     35  O   UNL A   1      40.513  21.408  28.001  1.00  0.00    -0.275 OA
ENDBRANCH  30  31
ENDBRANCH  22  25
ENDBRANCH  13  17
ENDBRANCH  10  11
ENDBRANCH   7  10
ENDBRANCH   4   7
ENDBRANCH   2   3
ENDBRANCH   1   2
BRANCH   1  36
ATOM     36  C   UNL A   1      32.203  29.503  26.931  1.00  0.00     0.002 C 
BRANCH  36  37
ATOM     37  C   UNL A   1      31.551  30.572  26.036  1.00  0.00     0.002 C 
BRANCH  37  38
ATOM     38  C   UNL A   1      31.429  31.975  26.638  1.00  0.00     0.021 C 
BRANCH  38  39
ATOM     39  C   UNL A   1      32.727  32.583  27.160  1.00  0.00     0.116 C 
BRANCH  39  40
ATOM     40  N   UNL A   1      32.564  33.961  27.597  1.00  0.00    -0.352 N 
ATOM     41  C   UNL A   1      33.148  34.675  28.618  1.00  0.00     0.251 C 
ATOM     42  H   UNL A   1      31.916  34.478  27.065  1.00  0.00     0.163 HD
ATOM     43  O   UNL A   1      32.690  35.785  28.889  1.00  0.00    -0.269 OA
BRANCH  41  44
ATOM     44  C   UNL A   1      34.292  34.159  29.416  1.00  0.00     0.039 A 
ATOM     45  C   UNL A   1      35.592  34.477  28.993  1.00  0.00     0.014 A 
ATOM     46  C   UNL A   1      34.135  33.293  30.499  1.00  0.00     0.014 A 
ATOM     47  C   UNL A   1      36.710  33.969  29.670  1.00  0.00     0.010 A 
ATOM     48  C   UNL A   1      35.245  32.858  31.227  1.00  0.00     0.010 A 
ATOM     49  C   UNL A   1      36.548  33.169  30.809  1.00  0.00    -0.014 A 
BRANCH  49  50
ATOM     50  C   UNL A   1      37.713  32.592  31.537  1.00  0.00     0.031 A 
ATOM     51  C   UNL A   1      38.486  31.445  30.938  1.00  0.00     0.074 A 
ATOM     52  C   UNL A   1      38.046  33.041  32.763  1.00  0.00     0.049 A 
ATOM     53  N   UNL A   1      39.434  30.712  31.465  1.00  0.00    -0.248 NA
ATOM     54  C   UNL A   1      38.118  31.052  29.569  1.00  0.00     0.031 C 
ATOM     55  C   UNL A   1      37.372  34.122  33.478  1.00  0.00     0.029 A 
ATOM     56  N   UNL A   1      39.027  32.626  33.630  1.00  0.00    -0.354 N 
ATOM     57  C   UNL A   1      39.744  29.748  30.514  1.00  0.00     0.074 A 
ATOM     58  C   UNL A   1      38.859  29.969  29.390  1.00  0.00     0.031 C 
ATOM     59  C   UNL A   1      37.965  34.294  34.669  1.00  0.00     0.029 A 
ATOM     60  C   UNL A   1      39.033  33.310  34.821  1.00  0.00     0.049 A 
ATOM     61  H   UNL A   1      39.667  31.908  33.420  1.00  0.00     0.167 HD
ATOM     62  C   UNL A   1      40.687  28.776  30.564  1.00  0.00     0.037 A 
ATOM     63  C   UNL A   1      39.795  33.154  35.920  1.00  0.00     0.037 A 
ATOM     64  C   UNL A   1      41.601  28.584  31.659  1.00  0.00     0.049 A 
ATOM     65  C   UNL A   1      40.853  32.086  35.946  1.00  0.00     0.074 A 
ATOM     66  C   UNL A   1      42.632  27.667  31.773  1.00  0.00     0.029 A 
ATOM     67  N   UNL A   1      41.599  29.329  32.829  1.00  0.00    -0.354 N 
ATOM     68  N   UNL A   1      41.161  31.205  35.028  1.00  0.00    -0.248 NA
ATOM     69  C   UNL A   1      41.673  31.993  37.163  1.00  0.00     0.031 C 
ATOM     70  C   UNL A   1      43.229  27.832  33.027  1.00  0.00     0.029 A 
ATOM     71  C   UNL A   1      42.602  28.883  33.675  1.00  0.00     0.049 A 
ATOM     72  H   UNL A   1      40.977  30.066  33.029  1.00  0.00     0.167 HD
ATOM     73  C   UNL A   1      42.223  30.472  35.540  1.00  0.00     0.074 A 
ATOM     74  C   UNL A   1      42.513  31.015  36.850  1.00  0.00     0.031 C 
ATOM     75  C   UNL A   1      42.894  29.441  34.971  1.00  0.00     0.037 A 
BRANCH  62  76
ATOM     76  C   UNL A   1      40.771  27.836  29.396  1.00  0.00     0.064 A 
ATOM     77  C   UNL A   1      41.717  28.009  28.374  1.00  0.00     0.173 A 
ATOM     78  C   UNL A   1      39.905  26.735  29.308  1.00  0.00     0.173 A 
ATOM     79  F   UNL A   1      42.563  29.049  28.405  1.00  0.00    -0.203 F 
ATOM     80  C   UNL A   1      41.764  27.140  27.287  1.00  0.00     0.198 A 
ATOM     81  C   UNL A   1      39.978  25.850  28.236  1.00  0.00     0.198 A 
ATOM     82  F   UNL A   1      38.989  26.517  30.263  1.00  0.00    -0.203 F 
ATOM     83  F   UNL A   1      42.637  27.360  26.293  1.00  0.00    -0.200 F 
ATOM     84  C   UNL A   1      40.899  26.058  27.221  1.00  0.00     0.200 A 
ATOM     85  F   UNL A   1      39.150  24.797  28.181  1.00  0.00    -0.200 F 
ATOM     86  F   UNL A   1      40.947  25.222  26.175  1.00  0.00    -0.200 F 
ENDBRANCH  62  76
BRANCH  63  87
ATOM     87  C   UNL A   1      39.595  34.057  37.083  1.00  0.00     0.064 A 
ATOM     88  C   UNL A   1      40.192  35.325  37.116  1.00  0.00     0.173 A 
ATOM     89  C   UNL A   1      38.796  33.681  38.173  1.00  0.00     0.173 A 
ATOM     90  F   UNL A   1      40.990  35.715  36.110  1.00  0.00    -0.203 F 
ATOM     91  C   UNL A   1      40.006  36.180  38.200  1.00  0.00     0.198 A 
ATOM     92  C   UNL A   1      38.590  34.548  39.245  1.00  0.00     0.198 A 
ATOM     93  F   UNL A   1      38.215  32.473  38.194  1.00  0.00    -0.203 F 
ATOM     94  F   UNL A   1      40.622  37.370  38.224  1.00  0.00    -0.200 F 
ATOM     95  C   UNL A   1      39.198  35.795  39.259  1.00  0.00     0.200 A 
ATOM     96  F   UNL A   1      37.814  34.171  40.270  1.00  0.00    -0.200 F 
ATOM     97  F   UNL A   1      39.021  36.618  40.301  1.00  0.00    -0.200 F 
ENDBRANCH  63  87
BRANCH  75  98
ATOM     98  C   UNL A   1      44.041  28.853  35.738  1.00  0.00     0.064 A 
ATOM     99  C   UNL A   1      43.868  27.768  36.609  1.00  0.00     0.173 A 
ATOM    100  C   UNL A   1      45.343  29.344  35.550  1.00  0.00     0.173 A 
ATOM    101  F   UNL A   1      42.643  27.271  36.833  1.00  0.00    -0.203 F 
ATOM    102  C   UNL A   1      44.954  27.206  37.276  1.00  0.00     0.198 A 
ATOM    103  C   UNL A   1      46.429  28.765  36.199  1.00  0.00     0.198 A 
ATOM    104  F   UNL A   1      45.563  30.377  34.722  1.00  0.00    -0.203 F 
ATOM    105  F   UNL A   1      44.761  26.191  38.131  1.00  0.00    -0.200 F 
ATOM    106  C   UNL A   1      46.233  27.699  37.065  1.00  0.00     0.200 A 
ATOM    107  F   UNL A   1      47.665  29.233  35.984  1.00  0.00    -0.200 F 
ATOM    108  F   UNL A   1      47.278  27.149  37.699  1.00  0.00    -0.200 F 
ENDBRANCH  75  98
ENDBRANCH  49  50
ENDBRANCH  41  44
ENDBRANCH  39  40
ENDBRANCH  38  39
ENDBRANCH  37  38
ENDBRANCH  36  37
ENDBRANCH   1  36
TORSDOF 19
ENDMDL
MODEL 2
REMARK VINA RESULT:     -11.4      4.777      9.305
REMARK SMILES CC[C@@H](Oc1ccccc1/C=C1/SC(=S)N(c2ccc(NC(C)=O)cc2)C1=O)C(=O)NCCCCCCNC(=O)c1ccc(-c2c3nc(c(-c4c(F)c(F)c(F)c(F)c4F)c4ccc([nH]4)c(-c4c(F)c(F)c(F)c(F)c4F)c4nc(c(-c5c(F)c(F)c(F)c(F)c5F)c5ccc2[nH]5)C=C4)C=C3)cc1
REMARK SMILES IDX 33 1 32 2 31 3 29 4 30 5 3 7 2 8 1 9 4 10 5 11 6 12 10 13
REMARK SMILES IDX 7 14 9 15 8 16 11 17 12 18 13 19 27 20 14 21 16 22 28 23
REMARK SMILES IDX 15 24 17 25 18 26 26 27 19 28 25 29 20 30 21 31 22 32 23 34
REMARK SMILES IDX 24 35 34 36 35 37 36 38 37 39 38 40 39 41 40 43 41 44 42 45
REMARK SMILES IDX 103 46 43 47 102 48 44 49 45 50 46 51 96 52 47 53 101 54
REMARK SMILES IDX 95 55 97 56 48 57 100 58 94 59 93 60 49 62 81 63 61 64 80 65
REMARK SMILES IDX 62 66 65 67 79 68 98 69 63 70 64 71 78 73 99 74 66 75 50 76
REMARK SMILES IDX 51 77 59 78 52 79 53 80 57 81 60 82 54 83 55 84 58 85 56 86
REMARK SMILES IDX 82 87 83 88 91 89 84 90 85 91 89 92 92 93 86 94 87 95 90 96
REMARK SMILES IDX 88 97 67 98 68 99 76 100 69 101 70 102 74 103 77 104 71 105
REMARK SMILES IDX 72 106 75 107 73 108
REMARK H PARENT 31 6 21 33 38 42 97 61 65 72
REMARK Flexibility Score: inf
ROOT
ATOM      1  C   UNL A   1      35.383  31.561  27.841  1.00  0.00     0.021 C 
ENDROOT
BRANCH   1   2
ATOM      2  C   UNL A   1      34.599  30.251  27.743  1.00  0.00     0.116 C 
BRANCH   2   3
ATOM      3  N   UNL A   1      34.823  29.526  26.507  1.00  0.00    -0.353 N 
ATOM      4  C   UNL A   1      33.959  28.772  25.760  1.00  0.00     0.261 C 
ATOM      5  O   UNL A   1      34.344  28.414  24.641  1.00  0.00    -0.271 OA
ATOM      6  H   UNL A   1      35.739  29.586  26.150  1.00  0.00     0.163 HD
BRANCH   4   7
ATOM      7  C   UNL A   1      32.600  28.277  26.311  1.00  0.00     0.261 C 
BRANCH   7   8
ATOM      8  C   UNL A   1      31.482  29.013  25.551  1.00  0.00     0.052 C 
ATOM      9  C   UNL A   1      31.506  30.519  25.790  1.00  0.00     0.008 C 
ENDBRANCH   7   8
BRANCH   7  10
ATOM     10  O   UNL A   1      32.465  26.861  26.159  1.00  0.00    -0.480 OA
BRANCH  10  11
ATOM     11  C   UNL A   1      31.608  26.468  25.161  1.00  0.00     0.127 A 
ATOM     12  C   UNL A   1      30.234  26.624  25.349  1.00  0.00     0.047 A 
ATOM     13  C   UNL A   1      32.090  25.738  24.058  1.00  0.00     0.018 A 
ATOM     14  C   UNL A   1      29.341  26.096  24.414  1.00  0.00     0.004 A 
ATOM     15  C   UNL A   1      31.187  25.242  23.110  1.00  0.00     0.012 A 
ATOM     16  C   UNL A   1      29.815  25.416  23.291  1.00  0.00     0.001 A 
BRANCH  13  17
ATOM     17  C   UNL A   1      33.514  25.431  23.884  1.00  0.00     0.033 C 
ATOM     18  C   UNL A   1      34.032  24.200  23.991  1.00  0.00     0.081 C 
ATOM     19  S   UNL A   1      35.723  23.884  23.898  1.00  0.00    -0.054 SA
ATOM     20  C   UNL A   1      33.281  22.933  24.223  1.00  0.00     0.270 C 
ATOM     21  C   UNL A   1      35.521  22.177  24.289  1.00  0.00     0.152 C 
ATOM     22  N   UNL A   1      34.175  21.889  24.415  1.00  0.00    -0.261 N 
ATOM     23  O   UNL A   1      32.062  22.830  24.176  1.00  0.00    -0.268 OA
ATOM     24  S   UNL A   1      36.840  21.182  24.548  1.00  0.00    -0.051 S 
BRANCH  22  25
ATOM     25  C   UNL A   1      33.651  20.596  24.648  1.00  0.00     0.051 A 
ATOM     26  C   UNL A   1      33.452  20.142  25.951  1.00  0.00     0.029 A 
ATOM     27  C   UNL A   1      33.399  19.738  23.575  1.00  0.00     0.029 A 
ATOM     28  C   UNL A   1      32.977  18.846  26.175  1.00  0.00     0.028 A 
ATOM     29  C   UNL A   1      32.863  18.469  23.798  1.00  0.00     0.028 A 
ATOM     30  C   UNL A   1      32.657  18.010  25.102  1.00  0.00     0.041 A 
BRANCH  30  31
ATOM     31  N   UNL A   1      32.104  16.725  25.252  1.00  0.00    -0.326 N 
ATOM     32  C   UNL A   1      32.790  15.529  25.325  1.00  0.00     0.221 C 
ATOM     33  H   UNL A   1      31.123  16.673  25.308  1.00  0.00     0.169 HD
ATOM     34  C   UNL A   1      31.897  14.371  25.683  1.00  0.00     0.114 C 
ATOM     35  O   UNL A   1      33.984  15.350  25.108  1.00  0.00    -0.275 OA
ENDBRANCH  30  31
ENDBRANCH  22  25
ENDBRANCH  13  17
ENDBRANCH  10  11
ENDBRANCH   7  10
ENDBRANCH   4   7
ENDBRANCH   2   3
ENDBRANCH   1   2
BRANCH   1  36
ATOM     36  C   UNL A   1      34.536  32.834  27.997  1.00  0.00     0.002 C 
BRANCH  36  37
ATOM     37  C   UNL A   1      35.093  33.931  28.922  1.00  0.00     0.002 C 
BRANCH  37  38
ATOM     38  C   UNL A   1      34.533  33.963  30.348  1.00  0.00     0.021 C 
BRANCH  38  39
ATOM     39  C   UNL A   1      34.582  32.638  31.104  1.00  0.00     0.116 C 
BRANCH  39  40
ATOM     40  N   UNL A   1      35.101  32.785  32.455  1.00  0.00    -0.352 N 
ATOM     41  C   UNL A   1      36.281  32.378  33.034  1.00  0.00     0.251 C 
ATOM     42  H   UNL A   1      34.496  33.262  33.069  1.00  0.00     0.163 HD
ATOM     43  O   UNL A   1      36.393  32.469  34.256  1.00  0.00    -0.269 OA
BRANCH  41  44
ATOM     44  C   UNL A   1      37.418  31.822  32.252  1.00  0.00     0.039 A 
ATOM     45  C   UNL A   1      38.375  31.052  32.930  1.00  0.00     0.014 A 
ATOM     46  C   UNL A   1      37.629  32.115  30.904  1.00  0.00     0.014 A 
ATOM     47  C   UNL A   1      39.500  30.552  32.259  1.00  0.00     0.010 A 
ATOM     48  C   UNL A   1      38.702  31.546  30.213  1.00  0.00     0.010 A 
ATOM     49  C   UNL A   1      39.665  30.778  30.885  1.00  0.00    -0.014 A 
BRANCH  49  50
ATOM     50  C   UNL A   1      40.860  30.283  30.146  1.00  0.00     0.031 A 
ATOM     51  C   UNL A   1      42.009  31.214  29.858  1.00  0.00     0.074 A 
ATOM     52  C   UNL A   1      40.898  29.023  29.669  1.00  0.00     0.049 A 
ATOM     53  N   UNL A   1      43.070  31.025  29.114  1.00  0.00    -0.248 NA
ATOM     54  C   UNL A   1      41.938  32.550  30.469  1.00  0.00     0.031 C 
ATOM     55  C   UNL A   1      39.849  28.022  29.843  1.00  0.00     0.029 A 
ATOM     56  N   UNL A   1      41.854  28.379  28.920  1.00  0.00    -0.354 N 
ATOM     57  C   UNL A   1      43.766  32.227  29.131  1.00  0.00     0.074 A 
ATOM     58  C   UNL A   1      42.990  33.149  29.933  1.00  0.00     0.031 C 
ATOM     59  C   UNL A   1      40.221  26.887  29.232  1.00  0.00     0.029 A 
ATOM     60  C   UNL A   1      41.514  27.092  28.586  1.00  0.00     0.049 A 
ATOM     61  H   UNL A   1      42.702  28.800  28.650  1.00  0.00     0.167 HD
ATOM     62  C   UNL A   1      44.949  32.534  28.545  1.00  0.00     0.037 A 
ATOM     63  C   UNL A   1      42.157  26.182  27.830  1.00  0.00     0.037 A 
ATOM     64  C   UNL A   1      45.748  31.605  27.789  1.00  0.00     0.049 A 
ATOM     65  C   UNL A   1      43.482  26.532  27.209  1.00  0.00     0.074 A 
ATOM     66  C   UNL A   1      46.989  31.805  27.210  1.00  0.00     0.029 A 
ATOM     67  N   UNL A   1      45.385  30.295  27.511  1.00  0.00    -0.354 N 
ATOM     68  N   UNL A   1      44.146  27.660  27.262  1.00  0.00    -0.248 NA
ATOM     69  C   UNL A   1      44.147  25.481  26.425  1.00  0.00     0.031 C 
ATOM     70  C   UNL A   1      47.361  30.629  26.551  1.00  0.00     0.029 A 
ATOM     71  C   UNL A   1      46.373  29.681  26.758  1.00  0.00     0.049 A 
ATOM     72  H   UNL A   1      44.548  29.866  27.804  1.00  0.00     0.167 HD
ATOM     73  C   UNL A   1      45.316  27.449  26.545  1.00  0.00     0.074 A 
ATOM     74  C   UNL A   1      45.275  26.082  26.071  1.00  0.00     0.031 C 
ATOM     75  C   UNL A   1      46.331  28.314  26.304  1.00  0.00     0.037 A 
BRANCH  62  76
ATOM     76  C   UNL A   1      45.449  33.941  28.695  1.00  0.00     0.064 A 
ATOM     77  C   UNL A   1      45.186  34.927  27.731  1.00  0.00     0.173 A 
ATOM     78  C   UNL A   1      46.188  34.315  29.828  1.00  0.00     0.173 A 
ATOM     79  F   UNL A   1      44.492  34.620  26.624  1.00  0.00    -0.203 F 
ATOM     80  C   UNL A   1      45.678  36.221  27.876  1.00  0.00     0.198 A 
ATOM     81  C   UNL A   1      46.650  35.619  29.985  1.00  0.00     0.198 A 
ATOM     82  F   UNL A   1      46.459  33.416  30.786  1.00  0.00    -0.203 F 
ATOM     83  F   UNL A   1      45.464  37.129  26.913  1.00  0.00    -0.200 F 
ATOM     84  C   UNL A   1      46.405  36.568  29.005  1.00  0.00     0.200 A 
ATOM     85  F   UNL A   1      47.340  35.956  31.084  1.00  0.00    -0.200 F 
ATOM     86  F   UNL A   1      46.876  37.815  29.144  1.00  0.00    -0.200 F 
ENDBRANCH  62  76
BRANCH  63  87
ATOM     87  C   UNL A   1      41.560  24.834  27.640  1.00  0.00     0.064 A 
ATOM     88  C   UNL A   1      42.076  23.720  28.316  1.00  0.00     0.173 A 
ATOM     89  C   UNL A   1      40.457  24.635  26.796  1.00  0.00     0.173 A 
ATOM     90  F   UNL A   1      43.150  23.858  29.109  1.00  0.00    -0.203 F 
ATOM     91  C   UNL A   1      41.519  22.455  28.148  1.00  0.00     0.198 A 
ATOM     92  C   UNL A   1      39.885  23.373  26.648  1.00  0.00     0.198 A 
ATOM     93  F   UNL A   1      39.936  25.668  26.117  1.00  0.00    -0.203 F 
ATOM     94  F   UNL A   1      42.059  21.401  28.774  1.00  0.00    -0.200 F 
ATOM     95  C   UNL A   1      40.419  22.284  27.321  1.00  0.00     0.200 A 
ATOM     96  F   UNL A   1      38.826  23.208  25.845  1.00  0.00    -0.200 F 
ATOM     97  F   UNL A   1      39.885  21.065  27.160  1.00  0.00    -0.200 F 
ENDBRANCH  63  87
BRANCH  75  98
ATOM     98  C   UNL A   1      47.508  27.804  25.527  1.00  0.00     0.064 A 
ATOM     99  C   UNL A   1      47.517  27.791  24.125  1.00  0.00     0.173 A 
ATOM    100  C   UNL A   1      48.667  27.379  26.196  1.00  0.00     0.173 A 
ATOM    101  F   UNL A   1      46.431  28.175  23.439  1.00  0.00    -0.203 F 
ATOM    102  C   UNL A   1      48.639  27.357  23.421  1.00  0.00     0.198 A 
ATOM    103  C   UNL A   1      49.794  26.969  25.490  1.00  0.00     0.198 A 
ATOM    104  F   UNL A   1      48.711  27.378  27.537  1.00  0.00    -0.203 F 
ATOM    105  F   UNL A   1      48.614  27.322  22.081  1.00  0.00    -0.200 F 
ATOM    106  C   UNL A   1      49.778  26.955  24.103  1.00  0.00     0.200 A 
ATOM    107  F   UNL A   1      50.897  26.594  26.150  1.00  0.00    -0.200 F 
ATOM    108  F   UNL A   1      50.859  26.549  23.424  1.00  0.00    -0.200 F 
ENDBRANCH  75  98
ENDBRANCH  49  50
ENDBRANCH  41  44
ENDBRANCH  39  40
ENDBRANCH  38  39
ENDBRANCH  37  38
ENDBRANCH  36  37
ENDBRANCH   1  36
TORSDOF 19
ENDMDL
MODEL 3
REMARK VINA RESULT:     -11.3      5.886     13.170
REMARK SMILES CC[C@@H](Oc1ccccc1/C=C1/SC(=S)N(c2ccc(NC(C)=O)cc2)C1=O)C(=O)NCCCCCCNC(=O)c1ccc(-c2c3nc(c(-c4c(F)c(F)c(F)c(F)c4F)c4ccc([nH]4)c(-c4c(F)c(F)c(F)c(F)c4F)c4nc(c(-c5c(F)c(F)c(F)c(F)c5F)c5ccc2[nH]5)C=C4)C=C3)cc1
REMARK SMILES IDX 33 1 32 2 31 3 29 4 30 5 3 7 2 8 1 9 4 10 5 11 6 12 10 13
REMARK SMILES IDX 7 14 9 15 8 16 11 17 12 18 13 19 27 20 14 21 16 22 28 23
REMARK SMILES IDX 15 24 17 25 18 26 26 27 19 28 25 29 20 30 21 31 22 32 23 34
REMARK SMILES IDX 24 35 34 36 35 37 36 38 37 39 38 40 39 41 40 43 41 44 42 45
REMARK SMILES IDX 103 46 43 47 102 48 44 49 45 50 46 51 96 52 47 53 101 54
REMARK SMILES IDX 95 55 97 56 48 57 100 58 94 59 93 60 49 62 81 63 61 64 80 65
REMARK SMILES IDX 62 66 65 67 79 68 98 69 63 70 64 71 78 73 99 74 66 75 50 76
REMARK SMILES IDX 51 77 59 78 52 79 53 80 57 81 60 82 54 83 55 84 58 85 56 86
REMARK SMILES IDX 82 87 83 88 91 89 84 90 85 91 89 92 92 93 86 94 87 95 90 96
REMARK SMILES IDX 88 97 67 98 68 99 76 100 69 101 70 102 74 103 77 104 71 105
REMARK SMILES IDX 72 106 75 107 73 108
REMARK H PARENT 31 6 21 33 38 42 97 61 65 72
REMARK Flexibility Score: inf
ROOT
ATOM      1  C   UNL A   1      45.649  25.159  32.152  1.00  0.00     0.021 C 
ENDROOT
BRANCH   1   2
ATOM      2  C   UNL A   1      45.438  25.292  30.642  1.00  0.00     0.116 C 
BRANCH   2   3
ATOM      3  N   UNL A   1      46.670  25.275  29.876  1.00  0.00    -0.353 N 
ATOM      4  C   UNL A   1      47.821  25.997  30.044  1.00  0.00     0.261 C 
ATOM      5  O   UNL A   1      48.803  25.660  29.374  1.00  0.00    -0.271 OA
ATOM      6  H   UNL A   1      46.680  24.646  29.119  1.00  0.00     0.163 HD
BRANCH   4   7
ATOM      7  C   UNL A   1      47.886  27.258  30.940  1.00  0.00     0.261 C 
BRANCH   7   8
ATOM      8  C   UNL A   1      49.066  27.088  31.914  1.00  0.00     0.052 C 
ATOM      9  C   UNL A   1      48.859  27.845  33.221  1.00  0.00     0.008 C 
ENDBRANCH   7   8
BRANCH   7  10
ATOM     10  O   UNL A   1      48.047  28.443  30.155  1.00  0.00    -0.480 OA
BRANCH  10  11
ATOM     11  C   UNL A   1      46.921  29.222  30.051  1.00  0.00     0.127 A 
ATOM     12  C   UNL A   1      46.040  29.284  31.131  1.00  0.00     0.047 A 
ATOM     13  C   UNL A   1      46.559  29.785  28.813  1.00  0.00     0.018 A 
ATOM     14  C   UNL A   1      44.818  29.947  30.995  1.00  0.00     0.004 A 
ATOM     15  C   UNL A   1      45.347  30.477  28.697  1.00  0.00     0.012 A 
ATOM     16  C   UNL A   1      44.477  30.552  29.784  1.00  0.00     0.001 A 
BRANCH  13  17
ATOM     17  C   UNL A   1      47.387  29.634  27.611  1.00  0.00     0.033 C 
ATOM     18  C   UNL A   1      47.373  28.549  26.825  1.00  0.00     0.081 C 
ATOM     19  S   UNL A   1      48.440  28.348  25.487  1.00  0.00    -0.054 SA
ATOM     20  C   UNL A   1      46.490  27.357  26.966  1.00  0.00     0.270 C 
ATOM     21  C   UNL A   1      47.887  26.704  25.172  1.00  0.00     0.152 C 
ATOM     22  N   UNL A   1      46.869  26.385  26.051  1.00  0.00    -0.261 N 
ATOM     23  O   UNL A   1      45.534  27.286  27.727  1.00  0.00    -0.268 OA
ATOM     24  S   UNL A   1      48.634  25.740  24.028  1.00  0.00    -0.051 S 
BRANCH  22  25
ATOM     25  C   UNL A   1      46.143  25.171  26.027  1.00  0.00     0.051 A 
ATOM     26  C   UNL A   1      45.086  25.000  25.134  1.00  0.00     0.029 A 
ATOM     27  C   UNL A   1      46.435  24.161  26.948  1.00  0.00     0.029 A 
ATOM     28  C   UNL A   1      44.345  23.815  25.147  1.00  0.00     0.028 A 
ATOM     29  C   UNL A   1      45.737  22.954  26.915  1.00  0.00     0.028 A 
ATOM     30  C   UNL A   1      44.678  22.776  26.019  1.00  0.00     0.041 A 
BRANCH  30  31
ATOM     31  N   UNL A   1      44.027  21.529  26.034  1.00  0.00    -0.326 N 
ATOM     32  C   UNL A   1      44.149  20.517  25.102  1.00  0.00     0.221 C 
ATOM     33  H   UNL A   1      43.418  21.361  26.788  1.00  0.00     0.169 HD
ATOM     34  C   UNL A   1      43.464  19.247  25.533  1.00  0.00     0.114 C 
ATOM     35  O   UNL A   1      44.711  20.582  24.014  1.00  0.00    -0.275 OA
ENDBRANCH  30  31
ENDBRANCH  22  25
ENDBRANCH  13  17
ENDBRANCH  10  11
ENDBRANCH   7  10
ENDBRANCH   4   7
ENDBRANCH   2   3
ENDBRANCH   1   2
BRANCH   1  36
ATOM     36  C   UNL A   1      44.575  24.357  32.905  1.00  0.00     0.002 C 
BRANCH  36  37
ATOM     37  C   UNL A   1      44.988  22.975  33.441  1.00  0.00     0.002 C 
BRANCH  37  38
ATOM     38  C   UNL A   1      45.668  22.957  34.814  1.00  0.00     0.021 C 
BRANCH  38  39
ATOM     39  C   UNL A   1      46.917  23.826  34.942  1.00  0.00     0.116 C 
BRANCH  39  40
ATOM     40  N   UNL A   1      47.019  24.471  36.242  1.00  0.00    -0.352 N 
ATOM     41  C   UNL A   1      46.483  25.639  36.732  1.00  0.00     0.251 C 
ATOM     42  H   UNL A   1      47.575  23.981  36.891  1.00  0.00     0.163 HD
ATOM     43  O   UNL A   1      46.881  26.053  37.820  1.00  0.00    -0.269 OA
BRANCH  41  44
ATOM     44  C   UNL A   1      45.459  26.431  35.998  1.00  0.00     0.039 A 
ATOM     45  C   UNL A   1      44.113  26.061  36.133  1.00  0.00     0.014 A 
ATOM     46  C   UNL A   1      45.785  27.453  35.104  1.00  0.00     0.014 A 
ATOM     47  C   UNL A   1      43.109  26.731  35.418  1.00  0.00     0.010 A 
ATOM     48  C   UNL A   1      44.780  28.179  34.459  1.00  0.00     0.010 A 
ATOM     49  C   UNL A   1      43.432  27.812  34.587  1.00  0.00    -0.014 A 
BRANCH  49  50
ATOM     50  C   UNL A   1      42.395  28.531  33.794  1.00  0.00     0.031 A 
ATOM     51  C   UNL A   1      41.497  29.539  34.463  1.00  0.00     0.074 A 
ATOM     52  C   UNL A   1      42.203  28.240  32.493  1.00  0.00     0.049 A 
ATOM     53  N   UNL A   1      40.447  30.165  33.991  1.00  0.00    -0.248 NA
ATOM     54  C   UNL A   1      41.806  29.864  35.864  1.00  0.00     0.031 C 
ATOM     55  C   UNL A   1      42.975  27.267  31.723  1.00  0.00     0.029 A 
ATOM     56  N   UNL A   1      41.283  28.724  31.595  1.00  0.00    -0.354 N 
ATOM     57  C   UNL A   1      39.948  30.920  35.045  1.00  0.00     0.074 A 
ATOM     58  C   UNL A   1      40.789  30.648  36.191  1.00  0.00     0.031 C 
ATOM     59  C   UNL A   1      42.506  27.234  30.466  1.00  0.00     0.029 A 
ATOM     60  C   UNL A   1      41.374  28.149  30.351  1.00  0.00     0.049 A 
ATOM     61  H   UNL A   1      40.621  29.417  31.820  1.00  0.00     0.167 HD
ATOM     62  C   UNL A   1      38.894  31.771  35.056  1.00  0.00     0.037 A 
ATOM     63  C   UNL A   1      40.624  28.321  29.246  1.00  0.00     0.037 A 
ATOM     64  C   UNL A   1      38.085  32.082  33.906  1.00  0.00     0.049 A 
ATOM     65  C   UNL A   1      39.474  29.290  29.272  1.00  0.00     0.074 A 
ATOM     66  C   UNL A   1      37.036  32.979  33.806  1.00  0.00     0.029 A 
ATOM     67  N   UNL A   1      38.241  31.507  32.653  1.00  0.00    -0.354 N 
ATOM     68  N   UNL A   1      39.034  30.024  30.263  1.00  0.00    -0.248 NA
ATOM     69  C   UNL A   1      38.718  29.457  28.022  1.00  0.00     0.031 C 
ATOM     70  C   UNL A   1      36.533  32.921  32.502  1.00  0.00     0.029 A 
ATOM     71  C   UNL A   1      37.298  32.022  31.778  1.00  0.00     0.049 A 
ATOM     72  H   UNL A   1      38.920  30.834  32.421  1.00  0.00     0.167 HD
ATOM     73  C   UNL A   1      37.971  30.757  29.754  1.00  0.00     0.074 A 
ATOM     74  C   UNL A   1      37.834  30.386  28.362  1.00  0.00     0.031 C 
ATOM     75  C   UNL A   1      37.181  31.658  30.388  1.00  0.00     0.037 A 
BRANCH  62  76
ATOM     76  C   UNL A   1      38.549  32.425  36.363  1.00  0.00     0.064 A 
ATOM     77  C   UNL A   1      38.912  33.751  36.645  1.00  0.00     0.173 A 
ATOM     78  C   UNL A   1      37.830  31.720  37.341  1.00  0.00     0.173 A 
ATOM     79  F   UNL A   1      39.608  34.466  35.749  1.00  0.00    -0.203 F 
ATOM     80  C   UNL A   1      38.604  34.333  37.872  1.00  0.00     0.198 A 
ATOM     81  C   UNL A   1      37.495  32.317  38.554  1.00  0.00     0.198 A 
ATOM     82  F   UNL A   1      37.449  30.454  37.120  1.00  0.00    -0.203 F 
ATOM     83  F   UNL A   1      39.012  35.581  38.142  1.00  0.00    -0.200 F 
ATOM     84  C   UNL A   1      37.892  33.618  38.824  1.00  0.00     0.200 A 
ATOM     85  F   UNL A   1      36.794  31.629  39.466  1.00  0.00    -0.200 F 
ATOM     86  F   UNL A   1      37.594  34.180  40.003  1.00  0.00    -0.200 F 
ENDBRANCH  62  76
BRANCH  63  87
ATOM     87  C   UNL A   1      40.959  27.569  28.009  1.00  0.00     0.064 A 
ATOM     88  C   UNL A   1      41.938  28.043  27.125  1.00  0.00     0.173 A 
ATOM     89  C   UNL A   1      40.323  26.359  27.694  1.00  0.00     0.173 A 
ATOM     90  F   UNL A   1      42.551  29.212  27.370  1.00  0.00    -0.203 F 
ATOM     91  C   UNL A   1      42.262  27.342  25.967  1.00  0.00     0.198 A 
ATOM     92  C   UNL A   1      40.666  25.645  26.547  1.00  0.00     0.198 A 
ATOM     93  F   UNL A   1      39.370  25.871  28.502  1.00  0.00    -0.203 F 
ATOM     94  F   UNL A   1      43.172  27.840  25.118  1.00  0.00    -0.200 F 
ATOM     95  C   UNL A   1      41.632  26.139  25.683  1.00  0.00     0.200 A 
ATOM     96  F   UNL A   1      40.052  24.487  26.271  1.00  0.00    -0.200 F 
ATOM     97  F   UNL A   1      41.944  25.467  24.567  1.00  0.00    -0.200 F 
ENDBRANCH  63  87
BRANCH  75  98
ATOM     98  C   UNL A   1      36.120  32.343  29.578  1.00  0.00     0.064 A 
ATOM     99  C   UNL A   1      35.017  31.645  29.067  1.00  0.00     0.173 A 
ATOM    100  C   UNL A   1      36.179  33.729  29.363  1.00  0.00     0.173 A 
ATOM    101  F   UNL A   1      34.920  30.318  29.234  1.00  0.00    -0.203 F 
ATOM    102  C   UNL A   1      34.018  32.309  28.357  1.00  0.00     0.198 A 
ATOM    103  C   UNL A   1      35.168  34.392  28.675  1.00  0.00     0.198 A 
ATOM    104  F   UNL A   1      37.212  34.442  29.838  1.00  0.00    -0.203 F 
ATOM    105  F   UNL A   1      32.988  31.617  27.848  1.00  0.00    -0.200 F 
ATOM    106  C   UNL A   1      34.090  33.681  28.169  1.00  0.00     0.200 A 
ATOM    107  F   UNL A   1      35.233  35.719  28.505  1.00  0.00    -0.200 F 
ATOM    108  F   UNL A   1      33.122  34.318  27.496  1.00  0.00    -0.200 F 
ENDBRANCH  75  98
ENDBRANCH  49  50
ENDBRANCH  41  44
ENDBRANCH  39  40
ENDBRANCH  38  39
ENDBRANCH  37  38
ENDBRANCH  36  37
ENDBRANCH   1  36
TORSDOF 19
ENDMDL
