MODEL 1
REMARK VINA RESULT:     -12.9      0.000      0.000
REMARK SMILES Cc1ccccc1[C@@H](Cc1ncnn1C(C)C)C(=O)NCCCCCCNC(=O)c1ccc(-c2c3nc(c(-c4c(F)c(F)c(F)c(F)c4F)c4ccc([nH]4)c(-c4c(F)c(F)c(F)c(F)c4F)c4nc(c(-c5c(F)c(F)c(F)c(F)c5F)c5ccc2[nH]5)C=C4)C=C3)cc1
REMARK SMILES IDX 23 1 22 2 21 3 20 4 18 5 19 6 8 8 7 9 1 10 2 11 3 12 4 13
REMARK SMILES IDX 6 14 5 15 9 16 10 17 11 18 14 19 12 20 13 21 15 22 16 23
REMARK SMILES IDX 17 24 24 25 25 26 26 27 27 28 28 29 29 31 30 32 31 33 92 34
REMARK SMILES IDX 32 35 91 36 33 37 34 38 35 39 85 40 36 41 90 42 84 43 86 44
REMARK SMILES IDX 37 45 89 46 83 47 82 48 38 50 70 51 50 52 69 53 51 54 54 55
REMARK SMILES IDX 68 56 87 57 52 58 53 59 67 61 88 62 55 63 39 64 40 65 48 66
REMARK SMILES IDX 41 67 42 68 46 69 49 70 43 71 44 72 47 73 45 74 71 75 72 76
REMARK SMILES IDX 80 77 73 78 74 79 78 80 81 81 75 82 76 83 79 84 77 85 56 86
REMARK SMILES IDX 57 87 65 88 58 89 59 90 63 91 66 92 60 93 61 94 64 95 62 96
REMARK H PARENT 20 7 27 30 86 49 54 60
REMARK Flexibility Score: inf
ROOT
ATOM      1  C   UNL A   1      31.499  29.483  24.504  1.00  0.00     0.002 C 
ENDROOT
BRANCH   1   2
ATOM      2  C   UNL A   1      31.630  28.804  23.133  1.00  0.00     0.021 C 
BRANCH   2   3
ATOM      3  C   UNL A   1      33.034  28.356  22.742  1.00  0.00     0.116 C 
BRANCH   3   4
ATOM      4  N   UNL A   1      33.111  27.474  21.604  1.00  0.00    -0.356 N 
ATOM      5  C   UNL A   1      33.110  26.115  21.536  1.00  0.00     0.228 C 
ATOM      6  O   UNL A   1      32.920  25.633  20.411  1.00  0.00    -0.274 OA
ATOM      7  H   UNL A   1      33.173  27.930  20.734  1.00  0.00     0.163 HD
BRANCH   5   8
ATOM      8  C   UNL A   1      33.315  25.171  22.739  1.00  0.00     0.116 C 
BRANCH   8   9
ATOM      9  C   UNL A   1      32.326  25.422  23.890  1.00  0.00    -0.032 A 
ATOM     10  C   UNL A   1      34.203  25.967  25.592  1.00  0.00     0.044 C 
ATOM     11  C   UNL A   1      32.757  25.853  25.176  1.00  0.00    -0.047 A 
ATOM     12  C   UNL A   1      31.804  26.126  26.181  1.00  0.00     0.004 A 
ATOM     13  C   UNL A   1      30.440  26.014  25.937  1.00  0.00     0.000 A 
ATOM     14  C   UNL A   1      30.940  25.294  23.693  1.00  0.00     0.005 A 
ATOM     15  C   UNL A   1      30.009  25.596  24.691  1.00  0.00     0.000 A 
ENDBRANCH   8   9
BRANCH   8  16
ATOM     16  C   UNL A   1      33.862  23.759  22.416  1.00  0.00     0.095 C 
BRANCH  16  17
ATOM     17  C   UNL A   1      34.918  23.162  23.281  1.00  0.00     0.128 A 
ATOM     18  N   UNL A   1      36.194  23.051  22.958  1.00  0.00    -0.220 NA
ATOM     19  N   UNL A   1      34.736  22.557  24.509  1.00  0.00    -0.248 N 
ATOM     20  C   UNL A   1      36.768  22.481  24.049  1.00  0.00     0.246 A 
ATOM     21  N   UNL A   1      35.930  22.222  25.049  1.00  0.00    -0.159 NA
BRANCH  19  22
ATOM     22  C   UNL A   1      33.513  22.188  25.213  1.00  0.00     0.103 C 
ATOM     23  C   UNL A   1      33.107  20.745  24.890  1.00  0.00     0.033 C 
ATOM     24  C   UNL A   1      33.638  22.380  26.723  1.00  0.00     0.033 C 
ENDBRANCH  19  22
ENDBRANCH  16  17
ENDBRANCH   8  16
ENDBRANCH   5   8
ENDBRANCH   3   4
ENDBRANCH   2   3
ENDBRANCH   1   2
BRANCH   1  25
ATOM     25  C   UNL A   1      32.778  29.681  25.341  1.00  0.00     0.002 C 
BRANCH  25  26
ATOM     26  C   UNL A   1      32.626  30.346  26.712  1.00  0.00     0.021 C 
BRANCH  26  27
ATOM     27  C   UNL A   1      33.689  29.958  27.727  1.00  0.00     0.116 C 
BRANCH  27  28
ATOM     28  N   UNL A   1      34.312  31.094  28.403  1.00  0.00    -0.352 N 
ATOM     29  C   UNL A   1      35.567  31.167  28.986  1.00  0.00     0.251 C 
ATOM     30  H   UNL A   1      33.769  31.914  28.450  1.00  0.00     0.163 HD
ATOM     31  O   UNL A   1      35.954  32.181  29.537  1.00  0.00    -0.269 OA
BRANCH  29  32
ATOM     32  C   UNL A   1      36.478  30.012  28.816  1.00  0.00     0.039 A 
ATOM     33  C   UNL A   1      36.783  29.251  29.949  1.00  0.00     0.014 A 
ATOM     34  C   UNL A   1      37.193  29.853  27.632  1.00  0.00     0.014 A 
ATOM     35  C   UNL A   1      37.963  28.514  29.966  1.00  0.00     0.010 A 
ATOM     36  C   UNL A   1      38.406  29.196  27.676  1.00  0.00     0.010 A 
ATOM     37  C   UNL A   1      38.822  28.595  28.870  1.00  0.00    -0.014 A 
BRANCH  37  38
ATOM     38  C   UNL A   1      40.213  28.167  28.925  1.00  0.00     0.031 A 
ATOM     39  C   UNL A   1      40.584  26.799  28.522  1.00  0.00     0.074 A 
ATOM     40  C   UNL A   1      41.164  29.044  29.319  1.00  0.00     0.049 A 
ATOM     41  N   UNL A   1      41.683  26.217  28.868  1.00  0.00    -0.248 NA
ATOM     42  C   UNL A   1      39.687  25.927  27.769  1.00  0.00     0.031 C 
ATOM     43  C   UNL A   1      42.612  28.896  29.198  1.00  0.00     0.029 A 
ATOM     44  N   UNL A   1      40.996  30.172  30.142  1.00  0.00    -0.354 N 
ATOM     45  C   UNL A   1      41.774  25.042  28.162  1.00  0.00     0.074 A 
ATOM     46  C   UNL A   1      40.453  24.841  27.625  1.00  0.00     0.031 C 
ATOM     47  C   UNL A   1      43.203  29.661  30.130  1.00  0.00     0.029 A 
ATOM     48  C   UNL A   1      42.147  30.204  30.965  1.00  0.00     0.049 A 
ATOM     49  H   UNL A   1      40.240  30.803  30.145  1.00  0.00     0.167 HD
ATOM     50  C   UNL A   1      43.005  24.473  28.006  1.00  0.00     0.037 A 
ATOM     51  C   UNL A   1      42.069  30.061  32.319  1.00  0.00     0.037 A 
ATOM     52  C   UNL A   1      43.969  25.074  28.934  1.00  0.00     0.049 A 
ATOM     53  C   UNL A   1      42.901  28.927  32.870  1.00  0.00     0.074 A 
ATOM     54  C   UNL A   1      45.013  25.969  28.778  1.00  0.00     0.029 A 
ATOM     55  N   UNL A   1      43.750  24.960  30.305  1.00  0.00    -0.354 N 
ATOM     56  N   UNL A   1      43.327  27.924  32.154  1.00  0.00    -0.248 NA
ATOM     57  C   UNL A   1      43.284  28.814  34.274  1.00  0.00     0.031 C 
ATOM     58  C   UNL A   1      45.377  26.446  30.066  1.00  0.00     0.029 A 
ATOM     59  C   UNL A   1      44.579  25.813  31.005  1.00  0.00     0.049 A 
ATOM     60  H   UNL A   1      43.094  24.354  30.720  1.00  0.00     0.167 HD
ATOM     61  C   UNL A   1      44.007  27.044  32.957  1.00  0.00     0.074 A 
ATOM     62  C   UNL A   1      43.970  27.657  34.271  1.00  0.00     0.031 C 
ATOM     63  C   UNL A   1      44.526  25.881  32.460  1.00  0.00     0.037 A 
BRANCH  50  64
ATOM     64  C   UNL A   1      43.421  23.549  26.867  1.00  0.00     0.064 A 
ATOM     65  C   UNL A   1      43.050  22.182  26.893  1.00  0.00     0.173 A 
ATOM     66  C   UNL A   1      44.280  23.884  25.799  1.00  0.00     0.173 A 
ATOM     67  F   UNL A   1      42.206  21.705  27.819  1.00  0.00    -0.203 F 
ATOM     68  C   UNL A   1      43.545  21.241  25.980  1.00  0.00     0.198 A 
ATOM     69  C   UNL A   1      44.753  22.950  24.872  1.00  0.00     0.198 A 
ATOM     70  F   UNL A   1      44.738  25.120  25.601  1.00  0.00    -0.203 F 
ATOM     71  F   UNL A   1      43.200  19.952  26.099  1.00  0.00    -0.200 F 
ATOM     72  C   UNL A   1      44.403  21.625  24.971  1.00  0.00     0.200 A 
ATOM     73  F   UNL A   1      45.577  23.353  23.892  1.00  0.00    -0.200 F 
ATOM     74  F   UNL A   1      44.891  20.727  24.106  1.00  0.00    -0.200 F 
ENDBRANCH  50  64
BRANCH  51  75
ATOM     75  C   UNL A   1      40.778  30.527  32.887  1.00  0.00     0.064 A 
ATOM     76  C   UNL A   1      40.503  31.909  32.877  1.00  0.00     0.173 A 
ATOM     77  C   UNL A   1      39.701  29.654  33.072  1.00  0.00     0.173 A 
ATOM     78  F   UNL A   1      41.502  32.790  32.702  1.00  0.00    -0.203 F 
ATOM     79  C   UNL A   1      39.197  32.388  32.921  1.00  0.00     0.198 A 
ATOM     80  C   UNL A   1      38.393  30.140  33.135  1.00  0.00     0.198 A 
ATOM     81  F   UNL A   1      39.895  28.327  33.075  1.00  0.00    -0.203 F 
ATOM     82  F   UNL A   1      38.961  33.701  32.786  1.00  0.00    -0.200 F 
ATOM     83  C   UNL A   1      38.140  31.500  33.024  1.00  0.00     0.200 A 
ATOM     84  F   UNL A   1      37.367  29.280  33.207  1.00  0.00    -0.200 F 
ATOM     85  F   UNL A   1      36.878  31.949  32.971  1.00  0.00    -0.200 F 
ENDBRANCH  51  75
BRANCH  63  86
ATOM     86  C   UNL A   1      45.101  24.731  33.260  1.00  0.00     0.064 A 
ATOM     87  C   UNL A   1      44.410  23.546  33.560  1.00  0.00     0.173 A 
ATOM     88  C   UNL A   1      46.469  24.742  33.638  1.00  0.00     0.173 A 
ATOM     89  F   UNL A   1      43.150  23.349  33.152  1.00  0.00    -0.203 F 
ATOM     90  C   UNL A   1      45.017  22.483  34.240  1.00  0.00     0.198 A 
ATOM     91  C   UNL A   1      47.086  23.657  34.262  1.00  0.00     0.198 A 
ATOM     92  F   UNL A   1      47.258  25.797  33.390  1.00  0.00    -0.203 F 
ATOM     93  F   UNL A   1      44.298  21.391  34.537  1.00  0.00    -0.200 F 
ATOM     94  C   UNL A   1      46.356  22.533  34.577  1.00  0.00     0.200 A 
ATOM     95  F   UNL A   1      48.398  23.703  34.532  1.00  0.00    -0.200 F 
ATOM     96  F   UNL A   1      46.944  21.492  35.183  1.00  0.00    -0.200 F 
ENDBRANCH  63  86
ENDBRANCH  37  38
ENDBRANCH  29  32
ENDBRANCH  27  28
ENDBRANCH  26  27
ENDBRANCH  25  26
ENDBRANCH   1  25
TORSDOF 17
ENDMDL
MODEL 2
REMARK VINA RESULT:     -12.7      3.741      9.924
REMARK SMILES Cc1ccccc1[C@@H](Cc1ncnn1C(C)C)C(=O)NCCCCCCNC(=O)c1ccc(-c2c3nc(c(-c4c(F)c(F)c(F)c(F)c4F)c4ccc([nH]4)c(-c4c(F)c(F)c(F)c(F)c4F)c4nc(c(-c5c(F)c(F)c(F)c(F)c5F)c5ccc2[nH]5)C=C4)C=C3)cc1
REMARK SMILES IDX 23 1 22 2 21 3 20 4 18 5 19 6 8 8 7 9 1 10 2 11 3 12 4 13
REMARK SMILES IDX 6 14 5 15 9 16 10 17 11 18 14 19 12 20 13 21 15 22 16 23
REMARK SMILES IDX 17 24 24 25 25 26 26 27 27 28 28 29 29 31 30 32 31 33 92 34
REMARK SMILES IDX 32 35 91 36 33 37 34 38 35 39 85 40 36 41 90 42 84 43 86 44
REMARK SMILES IDX 37 45 89 46 83 47 82 48 38 50 70 51 50 52 69 53 51 54 54 55
REMARK SMILES IDX 68 56 87 57 52 58 53 59 67 61 88 62 55 63 39 64 40 65 48 66
REMARK SMILES IDX 41 67 42 68 46 69 49 70 43 71 44 72 47 73 45 74 71 75 72 76
REMARK SMILES IDX 80 77 73 78 74 79 78 80 81 81 75 82 76 83 79 84 77 85 56 86
REMARK SMILES IDX 57 87 65 88 58 89 59 90 63 91 66 92 60 93 61 94 64 95 62 96
REMARK H PARENT 20 7 27 30 86 49 54 60
REMARK Flexibility Score: inf
ROOT
ATOM      1  C   UNL A   1      34.937  21.074  25.431  1.00  0.00     0.002 C 
ENDROOT
BRANCH   1   2
ATOM      2  C   UNL A   1      33.569  21.064  26.129  1.00  0.00     0.021 C 
BRANCH   2   3
ATOM      3  C   UNL A   1      33.353  22.142  27.186  1.00  0.00     0.116 C 
BRANCH   3   4
ATOM      4  N   UNL A   1      31.976  22.436  27.500  1.00  0.00    -0.356 N 
ATOM      5  C   UNL A   1      31.128  23.363  26.976  1.00  0.00     0.228 C 
ATOM      6  O   UNL A   1      29.930  23.213  27.253  1.00  0.00    -0.274 OA
ATOM      7  H   UNL A   1      31.587  21.875  28.208  1.00  0.00     0.163 HD
BRANCH   5   8
ATOM      8  C   UNL A   1      31.556  24.544  26.080  1.00  0.00     0.116 C 
BRANCH   8   9
ATOM      9  C   UNL A   1      32.291  24.108  24.802  1.00  0.00    -0.032 A 
ATOM     10  C   UNL A   1      34.399  25.514  25.347  1.00  0.00     0.044 C 
ATOM     11  C   UNL A   1      33.625  24.516  24.521  1.00  0.00    -0.047 A 
ATOM     12  C   UNL A   1      34.276  24.040  23.362  1.00  0.00     0.004 A 
ATOM     13  C   UNL A   1      33.654  23.151  22.495  1.00  0.00     0.000 A 
ATOM     14  C   UNL A   1      31.688  23.231  23.885  1.00  0.00     0.005 A 
ATOM     15  C   UNL A   1      32.357  22.748  22.757  1.00  0.00     0.000 A 
ENDBRANCH   8   9
BRANCH   8  16
ATOM     16  C   UNL A   1      30.649  25.799  26.122  1.00  0.00     0.095 C 
BRANCH  16  17
ATOM     17  C   UNL A   1      31.250  27.133  26.402  1.00  0.00     0.128 A 
ATOM     18  N   UNL A   1      31.269  27.726  27.582  1.00  0.00    -0.220 NA
ATOM     19  N   UNL A   1      31.802  28.001  25.481  1.00  0.00    -0.248 N 
ATOM     20  C   UNL A   1      31.934  28.890  27.362  1.00  0.00     0.246 A 
ATOM     21  N   UNL A   1      32.338  29.073  26.108  1.00  0.00    -0.159 NA
BRANCH  19  22
ATOM     22  C   UNL A   1      31.812  27.955  24.022  1.00  0.00     0.103 C 
ATOM     23  C   UNL A   1      30.482  28.455  23.447  1.00  0.00     0.033 C 
ATOM     24  C   UNL A   1      32.979  28.745  23.432  1.00  0.00     0.033 C 
ENDBRANCH  19  22
ENDBRANCH  16  17
ENDBRANCH   8  16
ENDBRANCH   5   8
ENDBRANCH   3   4
ENDBRANCH   2   3
ENDBRANCH   1   2
BRANCH   1  25
ATOM     25  C   UNL A   1      36.105  21.794  26.134  1.00  0.00     0.002 C 
BRANCH  25  26
ATOM     26  C   UNL A   1      37.400  21.976  25.337  1.00  0.00     0.021 C 
BRANCH  26  27
ATOM     27  C   UNL A   1      38.184  23.233  25.677  1.00  0.00     0.116 C 
BRANCH  27  28
ATOM     28  N   UNL A   1      39.539  22.980  26.160  1.00  0.00    -0.352 N 
ATOM     29  C   UNL A   1      40.414  23.862  26.775  1.00  0.00     0.251 C 
ATOM     30  H   UNL A   1      39.875  22.063  26.032  1.00  0.00     0.163 HD
ATOM     31  O   UNL A   1      41.532  23.518  27.112  1.00  0.00    -0.269 OA
BRANCH  29  32
ATOM     32  C   UNL A   1      39.908  25.209  27.123  1.00  0.00     0.039 A 
ATOM     33  C   UNL A   1      40.430  26.302  26.423  1.00  0.00     0.014 A 
ATOM     34  C   UNL A   1      39.137  25.394  28.268  1.00  0.00     0.014 A 
ATOM     35  C   UNL A   1      40.388  27.561  27.013  1.00  0.00     0.010 A 
ATOM     36  C   UNL A   1      39.172  26.622  28.896  1.00  0.00     0.010 A 
ATOM     37  C   UNL A   1      39.866  27.682  28.301  1.00  0.00    -0.014 A 
BRANCH  37  38
ATOM     38  C   UNL A   1      40.095  28.852  29.138  1.00  0.00     0.031 A 
ATOM     39  C   UNL A   1      39.095  29.934  29.188  1.00  0.00     0.074 A 
ATOM     40  C   UNL A   1      41.216  28.923  29.891  1.00  0.00     0.049 A 
ATOM     41  N   UNL A   1      39.351  31.135  29.585  1.00  0.00    -0.248 NA
ATOM     42  C   UNL A   1      37.733  29.774  28.689  1.00  0.00     0.031 C 
ATOM     43  C   UNL A   1      41.503  29.867  30.968  1.00  0.00     0.029 A 
ATOM     44  N   UNL A   1      42.442  28.276  29.658  1.00  0.00    -0.354 N 
ATOM     45  C   UNL A   1      38.156  31.808  29.677  1.00  0.00     0.074 A 
ATOM     46  C   UNL A   1      37.219  30.976  28.967  1.00  0.00     0.031 C 
ATOM     47  C   UNL A   1      42.834  29.979  31.101  1.00  0.00     0.029 A 
ATOM     48  C   UNL A   1      43.433  29.222  30.016  1.00  0.00     0.049 A 
ATOM     49  H   UNL A   1      42.582  27.363  29.318  1.00  0.00     0.167 HD
ATOM     50  C   UNL A   1      38.094  32.914  30.474  1.00  0.00     0.037 A 
ATOM     51  C   UNL A   1      44.312  29.726  29.104  1.00  0.00     0.037 A 
ATOM     52  C   UNL A   1      39.444  33.369  30.826  1.00  0.00     0.049 A 
ATOM     53  C   UNL A   1      44.300  31.233  28.999  1.00  0.00     0.074 A 
ATOM     54  C   UNL A   1      40.203  33.301  31.981  1.00  0.00     0.029 A 
ATOM     55  N   UNL A   1      40.308  33.772  29.811  1.00  0.00    -0.354 N 
ATOM     56  N   UNL A   1      43.309  31.980  29.399  1.00  0.00    -0.248 NA
ATOM     57  C   UNL A   1      45.382  32.011  28.403  1.00  0.00     0.031 C 
ATOM     58  C   UNL A   1      41.549  33.602  31.640  1.00  0.00     0.029 A 
ATOM     59  C   UNL A   1      41.599  33.887  30.285  1.00  0.00     0.049 A 
ATOM     60  H   UNL A   1      40.036  33.950  28.881  1.00  0.00     0.167 HD
ATOM     61  C   UNL A   1      43.584  33.294  29.119  1.00  0.00     0.074 A 
ATOM     62  C   UNL A   1      44.903  33.262  28.514  1.00  0.00     0.031 C 
ATOM     63  C   UNL A   1      42.687  34.286  29.401  1.00  0.00     0.037 A 
BRANCH  50  64
ATOM     64  C   UNL A   1      36.838  33.458  31.145  1.00  0.00     0.064 A 
ATOM     65  C   UNL A   1      36.602  33.201  32.518  1.00  0.00     0.173 A 
ATOM     66  C   UNL A   1      35.770  34.116  30.498  1.00  0.00     0.173 A 
ATOM     67  F   UNL A   1      37.531  32.619  33.289  1.00  0.00    -0.203 F 
ATOM     68  C   UNL A   1      35.392  33.513  33.154  1.00  0.00     0.198 A 
ATOM     69  C   UNL A   1      34.573  34.451  31.140  1.00  0.00     0.198 A 
ATOM     70  F   UNL A   1      35.802  34.448  29.208  1.00  0.00    -0.203 F 
ATOM     71  F   UNL A   1      35.213  33.187  34.441  1.00  0.00    -0.200 F 
ATOM     72  C   UNL A   1      34.375  34.133  32.461  1.00  0.00     0.200 A 
ATOM     73  F   UNL A   1      33.604  35.066  30.445  1.00  0.00    -0.200 F 
ATOM     74  F   UNL A   1      33.212  34.419  33.060  1.00  0.00    -0.200 F 
ENDBRANCH  50  64
BRANCH  51  75
ATOM     75  C   UNL A   1      44.595  28.795  27.982  1.00  0.00     0.064 A 
ATOM     76  C   UNL A   1      45.340  27.630  28.251  1.00  0.00     0.173 A 
ATOM     77  C   UNL A   1      43.853  28.829  26.796  1.00  0.00     0.173 A 
ATOM     78  F   UNL A   1      46.069  27.545  29.376  1.00  0.00    -0.203 F 
ATOM     79  C   UNL A   1      45.245  26.505  27.437  1.00  0.00     0.198 A 
ATOM     80  C   UNL A   1      43.775  27.704  25.972  1.00  0.00     0.198 A 
ATOM     81  F   UNL A   1      43.110  29.902  26.492  1.00  0.00    -0.203 F 
ATOM     82  F   UNL A   1      45.870  25.370  27.787  1.00  0.00    -0.200 F 
ATOM     83  C   UNL A   1      44.440  26.534  26.311  1.00  0.00     0.200 A 
ATOM     84  F   UNL A   1      42.975  27.722  24.896  1.00  0.00    -0.200 F 
ATOM     85  F   UNL A   1      44.271  25.425  25.577  1.00  0.00    -0.200 F 
ENDBRANCH  51  75
BRANCH  63  86
ATOM     86  C   UNL A   1      42.765  35.732  28.955  1.00  0.00     0.064 A 
ATOM     87  C   UNL A   1      42.072  36.264  27.856  1.00  0.00     0.173 A 
ATOM     88  C   UNL A   1      43.461  36.683  29.746  1.00  0.00     0.173 A 
ATOM     89  F   UNL A   1      41.275  35.502  27.096  1.00  0.00    -0.203 F 
ATOM     90  C   UNL A   1      42.122  37.625  27.534  1.00  0.00     0.198 A 
ATOM     91  C   UNL A   1      43.458  38.048  29.456  1.00  0.00     0.198 A 
ATOM     92  F   UNL A   1      44.143  36.322  30.842  1.00  0.00    -0.203 F 
ATOM     93  F   UNL A   1      41.475  38.073  26.447  1.00  0.00    -0.200 F 
ATOM     94  C   UNL A   1      42.802  38.518  28.340  1.00  0.00     0.200 A 
ATOM     95  F   UNL A   1      44.078  38.904  30.280  1.00  0.00    -0.200 F 
ATOM     96  F   UNL A   1      42.805  39.827  28.055  1.00  0.00    -0.200 F 
ENDBRANCH  63  86
ENDBRANCH  37  38
ENDBRANCH  29  32
ENDBRANCH  27  28
ENDBRANCH  26  27
ENDBRANCH  25  26
ENDBRANCH   1  25
TORSDOF 17
ENDMDL
MODEL 3
REMARK VINA RESULT:     -12.2      1.368      2.654
REMARK SMILES Cc1ccccc1[C@@H](Cc1ncnn1C(C)C)C(=O)NCCCCCCNC(=O)c1ccc(-c2c3nc(c(-c4c(F)c(F)c(F)c(F)c4F)c4ccc([nH]4)c(-c4c(F)c(F)c(F)c(F)c4F)c4nc(c(-c5c(F)c(F)c(F)c(F)c5F)c5ccc2[nH]5)C=C4)C=C3)cc1
REMARK SMILES IDX 23 1 22 2 21 3 20 4 18 5 19 6 8 8 7 9 1 10 2 11 3 12 4 13
REMARK SMILES IDX 6 14 5 15 9 16 10 17 11 18 14 19 12 20 13 21 15 22 16 23
REMARK SMILES IDX 17 24 24 25 25 26 26 27 27 28 28 29 29 31 30 32 31 33 92 34
REMARK SMILES IDX 32 35 91 36 33 37 34 38 35 39 85 40 36 41 90 42 84 43 86 44
REMARK SMILES IDX 37 45 89 46 83 47 82 48 38 50 70 51 50 52 69 53 51 54 54 55
REMARK SMILES IDX 68 56 87 57 52 58 53 59 67 61 88 62 55 63 39 64 40 65 48 66
REMARK SMILES IDX 41 67 42 68 46 69 49 70 43 71 44 72 47 73 45 74 71 75 72 76
REMARK SMILES IDX 80 77 73 78 74 79 78 80 81 81 75 82 76 83 79 84 77 85 56 86
REMARK SMILES IDX 57 87 65 88 58 89 59 90 63 91 66 92 60 93 61 94 64 95 62 96
REMARK H PARENT 20 7 27 30 86 49 54 60
REMARK Flexibility Score: inf
ROOT
ATOM      1  C   UNL A   1      33.425  27.393  26.405  1.00  0.00     0.002 C 
ENDROOT
BRANCH   1   2
ATOM      2  C   UNL A   1      31.957  27.427  26.855  1.00  0.00     0.021 C 
BRANCH   2   3
ATOM      3  C   UNL A   1      31.058  26.337  26.280  1.00  0.00     0.116 C 
BRANCH   3   4
ATOM      4  N   UNL A   1      31.190  25.037  26.891  1.00  0.00    -0.356 N 
ATOM      5  C   UNL A   1      32.007  23.993  26.581  1.00  0.00     0.228 C 
ATOM      6  O   UNL A   1      32.090  23.103  27.438  1.00  0.00    -0.274 OA
ATOM      7  H   UNL A   1      30.593  24.880  27.656  1.00  0.00     0.163 HD
BRANCH   5   8
ATOM      8  C   UNL A   1      32.816  23.864  25.274  1.00  0.00     0.116 C 
BRANCH   8   9
ATOM      9  C   UNL A   1      34.244  23.335  25.487  1.00  0.00    -0.032 A 
ATOM     10  C   UNL A   1      33.548  20.862  25.147  1.00  0.00     0.044 C 
ATOM     11  C   UNL A   1      34.567  21.955  25.357  1.00  0.00    -0.047 A 
ATOM     12  C   UNL A   1      35.905  21.529  25.505  1.00  0.00     0.004 A 
ATOM     13  C   UNL A   1      36.931  22.434  25.746  1.00  0.00     0.000 A 
ATOM     14  C   UNL A   1      35.307  24.213  25.760  1.00  0.00     0.005 A 
ATOM     15  C   UNL A   1      36.630  23.778  25.876  1.00  0.00     0.000 A 
ENDBRANCH   8   9
BRANCH   8  16
ATOM     16  C   UNL A   1      32.003  23.548  23.995  1.00  0.00     0.095 C 
BRANCH  16  17
ATOM     17  C   UNL A   1      32.530  23.964  22.664  1.00  0.00     0.128 A 
ATOM     18  N   UNL A   1      33.094  23.158  21.784  1.00  0.00    -0.220 NA
ATOM     19  N   UNL A   1      32.597  25.250  22.168  1.00  0.00    -0.248 N 
ATOM     20  C   UNL A   1      33.386  23.964  20.730  1.00  0.00     0.246 A 
ATOM     21  N   UNL A   1      33.040  25.239  20.890  1.00  0.00    -0.159 NA
BRANCH  19  22
ATOM     22  C   UNL A   1      32.346  26.533  22.818  1.00  0.00     0.103 C 
ATOM     23  C   UNL A   1      33.544  27.476  22.655  1.00  0.00     0.033 C 
ATOM     24  C   UNL A   1      31.070  27.198  22.304  1.00  0.00     0.033 C 
ENDBRANCH  19  22
ENDBRANCH  16  17
ENDBRANCH   8  16
ENDBRANCH   5   8
ENDBRANCH   3   4
ENDBRANCH   2   3
ENDBRANCH   1   2
BRANCH   1  25
ATOM     25  C   UNL A   1      34.310  28.614  26.724  1.00  0.00     0.002 C 
BRANCH  25  26
ATOM     26  C   UNL A   1      33.669  29.761  27.512  1.00  0.00     0.021 C 
BRANCH  26  27
ATOM     27  C   UNL A   1      34.428  31.077  27.447  1.00  0.00     0.116 C 
BRANCH  27  28
ATOM     28  N   UNL A   1      34.728  31.659  28.753  1.00  0.00    -0.352 N 
ATOM     29  C   UNL A   1      35.656  31.236  29.692  1.00  0.00     0.251 C 
ATOM     30  H   UNL A   1      34.203  32.455  28.997  1.00  0.00     0.163 HD
ATOM     31  O   UNL A   1      35.789  31.809  30.757  1.00  0.00    -0.269 OA
BRANCH  29  32
ATOM     32  C   UNL A   1      36.570  30.134  29.314  1.00  0.00     0.039 A 
ATOM     33  C   UNL A   1      36.812  29.135  30.262  1.00  0.00     0.014 A 
ATOM     34  C   UNL A   1      37.346  30.232  28.161  1.00  0.00     0.014 A 
ATOM     35  C   UNL A   1      37.987  28.395  30.174  1.00  0.00     0.010 A 
ATOM     36  C   UNL A   1      38.551  29.563  28.119  1.00  0.00     0.010 A 
ATOM     37  C   UNL A   1      38.903  28.704  29.168  1.00  0.00    -0.014 A 
BRANCH  37  38
ATOM     38  C   UNL A   1      40.287  28.254  29.196  1.00  0.00     0.031 A 
ATOM     39  C   UNL A   1      40.633  26.894  28.746  1.00  0.00     0.074 A 
ATOM     40  C   UNL A   1      41.256  29.104  29.608  1.00  0.00     0.049 A 
ATOM     41  N   UNL A   1      41.726  26.285  29.064  1.00  0.00    -0.248 NA
ATOM     42  C   UNL A   1      39.716  26.060  27.976  1.00  0.00     0.031 C 
ATOM     43  C   UNL A   1      42.700  28.938  29.469  1.00  0.00     0.029 A 
ATOM     44  N   UNL A   1      41.112  30.208  30.468  1.00  0.00    -0.354 N 
ATOM     45  C   UNL A   1      41.792  25.131  28.320  1.00  0.00     0.074 A 
ATOM     46  C   UNL A   1      40.463  24.968  27.790  1.00  0.00     0.031 C 
ATOM     47  C   UNL A   1      43.311  29.664  30.419  1.00  0.00     0.029 A 
ATOM     48  C   UNL A   1      42.271  30.196  31.280  1.00  0.00     0.049 A 
ATOM     49  H   UNL A   1      40.366  30.850  30.498  1.00  0.00     0.167 HD
ATOM     50  C   UNL A   1      43.012  24.548  28.135  1.00  0.00     0.037 A 
ATOM     51  C   UNL A   1      42.204  30.011  32.630  1.00  0.00     0.037 A 
ATOM     52  C   UNL A   1      43.994  25.105  29.072  1.00  0.00     0.049 A 
ATOM     53  C   UNL A   1      43.023  28.848  33.137  1.00  0.00     0.074 A 
ATOM     54  C   UNL A   1      45.050  25.989  28.934  1.00  0.00     0.029 A 
ATOM     55  N   UNL A   1      43.786  24.952  30.441  1.00  0.00    -0.354 N 
ATOM     56  N   UNL A   1      43.426  27.862  32.386  1.00  0.00    -0.248 NA
ATOM     57  C   UNL A   1      43.417  28.685  34.533  1.00  0.00     0.031 C 
ATOM     58  C   UNL A   1      45.434  26.419  30.232  1.00  0.00     0.029 A 
ATOM     59  C   UNL A   1      44.635  25.769  31.159  1.00  0.00     0.049 A 
ATOM     60  H   UNL A   1      43.124  24.343  30.842  1.00  0.00     0.167 HD
ATOM     61  C   UNL A   1      44.100  26.947  33.154  1.00  0.00     0.074 A 
ATOM     62  C   UNL A   1      44.085  27.518  34.487  1.00  0.00     0.031 C 
ATOM     63  C   UNL A   1      44.596  25.792  32.615  1.00  0.00     0.037 A 
BRANCH  50  64
ATOM     64  C   UNL A   1      43.403  23.655  26.963  1.00  0.00     0.064 A 
ATOM     65  C   UNL A   1      43.024  22.290  26.957  1.00  0.00     0.173 A 
ATOM     66  C   UNL A   1      44.247  24.015  25.891  1.00  0.00     0.173 A 
ATOM     67  F   UNL A   1      42.193  21.792  27.883  1.00  0.00    -0.203 F 
ATOM     68  C   UNL A   1      43.498  21.372  26.009  1.00  0.00     0.198 A 
ATOM     69  C   UNL A   1      44.698  23.104  24.930  1.00  0.00     0.198 A 
ATOM     70  F   UNL A   1      44.710  25.253  25.720  1.00  0.00    -0.203 F 
ATOM     71  F   UNL A   1      43.146  20.083  26.098  1.00  0.00    -0.200 F 
ATOM     72  C   UNL A   1      44.341  21.780  24.998  1.00  0.00     0.200 A 
ATOM     73  F   UNL A   1      45.508  23.531  23.949  1.00  0.00    -0.200 F 
ATOM     74  F   UNL A   1      44.809  20.904  24.100  1.00  0.00    -0.200 F 
ENDBRANCH  50  64
BRANCH  51  75
ATOM     75  C   UNL A   1      40.925  30.479  33.225  1.00  0.00     0.064 A 
ATOM     76  C   UNL A   1      40.726  31.866  33.377  1.00  0.00     0.173 A 
ATOM     77  C   UNL A   1      39.798  29.653  33.282  1.00  0.00     0.173 A 
ATOM     78  F   UNL A   1      41.775  32.703  33.329  1.00  0.00    -0.203 F 
ATOM     79  C   UNL A   1      39.447  32.409  33.453  1.00  0.00     0.198 A 
ATOM     80  C   UNL A   1      38.517  30.201  33.378  1.00  0.00     0.198 A 
ATOM     81  F   UNL A   1      39.920  28.327  33.128  1.00  0.00    -0.203 F 
ATOM     82  F   UNL A   1      39.286  33.741  33.472  1.00  0.00    -0.200 F 
ATOM     83  C   UNL A   1      38.341  31.577  33.426  1.00  0.00     0.200 A 
ATOM     84  F   UNL A   1      37.444  29.399  33.325  1.00  0.00    -0.200 F 
ATOM     85  F   UNL A   1      37.107  32.100  33.403  1.00  0.00    -0.200 F 
ENDBRANCH  51  75
BRANCH  63  86
ATOM     86  C   UNL A   1      45.161  24.609  33.374  1.00  0.00     0.064 A 
ATOM     87  C   UNL A   1      44.456  23.423  33.638  1.00  0.00     0.173 A 
ATOM     88  C   UNL A   1      46.530  24.590  33.744  1.00  0.00     0.173 A 
ATOM     89  F   UNL A   1      43.191  23.256  33.231  1.00  0.00    -0.203 F 
ATOM     90  C   UNL A   1      45.052  22.330  34.278  1.00  0.00     0.198 A 
ATOM     91  C   UNL A   1      47.137  23.477  34.328  1.00  0.00     0.198 A 
ATOM     92  F   UNL A   1      47.332  25.642  33.527  1.00  0.00    -0.203 F 
ATOM     93  F   UNL A   1      44.321  21.238  34.543  1.00  0.00    -0.200 F 
ATOM     94  C   UNL A   1      46.393  22.352  34.610  1.00  0.00     0.200 A 
ATOM     95  F   UNL A   1      48.450  23.497  34.592  1.00  0.00    -0.200 F 
ATOM     96  F   UNL A   1      46.971  21.284  35.177  1.00  0.00    -0.200 F 
ENDBRANCH  63  86
ENDBRANCH  37  38
ENDBRANCH  29  32
ENDBRANCH  27  28
ENDBRANCH  26  27
ENDBRANCH  25  26
ENDBRANCH   1  25
TORSDOF 17
ENDMDL
