MODEL 1
REMARK VINA RESULT:     -11.5      0.000      0.000
REMARK SMILES O=C(COCCNC(=O)Nc1cccc(F)c1)NCCCCCCNC(=O)c1ccc(-c2c3nc(c(-c4c(F)c(F)c(F)c(F)c4F)c4ccc([nH]4)c(-c4c(F)c(F)c(F)c(F)c4F)c4nc(c(-c5c(F)c(F)c(F)c(F)c5F)c5ccc2[nH]5)C=C4)C=C3)cc1
REMARK SMILES IDX 20 1 19 2 18 3 1 4 2 5 3 7 4 8 5 9 6 10 7 11 8 12 9 14 10 15
REMARK SMILES IDX 11 17 12 18 17 19 13 20 15 21 14 22 16 23 21 24 22 25 23 26
REMARK SMILES IDX 24 27 25 28 26 29 27 31 28 32 29 33 90 34 30 35 89 36 31 37
REMARK SMILES IDX 32 38 33 39 83 40 34 41 88 42 82 43 84 44 35 45 87 46 81 47
REMARK SMILES IDX 80 48 36 50 68 51 48 52 67 53 49 54 52 55 66 56 85 57 50 58
REMARK SMILES IDX 51 59 65 61 86 62 53 63 37 64 38 65 46 66 39 67 40 68 44 69
REMARK SMILES IDX 47 70 41 71 42 72 45 73 43 74 69 75 70 76 78 77 71 78 72 79
REMARK SMILES IDX 76 80 79 81 73 82 74 83 77 84 75 85 54 86 55 87 63 88 56 89
REMARK SMILES IDX 57 90 61 91 64 92 58 93 59 94 62 95 60 96
REMARK H PARENT 18 6 7 13 10 16 25 30 84 49 52 60
REMARK Flexibility Score: inf
ROOT
ATOM      1  C   UNL A   1      33.348  29.076  27.253  1.00  0.00     0.021 C 
ENDROOT
BRANCH   1   2
ATOM      2  C   UNL A   1      34.119  28.782  25.970  1.00  0.00     0.116 C 
BRANCH   2   3
ATOM      3  N   UNL A   1      33.629  27.590  25.328  1.00  0.00    -0.354 N 
ATOM      4  O   UNL A   1      33.832  28.350  23.165  1.00  0.00    -0.272 OA
ATOM      5  C   UNL A   1      33.530  27.467  23.958  1.00  0.00     0.245 C 
ATOM      6  H   UNL A   1      33.352  26.831  25.890  1.00  0.00     0.163 HD
BRANCH   5   7
ATOM      7  C   UNL A   1      32.942  26.123  23.523  1.00  0.00     0.260 C 
BRANCH   7   8
ATOM      8  O   UNL A   1      31.625  25.853  23.981  1.00  0.00    -0.370 OA
BRANCH   8   9
ATOM      9  C   UNL A   1      30.994  24.717  23.382  1.00  0.00     0.182 C 
BRANCH   9  10
ATOM     10  C   UNL A   1      31.033  23.454  24.243  1.00  0.00     0.146 C 
BRANCH  10  11
ATOM     11  N   UNL A   1      30.396  23.578  25.553  1.00  0.00    -0.336 N 
ATOM     12  C   UNL A   1      30.660  23.069  26.774  1.00  0.00     0.319 C 
ATOM     13  H   UNL A   1      29.603  24.161  25.542  1.00  0.00     0.165 HD
ATOM     14  O   UNL A   1      29.768  23.116  27.623  1.00  0.00    -0.249 OA
ATOM     15  N   UNL A   1      31.808  22.424  27.069  1.00  0.00    -0.308 N 
ATOM     16  H   UNL A   1      31.717  21.739  27.770  1.00  0.00     0.171 HD
BRANCH  15  17
ATOM     17  C   UNL A   1      33.103  22.554  26.558  1.00  0.00     0.045 A 
ATOM     18  C   UNL A   1      33.755  23.789  26.468  1.00  0.00     0.026 A 
ATOM     19  C   UNL A   1      33.744  21.398  26.119  1.00  0.00     0.065 A 
ATOM     20  C   UNL A   1      34.975  23.891  25.796  1.00  0.00     0.005 A 
ATOM     21  C   UNL A   1      34.956  21.511  25.448  1.00  0.00     0.125 A 
ATOM     22  C   UNL A   1      35.563  22.748  25.258  1.00  0.00     0.039 A 
ATOM     23  F   UNL A   1      35.525  20.412  24.937  1.00  0.00    -0.207 F 
ENDBRANCH  15  17
ENDBRANCH  10  11
ENDBRANCH   9  10
ENDBRANCH   8   9
ENDBRANCH   7   8
ENDBRANCH   5   7
ENDBRANCH   2   3
ENDBRANCH   1   2
BRANCH   1  24
ATOM     24  C   UNL A   1      31.893  29.507  27.026  1.00  0.00     0.002 C 
BRANCH  24  25
ATOM     25  C   UNL A   1      31.694  30.634  26.007  1.00  0.00     0.002 C 
BRANCH  25  26
ATOM     26  C   UNL A   1      31.436  32.017  26.607  1.00  0.00     0.021 C 
BRANCH  26  27
ATOM     27  C   UNL A   1      32.652  32.682  27.245  1.00  0.00     0.116 C 
BRANCH  27  28
ATOM     28  N   UNL A   1      32.401  34.062  27.626  1.00  0.00    -0.352 N 
ATOM     29  C   UNL A   1      33.010  34.825  28.591  1.00  0.00     0.251 C 
ATOM     30  H   UNL A   1      31.690  34.516  27.117  1.00  0.00     0.163 HD
ATOM     31  O   UNL A   1      32.568  35.935  28.870  1.00  0.00    -0.269 OA
BRANCH  29  32
ATOM     32  C   UNL A   1      34.183  34.298  29.323  1.00  0.00     0.039 A 
ATOM     33  C   UNL A   1      33.978  33.699  30.569  1.00  0.00     0.014 A 
ATOM     34  C   UNL A   1      35.473  34.395  28.795  1.00  0.00     0.014 A 
ATOM     35  C   UNL A   1      35.058  33.138  31.254  1.00  0.00     0.010 A 
ATOM     36  C   UNL A   1      36.539  33.778  29.448  1.00  0.00     0.010 A 
ATOM     37  C   UNL A   1      36.341  33.141  30.681  1.00  0.00    -0.014 A 
BRANCH  37  38
ATOM     38  C   UNL A   1      37.474  32.454  31.351  1.00  0.00     0.031 A 
ATOM     39  C   UNL A   1      38.191  31.323  30.674  1.00  0.00     0.074 A 
ATOM     40  C   UNL A   1      37.824  32.824  32.598  1.00  0.00     0.049 A 
ATOM     41  N   UNL A   1      39.181  30.590  31.117  1.00  0.00    -0.248 NA
ATOM     42  C   UNL A   1      37.722  30.950  29.331  1.00  0.00     0.031 C 
ATOM     43  C   UNL A   1      37.174  33.876  33.378  1.00  0.00     0.029 A 
ATOM     44  N   UNL A   1      38.812  32.355  33.428  1.00  0.00    -0.354 N 
ATOM     45  C   UNL A   1      39.448  29.668  30.114  1.00  0.00     0.074 A 
ATOM     46  C   UNL A   1      38.483  29.899  29.061  1.00  0.00     0.031 C 
ATOM     47  C   UNL A   1      37.799  33.996  34.559  1.00  0.00     0.029 A 
ATOM     48  C   UNL A   1      38.872  33.008  34.633  1.00  0.00     0.049 A 
ATOM     49  H   UNL A   1      39.419  31.620  33.182  1.00  0.00     0.167 HD
ATOM     50  C   UNL A   1      40.426  28.732  30.068  1.00  0.00     0.037 A 
ATOM     51  C   UNL A   1      39.699  32.835  35.682  1.00  0.00     0.037 A 
ATOM     52  C   UNL A   1      41.397  28.519  31.108  1.00  0.00     0.049 A 
ATOM     53  C   UNL A   1      40.770  31.783  35.610  1.00  0.00     0.074 A 
ATOM     54  C   UNL A   1      42.464  27.637  31.123  1.00  0.00     0.029 A 
ATOM     55  N   UNL A   1      41.419  29.193  32.319  1.00  0.00    -0.354 N 
ATOM     56  N   UNL A   1      41.051  30.957  34.632  1.00  0.00    -0.248 NA
ATOM     57  C   UNL A   1      41.639  31.639  36.786  1.00  0.00     0.031 C 
ATOM     58  C   UNL A   1      43.104  27.746  32.361  1.00  0.00     0.029 A 
ATOM     59  C   UNL A   1      42.465  28.729  33.100  1.00  0.00     0.049 A 
ATOM     60  H   UNL A   1      40.784  29.897  32.586  1.00  0.00     0.167 HD
ATOM     61  C   UNL A   1      42.134  30.205  35.066  1.00  0.00     0.074 A 
ATOM     62  C   UNL A   1      42.471  30.685  36.390  1.00  0.00     0.031 C 
ATOM     63  C   UNL A   1      42.785  29.207  34.422  1.00  0.00     0.037 A 
BRANCH  50  64
ATOM     64  C   UNL A   1      40.503  27.871  28.841  1.00  0.00     0.064 A 
ATOM     65  C   UNL A   1      41.283  28.261  27.742  1.00  0.00     0.173 A 
ATOM     66  C   UNL A   1      39.760  26.685  28.731  1.00  0.00     0.173 A 
ATOM     67  F   UNL A   1      42.007  29.389  27.793  1.00  0.00    -0.203 F 
ATOM     68  C   UNL A   1      41.313  27.498  26.577  1.00  0.00     0.198 A 
ATOM     69  C   UNL A   1      39.815  25.910  27.576  1.00  0.00     0.198 A 
ATOM     70  F   UNL A   1      39.006  26.264  29.757  1.00  0.00    -0.203 F 
ATOM     71  F   UNL A   1      42.047  27.902  25.531  1.00  0.00    -0.200 F 
ATOM     72  C   UNL A   1      40.585  26.321  26.497  1.00  0.00     0.200 A 
ATOM     73  F   UNL A   1      39.129  24.761  27.509  1.00  0.00    -0.200 F 
ATOM     74  F   UNL A   1      40.627  25.580  25.382  1.00  0.00    -0.200 F 
ENDBRANCH  50  64
BRANCH  51  75
ATOM     75  C   UNL A   1      39.564  33.716  36.868  1.00  0.00     0.064 A 
ATOM     76  C   UNL A   1      38.782  33.344  37.970  1.00  0.00     0.173 A 
ATOM     77  C   UNL A   1      40.175  34.976  36.894  1.00  0.00     0.173 A 
ATOM     78  F   UNL A   1      38.171  32.150  37.989  1.00  0.00    -0.203 F 
ATOM     79  C   UNL A   1      38.597  34.211  39.046  1.00  0.00     0.198 A 
ATOM     80  C   UNL A   1      40.009  35.834  37.980  1.00  0.00     0.198 A 
ATOM     81  F   UNL A   1      40.948  35.367  35.870  1.00  0.00    -0.203 F 
ATOM     82  F   UNL A   1      37.814  33.847  40.070  1.00  0.00    -0.200 F 
ATOM     83  C   UNL A   1      39.211  35.454  39.050  1.00  0.00     0.200 A 
ATOM     84  F   UNL A   1      40.619  37.026  37.989  1.00  0.00    -0.200 F 
ATOM     85  F   UNL A   1      39.035  36.287  40.085  1.00  0.00    -0.200 F 
ENDBRANCH  51  75
BRANCH  63  86
ATOM     86  C   UNL A   1      43.934  28.558  35.135  1.00  0.00     0.064 A 
ATOM     87  C   UNL A   1      45.238  29.054  34.985  1.00  0.00     0.173 A 
ATOM     88  C   UNL A   1      43.754  27.403  35.910  1.00  0.00     0.173 A 
ATOM     89  F   UNL A   1      45.464  30.152  34.248  1.00  0.00    -0.203 F 
ATOM     90  C   UNL A   1      46.322  28.407  35.573  1.00  0.00     0.198 A 
ATOM     91  C   UNL A   1      44.837  26.774  36.518  1.00  0.00     0.198 A 
ATOM     92  F   UNL A   1      42.524  26.899  36.094  1.00  0.00    -0.203 F 
ATOM     93  F   UNL A   1      47.563  28.880  35.391  1.00  0.00    -0.200 F 
ATOM     94  C   UNL A   1      46.121  27.270  36.341  1.00  0.00     0.200 A 
ATOM     95  F   UNL A   1      44.639  25.689  37.279  1.00  0.00    -0.200 F 
ATOM     96  F   UNL A   1      47.163  26.655  36.915  1.00  0.00    -0.200 F 
ENDBRANCH  63  86
ENDBRANCH  37  38
ENDBRANCH  29  32
ENDBRANCH  27  28
ENDBRANCH  26  27
ENDBRANCH  25  26
ENDBRANCH  24  25
ENDBRANCH   1  24
TORSDOF 18
ENDMDL
MODEL 2
REMARK VINA RESULT:     -11.3      0.654      7.461
REMARK SMILES O=C(COCCNC(=O)Nc1cccc(F)c1)NCCCCCCNC(=O)c1ccc(-c2c3nc(c(-c4c(F)c(F)c(F)c(F)c4F)c4ccc([nH]4)c(-c4c(F)c(F)c(F)c(F)c4F)c4nc(c(-c5c(F)c(F)c(F)c(F)c5F)c5ccc2[nH]5)C=C4)C=C3)cc1
REMARK SMILES IDX 20 1 19 2 18 3 1 4 2 5 3 7 4 8 5 9 6 10 7 11 8 12 9 14 10 15
REMARK SMILES IDX 11 17 12 18 17 19 13 20 15 21 14 22 16 23 21 24 22 25 23 26
REMARK SMILES IDX 24 27 25 28 26 29 27 31 28 32 29 33 90 34 30 35 89 36 31 37
REMARK SMILES IDX 32 38 33 39 83 40 34 41 88 42 82 43 84 44 35 45 87 46 81 47
REMARK SMILES IDX 80 48 36 50 68 51 48 52 67 53 49 54 52 55 66 56 85 57 50 58
REMARK SMILES IDX 51 59 65 61 86 62 53 63 37 64 38 65 46 66 39 67 40 68 44 69
REMARK SMILES IDX 47 70 41 71 42 72 45 73 43 74 69 75 70 76 78 77 71 78 72 79
REMARK SMILES IDX 76 80 79 81 73 82 74 83 77 84 75 85 54 86 55 87 63 88 56 89
REMARK SMILES IDX 57 90 61 91 64 92 58 93 59 94 62 95 60 96
REMARK H PARENT 18 6 7 13 10 16 25 30 84 49 52 60
REMARK Flexibility Score: inf
ROOT
ATOM      1  C   UNL A   1      33.323  28.879  26.290  1.00  0.00     0.021 C 
ENDROOT
BRANCH   1   2
ATOM      2  C   UNL A   1      33.275  29.032  24.773  1.00  0.00     0.116 C 
BRANCH   2   3
ATOM      3  N   UNL A   1      32.579  27.931  24.158  1.00  0.00    -0.354 N 
ATOM      4  O   UNL A   1      31.674  29.130  22.415  1.00  0.00    -0.272 OA
ATOM      5  C   UNL A   1      31.830  28.070  23.010  1.00  0.00     0.245 C 
ATOM      6  H   UNL A   1      32.640  27.042  24.576  1.00  0.00     0.163 HD
BRANCH   5   7
ATOM      7  C   UNL A   1      31.156  26.766  22.578  1.00  0.00     0.260 C 
BRANCH   7   8
ATOM      8  O   UNL A   1      31.461  25.628  23.372  1.00  0.00    -0.370 OA
BRANCH   8   9
ATOM      9  C   UNL A   1      30.650  24.477  23.119  1.00  0.00     0.182 C 
BRANCH   9  10
ATOM     10  C   UNL A   1      30.894  23.317  24.086  1.00  0.00     0.146 C 
BRANCH  10  11
ATOM     11  N   UNL A   1      30.292  23.478  25.409  1.00  0.00    -0.336 N 
ATOM     12  C   UNL A   1      30.734  23.280  26.668  1.00  0.00     0.319 C 
ATOM     13  H   UNL A   1      29.363  23.802  25.373  1.00  0.00     0.165 HD
ATOM     14  O   UNL A   1      29.896  23.218  27.569  1.00  0.00    -0.249 OA
ATOM     15  N   UNL A   1      32.029  23.046  26.964  1.00  0.00    -0.308 N 
ATOM     16  H   UNL A   1      32.166  22.494  27.767  1.00  0.00     0.171 HD
BRANCH  15  17
ATOM     17  C   UNL A   1      33.212  23.448  26.336  1.00  0.00     0.045 A 
ATOM     18  C   UNL A   1      33.542  24.794  26.144  1.00  0.00     0.026 A 
ATOM     19  C   UNL A   1      34.074  22.452  25.884  1.00  0.00     0.065 A 
ATOM     20  C   UNL A   1      34.646  25.141  25.363  1.00  0.00     0.005 A 
ATOM     21  C   UNL A   1      35.168  22.808  25.104  1.00  0.00     0.125 A 
ATOM     22  C   UNL A   1      35.446  24.140  24.816  1.00  0.00     0.039 A 
ATOM     23  F   UNL A   1      35.941  21.846  24.584  1.00  0.00    -0.207 F 
ENDBRANCH  15  17
ENDBRANCH  10  11
ENDBRANCH   9  10
ENDBRANCH   8   9
ENDBRANCH   7   8
ENDBRANCH   5   7
ENDBRANCH   2   3
ENDBRANCH   1   2
BRANCH   1  24
ATOM     24  C   UNL A   1      32.518  29.939  27.053  1.00  0.00     0.002 C 
BRANCH  24  25
ATOM     25  C   UNL A   1      31.495  30.715  26.216  1.00  0.00     0.002 C 
BRANCH  25  26
ATOM     26  C   UNL A   1      31.366  32.200  26.558  1.00  0.00     0.021 C 
BRANCH  26  27
ATOM     27  C   UNL A   1      32.591  32.819  27.225  1.00  0.00     0.116 C 
BRANCH  27  28
ATOM     28  N   UNL A   1      32.363  34.189  27.654  1.00  0.00    -0.352 N 
ATOM     29  C   UNL A   1      33.002  34.916  28.627  1.00  0.00     0.251 C 
ATOM     30  H   UNL A   1      31.645  34.665  27.177  1.00  0.00     0.163 HD
ATOM     31  O   UNL A   1      32.579  36.021  28.951  1.00  0.00    -0.269 OA
BRANCH  29  32
ATOM     32  C   UNL A   1      34.187  34.355  29.314  1.00  0.00     0.039 A 
ATOM     33  C   UNL A   1      33.994  33.618  30.485  1.00  0.00     0.014 A 
ATOM     34  C   UNL A   1      35.478  34.554  28.816  1.00  0.00     0.014 A 
ATOM     35  C   UNL A   1      35.087  33.026  31.120  1.00  0.00     0.010 A 
ATOM     36  C   UNL A   1      36.559  33.909  29.412  1.00  0.00     0.010 A 
ATOM     37  C   UNL A   1      36.374  33.136  30.567  1.00  0.00    -0.014 A 
BRANCH  37  38
ATOM     38  C   UNL A   1      37.526  32.423  31.174  1.00  0.00     0.031 A 
ATOM     39  C   UNL A   1      38.024  32.797  32.539  1.00  0.00     0.074 A 
ATOM     40  C   UNL A   1      38.155  31.465  30.467  1.00  0.00     0.049 A 
ATOM     41  N   UNL A   1      39.032  32.304  33.214  1.00  0.00    -0.248 NA
ATOM     42  C   UNL A   1      37.312  33.882  33.230  1.00  0.00     0.031 C 
ATOM     43  C   UNL A   1      37.794  31.044  29.113  1.00  0.00     0.029 A 
ATOM     44  N   UNL A   1      39.229  30.672  30.787  1.00  0.00    -0.354 N 
ATOM     45  C   UNL A   1      39.079  33.021  34.401  1.00  0.00     0.074 A 
ATOM     46  C   UNL A   1      38.032  34.017  34.335  1.00  0.00     0.031 C 
ATOM     47  C   UNL A   1      38.610  30.049  28.731  1.00  0.00     0.029 A 
ATOM     48  C   UNL A   1      39.571  29.785  29.798  1.00  0.00     0.049 A 
ATOM     49  H   UNL A   1      39.708  30.734  31.645  1.00  0.00     0.167 HD
ATOM     50  C   UNL A   1      39.904  32.845  35.461  1.00  0.00     0.037 A 
ATOM     51  C   UNL A   1      40.549  28.859  29.753  1.00  0.00     0.037 A 
ATOM     52  C   UNL A   1      40.931  31.839  35.533  1.00  0.00     0.049 A 
ATOM     53  C   UNL A   1      41.458  28.689  30.937  1.00  0.00     0.074 A 
ATOM     54  C   UNL A   1      41.775  31.543  36.590  1.00  0.00     0.029 A 
ATOM     55  N   UNL A   1      41.256  30.965  34.506  1.00  0.00    -0.354 N 
ATOM     56  N   UNL A   1      41.455  29.332  32.079  1.00  0.00    -0.248 NA
ATOM     57  C   UNL A   1      42.506  27.665  30.828  1.00  0.00     0.031 C 
ATOM     58  C   UNL A   1      42.640  30.521  36.186  1.00  0.00     0.029 A 
ATOM     59  C   UNL A   1      42.304  30.147  34.894  1.00  0.00     0.049 A 
ATOM     60  H   UNL A   1      40.808  30.932  33.630  1.00  0.00     0.167 HD
ATOM     61  C   UNL A   1      42.487  28.786  32.829  1.00  0.00     0.074 A 
ATOM     62  C   UNL A   1      43.085  27.745  32.019  1.00  0.00     0.031 C 
ATOM     63  C   UNL A   1      42.900  29.122  34.075  1.00  0.00     0.037 A 
BRANCH  50  64
ATOM     64  C   UNL A   1      39.724  33.756  36.640  1.00  0.00     0.064 A 
ATOM     65  C   UNL A   1      38.871  33.397  37.696  1.00  0.00     0.173 A 
ATOM     66  C   UNL A   1      40.350  35.010  36.699  1.00  0.00     0.173 A 
ATOM     67  F   UNL A   1      38.243  32.213  37.685  1.00  0.00    -0.203 F 
ATOM     68  C   UNL A   1      38.652  34.263  38.764  1.00  0.00     0.198 A 
ATOM     69  C   UNL A   1      40.150  35.861  37.783  1.00  0.00     0.198 A 
ATOM     70  F   UNL A   1      41.181  35.395  35.719  1.00  0.00    -0.203 F 
ATOM     71  F   UNL A   1      37.815  33.909  39.750  1.00  0.00    -0.200 F 
ATOM     72  C   UNL A   1      39.295  35.490  38.810  1.00  0.00     0.200 A 
ATOM     73  F   UNL A   1      40.791  37.035  37.837  1.00  0.00    -0.200 F 
ATOM     74  F   UNL A   1      39.095  36.315  39.847  1.00  0.00    -0.200 F 
ENDBRANCH  50  64
BRANCH  51  75
ATOM     75  C   UNL A   1      40.677  27.995  28.554  1.00  0.00     0.064 A 
ATOM     76  C   UNL A   1      41.431  28.396  27.441  1.00  0.00     0.173 A 
ATOM     77  C   UNL A   1      40.000  26.771  28.479  1.00  0.00     0.173 A 
ATOM     78  F   UNL A   1      42.093  29.562  27.463  1.00  0.00    -0.203 F 
ATOM     79  C   UNL A   1      41.483  27.614  26.289  1.00  0.00     0.198 A 
ATOM     80  C   UNL A   1      40.070  25.979  27.334  1.00  0.00     0.198 A 
ATOM     81  F   UNL A   1      39.282  26.338  29.526  1.00  0.00    -0.203 F 
ATOM     82  F   UNL A   1      42.179  28.037  25.226  1.00  0.00    -0.200 F 
ATOM     83  C   UNL A   1      40.803  26.407  26.237  1.00  0.00     0.200 A 
ATOM     84  F   UNL A   1      39.427  24.805  27.295  1.00  0.00    -0.200 F 
ATOM     85  F   UNL A   1      40.854  25.654  25.129  1.00  0.00    -0.200 F 
ENDBRANCH  51  75
BRANCH  63  86
ATOM     86  C   UNL A   1      44.055  28.358  34.650  1.00  0.00     0.064 A 
ATOM     87  C   UNL A   1      43.840  27.175  35.374  1.00  0.00     0.173 A 
ATOM     88  C   UNL A   1      45.370  28.835  34.546  1.00  0.00     0.173 A 
ATOM     89  F   UNL A   1      42.600  26.680  35.508  1.00  0.00    -0.203 F 
ATOM     90  C   UNL A   1      44.898  26.506  35.983  1.00  0.00     0.198 A 
ATOM     91  C   UNL A   1      46.429  28.150  35.135  1.00  0.00     0.198 A 
ATOM     92  F   UNL A   1      45.627  29.955  33.853  1.00  0.00    -0.203 F 
ATOM     93  F   UNL A   1      44.665  25.395  36.696  1.00  0.00    -0.200 F 
ATOM     94  C   UNL A   1      46.191  26.992  35.862  1.00  0.00     0.200 A 
ATOM     95  F   UNL A   1      47.680  28.607  34.997  1.00  0.00    -0.200 F 
ATOM     96  F   UNL A   1      47.209  26.343  36.440  1.00  0.00    -0.200 F 
ENDBRANCH  63  86
ENDBRANCH  37  38
ENDBRANCH  29  32
ENDBRANCH  27  28
ENDBRANCH  26  27
ENDBRANCH  25  26
ENDBRANCH  24  25
ENDBRANCH   1  24
TORSDOF 18
ENDMDL
MODEL 3
REMARK VINA RESULT:     -11.3      5.499     10.941
REMARK SMILES O=C(COCCNC(=O)Nc1cccc(F)c1)NCCCCCCNC(=O)c1ccc(-c2c3nc(c(-c4c(F)c(F)c(F)c(F)c4F)c4ccc([nH]4)c(-c4c(F)c(F)c(F)c(F)c4F)c4nc(c(-c5c(F)c(F)c(F)c(F)c5F)c5ccc2[nH]5)C=C4)C=C3)cc1
REMARK SMILES IDX 20 1 19 2 18 3 1 4 2 5 3 7 4 8 5 9 6 10 7 11 8 12 9 14 10 15
REMARK SMILES IDX 11 17 12 18 17 19 13 20 15 21 14 22 16 23 21 24 22 25 23 26
REMARK SMILES IDX 24 27 25 28 26 29 27 31 28 32 29 33 90 34 30 35 89 36 31 37
REMARK SMILES IDX 32 38 33 39 83 40 34 41 88 42 82 43 84 44 35 45 87 46 81 47
REMARK SMILES IDX 80 48 36 50 68 51 48 52 67 53 49 54 52 55 66 56 85 57 50 58
REMARK SMILES IDX 51 59 65 61 86 62 53 63 37 64 38 65 46 66 39 67 40 68 44 69
REMARK SMILES IDX 47 70 41 71 42 72 45 73 43 74 69 75 70 76 78 77 71 78 72 79
REMARK SMILES IDX 76 80 79 81 73 82 74 83 77 84 75 85 54 86 55 87 63 88 56 89
REMARK SMILES IDX 57 90 61 91 64 92 58 93 59 94 62 95 60 96
REMARK H PARENT 18 6 7 13 10 16 25 30 84 49 52 60
REMARK Flexibility Score: inf
ROOT
ATOM      1  C   UNL A   1      34.065  20.372  24.915  1.00  0.00     0.021 C 
ENDROOT
BRANCH   1   2
ATOM      2  C   UNL A   1      33.635  21.032  26.222  1.00  0.00     0.116 C 
BRANCH   2   3
ATOM      3  N   UNL A   1      32.323  21.616  26.105  1.00  0.00    -0.354 N 
ATOM      4  O   UNL A   1      32.495  23.022  27.918  1.00  0.00    -0.272 OA
ATOM      5  C   UNL A   1      31.856  22.582  26.970  1.00  0.00     0.245 C 
ATOM      6  H   UNL A   1      31.735  21.312  25.376  1.00  0.00     0.163 HD
BRANCH   5   7
ATOM      7  C   UNL A   1      30.420  23.011  26.662  1.00  0.00     0.260 C 
BRANCH   7   8
ATOM      8  O   UNL A   1      30.135  24.387  26.873  1.00  0.00    -0.370 OA
BRANCH   8   9
ATOM      9  C   UNL A   1      30.392  25.240  25.753  1.00  0.00     0.182 C 
BRANCH   9  10
ATOM     10  C   UNL A   1      30.542  24.498  24.424  1.00  0.00     0.146 C 
BRANCH  10  11
ATOM     11  N   UNL A   1      30.561  25.353  23.238  1.00  0.00    -0.336 N 
ATOM     12  C   UNL A   1      31.432  26.261  22.754  1.00  0.00     0.319 C 
ATOM     13  H   UNL A   1      29.765  25.240  22.669  1.00  0.00     0.165 HD
ATOM     14  O   UNL A   1      31.031  27.038  21.885  1.00  0.00    -0.249 OA
ATOM     15  N   UNL A   1      32.677  26.422  23.247  1.00  0.00    -0.308 N 
ATOM     16  H   UNL A   1      33.031  27.336  23.161  1.00  0.00     0.171 HD
BRANCH  15  17
ATOM     17  C   UNL A   1      33.556  25.523  23.860  1.00  0.00     0.045 A 
ATOM     18  C   UNL A   1      33.900  25.612  25.214  1.00  0.00     0.026 A 
ATOM     19  C   UNL A   1      34.103  24.514  23.071  1.00  0.00     0.065 A 
ATOM     20  C   UNL A   1      34.908  24.799  25.736  1.00  0.00     0.005 A 
ATOM     21  C   UNL A   1      35.108  23.713  23.600  1.00  0.00     0.125 A 
ATOM     22  C   UNL A   1      35.535  23.865  24.915  1.00  0.00     0.039 A 
ATOM     23  F   UNL A   1      35.707  22.810  22.813  1.00  0.00    -0.207 F 
ENDBRANCH  15  17
ENDBRANCH  10  11
ENDBRANCH   9  10
ENDBRANCH   8   9
ENDBRANCH   7   8
ENDBRANCH   5   7
ENDBRANCH   2   3
ENDBRANCH   1   2
BRANCH   1  24
ATOM     24  C   UNL A   1      35.394  19.611  25.006  1.00  0.00     0.002 C 
BRANCH  24  25
ATOM     25  C   UNL A   1      36.653  20.484  25.004  1.00  0.00     0.002 C 
BRANCH  25  26
ATOM     26  C   UNL A   1      37.969  19.731  24.804  1.00  0.00     0.021 C 
BRANCH  26  27
ATOM     27  C   UNL A   1      39.095  20.136  25.749  1.00  0.00     0.116 C 
BRANCH  27  28
ATOM     28  N   UNL A   1      40.103  19.099  25.898  1.00  0.00    -0.352 N 
ATOM     29  C   UNL A   1      41.450  19.219  26.135  1.00  0.00     0.251 C 
ATOM     30  H   UNL A   1      39.771  18.175  25.817  1.00  0.00     0.163 HD
ATOM     31  O   UNL A   1      42.175  18.230  26.090  1.00  0.00    -0.269 OA
BRANCH  29  32
ATOM     32  C   UNL A   1      42.039  20.548  26.413  1.00  0.00     0.039 A 
ATOM     33  C   UNL A   1      42.402  21.357  25.334  1.00  0.00     0.014 A 
ATOM     34  C   UNL A   1      42.237  20.994  27.723  1.00  0.00     0.014 A 
ATOM     35  C   UNL A   1      42.902  22.639  25.566  1.00  0.00     0.010 A 
ATOM     36  C   UNL A   1      42.676  22.297  27.953  1.00  0.00     0.010 A 
ATOM     37  C   UNL A   1      43.008  23.133  26.878  1.00  0.00    -0.014 A 
BRANCH  37  38
ATOM     38  C   UNL A   1      43.438  24.531  27.131  1.00  0.00     0.031 A 
ATOM     39  C   UNL A   1      42.476  25.537  27.693  1.00  0.00     0.074 A 
ATOM     40  C   UNL A   1      44.690  24.905  26.805  1.00  0.00     0.049 A 
ATOM     41  N   UNL A   1      42.666  26.806  27.951  1.00  0.00    -0.248 NA
ATOM     42  C   UNL A   1      41.115  25.063  27.982  1.00  0.00     0.031 C 
ATOM     43  C   UNL A   1      45.701  24.032  26.209  1.00  0.00     0.029 A 
ATOM     44  N   UNL A   1      45.325  26.116  26.927  1.00  0.00    -0.354 N 
ATOM     45  C   UNL A   1      41.452  27.282  28.426  1.00  0.00     0.074 A 
ATOM     46  C   UNL A   1      40.516  26.179  28.372  1.00  0.00     0.031 C 
ATOM     47  C   UNL A   1      46.839  24.726  26.049  1.00  0.00     0.029 A 
ATOM     48  C   UNL A   1      46.628  26.099  26.498  1.00  0.00     0.049 A 
ATOM     49  H   UNL A   1      44.887  26.920  27.289  1.00  0.00     0.167 HD
ATOM     50  C   UNL A   1      41.154  28.519  28.890  1.00  0.00     0.037 A 
ATOM     51  C   UNL A   1      47.553  27.078  26.470  1.00  0.00     0.037 A 
ATOM     52  C   UNL A   1      42.093  29.607  28.963  1.00  0.00     0.049 A 
ATOM     53  C   UNL A   1      47.196  28.445  26.981  1.00  0.00     0.074 A 
ATOM     54  C   UNL A   1      41.899  30.879  29.476  1.00  0.00     0.029 A 
ATOM     55  N   UNL A   1      43.401  29.555  28.508  1.00  0.00    -0.354 N 
ATOM     56  N   UNL A   1      46.061  28.867  27.483  1.00  0.00    -0.248 NA
ATOM     57  C   UNL A   1      48.245  29.471  26.922  1.00  0.00     0.031 C 
ATOM     58  C   UNL A   1      43.077  31.609  29.290  1.00  0.00     0.029 A 
ATOM     59  C   UNL A   1      44.020  30.779  28.704  1.00  0.00     0.049 A 
ATOM     60  H   UNL A   1      43.828  28.765  28.103  1.00  0.00     0.167 HD
ATOM     61  C   UNL A   1      46.261  30.200  27.811  1.00  0.00     0.074 A 
ATOM     62  C   UNL A   1      47.633  30.513  27.468  1.00  0.00     0.031 C 
ATOM     63  C   UNL A   1      45.383  31.083  28.347  1.00  0.00     0.037 A 
BRANCH  50  64
ATOM     64  C   UNL A   1      39.752  28.761  29.368  1.00  0.00     0.064 A 
ATOM     65  C   UNL A   1      38.788  29.308  28.507  1.00  0.00     0.173 A 
ATOM     66  C   UNL A   1      39.377  28.504  30.696  1.00  0.00     0.173 A 
ATOM     67  F   UNL A   1      39.098  29.579  27.231  1.00  0.00    -0.203 F 
ATOM     68  C   UNL A   1      37.502  29.592  28.960  1.00  0.00     0.198 A 
ATOM     69  C   UNL A   1      38.081  28.762  31.137  1.00  0.00     0.198 A 
ATOM     70  F   UNL A   1      40.259  27.973  31.555  1.00  0.00    -0.203 F 
ATOM     71  F   UNL A   1      36.604  30.136  28.126  1.00  0.00    -0.200 F 
ATOM     72  C   UNL A   1      37.148  29.313  30.271  1.00  0.00     0.200 A 
ATOM     73  F   UNL A   1      37.735  28.470  32.397  1.00  0.00    -0.200 F 
ATOM     74  F   UNL A   1      35.905  29.572  30.701  1.00  0.00    -0.200 F 
ENDBRANCH  50  64
BRANCH  51  75
ATOM     75  C   UNL A   1      48.919  26.773  25.978  1.00  0.00     0.064 A 
ATOM     76  C   UNL A   1      49.907  26.262  26.831  1.00  0.00     0.173 A 
ATOM     77  C   UNL A   1      49.275  27.040  24.649  1.00  0.00     0.173 A 
ATOM     78  F   UNL A   1      49.616  25.996  28.113  1.00  0.00    -0.203 F 
ATOM     79  C   UNL A   1      51.209  26.053  26.379  1.00  0.00     0.198 A 
ATOM     80  C   UNL A   1      50.571  26.808  24.192  1.00  0.00     0.198 A 
ATOM     81  F   UNL A   1      48.358  27.511  23.792  1.00  0.00    -0.203 F 
ATOM     82  F   UNL A   1      52.144  25.600  27.224  1.00  0.00    -0.200 F 
ATOM     83  C   UNL A   1      51.539  26.325  25.060  1.00  0.00     0.200 A 
ATOM     84  F   UNL A   1      50.881  27.055  22.912  1.00  0.00    -0.200 F 
ATOM     85  F   UNL A   1      52.790  26.121  24.625  1.00  0.00    -0.200 F 
ENDBRANCH  51  75
BRANCH  63  86
ATOM     86  C   UNL A   1      45.873  32.478  28.601  1.00  0.00     0.064 A 
ATOM     87  C   UNL A   1      45.741  33.470  27.618  1.00  0.00     0.173 A 
ATOM     88  C   UNL A   1      46.535  32.813  29.791  1.00  0.00     0.173 A 
ATOM     89  F   UNL A   1      45.121  33.197  26.460  1.00  0.00    -0.203 F 
ATOM     90  C   UNL A   1      46.269  34.744  27.812  1.00  0.00     0.198 A 
ATOM     91  C   UNL A   1      47.038  34.096  29.992  1.00  0.00     0.198 A 
ATOM     92  F   UNL A   1      46.674  31.902  30.766  1.00  0.00    -0.203 F 
ATOM     93  F   UNL A   1      46.159  35.668  26.847  1.00  0.00    -0.200 F 
ATOM     94  C   UNL A   1      46.914  35.057  28.999  1.00  0.00     0.200 A 
ATOM     95  F   UNL A   1      47.641  34.403  31.149  1.00  0.00    -0.200 F 
ATOM     96  F   UNL A   1      47.412  36.285  29.189  1.00  0.00    -0.200 F 
ENDBRANCH  63  86
ENDBRANCH  37  38
ENDBRANCH  29  32
ENDBRANCH  27  28
ENDBRANCH  26  27
ENDBRANCH  25  26
ENDBRANCH  24  25
ENDBRANCH   1  24
TORSDOF 18
ENDMDL
