MODEL 1
REMARK VINA RESULT:     -10.2      0.000      0.000
REMARK SMILES CCC(CC)C(O)(C(=O)NCCCCCCNC(=O)c1ccc(-c2c3nc(c(-c4c(F)c(F)c(F)c(F)c4F)c4ccc([nH]4)c(-c4c(F)c(F)c(F)c(F)c4F)c4nc(c(-c5c(F)c(F)c(F)c(F)c5F)c5ccc2[nH]5)C=C4)C=C3)cc1)C(CC)CC
REMARK SMILES IDX 13 1 12 2 11 3 10 4 8 5 9 6 6 8 3 9 2 10 1 11 4 12 5 13 7 14
REMARK SMILES IDX 83 16 84 17 85 18 86 19 87 20 14 21 15 22 16 23 17 24 18 25
REMARK SMILES IDX 19 27 20 28 21 29 82 30 22 31 81 32 23 33 24 34 25 35 75 36
REMARK SMILES IDX 26 37 80 38 74 39 76 40 27 41 79 42 73 43 72 44 28 46 60 47
REMARK SMILES IDX 40 48 59 49 41 50 44 51 58 52 77 53 42 54 43 55 57 57 78 58
REMARK SMILES IDX 45 59 29 60 30 61 38 62 31 63 32 64 36 65 39 66 33 67 34 68
REMARK SMILES IDX 37 69 35 70 61 71 62 72 70 73 63 74 64 75 68 76 71 77 65 78
REMARK SMILES IDX 66 79 69 80 67 81 46 82 47 83 55 84 48 85 49 86 53 87 56 88
REMARK SMILES IDX 50 89 51 90 54 91 52 92
REMARK H PARENT 10 7 7 15 17 26 76 45 44 56
REMARK Flexibility Score: inf
ROOT
ATOM      1  C   UNL A   1      37.125  22.025  24.492  1.00  0.00     0.002 C 
ENDROOT
BRANCH   1   2
ATOM      2  C   UNL A   1      36.703  23.134  25.459  1.00  0.00     0.021 C 
BRANCH   2   3
ATOM      3  C   UNL A   1      35.627  24.075  24.911  1.00  0.00     0.116 C 
BRANCH   3   4
ATOM      4  N   UNL A   1      35.113  23.656  23.616  1.00  0.00    -0.354 N 
ATOM      5  C   UNL A   1      33.878  23.756  23.026  1.00  0.00     0.252 C 
ATOM      6  O   UNL A   1      33.829  23.416  21.839  1.00  0.00    -0.272 OA
ATOM      7  H   UNL A   1      35.785  23.211  23.051  1.00  0.00     0.163 HD
BRANCH   5   8
ATOM      8  C   UNL A   1      32.598  24.229  23.811  1.00  0.00     0.148 C 
BRANCH   8   9
ATOM      9  C   UNL A   1      32.762  25.730  24.271  1.00  0.00     0.030 C 
BRANCH   9  10
ATOM     10  C   UNL A   1      32.279  26.760  23.223  1.00  0.00     0.004 C 
ATOM     11  C   UNL A   1      33.391  27.423  22.419  1.00  0.00     0.004 C 
ENDBRANCH   9  10
BRANCH   9  12
ATOM     12  C   UNL A   1      32.493  26.105  25.762  1.00  0.00     0.004 C 
ATOM     13  C   UNL A   1      31.258  26.839  26.230  1.00  0.00     0.004 C 
ENDBRANCH   9  12
ENDBRANCH   8   9
BRANCH   8  14
ATOM     14  O   UNL A   1      31.573  24.172  22.777  1.00  0.00    -0.379 OA
ATOM     15  H   UNL A   1      30.919  24.871  22.931  1.00  0.00     0.212 HD
ENDBRANCH   8  14
BRANCH   8  16
ATOM     16  C   UNL A   1      32.113  23.120  24.856  1.00  0.00     0.030 C 
BRANCH  16  17
ATOM     17  C   UNL A   1      30.657  23.207  25.391  1.00  0.00     0.004 C 
ATOM     18  C   UNL A   1      30.444  22.991  26.884  1.00  0.00     0.004 C 
ENDBRANCH  16  17
BRANCH  16  19
ATOM     19  C   UNL A   1      32.433  21.618  24.563  1.00  0.00     0.004 C 
ATOM     20  C   UNL A   1      33.284  20.859  25.569  1.00  0.00     0.004 C 
ENDBRANCH  16  19
ENDBRANCH   8  16
ENDBRANCH   5   8
ENDBRANCH   3   4
ENDBRANCH   2   3
ENDBRANCH   1   2
BRANCH   1  21
ATOM     21  C   UNL A   1      36.875  20.607  25.013  1.00  0.00     0.002 C 
BRANCH  21  22
ATOM     22  C   UNL A   1      38.077  19.661  24.922  1.00  0.00     0.021 C 
BRANCH  22  23
ATOM     23  C   UNL A   1      39.289  20.087  25.749  1.00  0.00     0.116 C 
BRANCH  23  24
ATOM     24  N   UNL A   1      40.242  19.000  25.912  1.00  0.00    -0.352 N 
ATOM     25  C   UNL A   1      41.602  19.055  26.100  1.00  0.00     0.251 C 
ATOM     26  H   UNL A   1      39.857  18.095  25.881  1.00  0.00     0.163 HD
ATOM     27  O   UNL A   1      42.287  18.047  25.987  1.00  0.00    -0.269 OA
BRANCH  25  28
ATOM     28  C   UNL A   1      42.244  20.348  26.421  1.00  0.00     0.039 A 
ATOM     29  C   UNL A   1      42.794  21.105  25.385  1.00  0.00     0.014 A 
ATOM     30  C   UNL A   1      42.297  20.813  27.738  1.00  0.00     0.014 A 
ATOM     31  C   UNL A   1      43.323  22.369  25.658  1.00  0.00     0.010 A 
ATOM     32  C   UNL A   1      42.766  22.098  28.000  1.00  0.00     0.010 A 
ATOM     33  C   UNL A   1      43.268  22.896  26.959  1.00  0.00    -0.014 A 
BRANCH  33  34
ATOM     34  C   UNL A   1      43.669  24.300  27.235  1.00  0.00     0.031 A 
ATOM     35  C   UNL A   1      42.654  25.312  27.686  1.00  0.00     0.074 A 
ATOM     36  C   UNL A   1      44.941  24.677  26.996  1.00  0.00     0.049 A 
ATOM     37  N   UNL A   1      42.806  26.597  27.892  1.00  0.00    -0.248 NA
ATOM     38  C   UNL A   1      41.284  24.827  27.916  1.00  0.00     0.031 C 
ATOM     39  C   UNL A   1      46.005  23.796  26.508  1.00  0.00     0.029 A 
ATOM     40  N   UNL A   1      45.553  25.901  27.110  1.00  0.00    -0.354 N 
ATOM     41  C   UNL A   1      41.555  27.074  28.260  1.00  0.00     0.074 A 
ATOM     42  C   UNL A   1      40.645  25.949  28.216  1.00  0.00     0.031 C 
ATOM     43  C   UNL A   1      47.137  24.504  26.372  1.00  0.00     0.029 A 
ATOM     44  C   UNL A   1      46.872  25.896  26.719  1.00  0.00     0.049 A 
ATOM     45  H   UNL A   1      45.092  26.705  27.442  1.00  0.00     0.167 HD
ATOM     46  C   UNL A   1      41.205  28.332  28.615  1.00  0.00     0.037 A 
ATOM     47  C   UNL A   1      47.759  26.905  26.625  1.00  0.00     0.037 A 
ATOM     48  C   UNL A   1      42.122  29.440  28.688  1.00  0.00     0.049 A 
ATOM     49  C   UNL A   1      47.332  28.296  27.012  1.00  0.00     0.074 A 
ATOM     50  C   UNL A   1      41.881  30.728  29.134  1.00  0.00     0.029 A 
ATOM     51  N   UNL A   1      43.451  29.395  28.294  1.00  0.00    -0.354 N 
ATOM     52  N   UNL A   1      46.171  28.711  27.457  1.00  0.00    -0.248 NA
ATOM     53  C   UNL A   1      48.338  29.360  26.883  1.00  0.00     0.031 C 
ATOM     54  C   UNL A   1      43.044  31.480  28.949  1.00  0.00     0.029 A 
ATOM     55  C   UNL A   1      44.028  30.647  28.443  1.00  0.00     0.049 A 
ATOM     56  H   UNL A   1      43.915  28.595  27.960  1.00  0.00     0.167 HD
ATOM     57  C   UNL A   1      46.313  30.074  27.678  1.00  0.00     0.074 A 
ATOM     58  C   UNL A   1      47.680  30.412  27.346  1.00  0.00     0.031 C 
ATOM     59  C   UNL A   1      45.391  30.968  28.108  1.00  0.00     0.037 A 
BRANCH  46  60
ATOM     60  C   UNL A   1      39.770  28.602  28.959  1.00  0.00     0.064 A 
ATOM     61  C   UNL A   1      39.276  28.417  30.258  1.00  0.00     0.173 A 
ATOM     62  C   UNL A   1      38.905  29.153  28.000  1.00  0.00     0.173 A 
ATOM     63  F   UNL A   1      40.061  27.887  31.209  1.00  0.00    -0.203 F 
ATOM     64  C   UNL A   1      37.968  28.767  30.584  1.00  0.00     0.198 A 
ATOM     65  C   UNL A   1      37.607  29.526  28.336  1.00  0.00     0.198 A 
ATOM     66  F   UNL A   1      39.331  29.356  26.744  1.00  0.00    -0.203 F 
ATOM     67  F   UNL A   1      37.510  28.561  31.827  1.00  0.00    -0.200 F 
ATOM     68  C   UNL A   1      37.139  29.332  29.627  1.00  0.00     0.200 A 
ATOM     69  F   UNL A   1      36.813  30.087  27.413  1.00  0.00    -0.200 F 
ATOM     70  F   UNL A   1      35.889  29.692  29.948  1.00  0.00    -0.200 F 
ENDBRANCH  46  60
BRANCH  47  71
ATOM     71  C   UNL A   1      49.137  26.651  26.122  1.00  0.00     0.064 A 
ATOM     72  C   UNL A   1      50.163  26.250  26.989  1.00  0.00     0.173 A 
ATOM     73  C   UNL A   1      49.467  26.851  24.772  1.00  0.00     0.173 A 
ATOM     74  F   UNL A   1      49.905  26.066  28.292  1.00  0.00    -0.203 F 
ATOM     75  C   UNL A   1      51.472  26.095  26.534  1.00  0.00     0.198 A 
ATOM     76  C   UNL A   1      50.768  26.661  24.312  1.00  0.00     0.198 A 
ATOM     77  F   UNL A   1      48.523  27.231  23.898  1.00  0.00    -0.203 F 
ATOM     78  F   UNL A   1      52.445  25.778  27.398  1.00  0.00    -0.200 F 
ATOM     79  C   UNL A   1      51.772  26.297  25.196  1.00  0.00     0.200 A 
ATOM     80  F   UNL A   1      51.050  26.842  23.015  1.00  0.00    -0.200 F 
ATOM     81  F   UNL A   1      53.031  26.155  24.760  1.00  0.00    -0.200 F 
ENDBRANCH  47  71
BRANCH  59  82
ATOM     82  C   UNL A   1      45.831  32.396  28.256  1.00  0.00     0.064 A 
ATOM     83  C   UNL A   1      45.675  33.322  27.213  1.00  0.00     0.173 A 
ATOM     84  C   UNL A   1      46.376  32.854  29.465  1.00  0.00     0.173 A 
ATOM     85  F   UNL A   1      45.176  32.929  26.032  1.00  0.00    -0.203 F 
ATOM     86  C   UNL A   1      46.071  34.647  27.368  1.00  0.00     0.198 A 
ATOM     87  C   UNL A   1      46.739  34.188  29.628  1.00  0.00     0.198 A 
ATOM     88  F   UNL A   1      46.540  32.011  30.496  1.00  0.00    -0.203 F 
ATOM     89  F   UNL A   1      45.958  35.502  26.342  1.00  0.00    -0.200 F 
ATOM     90  C   UNL A   1      46.593  35.082  28.577  1.00  0.00     0.200 A 
ATOM     91  F   UNL A   1      47.229  34.609  30.801  1.00  0.00    -0.200 F 
ATOM     92  F   UNL A   1      46.963  36.360  28.728  1.00  0.00    -0.200 F 
ENDBRANCH  59  82
ENDBRANCH  33  34
ENDBRANCH  25  28
ENDBRANCH  23  24
ENDBRANCH  22  23
ENDBRANCH  21  22
ENDBRANCH   1  21
TORSDOF 20
ENDMDL
MODEL 2
REMARK VINA RESULT:     -10.0      0.680      2.123
REMARK SMILES CCC(CC)C(O)(C(=O)NCCCCCCNC(=O)c1ccc(-c2c3nc(c(-c4c(F)c(F)c(F)c(F)c4F)c4ccc([nH]4)c(-c4c(F)c(F)c(F)c(F)c4F)c4nc(c(-c5c(F)c(F)c(F)c(F)c5F)c5ccc2[nH]5)C=C4)C=C3)cc1)C(CC)CC
REMARK SMILES IDX 13 1 12 2 11 3 10 4 8 5 9 6 6 8 3 9 2 10 1 11 4 12 5 13 7 14
REMARK SMILES IDX 83 16 84 17 85 18 86 19 87 20 14 21 15 22 16 23 17 24 18 25
REMARK SMILES IDX 19 27 20 28 21 29 82 30 22 31 81 32 23 33 24 34 25 35 75 36
REMARK SMILES IDX 26 37 80 38 74 39 76 40 27 41 79 42 73 43 72 44 28 46 60 47
REMARK SMILES IDX 40 48 59 49 41 50 44 51 58 52 77 53 42 54 43 55 57 57 78 58
REMARK SMILES IDX 45 59 29 60 30 61 38 62 31 63 32 64 36 65 39 66 33 67 34 68
REMARK SMILES IDX 37 69 35 70 61 71 62 72 70 73 63 74 64 75 68 76 71 77 65 78
REMARK SMILES IDX 66 79 69 80 67 81 46 82 47 83 55 84 48 85 49 86 53 87 56 88
REMARK SMILES IDX 50 89 51 90 54 91 52 92
REMARK H PARENT 10 7 7 15 17 26 76 45 44 56
REMARK Flexibility Score: inf
ROOT
ATOM      1  C   UNL A   1      37.238  22.468  24.655  1.00  0.00     0.002 C 
ENDROOT
BRANCH   1   2
ATOM      2  C   UNL A   1      36.841  23.494  25.719  1.00  0.00     0.021 C 
BRANCH   2   3
ATOM      3  C   UNL A   1      35.555  24.264  25.406  1.00  0.00     0.116 C 
BRANCH   3   4
ATOM      4  N   UNL A   1      35.116  24.100  24.029  1.00  0.00    -0.354 N 
ATOM      5  C   UNL A   1      34.068  24.624  23.316  1.00  0.00     0.252 C 
ATOM      6  O   UNL A   1      34.076  24.379  22.104  1.00  0.00    -0.272 OA
ATOM      7  H   UNL A   1      35.684  23.490  23.505  1.00  0.00     0.163 HD
BRANCH   5   8
ATOM      8  C   UNL A   1      32.908  25.447  23.991  1.00  0.00     0.148 C 
BRANCH   8   9
ATOM      9  C   UNL A   1      33.463  26.813  24.555  1.00  0.00     0.030 C 
BRANCH   9  10
ATOM     10  C   UNL A   1      33.020  28.050  23.739  1.00  0.00     0.004 C 
ATOM     11  C   UNL A   1      34.093  28.629  22.824  1.00  0.00     0.004 C 
ENDBRANCH   9  10
BRANCH   9  12
ATOM     12  C   UNL A   1      33.557  27.018  26.099  1.00  0.00     0.004 C 
ATOM     13  C   UNL A   1      33.897  28.341  26.748  1.00  0.00     0.004 C 
ENDBRANCH   9  12
ENDBRANCH   8   9
BRANCH   8  14
ATOM     14  O   UNL A   1      32.041  25.734  22.855  1.00  0.00    -0.379 OA
ATOM     15  H   UNL A   1      32.356  25.245  22.078  1.00  0.00     0.212 HD
ENDBRANCH   8  14
BRANCH   8  16
ATOM     16  C   UNL A   1      31.993  24.513  24.911  1.00  0.00     0.030 C 
BRANCH  16  17
ATOM     17  C   UNL A   1      30.459  24.759  24.904  1.00  0.00     0.004 C 
ATOM     18  C   UNL A   1      29.903  25.752  25.918  1.00  0.00     0.004 C 
ENDBRANCH  16  17
BRANCH  16  19
ATOM     19  C   UNL A   1      32.236  22.970  24.897  1.00  0.00     0.004 C 
ATOM     20  C   UNL A   1      31.711  22.174  23.712  1.00  0.00     0.004 C 
ENDBRANCH  16  19
ENDBRANCH   8  16
ENDBRANCH   5   8
ENDBRANCH   3   4
ENDBRANCH   2   3
ENDBRANCH   1   2
BRANCH   1  21
ATOM     21  C   UNL A   1      36.822  21.031  24.980  1.00  0.00     0.002 C 
BRANCH  21  22
ATOM     22  C   UNL A   1      37.958  20.003  24.950  1.00  0.00     0.021 C 
BRANCH  22  23
ATOM     23  C   UNL A   1      39.207  20.409  25.731  1.00  0.00     0.116 C 
BRANCH  23  24
ATOM     24  N   UNL A   1      40.126  19.294  25.900  1.00  0.00    -0.352 N 
ATOM     25  C   UNL A   1      41.484  19.309  26.105  1.00  0.00     0.251 C 
ATOM     26  H   UNL A   1      39.715  18.401  25.861  1.00  0.00     0.163 HD
ATOM     27  O   UNL A   1      42.141  18.281  25.996  1.00  0.00    -0.269 OA
BRANCH  25  28
ATOM     28  C   UNL A   1      42.160  20.581  26.440  1.00  0.00     0.039 A 
ATOM     29  C   UNL A   1      42.691  21.356  25.407  1.00  0.00     0.014 A 
ATOM     30  C   UNL A   1      42.263  21.008  27.767  1.00  0.00     0.014 A 
ATOM     31  C   UNL A   1      43.251  22.603  25.696  1.00  0.00     0.010 A 
ATOM     32  C   UNL A   1      42.765  22.278  28.047  1.00  0.00     0.010 A 
ATOM     33  C   UNL A   1      43.248  23.095  27.013  1.00  0.00    -0.014 A 
BRANCH  33  34
ATOM     34  C   UNL A   1      43.683  24.483  27.313  1.00  0.00     0.031 A 
ATOM     35  C   UNL A   1      42.691  25.517  27.767  1.00  0.00     0.074 A 
ATOM     36  C   UNL A   1      44.967  24.830  27.093  1.00  0.00     0.049 A 
ATOM     37  N   UNL A   1      42.875  26.793  27.993  1.00  0.00    -0.248 NA
ATOM     38  C   UNL A   1      41.305  25.064  27.976  1.00  0.00     0.031 C 
ATOM     39  C   UNL A   1      46.012  23.927  26.603  1.00  0.00     0.029 A 
ATOM     40  N   UNL A   1      45.610  26.035  27.231  1.00  0.00    -0.354 N 
ATOM     41  C   UNL A   1      41.632  27.298  28.355  1.00  0.00     0.074 A 
ATOM     42  C   UNL A   1      40.693  26.199  28.285  1.00  0.00     0.031 C 
ATOM     43  C   UNL A   1      47.164  24.606  26.489  1.00  0.00     0.029 A 
ATOM     44  C   UNL A   1      46.933  26.000  26.854  1.00  0.00     0.049 A 
ATOM     45  H   UNL A   1      45.168  26.847  27.569  1.00  0.00     0.167 HD
ATOM     46  C   UNL A   1      41.312  28.561  28.724  1.00  0.00     0.037 A 
ATOM     47  C   UNL A   1      47.848  26.986  26.784  1.00  0.00     0.037 A 
ATOM     48  C   UNL A   1      42.258  29.642  28.823  1.00  0.00     0.049 A 
ATOM     49  C   UNL A   1      47.453  28.383  27.186  1.00  0.00     0.074 A 
ATOM     50  C   UNL A   1      42.047  30.930  29.285  1.00  0.00     0.029 A 
ATOM     51  N   UNL A   1      43.589  29.567  28.443  1.00  0.00    -0.354 N 
ATOM     52  N   UNL A   1      46.300  28.822  27.624  1.00  0.00    -0.248 NA
ATOM     53  C   UNL A   1      48.489  29.421  27.083  1.00  0.00     0.031 C 
ATOM     54  C   UNL A   1      43.232  31.653  29.123  1.00  0.00     0.029 A 
ATOM     55  C   UNL A   1      44.198  30.801  28.616  1.00  0.00     0.049 A 
ATOM     56  H   UNL A   1      44.036  28.759  28.102  1.00  0.00     0.167 HD
ATOM     57  C   UNL A   1      46.475  30.178  27.867  1.00  0.00     0.074 A 
ATOM     58  C   UNL A   1      47.854  30.483  27.554  1.00  0.00     0.031 C 
ATOM     59  C   UNL A   1      45.572  31.090  28.300  1.00  0.00     0.037 A 
BRANCH  46  60
ATOM     60  C   UNL A   1      39.881  28.864  29.057  1.00  0.00     0.064 A 
ATOM     61  C   UNL A   1      38.971  29.288  28.079  1.00  0.00     0.173 A 
ATOM     62  C   UNL A   1      39.392  28.625  30.351  1.00  0.00     0.173 A 
ATOM     63  F   UNL A   1      39.390  29.536  26.829  1.00  0.00    -0.203 F 
ATOM     64  C   UNL A   1      37.624  29.468  28.385  1.00  0.00     0.198 A 
ATOM     65  C   UNL A   1      38.041  28.781  30.647  1.00  0.00     0.198 A 
ATOM     66  F   UNL A   1      40.221  28.212  31.323  1.00  0.00    -0.203 F 
ATOM     67  F   UNL A   1      36.775  29.895  27.440  1.00  0.00    -0.200 F 
ATOM     68  C   UNL A   1      37.158  29.204  29.665  1.00  0.00     0.200 A 
ATOM     69  F   UNL A   1      37.591  28.509  31.879  1.00  0.00    -0.200 F 
ATOM     70  F   UNL A   1      35.858  29.354  29.951  1.00  0.00    -0.200 F 
ENDBRANCH  46  60
BRANCH  47  71
ATOM     71  C   UNL A   1      49.223  26.703  26.291  1.00  0.00     0.064 A 
ATOM     72  C   UNL A   1      49.570  26.910  24.949  1.00  0.00     0.173 A 
ATOM     73  C   UNL A   1      50.206  26.173  27.142  1.00  0.00     0.173 A 
ATOM     74  F   UNL A   1      48.661  27.394  24.090  1.00  0.00    -0.203 F 
ATOM     75  C   UNL A   1      50.833  26.564  24.469  1.00  0.00     0.198 A 
ATOM     76  C   UNL A   1      51.479  25.862  26.669  1.00  0.00     0.198 A 
ATOM     77  F   UNL A   1      49.930  25.958  28.437  1.00  0.00    -0.203 F 
ATOM     78  F   UNL A   1      51.114  26.709  23.167  1.00  0.00    -0.200 F 
ATOM     79  C   UNL A   1      51.787  26.044  25.330  1.00  0.00     0.200 A 
ATOM     80  F   UNL A   1      52.401  25.373  27.509  1.00  0.00    -0.200 F 
ATOM     81  F   UNL A   1      52.997  25.706  24.867  1.00  0.00    -0.200 F 
ENDBRANCH  47  71
BRANCH  59  82
ATOM     82  C   UNL A   1      46.049  32.503  28.473  1.00  0.00     0.064 A 
ATOM     83  C   UNL A   1      46.622  32.941  29.676  1.00  0.00     0.173 A 
ATOM     84  C   UNL A   1      45.970  33.418  27.412  1.00  0.00     0.173 A 
ATOM     85  F   UNL A   1      46.705  32.110  30.726  1.00  0.00    -0.203 F 
ATOM     86  C   UNL A   1      47.077  34.249  29.817  1.00  0.00     0.198 A 
ATOM     87  C   UNL A   1      46.458  34.715  27.546  1.00  0.00     0.198 A 
ATOM     88  F   UNL A   1      45.437  33.049  26.237  1.00  0.00    -0.203 F 
ATOM     89  F   UNL A   1      47.576  34.658  30.992  1.00  0.00    -0.200 F 
ATOM     90  C   UNL A   1      47.003  35.132  28.751  1.00  0.00     0.200 A 
ATOM     91  F   UNL A   1      46.399  35.561  26.509  1.00  0.00    -0.200 F 
ATOM     92  F   UNL A   1      47.452  36.387  28.885  1.00  0.00    -0.200 F 
ENDBRANCH  59  82
ENDBRANCH  33  34
ENDBRANCH  25  28
ENDBRANCH  23  24
ENDBRANCH  22  23
ENDBRANCH  21  22
ENDBRANCH   1  21
TORSDOF 20
ENDMDL
MODEL 3
REMARK VINA RESULT:     -10.0      0.973      2.148
REMARK SMILES CCC(CC)C(O)(C(=O)NCCCCCCNC(=O)c1ccc(-c2c3nc(c(-c4c(F)c(F)c(F)c(F)c4F)c4ccc([nH]4)c(-c4c(F)c(F)c(F)c(F)c4F)c4nc(c(-c5c(F)c(F)c(F)c(F)c5F)c5ccc2[nH]5)C=C4)C=C3)cc1)C(CC)CC
REMARK SMILES IDX 13 1 12 2 11 3 10 4 8 5 9 6 6 8 3 9 2 10 1 11 4 12 5 13 7 14
REMARK SMILES IDX 83 16 84 17 85 18 86 19 87 20 14 21 15 22 16 23 17 24 18 25
REMARK SMILES IDX 19 27 20 28 21 29 82 30 22 31 81 32 23 33 24 34 25 35 75 36
REMARK SMILES IDX 26 37 80 38 74 39 76 40 27 41 79 42 73 43 72 44 28 46 60 47
REMARK SMILES IDX 40 48 59 49 41 50 44 51 58 52 77 53 42 54 43 55 57 57 78 58
REMARK SMILES IDX 45 59 29 60 30 61 38 62 31 63 32 64 36 65 39 66 33 67 34 68
REMARK SMILES IDX 37 69 35 70 61 71 62 72 70 73 63 74 64 75 68 76 71 77 65 78
REMARK SMILES IDX 66 79 69 80 67 81 46 82 47 83 55 84 48 85 49 86 53 87 56 88
REMARK SMILES IDX 50 89 51 90 54 91 52 92
REMARK H PARENT 10 7 7 15 17 26 76 45 44 56
REMARK Flexibility Score: inf
ROOT
ATOM      1  C   UNL A   1      37.365  22.301  24.977  1.00  0.00     0.002 C 
ENDROOT
BRANCH   1   2
ATOM      2  C   UNL A   1      36.442  23.248  25.749  1.00  0.00     0.021 C 
BRANCH   2   3
ATOM      3  C   UNL A   1      35.300  23.835  24.915  1.00  0.00     0.116 C 
BRANCH   3   4
ATOM      4  N   UNL A   1      34.860  25.136  25.393  1.00  0.00    -0.354 N 
ATOM      5  C   UNL A   1      33.620  25.667  25.643  1.00  0.00     0.252 C 
ATOM      6  O   UNL A   1      33.618  26.777  26.187  1.00  0.00    -0.272 OA
ATOM      7  H   UNL A   1      35.599  25.761  25.572  1.00  0.00     0.163 HD
BRANCH   5   8
ATOM      8  C   UNL A   1      32.285  24.940  25.229  1.00  0.00     0.148 C 
BRANCH   8   9
ATOM      9  C   UNL A   1      31.784  24.010  26.401  1.00  0.00     0.030 C 
BRANCH   9  10
ATOM     10  C   UNL A   1      30.246  23.983  26.562  1.00  0.00     0.004 C 
ATOM     11  C   UNL A   1      29.680  22.666  27.081  1.00  0.00     0.004 C 
ENDBRANCH   9  10
BRANCH   9  12
ATOM     12  C   UNL A   1      32.515  22.658  26.667  1.00  0.00     0.004 C 
ATOM     13  C   UNL A   1      33.442  22.424  27.839  1.00  0.00     0.004 C 
ENDBRANCH   9  12
ENDBRANCH   8   9
BRANCH   8  14
ATOM     14  O   UNL A   1      31.361  26.060  25.099  1.00  0.00    -0.379 OA
ATOM     15  H   UNL A   1      31.070  26.134  24.177  1.00  0.00     0.212 HD
ENDBRANCH   8  14
BRANCH   8  16
ATOM     16  C   UNL A   1      32.371  24.374  23.736  1.00  0.00     0.030 C 
BRANCH  16  17
ATOM     17  C   UNL A   1      31.642  23.039  23.419  1.00  0.00     0.004 C 
ATOM     18  C   UNL A   1      32.506  21.834  23.068  1.00  0.00     0.004 C 
ENDBRANCH  16  17
BRANCH  16  19
ATOM     19  C   UNL A   1      32.129  25.353  22.543  1.00  0.00     0.004 C 
ATOM     20  C   UNL A   1      33.321  26.121  21.995  1.00  0.00     0.004 C 
ENDBRANCH  16  19
ENDBRANCH   8  16
ENDBRANCH   5   8
ENDBRANCH   3   4
ENDBRANCH   2   3
ENDBRANCH   1   2
BRANCH   1  21
ATOM     21  C   UNL A   1      36.869  20.854  24.910  1.00  0.00     0.002 C 
BRANCH  21  22
ATOM     22  C   UNL A   1      37.968  19.788  24.969  1.00  0.00     0.021 C 
BRANCH  22  23
ATOM     23  C   UNL A   1      39.220  20.203  25.739  1.00  0.00     0.116 C 
BRANCH  23  24
ATOM     24  N   UNL A   1      40.169  19.106  25.862  1.00  0.00    -0.352 N 
ATOM     25  C   UNL A   1      41.526  19.148  26.072  1.00  0.00     0.251 C 
ATOM     26  H   UNL A   1      39.782  18.205  25.782  1.00  0.00     0.163 HD
ATOM     27  O   UNL A   1      42.210  18.145  25.919  1.00  0.00    -0.269 OA
BRANCH  25  28
ATOM     28  C   UNL A   1      42.166  20.422  26.464  1.00  0.00     0.039 A 
ATOM     29  C   UNL A   1      42.812  21.183  25.488  1.00  0.00     0.014 A 
ATOM     30  C   UNL A   1      42.124  20.865  27.790  1.00  0.00     0.014 A 
ATOM     31  C   UNL A   1      43.342  22.431  25.823  1.00  0.00     0.010 A 
ATOM     32  C   UNL A   1      42.597  22.136  28.109  1.00  0.00     0.010 A 
ATOM     33  C   UNL A   1      43.195  22.939  27.125  1.00  0.00    -0.014 A 
BRANCH  33  34
ATOM     34  C   UNL A   1      43.601  24.329  27.456  1.00  0.00     0.031 A 
ATOM     35  C   UNL A   1      42.576  25.353  27.855  1.00  0.00     0.074 A 
ATOM     36  C   UNL A   1      44.893  24.686  27.313  1.00  0.00     0.049 A 
ATOM     37  N   UNL A   1      42.736  26.630  28.097  1.00  0.00    -0.248 NA
ATOM     38  C   UNL A   1      41.184  24.889  27.980  1.00  0.00     0.031 C 
ATOM     39  C   UNL A   1      45.972  23.795  26.882  1.00  0.00     0.029 A 
ATOM     40  N   UNL A   1      45.518  25.896  27.493  1.00  0.00    -0.354 N 
ATOM     41  C   UNL A   1      41.471  27.124  28.386  1.00  0.00     0.074 A 
ATOM     42  C   UNL A   1      40.546  26.018  28.257  1.00  0.00     0.031 C 
ATOM     43  C   UNL A   1      47.124  24.483  26.839  1.00  0.00     0.029 A 
ATOM     44  C   UNL A   1      46.860  25.873  27.194  1.00  0.00     0.049 A 
ATOM     45  H   UNL A   1      45.050  26.703  27.808  1.00  0.00     0.167 HD
ATOM     46  C   UNL A   1      41.120  28.382  28.741  1.00  0.00     0.037 A 
ATOM     47  C   UNL A   1      47.770  26.866  27.182  1.00  0.00     0.037 A 
ATOM     48  C   UNL A   1      42.050  29.470  28.900  1.00  0.00     0.049 A 
ATOM     49  C   UNL A   1      47.342  28.258  27.565  1.00  0.00     0.074 A 
ATOM     50  C   UNL A   1      41.801  30.755  29.353  1.00  0.00     0.029 A 
ATOM     51  N   UNL A   1      43.401  29.408  28.598  1.00  0.00    -0.354 N 
ATOM     52  N   UNL A   1      46.161  28.687  27.937  1.00  0.00    -0.248 NA
ATOM     53  C   UNL A   1      48.373  29.304  27.528  1.00  0.00     0.031 C 
ATOM     54  C   UNL A   1      42.988  31.488  29.264  1.00  0.00     0.029 A 
ATOM     55  C   UNL A   1      43.989  30.645  28.811  1.00  0.00     0.049 A 
ATOM     56  H   UNL A   1      43.874  28.605  28.281  1.00  0.00     0.167 HD
ATOM     57  C   UNL A   1      46.311  30.043  28.195  1.00  0.00     0.074 A 
ATOM     58  C   UNL A   1      47.704  30.360  27.964  1.00  0.00     0.031 C 
ATOM     59  C   UNL A   1      45.377  30.946  28.578  1.00  0.00     0.037 A 
BRANCH  46  60
ATOM     60  C   UNL A   1      39.669  28.673  28.991  1.00  0.00     0.064 A 
ATOM     61  C   UNL A   1      39.093  28.515  30.260  1.00  0.00     0.173 A 
ATOM     62  C   UNL A   1      38.873  29.218  27.971  1.00  0.00     0.173 A 
ATOM     63  F   UNL A   1      39.811  27.993  31.266  1.00  0.00    -0.203 F 
ATOM     64  C   UNL A   1      37.772  28.885  30.497  1.00  0.00     0.198 A 
ATOM     65  C   UNL A   1      37.561  29.610  28.219  1.00  0.00     0.198 A 
ATOM     66  F   UNL A   1      39.378  29.395  26.740  1.00  0.00    -0.203 F 
ATOM     67  F   UNL A   1      37.235  28.705  31.712  1.00  0.00    -0.200 F 
ATOM     68  C   UNL A   1      37.011  29.443  29.481  1.00  0.00     0.200 A 
ATOM     69  F   UNL A   1      36.833  30.164  27.239  1.00  0.00    -0.200 F 
ATOM     70  F   UNL A   1      35.748  29.821  29.717  1.00  0.00    -0.200 F 
ENDBRANCH  46  60
BRANCH  47  71
ATOM     71  C   UNL A   1      49.174  26.595  26.770  1.00  0.00     0.064 A 
ATOM     72  C   UNL A   1      50.136  26.182  27.703  1.00  0.00     0.173 A 
ATOM     73  C   UNL A   1      49.595  26.790  25.445  1.00  0.00     0.173 A 
ATOM     74  F   UNL A   1      49.791  26.003  28.986  1.00  0.00    -0.203 F 
ATOM     75  C   UNL A   1      51.470  26.012  27.334  1.00  0.00     0.198 A 
ATOM     76  C   UNL A   1      50.921  26.583  25.071  1.00  0.00     0.198 A 
ATOM     77  F   UNL A   1      48.716  27.181  24.510  1.00  0.00    -0.203 F 
ATOM     78  F   UNL A   1      52.381  25.683  28.261  1.00  0.00    -0.200 F 
ATOM     79  C   UNL A   1      51.860  26.208  26.019  1.00  0.00     0.200 A 
ATOM     80  F   UNL A   1      51.289  26.760  23.795  1.00  0.00    -0.200 F 
ATOM     81  F   UNL A   1      53.143  26.051  25.667  1.00  0.00    -0.200 F 
ENDBRANCH  47  71
BRANCH  59  82
ATOM     82  C   UNL A   1      45.832  32.362  28.783  1.00  0.00     0.064 A 
ATOM     83  C   UNL A   1      46.309  32.805  30.026  1.00  0.00     0.173 A 
ATOM     84  C   UNL A   1      45.829  33.275  27.718  1.00  0.00     0.173 A 
ATOM     85  F   UNL A   1      46.316  31.976  31.080  1.00  0.00    -0.203 F 
ATOM     86  C   UNL A   1      46.745  34.116  30.199  1.00  0.00     0.198 A 
ATOM     87  C   UNL A   1      46.298  34.575  27.886  1.00  0.00     0.198 A 
ATOM     88  F   UNL A   1      45.389  32.901  26.507  1.00  0.00    -0.203 F 
ATOM     89  F   UNL A   1      47.151  34.530  31.407  1.00  0.00    -0.200 F 
ATOM     90  C   UNL A   1      46.748  34.997  29.129  1.00  0.00     0.200 A 
ATOM     91  F   UNL A   1      46.314  35.419  26.846  1.00  0.00    -0.200 F 
ATOM     92  F   UNL A   1      47.178  36.255  29.294  1.00  0.00    -0.200 F 
ENDBRANCH  59  82
ENDBRANCH  33  34
ENDBRANCH  25  28
ENDBRANCH  23  24
ENDBRANCH  22  23
ENDBRANCH  21  22
ENDBRANCH   1  21
TORSDOF 20
ENDMDL
