MODEL 1
REMARK VINA RESULT:     -12.3      0.000      0.000
REMARK SMILES COc1ccc(-c2c(C)n[nH]c2C)c(C(=O)NCCCCCCNC(=O)c2ccc(-c3c4nc(c(-c5c(F)c(F)c(F)c(F)c5F)c5ccc([nH]5)c(-c5c(F)c(F)c(F)c(F)c5F)c5nc(c(-c6c(F)c(F)c(F)c(F)c6F)c6ccc3[nH]6)C=C5)C=C4)cc2)c1
REMARK SMILES IDX 21 1 20 2 19 3 18 4 17 5 15 6 16 7 14 9 3 10 4 11 90 12 5 13
REMARK SMILES IDX 6 14 2 15 1 16 7 17 8 18 12 19 9 20 10 21 11 22 13 23 22 25
REMARK SMILES IDX 23 26 24 27 25 28 26 30 27 31 28 32 89 33 29 34 88 35 30 36
REMARK SMILES IDX 31 37 32 38 82 39 33 40 87 41 81 42 83 43 34 44 86 45 80 46
REMARK SMILES IDX 79 47 35 49 67 50 47 51 66 52 48 53 51 54 65 55 84 56 49 57
REMARK SMILES IDX 50 58 64 60 85 61 52 62 36 63 37 64 45 65 38 66 39 67 43 68
REMARK SMILES IDX 46 69 40 70 41 71 44 72 42 73 68 74 69 75 77 76 70 77 71 78
REMARK SMILES IDX 75 79 78 80 72 81 73 82 76 83 74 84 53 85 54 86 62 87 55 88
REMARK SMILES IDX 56 89 60 90 63 91 57 92 58 93 61 94 59 95
REMARK H PARENT 17 8 11 24 24 29 83 48 51 59
REMARK Flexibility Score: inf
ROOT
ATOM      1  C   UNL A   1      31.555  30.837  26.016  1.00  0.00     0.002 C 
ENDROOT
BRANCH   1   2
ATOM      2  C   UNL A   1      32.166  29.823  26.984  1.00  0.00     0.002 C 
BRANCH   2   3
ATOM      3  C   UNL A   1      33.593  29.364  26.685  1.00  0.00     0.021 C 
BRANCH   3   4
ATOM      4  C   UNL A   1      33.750  28.117  25.823  1.00  0.00     0.116 C 
BRANCH   4   5
ATOM      5  N   UNL A   1      34.144  28.365  24.448  1.00  0.00    -0.352 N 
ATOM      6  C   UNL A   1      33.406  28.414  23.279  1.00  0.00     0.252 C 
ATOM      7  O   UNL A   1      33.988  28.788  22.264  1.00  0.00    -0.269 OA
ATOM      8  H   UNL A   1      35.107  28.528  24.325  1.00  0.00     0.163 HD
BRANCH   6   9
ATOM      9  C   UNL A   1      31.968  27.999  23.245  1.00  0.00     0.051 A 
ATOM     10  C   UNL A   1      29.626  28.688  23.229  1.00  0.00     0.119 A 
ATOM     11  C   UNL A   1      29.241  27.374  23.473  1.00  0.00     0.047 A 
ATOM     12  C   UNL A   1      30.978  28.979  23.058  1.00  0.00     0.060 A 
ATOM     13  C   UNL A   1      30.198  26.361  23.514  1.00  0.00     0.013 A 
ATOM     14  C   UNL A   1      31.566  26.656  23.378  1.00  0.00    -0.002 A 
BRANCH  10  15
ATOM     15  O   UNL A   1      28.607  29.599  23.178  1.00  0.00    -0.497 OA
ATOM     16  C   UNL A   1      28.243  30.079  21.888  1.00  0.00     0.278 C 
ENDBRANCH  10  15
BRANCH  14  17
ATOM     17  C   UNL A   1      32.457  25.524  23.192  1.00  0.00     0.026 A 
ATOM     18  C   UNL A   1      32.944  24.996  21.962  1.00  0.00     0.067 A 
ATOM     19  C   UNL A   1      32.987  24.705  24.166  1.00  0.00     0.040 A 
ATOM     20  C   UNL A   1      32.676  25.497  20.590  1.00  0.00     0.069 C 
ATOM     21  N   UNL A   1      33.719  23.923  22.156  1.00  0.00    -0.180 NA
ATOM     22  N   UNL A   1      33.773  23.808  23.491  1.00  0.00    -0.282 N 
ATOM     23  C   UNL A   1      32.878  24.682  25.641  1.00  0.00     0.067 C 
ATOM     24  H   UNL A   1      34.330  23.136  23.947  1.00  0.00     0.190 HD
ENDBRANCH  14  17
ENDBRANCH   6   9
ENDBRANCH   4   5
ENDBRANCH   3   4
ENDBRANCH   2   3
ENDBRANCH   1   2
BRANCH   1  25
ATOM     25  C   UNL A   1      31.357  32.256  26.553  1.00  0.00     0.021 C 
BRANCH  25  26
ATOM     26  C   UNL A   1      32.559  32.866  27.265  1.00  0.00     0.116 C 
BRANCH  26  27
ATOM     27  N   UNL A   1      32.353  34.256  27.629  1.00  0.00    -0.352 N 
ATOM     28  C   UNL A   1      32.985  35.013  28.586  1.00  0.00     0.251 C 
ATOM     29  H   UNL A   1      31.659  34.727  27.113  1.00  0.00     0.163 HD
ATOM     30  O   UNL A   1      32.571  36.133  28.861  1.00  0.00    -0.269 OA
BRANCH  28  31
ATOM     31  C   UNL A   1      34.157  34.466  29.307  1.00  0.00     0.039 A 
ATOM     32  C   UNL A   1      33.953  33.815  30.527  1.00  0.00     0.014 A 
ATOM     33  C   UNL A   1      35.449  34.605  28.796  1.00  0.00     0.014 A 
ATOM     34  C   UNL A   1      35.036  33.252  31.203  1.00  0.00     0.010 A 
ATOM     35  C   UNL A   1      36.517  33.975  29.430  1.00  0.00     0.010 A 
ATOM     36  C   UNL A   1      36.324  33.299  30.644  1.00  0.00    -0.014 A 
BRANCH  36  37
ATOM     37  C   UNL A   1      37.482  32.656  31.318  1.00  0.00     0.031 A 
ATOM     38  C   UNL A   1      38.206  31.518  30.652  1.00  0.00     0.074 A 
ATOM     39  C   UNL A   1      37.844  33.055  32.553  1.00  0.00     0.049 A 
ATOM     40  N   UNL A   1      39.188  30.780  31.106  1.00  0.00    -0.248 NA
ATOM     41  C   UNL A   1      37.748  31.143  29.305  1.00  0.00     0.031 C 
ATOM     42  C   UNL A   1      37.197  34.121  33.320  1.00  0.00     0.029 A 
ATOM     43  N   UNL A   1      38.838  32.603  33.386  1.00  0.00    -0.354 N 
ATOM     44  C   UNL A   1      39.452  29.849  30.110  1.00  0.00     0.074 A 
ATOM     45  C   UNL A   1      38.492  30.076  29.053  1.00  0.00     0.031 C 
ATOM     46  C   UNL A   1      37.823  34.255  34.500  1.00  0.00     0.029 A 
ATOM     47  C   UNL A   1      38.886  33.259  34.593  1.00  0.00     0.049 A 
ATOM     48  H   UNL A   1      39.457  31.878  33.142  1.00  0.00     0.167 HD
ATOM     49  C   UNL A   1      40.424  28.906  30.071  1.00  0.00     0.037 A 
ATOM     50  C   UNL A   1      39.689  33.068  35.657  1.00  0.00     0.037 A 
ATOM     51  C   UNL A   1      41.390  28.697  31.118  1.00  0.00     0.049 A 
ATOM     52  C   UNL A   1      40.746  31.998  35.596  1.00  0.00     0.074 A 
ATOM     53  C   UNL A   1      42.446  27.804  31.151  1.00  0.00     0.029 A 
ATOM     54  N   UNL A   1      41.413  29.389  32.321  1.00  0.00    -0.354 N 
ATOM     55  N   UNL A   1      41.029  31.167  34.623  1.00  0.00    -0.248 NA
ATOM     56  C   UNL A   1      41.602  31.844  36.782  1.00  0.00     0.031 C 
ATOM     57  C   UNL A   1      43.073  27.914  32.396  1.00  0.00     0.029 A 
ATOM     58  C   UNL A   1      42.450  28.922  33.114  1.00  0.00     0.049 A 
ATOM     59  H   UNL A   1      40.787  30.104  32.574  1.00  0.00     0.167 HD
ATOM     60  C   UNL A   1      42.114  30.419  35.062  1.00  0.00     0.074 A 
ATOM     61  C   UNL A   1      42.446  30.904  36.386  1.00  0.00     0.031 C 
ATOM     62  C   UNL A   1      42.776  29.422  34.426  1.00  0.00     0.037 A 
BRANCH  49  63
ATOM     63  C   UNL A   1      40.491  28.025  28.855  1.00  0.00     0.064 A 
ATOM     64  C   UNL A   1      39.787  26.814  28.781  1.00  0.00     0.173 A 
ATOM     65  C   UNL A   1      41.240  28.415  27.735  1.00  0.00     0.173 A 
ATOM     66  F   UNL A   1      39.063  26.387  29.828  1.00  0.00    -0.203 F 
ATOM     67  C   UNL A   1      39.856  26.011  27.645  1.00  0.00     0.198 A 
ATOM     68  C   UNL A   1      41.280  27.626  26.587  1.00  0.00     0.198 A 
ATOM     69  F   UNL A   1      41.929  29.566  27.748  1.00  0.00    -0.203 F 
ATOM     70  F   UNL A   1      39.217  24.833  27.619  1.00  0.00    -0.200 F 
ATOM     71  C   UNL A   1      40.595  26.422  26.547  1.00  0.00     0.200 A 
ATOM     72  F   UNL A   1      41.982  28.033  25.520  1.00  0.00    -0.200 F 
ATOM     73  F   UNL A   1      40.654  25.653  25.450  1.00  0.00    -0.200 F 
ENDBRANCH  49  63
BRANCH  50  74
ATOM     74  C   UNL A   1      39.537  33.921  36.867  1.00  0.00     0.064 A 
ATOM     75  C   UNL A   1      38.778  33.488  37.964  1.00  0.00     0.173 A 
ATOM     76  C   UNL A   1      40.133  35.187  36.948  1.00  0.00     0.173 A 
ATOM     77  F   UNL A   1      38.171  32.292  37.926  1.00  0.00    -0.203 F 
ATOM     78  C   UNL A   1      38.600  34.298  39.083  1.00  0.00     0.198 A 
ATOM     79  C   UNL A   1      39.982  35.984  38.082  1.00  0.00     0.198 A 
ATOM     80  F   UNL A   1      40.874  35.649  35.930  1.00  0.00    -0.203 F 
ATOM     81  F   UNL A   1      37.826  33.880  40.094  1.00  0.00    -0.200 F 
ATOM     82  C   UNL A   1      39.208  35.543  39.144  1.00  0.00     0.200 A 
ATOM     83  F   UNL A   1      40.584  37.179  38.143  1.00  0.00    -0.200 F 
ATOM     84  F   UNL A   1      39.038  36.321  40.222  1.00  0.00    -0.200 F 
ENDBRANCH  50  74
BRANCH  62  85
ATOM     85  C   UNL A   1      43.958  28.817  35.129  1.00  0.00     0.064 A 
ATOM     86  C   UNL A   1      45.252  29.337  34.982  1.00  0.00     0.173 A 
ATOM     87  C   UNL A   1      43.784  27.729  35.997  1.00  0.00     0.173 A 
ATOM     88  F   UNL A   1      45.477  30.367  34.153  1.00  0.00    -0.203 F 
ATOM     89  C   UNL A   1      46.332  28.771  35.656  1.00  0.00     0.198 A 
ATOM     90  C   UNL A   1      44.859  27.188  36.697  1.00  0.00     0.198 A 
ATOM     91  F   UNL A   1      42.565  27.198  36.180  1.00  0.00    -0.203 F 
ATOM     92  F   UNL A   1      47.567  29.251  35.460  1.00  0.00    -0.200 F 
ATOM     93  C   UNL A   1      46.133  27.704  36.519  1.00  0.00     0.200 A 
ATOM     94  F   UNL A   1      44.661  26.169  37.544  1.00  0.00    -0.200 F 
ATOM     95  F   UNL A   1      47.171  27.168  37.175  1.00  0.00    -0.200 F 
ENDBRANCH  62  85
ENDBRANCH  36  37
ENDBRANCH  28  31
ENDBRANCH  26  27
ENDBRANCH  25  26
ENDBRANCH   1  25
TORSDOF 15
ENDMDL
MODEL 2
REMARK VINA RESULT:     -12.1      1.476      3.062
REMARK SMILES COc1ccc(-c2c(C)n[nH]c2C)c(C(=O)NCCCCCCNC(=O)c2ccc(-c3c4nc(c(-c5c(F)c(F)c(F)c(F)c5F)c5ccc([nH]5)c(-c5c(F)c(F)c(F)c(F)c5F)c5nc(c(-c6c(F)c(F)c(F)c(F)c6F)c6ccc3[nH]6)C=C5)C=C4)cc2)c1
REMARK SMILES IDX 21 1 20 2 19 3 18 4 17 5 15 6 16 7 14 9 3 10 4 11 90 12 5 13
REMARK SMILES IDX 6 14 2 15 1 16 7 17 8 18 12 19 9 20 10 21 11 22 13 23 22 25
REMARK SMILES IDX 23 26 24 27 25 28 26 30 27 31 28 32 89 33 29 34 88 35 30 36
REMARK SMILES IDX 31 37 32 38 82 39 33 40 87 41 81 42 83 43 34 44 86 45 80 46
REMARK SMILES IDX 79 47 35 49 67 50 47 51 66 52 48 53 51 54 65 55 84 56 49 57
REMARK SMILES IDX 50 58 64 60 85 61 52 62 36 63 37 64 45 65 38 66 39 67 43 68
REMARK SMILES IDX 46 69 40 70 41 71 44 72 42 73 68 74 69 75 77 76 70 77 71 78
REMARK SMILES IDX 75 79 78 80 72 81 73 82 76 83 74 84 53 85 54 86 62 87 55 88
REMARK SMILES IDX 56 89 60 90 63 91 57 92 58 93 61 94 59 95
REMARK H PARENT 17 8 11 24 24 29 83 48 51 59
REMARK Flexibility Score: inf
ROOT
ATOM      1  C   UNL A   1      31.509  30.784  26.115  1.00  0.00     0.002 C 
ENDROOT
BRANCH   1   2
ATOM      2  C   UNL A   1      32.318  29.903  27.069  1.00  0.00     0.002 C 
BRANCH   2   3
ATOM      3  C   UNL A   1      33.650  29.369  26.547  1.00  0.00     0.021 C 
BRANCH   3   4
ATOM      4  C   UNL A   1      33.820  27.856  26.510  1.00  0.00     0.116 C 
BRANCH   4   5
ATOM      5  N   UNL A   1      32.596  27.094  26.687  1.00  0.00    -0.352 N 
ATOM      6  C   UNL A   1      32.273  25.790  26.355  1.00  0.00     0.252 C 
ATOM      7  O   UNL A   1      31.194  25.361  26.755  1.00  0.00    -0.269 OA
ATOM      8  H   UNL A   1      31.867  27.593  27.121  1.00  0.00     0.163 HD
BRANCH   6   9
ATOM      9  C   UNL A   1      33.184  24.950  25.516  1.00  0.00     0.051 A 
ATOM     10  C   UNL A   1      34.839  23.156  25.437  1.00  0.00     0.119 A 
ATOM     11  C   UNL A   1      35.141  23.497  24.123  1.00  0.00     0.047 A 
ATOM     12  C   UNL A   1      33.825  23.843  26.101  1.00  0.00     0.060 A 
ATOM     13  C   UNL A   1      34.413  24.494  23.474  1.00  0.00     0.013 A 
ATOM     14  C   UNL A   1      33.414  25.215  24.152  1.00  0.00    -0.002 A 
BRANCH  10  15
ATOM     15  O   UNL A   1      35.591  22.145  25.968  1.00  0.00    -0.497 OA
ATOM     16  C   UNL A   1      36.442  21.442  25.070  1.00  0.00     0.278 C 
ENDBRANCH  10  15
BRANCH  14  17
ATOM     17  C   UNL A   1      32.555  26.054  23.337  1.00  0.00     0.026 A 
ATOM     18  C   UNL A   1      31.243  25.757  22.867  1.00  0.00     0.067 A 
ATOM     19  C   UNL A   1      32.845  27.299  22.818  1.00  0.00     0.040 A 
ATOM     20  C   UNL A   1      30.442  24.534  23.126  1.00  0.00     0.069 C 
ATOM     21  N   UNL A   1      30.753  26.743  22.108  1.00  0.00    -0.180 NA
ATOM     22  N   UNL A   1      31.713  27.679  22.145  1.00  0.00    -0.282 N 
ATOM     23  C   UNL A   1      34.028  28.182  22.906  1.00  0.00     0.067 C 
ATOM     24  H   UNL A   1      31.614  28.563  21.724  1.00  0.00     0.190 HD
ENDBRANCH  14  17
ENDBRANCH   6   9
ENDBRANCH   4   5
ENDBRANCH   3   4
ENDBRANCH   2   3
ENDBRANCH   1   2
BRANCH   1  25
ATOM     25  C   UNL A   1      31.372  32.258  26.501  1.00  0.00     0.021 C 
BRANCH  25  26
ATOM     26  C   UNL A   1      32.555  32.858  27.250  1.00  0.00     0.116 C 
BRANCH  26  27
ATOM     27  N   UNL A   1      32.340  34.242  27.628  1.00  0.00    -0.352 N 
ATOM     28  C   UNL A   1      32.954  34.988  28.606  1.00  0.00     0.251 C 
ATOM     29  H   UNL A   1      31.654  34.718  27.107  1.00  0.00     0.163 HD
ATOM     30  O   UNL A   1      32.533  36.103  28.889  1.00  0.00    -0.269 OA
BRANCH  28  31
ATOM     31  C   UNL A   1      34.114  34.434  29.341  1.00  0.00     0.039 A 
ATOM     32  C   UNL A   1      33.890  33.767  30.549  1.00  0.00     0.014 A 
ATOM     33  C   UNL A   1      35.415  34.581  28.853  1.00  0.00     0.014 A 
ATOM     34  C   UNL A   1      34.962  33.197  31.236  1.00  0.00     0.010 A 
ATOM     35  C   UNL A   1      36.473  33.945  29.499  1.00  0.00     0.010 A 
ATOM     36  C   UNL A   1      36.260  33.253  30.700  1.00  0.00    -0.014 A 
BRANCH  36  37
ATOM     37  C   UNL A   1      37.406  32.604  31.387  1.00  0.00     0.031 A 
ATOM     38  C   UNL A   1      38.110  31.440  30.742  1.00  0.00     0.074 A 
ATOM     39  C   UNL A   1      37.776  33.020  32.613  1.00  0.00     0.049 A 
ATOM     40  N   UNL A   1      39.079  30.694  31.211  1.00  0.00    -0.248 NA
ATOM     41  C   UNL A   1      37.644  31.046  29.404  1.00  0.00     0.031 C 
ATOM     42  C   UNL A   1      37.149  34.112  33.359  1.00  0.00     0.029 A 
ATOM     43  N   UNL A   1      38.763  32.568  33.454  1.00  0.00    -0.354 N 
ATOM     44  C   UNL A   1      39.326  29.739  30.233  1.00  0.00     0.074 A 
ATOM     45  C   UNL A   1      38.369  29.962  29.172  1.00  0.00     0.031 C 
ATOM     46  C   UNL A   1      37.778  34.259  34.536  1.00  0.00     0.029 A 
ATOM     47  C   UNL A   1      38.824  33.246  34.648  1.00  0.00     0.049 A 
ATOM     48  H   UNL A   1      39.370  31.827  33.224  1.00  0.00     0.167 HD
ATOM     49  C   UNL A   1      40.281  28.778  30.212  1.00  0.00     0.037 A 
ATOM     50  C   UNL A   1      39.624  33.063  35.714  1.00  0.00     0.037 A 
ATOM     51  C   UNL A   1      41.245  28.573  31.262  1.00  0.00     0.049 A 
ATOM     52  C   UNL A   1      40.663  31.973  35.674  1.00  0.00     0.074 A 
ATOM     53  C   UNL A   1      42.285  27.663  31.312  1.00  0.00     0.029 A 
ATOM     54  N   UNL A   1      41.281  29.288  32.451  1.00  0.00    -0.354 N 
ATOM     55  N   UNL A   1      40.931  31.118  34.718  1.00  0.00    -0.248 NA
ATOM     56  C   UNL A   1      41.517  31.828  36.863  1.00  0.00     0.031 C 
ATOM     57  C   UNL A   1      42.915  27.786  32.555  1.00  0.00     0.029 A 
ATOM     58  C   UNL A   1      42.310  28.819  33.253  1.00  0.00     0.049 A 
ATOM     59  H   UNL A   1      40.667  30.019  32.691  1.00  0.00     0.167 HD
ATOM     60  C   UNL A   1      42.002  30.360  35.171  1.00  0.00     0.074 A 
ATOM     61  C   UNL A   1      42.344  30.865  36.485  1.00  0.00     0.031 C 
ATOM     62  C   UNL A   1      42.646  29.339  34.554  1.00  0.00     0.037 A 
BRANCH  49  63
ATOM     63  C   UNL A   1      40.332  27.872  29.014  1.00  0.00     0.064 A 
ATOM     64  C   UNL A   1      41.092  28.192  27.878  1.00  0.00     0.173 A 
ATOM     65  C   UNL A   1      39.641  26.651  29.016  1.00  0.00     0.173 A 
ATOM     66  F   UNL A   1      41.764  29.352  27.818  1.00  0.00    -0.203 F 
ATOM     67  C   UNL A   1      41.131  27.339  26.778  1.00  0.00     0.198 A 
ATOM     68  C   UNL A   1      39.711  25.784  27.927  1.00  0.00     0.198 A 
ATOM     69  F   UNL A   1      38.904  26.292  30.077  1.00  0.00    -0.203 F 
ATOM     70  F   UNL A   1      41.821  27.691  25.683  1.00  0.00    -0.200 F 
ATOM     71  C   UNL A   1      40.448  26.133  26.806  1.00  0.00     0.200 A 
ATOM     72  F   UNL A   1      39.063  24.611  27.964  1.00  0.00    -0.200 F 
ATOM     73  F   UNL A   1      40.495  25.309  25.750  1.00  0.00    -0.200 F 
ENDBRANCH  49  63
BRANCH  50  74
ATOM     74  C   UNL A   1      39.488  33.941  36.907  1.00  0.00     0.064 A 
ATOM     75  C   UNL A   1      40.119  35.193  36.957  1.00  0.00     0.173 A 
ATOM     76  C   UNL A   1      38.739  33.546  38.025  1.00  0.00     0.173 A 
ATOM     77  F   UNL A   1      40.863  35.609  35.921  1.00  0.00    -0.203 F 
ATOM     78  C   UNL A   1      40.027  36.003  38.087  1.00  0.00     0.198 A 
ATOM     79  C   UNL A   1      38.621  34.371  39.142  1.00  0.00     0.198 A 
ATOM     80  F   UNL A   1      38.111  32.360  38.029  1.00  0.00    -0.203 F 
ATOM     81  F   UNL A   1      40.684  37.171  38.127  1.00  0.00    -0.200 F 
ATOM     82  C   UNL A   1      39.273  35.594  39.177  1.00  0.00     0.200 A 
ATOM     83  F   UNL A   1      37.878  33.978  40.186  1.00  0.00    -0.200 F 
ATOM     84  F   UNL A   1      39.183  36.374  40.262  1.00  0.00    -0.200 F 
ENDBRANCH  50  74
BRANCH  62  85
ATOM     85  C   UNL A   1      43.818  28.728  35.268  1.00  0.00     0.064 A 
ATOM     86  C   UNL A   1      45.125  29.205  35.090  1.00  0.00     0.173 A 
ATOM     87  C   UNL A   1      43.623  27.677  36.178  1.00  0.00     0.173 A 
ATOM     88  F   UNL A   1      45.369  30.197  34.221  1.00  0.00    -0.203 F 
ATOM     89  C   UNL A   1      46.195  28.634  35.775  1.00  0.00     0.198 A 
ATOM     90  C   UNL A   1      44.689  27.133  36.887  1.00  0.00     0.198 A 
ATOM     91  F   UNL A   1      42.391  27.189  36.392  1.00  0.00    -0.203 F 
ATOM     92  F   UNL A   1      47.441  29.072  35.550  1.00  0.00    -0.200 F 
ATOM     93  C   UNL A   1      45.976  27.606  36.679  1.00  0.00     0.200 A 
ATOM     94  F   UNL A   1      44.471  26.152  37.774  1.00  0.00    -0.200 F 
ATOM     95  F   UNL A   1      47.005  27.066  37.345  1.00  0.00    -0.200 F 
ENDBRANCH  62  85
ENDBRANCH  36  37
ENDBRANCH  28  31
ENDBRANCH  26  27
ENDBRANCH  25  26
ENDBRANCH   1  25
TORSDOF 15
ENDMDL
MODEL 3
REMARK VINA RESULT:     -12.0      1.370      2.457
REMARK SMILES COc1ccc(-c2c(C)n[nH]c2C)c(C(=O)NCCCCCCNC(=O)c2ccc(-c3c4nc(c(-c5c(F)c(F)c(F)c(F)c5F)c5ccc([nH]5)c(-c5c(F)c(F)c(F)c(F)c5F)c5nc(c(-c6c(F)c(F)c(F)c(F)c6F)c6ccc3[nH]6)C=C5)C=C4)cc2)c1
REMARK SMILES IDX 21 1 20 2 19 3 18 4 17 5 15 6 16 7 14 9 3 10 4 11 90 12 5 13
REMARK SMILES IDX 6 14 2 15 1 16 7 17 8 18 12 19 9 20 10 21 11 22 13 23 22 25
REMARK SMILES IDX 23 26 24 27 25 28 26 30 27 31 28 32 89 33 29 34 88 35 30 36
REMARK SMILES IDX 31 37 32 38 82 39 33 40 87 41 81 42 83 43 34 44 86 45 80 46
REMARK SMILES IDX 79 47 35 49 67 50 47 51 66 52 48 53 51 54 65 55 84 56 49 57
REMARK SMILES IDX 50 58 64 60 85 61 52 62 36 63 37 64 45 65 38 66 39 67 43 68
REMARK SMILES IDX 46 69 40 70 41 71 44 72 42 73 68 74 69 75 77 76 70 77 71 78
REMARK SMILES IDX 75 79 78 80 72 81 73 82 76 83 74 84 53 85 54 86 62 87 55 88
REMARK SMILES IDX 56 89 60 90 63 91 57 92 58 93 61 94 59 95
REMARK H PARENT 17 8 11 24 24 29 83 48 51 59
REMARK Flexibility Score: inf
ROOT
ATOM      1  C   UNL A   1      31.592  30.708  26.163  1.00  0.00     0.002 C 
ENDROOT
BRANCH   1   2
ATOM      2  C   UNL A   1      32.315  29.785  27.146  1.00  0.00     0.002 C 
BRANCH   2   3
ATOM      3  C   UNL A   1      33.471  28.959  26.586  1.00  0.00     0.021 C 
BRANCH   3   4
ATOM      4  C   UNL A   1      33.245  27.458  26.453  1.00  0.00     0.116 C 
BRANCH   4   5
ATOM      5  N   UNL A   1      31.887  27.014  26.714  1.00  0.00    -0.352 N 
ATOM      6  C   UNL A   1      31.103  26.056  26.096  1.00  0.00     0.252 C 
ATOM      7  O   UNL A   1      30.027  25.788  26.623  1.00  0.00    -0.269 OA
ATOM      8  H   UNL A   1      31.447  27.475  27.463  1.00  0.00     0.163 HD
BRANCH   6   9
ATOM      9  C   UNL A   1      31.533  25.398  24.822  1.00  0.00     0.051 A 
ATOM     10  C   UNL A   1      32.391  23.390  23.729  1.00  0.00     0.119 A 
ATOM     11  C   UNL A   1      32.634  24.126  22.575  1.00  0.00     0.047 A 
ATOM     12  C   UNL A   1      31.789  24.016  24.819  1.00  0.00     0.060 A 
ATOM     13  C   UNL A   1      32.249  25.465  22.504  1.00  0.00     0.013 A 
ATOM     14  C   UNL A   1      31.675  26.109  23.614  1.00  0.00    -0.002 A 
BRANCH  10  15
ATOM     15  O   UNL A   1      32.779  22.080  23.682  1.00  0.00    -0.497 OA
ATOM     16  C   UNL A   1      32.719  21.352  24.904  1.00  0.00     0.278 C 
ENDBRANCH  10  15
BRANCH  14  17
ATOM     17  C   UNL A   1      31.091  27.416  23.374  1.00  0.00     0.026 A 
ATOM     18  C   UNL A   1      29.708  27.762  23.368  1.00  0.00     0.067 A 
ATOM     19  C   UNL A   1      31.751  28.587  23.065  1.00  0.00     0.040 A 
ATOM     20  C   UNL A   1      28.550  26.872  23.635  1.00  0.00     0.069 C 
ATOM     21  N   UNL A   1      29.521  29.053  23.074  1.00  0.00    -0.180 NA
ATOM     22  N   UNL A   1      30.768  29.535  22.955  1.00  0.00    -0.282 N 
ATOM     23  C   UNL A   1      33.180  28.930  22.899  1.00  0.00     0.067 C 
ATOM     24  H   UNL A   1      30.959  30.488  22.801  1.00  0.00     0.190 HD
ENDBRANCH  14  17
ENDBRANCH   6   9
ENDBRANCH   4   5
ENDBRANCH   3   4
ENDBRANCH   2   3
ENDBRANCH   1   2
BRANCH   1  25
ATOM     25  C   UNL A   1      31.403  32.160  26.607  1.00  0.00     0.021 C 
BRANCH  25  26
ATOM     26  C   UNL A   1      32.631  32.831  27.211  1.00  0.00     0.116 C 
BRANCH  26  27
ATOM     27  N   UNL A   1      32.382  34.203  27.615  1.00  0.00    -0.352 N 
ATOM     28  C   UNL A   1      32.983  34.947  28.601  1.00  0.00     0.251 C 
ATOM     29  H   UNL A   1      31.679  34.669  27.107  1.00  0.00     0.163 HD
ATOM     30  O   UNL A   1      32.534  36.046  28.907  1.00  0.00    -0.269 OA
BRANCH  28  31
ATOM     31  C   UNL A   1      34.163  34.412  29.317  1.00  0.00     0.039 A 
ATOM     32  C   UNL A   1      33.967  33.717  30.513  1.00  0.00     0.014 A 
ATOM     33  C   UNL A   1      35.456  34.604  28.823  1.00  0.00     0.014 A 
ATOM     34  C   UNL A   1      35.060  33.164  31.182  1.00  0.00     0.010 A 
ATOM     35  C   UNL A   1      36.536  33.986  29.449  1.00  0.00     0.010 A 
ATOM     36  C   UNL A   1      36.351  33.266  30.638  1.00  0.00    -0.014 A 
BRANCH  36  37
ATOM     37  C   UNL A   1      37.521  32.636  31.304  1.00  0.00     0.031 A 
ATOM     38  C   UNL A   1      38.256  31.509  30.630  1.00  0.00     0.074 A 
ATOM     39  C   UNL A   1      37.884  33.035  32.538  1.00  0.00     0.049 A 
ATOM     40  N   UNL A   1      39.249  30.782  31.076  1.00  0.00    -0.248 NA
ATOM     41  C   UNL A   1      37.795  31.133  29.284  1.00  0.00     0.031 C 
ATOM     42  C   UNL A   1      37.229  34.089  33.313  1.00  0.00     0.029 A 
ATOM     43  N   UNL A   1      38.889  32.593  33.364  1.00  0.00    -0.354 N 
ATOM     44  C   UNL A   1      39.520  29.858  30.075  1.00  0.00     0.074 A 
ATOM     45  C   UNL A   1      38.551  30.076  29.024  1.00  0.00     0.031 C 
ATOM     46  C   UNL A   1      37.859  34.228  34.489  1.00  0.00     0.029 A 
ATOM     47  C   UNL A   1      38.935  33.245  34.573  1.00  0.00     0.049 A 
ATOM     48  H   UNL A   1      39.516  31.877  33.114  1.00  0.00     0.167 HD
ATOM     49  C   UNL A   1      40.504  28.927  30.027  1.00  0.00     0.037 A 
ATOM     50  C   UNL A   1      39.747  33.061  35.631  1.00  0.00     0.037 A 
ATOM     51  C   UNL A   1      41.478  28.727  31.068  1.00  0.00     0.049 A 
ATOM     52  C   UNL A   1      40.817  32.005  35.561  1.00  0.00     0.074 A 
ATOM     53  C   UNL A   1      42.546  27.848  31.092  1.00  0.00     0.029 A 
ATOM     54  N   UNL A   1      41.499  29.415  32.273  1.00  0.00    -0.354 N 
ATOM     55  N   UNL A   1      41.106  31.181  34.584  1.00  0.00    -0.248 NA
ATOM     56  C   UNL A   1      41.681  31.858  36.742  1.00  0.00     0.031 C 
ATOM     57  C   UNL A   1      43.178  27.962  32.334  1.00  0.00     0.029 A 
ATOM     58  C   UNL A   1      42.546  28.959  33.059  1.00  0.00     0.049 A 
ATOM     59  H   UNL A   1      40.865  30.122  32.532  1.00  0.00     0.167 HD
ATOM     60  C   UNL A   1      42.202  30.446  35.014  1.00  0.00     0.074 A 
ATOM     61  C   UNL A   1      42.535  30.929  36.338  1.00  0.00     0.031 C 
ATOM     62  C   UNL A   1      42.873  29.459  34.371  1.00  0.00     0.037 A 
BRANCH  49  63
ATOM     63  C   UNL A   1      40.575  28.052  28.808  1.00  0.00     0.064 A 
ATOM     64  C   UNL A   1      39.871  26.841  28.727  1.00  0.00     0.173 A 
ATOM     65  C   UNL A   1      41.328  28.446  27.692  1.00  0.00     0.173 A 
ATOM     66  F   UNL A   1      39.143  26.410  29.769  1.00  0.00    -0.203 F 
ATOM     67  C   UNL A   1      39.944  26.043  27.587  1.00  0.00     0.198 A 
ATOM     68  C   UNL A   1      41.372  27.662  26.541  1.00  0.00     0.198 A 
ATOM     69  F   UNL A   1      42.017  29.597  27.713  1.00  0.00    -0.203 F 
ATOM     70  F   UNL A   1      39.306  24.864  27.554  1.00  0.00    -0.200 F 
ATOM     71  C   UNL A   1      40.687  26.458  26.493  1.00  0.00     0.200 A 
ATOM     72  F   UNL A   1      42.077  28.074  25.478  1.00  0.00    -0.200 F 
ATOM     73  F   UNL A   1      40.750  25.693  25.394  1.00  0.00    -0.200 F 
ENDBRANCH  49  63
BRANCH  50  74
ATOM     74  C   UNL A   1      39.591  33.908  36.845  1.00  0.00     0.064 A 
ATOM     75  C   UNL A   1      38.824  33.471  37.935  1.00  0.00     0.173 A 
ATOM     76  C   UNL A   1      40.191  35.172  36.937  1.00  0.00     0.173 A 
ATOM     77  F   UNL A   1      38.213  32.277  37.888  1.00  0.00    -0.203 F 
ATOM     78  C   UNL A   1      38.643  34.276  39.059  1.00  0.00     0.198 A 
ATOM     79  C   UNL A   1      40.036  35.963  38.074  1.00  0.00     0.198 A 
ATOM     80  F   UNL A   1      40.939  35.636  35.925  1.00  0.00    -0.203 F 
ATOM     81  F   UNL A   1      37.861  33.855  40.062  1.00  0.00    -0.200 F 
ATOM     82  C   UNL A   1      39.254  35.518  39.129  1.00  0.00     0.200 A 
ATOM     83  F   UNL A   1      40.641  37.156  38.145  1.00  0.00    -0.200 F 
ATOM     84  F   UNL A   1      39.081  36.291  40.210  1.00  0.00    -0.200 F 
ENDBRANCH  50  74
BRANCH  62  85
ATOM     85  C   UNL A   1      44.067  28.867  35.065  1.00  0.00     0.064 A 
ATOM     86  C   UNL A   1      45.352  29.409  34.919  1.00  0.00     0.173 A 
ATOM     87  C   UNL A   1      43.913  27.768  35.924  1.00  0.00     0.173 A 
ATOM     88  F   UNL A   1      45.558  30.450  34.099  1.00  0.00    -0.203 F 
ATOM     89  C   UNL A   1      46.443  28.854  35.585  1.00  0.00     0.198 A 
ATOM     90  C   UNL A   1      44.998  27.238  36.615  1.00  0.00     0.198 A 
ATOM     91  F   UNL A   1      42.703  27.216  36.106  1.00  0.00    -0.203 F 
ATOM     92  F   UNL A   1      47.670  29.356  35.391  1.00  0.00    -0.200 F 
ATOM     93  C   UNL A   1      46.264  27.776  36.439  1.00  0.00     0.200 A 
ATOM     94  F   UNL A   1      44.819  26.208  37.454  1.00  0.00    -0.200 F 
ATOM     95  F   UNL A   1      47.312  27.251  37.087  1.00  0.00    -0.200 F 
ENDBRANCH  62  85
ENDBRANCH  36  37
ENDBRANCH  28  31
ENDBRANCH  26  27
ENDBRANCH  25  26
ENDBRANCH   1  25
TORSDOF 15
ENDMDL
