MODEL 1
REMARK VINA RESULT:     -10.3      0.000      0.000
REMARK SMILES Cc1cccc(C(=O)Nc2ccc(-c3nnc(S[C@H](C(=O)NCCCCCCNC(=O)c4ccc(-c5c6nc(c(-c7c(F)c(F)c(F)c(F)c7F)c7ccc([nH]7)c(-c7c(F)c(F)c(F)c(F)c7F)c7nc(c(-c8c(F)c(F)c(F)c(F)c8F)c8ccc5[nH]8)C=C7)C=C6)cc4)C(C)C)n3C)cc2)c1
REMARK SMILES IDX 24 1 23 2 22 3 20 4 21 5 19 7 18 8 17 9 14 10 15 11 98 12
REMARK SMILES IDX 16 13 99 14 13 15 10 16 11 17 101 18 12 19 100 20 9 21 7 22
REMARK SMILES IDX 8 23 6 25 1 26 2 27 3 28 102 29 4 30 5 31 95 32 96 33 97 34
REMARK SMILES IDX 25 35 26 36 27 37 28 38 29 39 30 40 31 42 32 43 33 44 94 45
REMARK SMILES IDX 34 46 93 47 35 48 36 49 37 50 87 51 38 52 92 53 86 54 88 55
REMARK SMILES IDX 39 56 91 57 85 58 84 59 40 61 72 62 52 63 71 64 53 65 56 66
REMARK SMILES IDX 70 67 89 68 54 69 55 70 69 72 90 73 57 74 41 75 42 76 50 77
REMARK SMILES IDX 43 78 44 79 48 80 51 81 45 82 46 83 49 84 47 85 73 86 74 87
REMARK SMILES IDX 82 88 75 89 76 90 80 91 83 92 77 93 78 94 81 95 79 96 58 97
REMARK SMILES IDX 59 98 67 99 60 100 61 101 65 102 68 103 62 104 63 105 66 106
REMARK SMILES IDX 64 107
REMARK H PARENT 22 6 9 24 29 41 88 60 56 71
REMARK Flexibility Score: inf
ROOT
ATOM      1  C   UNL A   1      41.987  34.999  29.288  1.00  0.00     0.021 C 
ENDROOT
BRANCH   1   2
ATOM      2  C   UNL A   1      41.459  35.930  28.199  1.00  0.00     0.116 C 
BRANCH   2   3
ATOM      3  N   UNL A   1      41.905  35.649  26.854  1.00  0.00    -0.355 N 
ATOM      4  C   UNL A   1      43.154  35.375  26.370  1.00  0.00     0.233 C 
ATOM      5  O   UNL A   1      43.195  34.594  25.407  1.00  0.00    -0.274 OA
ATOM      6  H   UNL A   1      41.193  35.657  26.175  1.00  0.00     0.163 HD
BRANCH   4   7
ATOM      7  C   UNL A   1      44.478  35.982  26.890  1.00  0.00     0.146 C 
BRANCH   7   8
ATOM      8  S   UNL A   1      45.969  35.266  26.091  1.00  0.00    -0.072 SA
BRANCH   8   9
ATOM      9  C   UNL A   1      46.812  34.223  27.168  1.00  0.00     0.192 A 
ATOM     10  C   UNL A   1      47.637  32.343  27.957  1.00  0.00     0.164 A 
ATOM     11  N   UNL A   1      48.154  33.354  28.634  1.00  0.00    -0.129 NA
ATOM     12  N   UNL A   1      46.701  32.857  27.085  1.00  0.00    -0.305 N 
ATOM     13  N   UNL A   1      47.640  34.526  28.134  1.00  0.00    -0.123 NA
ATOM     14  C   UNL A   1      45.742  32.094  26.327  1.00  0.00     0.154 C 
BRANCH  10  15
ATOM     15  C   UNL A   1      48.012  30.938  28.128  1.00  0.00     0.019 A 
ATOM     16  C   UNL A   1      48.492  28.166  28.151  1.00  0.00     0.041 A 
ATOM     17  C   UNL A   1      49.178  28.986  27.257  1.00  0.00     0.027 A 
ATOM     18  C   UNL A   1      47.679  28.744  29.128  1.00  0.00     0.027 A 
ATOM     19  C   UNL A   1      48.915  30.359  27.227  1.00  0.00     0.014 A 
ATOM     20  C   UNL A   1      47.424  30.120  29.103  1.00  0.00     0.014 A 
BRANCH  16  21
ATOM     21  N   UNL A   1      48.597  26.781  27.966  1.00  0.00    -0.322 N 
ATOM     22  C   UNL A   1      48.397  25.994  26.847  1.00  0.00     0.255 C 
ATOM     23  O   UNL A   1      48.346  24.771  26.997  1.00  0.00    -0.269 OA
ATOM     24  H   UNL A   1      48.861  26.281  28.772  1.00  0.00     0.170 HD
BRANCH  22  25
ATOM     25  C   UNL A   1      48.340  26.545  25.457  1.00  0.00     0.040 A 
ATOM     26  C   UNL A   1      50.554  27.146  22.416  1.00  0.00     0.044 C 
ATOM     27  C   UNL A   1      49.342  27.091  23.299  1.00  0.00    -0.050 A 
ATOM     28  C   UNL A   1      48.145  27.693  22.900  1.00  0.00     0.003 A 
ATOM     29  C   UNL A   1      49.396  26.447  24.542  1.00  0.00     0.017 A 
ATOM     30  C   UNL A   1      47.042  27.691  23.752  1.00  0.00     0.001 A 
ATOM     31  C   UNL A   1      47.145  27.141  25.033  1.00  0.00     0.014 A 
ENDBRANCH  22  25
ENDBRANCH  16  21
ENDBRANCH  10  15
ENDBRANCH   8   9
ENDBRANCH   7   8
BRANCH   7  32
ATOM     32  C   UNL A   1      44.633  37.513  27.099  1.00  0.00     0.006 C 
ATOM     33  C   UNL A   1      44.502  37.882  28.585  1.00  0.00     0.009 C 
ATOM     34  C   UNL A   1      45.966  38.109  26.607  1.00  0.00     0.009 C 
ENDBRANCH   7  32
ENDBRANCH   4   7
ENDBRANCH   2   3
ENDBRANCH   1   2
BRANCH   1  35
ATOM     35  C   UNL A   1      40.982  34.093  30.005  1.00  0.00     0.002 C 
BRANCH  35  36
ATOM     36  C   UNL A   1      39.503  34.508  30.016  1.00  0.00     0.002 C 
BRANCH  36  37
ATOM     37  C   UNL A   1      38.512  33.659  29.218  1.00  0.00     0.021 C 
BRANCH  37  38
ATOM     38  C   UNL A   1      37.827  32.541  29.987  1.00  0.00     0.116 C 
BRANCH  38  39
ATOM     39  N   UNL A   1      36.459  32.258  29.562  1.00  0.00    -0.352 N 
ATOM     40  C   UNL A   1      35.953  31.123  28.947  1.00  0.00     0.251 C 
ATOM     41  H   UNL A   1      35.804  32.973  29.737  1.00  0.00     0.163 HD
ATOM     42  O   UNL A   1      34.790  31.046  28.633  1.00  0.00    -0.269 OA
BRANCH  40  43
ATOM     43  C   UNL A   1      36.847  29.944  28.799  1.00  0.00     0.039 A 
ATOM     44  C   UNL A   1      37.053  29.136  29.923  1.00  0.00     0.014 A 
ATOM     45  C   UNL A   1      37.628  29.778  27.657  1.00  0.00     0.014 A 
ATOM     46  C   UNL A   1      38.200  28.351  29.992  1.00  0.00     0.010 A 
ATOM     47  C   UNL A   1      38.814  29.081  27.762  1.00  0.00     0.010 A 
ATOM     48  C   UNL A   1      39.134  28.434  28.961  1.00  0.00    -0.014 A 
BRANCH  48  49
ATOM     49  C   UNL A   1      40.512  27.980  29.095  1.00  0.00     0.031 A 
ATOM     50  C   UNL A   1      40.900  26.625  28.657  1.00  0.00     0.074 A 
ATOM     51  C   UNL A   1      41.447  28.840  29.558  1.00  0.00     0.049 A 
ATOM     52  N   UNL A   1      41.989  26.035  29.017  1.00  0.00    -0.248 NA
ATOM     53  C   UNL A   1      40.034  25.777  27.843  1.00  0.00     0.031 C 
ATOM     54  C   UNL A   1      42.899  28.698  29.485  1.00  0.00     0.029 A 
ATOM     55  N   UNL A   1      41.248  29.948  30.402  1.00  0.00    -0.354 N 
ATOM     56  C   UNL A   1      42.107  24.878  28.283  1.00  0.00     0.074 A 
ATOM     57  C   UNL A   1      40.809  24.700  27.684  1.00  0.00     0.031 C 
ATOM     58  C   UNL A   1      43.457  29.451  30.444  1.00  0.00     0.029 A 
ATOM     59  C   UNL A   1      42.375  29.975  31.256  1.00  0.00     0.049 A 
ATOM     60  H   UNL A   1      40.486  30.572  30.398  1.00  0.00     0.167 HD
ATOM     61  C   UNL A   1      43.338  24.301  28.175  1.00  0.00     0.037 A 
ATOM     62  C   UNL A   1      42.261  29.799  32.605  1.00  0.00     0.037 A 
ATOM     63  C   UNL A   1      44.261  24.873  29.161  1.00  0.00     0.049 A 
ATOM     64  C   UNL A   1      43.077  28.652  33.150  1.00  0.00     0.074 A 
ATOM     65  C   UNL A   1      45.315  25.765  29.075  1.00  0.00     0.029 A 
ATOM     66  N   UNL A   1      43.979  24.724  30.518  1.00  0.00    -0.354 N 
ATOM     67  N   UNL A   1      43.511  27.660  32.425  1.00  0.00    -0.248 NA
ATOM     68  C   UNL A   1      43.431  28.515  34.559  1.00  0.00     0.031 C 
ATOM     69  C   UNL A   1      45.624  26.204  30.391  1.00  0.00     0.029 A 
ATOM     70  C   UNL A   1      44.781  25.553  31.276  1.00  0.00     0.049 A 
ATOM     71  H   UNL A   1      43.300  24.112  30.885  1.00  0.00     0.167 HD
ATOM     72  C   UNL A   1      44.158  26.756  33.229  1.00  0.00     0.074 A 
ATOM     73  C   UNL A   1      44.103  27.350  34.551  1.00  0.00     0.031 C 
ATOM     74  C   UNL A   1      44.662  25.589  32.729  1.00  0.00     0.037 A 
BRANCH  61  75
ATOM     75  C   UNL A   1      43.803  23.385  27.048  1.00  0.00     0.064 A 
ATOM     76  C   UNL A   1      44.654  23.888  26.033  1.00  0.00     0.173 A 
ATOM     77  C   UNL A   1      43.364  22.064  26.819  1.00  0.00     0.173 A 
ATOM     78  F   UNL A   1      45.184  25.116  26.111  1.00  0.00    -0.203 F 
ATOM     79  C   UNL A   1      44.979  23.159  24.881  1.00  0.00     0.198 A 
ATOM     80  C   UNL A   1      43.713  21.324  25.683  1.00  0.00     0.198 A 
ATOM     81  F   UNL A   1      42.552  21.418  27.656  1.00  0.00    -0.203 F 
ATOM     82  F   UNL A   1      45.742  23.718  23.931  1.00  0.00    -0.200 F 
ATOM     83  C   UNL A   1      44.505  21.877  24.704  1.00  0.00     0.200 A 
ATOM     84  F   UNL A   1      43.245  20.076  25.540  1.00  0.00    -0.200 F 
ATOM     85  F   UNL A   1      44.801  21.181  23.599  1.00  0.00    -0.200 F 
ENDBRANCH  61  75
BRANCH  62  86
ATOM     86  C   UNL A   1      40.955  30.244  33.151  1.00  0.00     0.064 A 
ATOM     87  C   UNL A   1      40.691  31.626  33.216  1.00  0.00     0.173 A 
ATOM     88  C   UNL A   1      39.864  29.372  33.237  1.00  0.00     0.173 A 
ATOM     89  F   UNL A   1      41.705  32.504  33.137  1.00  0.00    -0.203 F 
ATOM     90  C   UNL A   1      39.387  32.114  33.243  1.00  0.00     0.198 A 
ATOM     91  C   UNL A   1      38.558  29.865  33.278  1.00  0.00     0.198 A 
ATOM     92  F   UNL A   1      40.047  28.045  33.161  1.00  0.00    -0.203 F 
ATOM     93  F   UNL A   1      39.166  33.436  33.190  1.00  0.00    -0.200 F 
ATOM     94  C   UNL A   1      38.321  31.232  33.245  1.00  0.00     0.200 A 
ATOM     95  F   UNL A   1      37.524  29.013  33.248  1.00  0.00    -0.200 F 
ATOM     96  F   UNL A   1      37.065  31.696  33.171  1.00  0.00    -0.200 F 
ENDBRANCH  62  86
BRANCH  74  97
ATOM     97  C   UNL A   1      45.164  24.409  33.535  1.00  0.00     0.064 A 
ATOM     98  C   UNL A   1      44.450  23.214  33.724  1.00  0.00     0.173 A 
ATOM     99  C   UNL A   1      46.490  24.402  34.040  1.00  0.00     0.173 A 
ATOM    100  F   UNL A   1      43.236  23.032  33.186  1.00  0.00    -0.203 F 
ATOM    101  C   UNL A   1      44.989  22.127  34.421  1.00  0.00     0.198 A 
ATOM    102  C   UNL A   1      47.044  23.294  34.681  1.00  0.00     0.198 A 
ATOM    103  F   UNL A   1      47.300  25.462  33.901  1.00  0.00    -0.203 F 
ATOM    104  F   UNL A   1      44.245  21.027  34.609  1.00  0.00    -0.200 F 
ATOM    105  C   UNL A   1      46.288  22.162  34.889  1.00  0.00     0.200 A 
ATOM    106  F   UNL A   1      48.325  23.327  35.077  1.00  0.00    -0.200 F 
ATOM    107  F   UNL A   1      46.814  21.100  35.512  1.00  0.00    -0.200 F 
ENDBRANCH  74  97
ENDBRANCH  48  49
ENDBRANCH  40  43
ENDBRANCH  38  39
ENDBRANCH  37  38
ENDBRANCH  36  37
ENDBRANCH  35  36
ENDBRANCH   1  35
TORSDOF 19
ENDMDL
MODEL 2
REMARK VINA RESULT:     -10.3      4.430     11.071
REMARK SMILES Cc1cccc(C(=O)Nc2ccc(-c3nnc(S[C@H](C(=O)NCCCCCCNC(=O)c4ccc(-c5c6nc(c(-c7c(F)c(F)c(F)c(F)c7F)c7ccc([nH]7)c(-c7c(F)c(F)c(F)c(F)c7F)c7nc(c(-c8c(F)c(F)c(F)c(F)c8F)c8ccc5[nH]8)C=C7)C=C6)cc4)C(C)C)n3C)cc2)c1
REMARK SMILES IDX 24 1 23 2 22 3 20 4 21 5 19 7 18 8 17 9 14 10 15 11 98 12
REMARK SMILES IDX 16 13 99 14 13 15 10 16 11 17 101 18 12 19 100 20 9 21 7 22
REMARK SMILES IDX 8 23 6 25 1 26 2 27 3 28 102 29 4 30 5 31 95 32 96 33 97 34
REMARK SMILES IDX 25 35 26 36 27 37 28 38 29 39 30 40 31 42 32 43 33 44 94 45
REMARK SMILES IDX 34 46 93 47 35 48 36 49 37 50 87 51 38 52 92 53 86 54 88 55
REMARK SMILES IDX 39 56 91 57 85 58 84 59 40 61 72 62 52 63 71 64 53 65 56 66
REMARK SMILES IDX 70 67 89 68 54 69 55 70 69 72 90 73 57 74 41 75 42 76 50 77
REMARK SMILES IDX 43 78 44 79 48 80 51 81 45 82 46 83 49 84 47 85 73 86 74 87
REMARK SMILES IDX 82 88 75 89 76 90 80 91 83 92 77 93 78 94 81 95 79 96 58 97
REMARK SMILES IDX 59 98 67 99 60 100 61 101 65 102 68 103 62 104 63 105 66 106
REMARK SMILES IDX 64 107
REMARK H PARENT 22 6 9 24 29 41 88 60 56 71
REMARK Flexibility Score: inf
ROOT
ATOM      1  C   UNL A   1      37.156  34.116  34.196  1.00  0.00     0.021 C 
ENDROOT
BRANCH   1   2
ATOM      2  C   UNL A   1      36.130  34.741  33.254  1.00  0.00     0.116 C 
BRANCH   2   3
ATOM      3  N   UNL A   1      35.007  33.906  32.896  1.00  0.00    -0.355 N 
ATOM      4  C   UNL A   1      34.544  33.516  31.670  1.00  0.00     0.233 C 
ATOM      5  O   UNL A   1      34.033  32.386  31.625  1.00  0.00    -0.274 OA
ATOM      6  H   UNL A   1      34.491  33.561  33.660  1.00  0.00     0.163 HD
BRANCH   4   7
ATOM      7  C   UNL A   1      34.566  34.371  30.381  1.00  0.00     0.146 C 
BRANCH   7   8
ATOM      8  S   UNL A   1      35.298  33.497  28.941  1.00  0.00    -0.072 SA
BRANCH   8   9
ATOM      9  C   UNL A   1      34.095  32.649  28.051  1.00  0.00     0.192 A 
ATOM     10  C   UNL A   1      33.048  30.930  27.165  1.00  0.00     0.164 A 
ATOM     11  N   UNL A   1      32.270  31.995  27.078  1.00  0.00    -0.129 NA
ATOM     12  N   UNL A   1      34.258  31.335  27.687  1.00  0.00    -0.305 N 
ATOM     13  N   UNL A   1      32.926  33.065  27.638  1.00  0.00    -0.123 NA
ATOM     14  C   UNL A   1      35.465  30.549  27.735  1.00  0.00     0.154 C 
BRANCH  10  15
ATOM     15  C   UNL A   1      32.664  29.574  26.766  1.00  0.00     0.019 A 
ATOM     16  C   UNL A   1      31.646  27.143  25.779  1.00  0.00     0.041 A 
ATOM     17  C   UNL A   1      32.543  27.888  25.014  1.00  0.00     0.027 A 
ATOM     18  C   UNL A   1      31.373  27.536  27.091  1.00  0.00     0.027 A 
ATOM     19  C   UNL A   1      33.023  29.110  25.494  1.00  0.00     0.014 A 
ATOM     20  C   UNL A   1      31.861  28.756  27.574  1.00  0.00     0.014 A 
BRANCH  16  21
ATOM     21  N   UNL A   1      31.001  26.070  25.152  1.00  0.00    -0.322 N 
ATOM     22  C   UNL A   1      31.382  24.752  24.979  1.00  0.00     0.255 C 
ATOM     23  O   UNL A   1      30.728  24.055  24.201  1.00  0.00    -0.269 OA
ATOM     24  H   UNL A   1      30.122  26.292  24.767  1.00  0.00     0.170 HD
BRANCH  22  25
ATOM     25  C   UNL A   1      32.483  24.109  25.762  1.00  0.00     0.040 A 
ATOM     26  C   UNL A   1      36.260  23.621  25.709  1.00  0.00     0.044 C 
ATOM     27  C   UNL A   1      34.830  23.567  26.159  1.00  0.00    -0.050 A 
ATOM     28  C   UNL A   1      34.459  22.783  27.255  1.00  0.00     0.003 A 
ATOM     29  C   UNL A   1      33.843  24.291  25.479  1.00  0.00     0.017 A 
ATOM     30  C   UNL A   1      33.119  22.689  27.628  1.00  0.00     0.001 A 
ATOM     31  C   UNL A   1      32.133  23.329  26.873  1.00  0.00     0.014 A 
ENDBRANCH  22  25
ENDBRANCH  16  21
ENDBRANCH  10  15
ENDBRANCH   8   9
ENDBRANCH   7   8
BRANCH   7  32
ATOM     32  C   UNL A   1      33.337  35.219  29.958  1.00  0.00     0.006 C 
ATOM     33  C   UNL A   1      32.706  35.921  31.172  1.00  0.00     0.009 C 
ATOM     34  C   UNL A   1      33.625  36.313  28.911  1.00  0.00     0.009 C 
ENDBRANCH   7  32
ENDBRANCH   4   7
ENDBRANCH   2   3
ENDBRANCH   1   2
BRANCH   1  35
ATOM     35  C   UNL A   1      37.210  32.588  34.283  1.00  0.00     0.002 C 
BRANCH  35  36
ATOM     36  C   UNL A   1      37.988  31.822  33.203  1.00  0.00     0.002 C 
BRANCH  36  37
ATOM     37  C   UNL A   1      37.274  30.680  32.477  1.00  0.00     0.021 C 
BRANCH  37  38
ATOM     38  C   UNL A   1      37.928  30.201  31.191  1.00  0.00     0.116 C 
BRANCH  38  39
ATOM     39  N   UNL A   1      37.827  28.763  30.955  1.00  0.00    -0.352 N 
ATOM     40  C   UNL A   1      38.795  27.884  30.495  1.00  0.00     0.251 C 
ATOM     41  H   UNL A   1      36.949  28.362  31.151  1.00  0.00     0.163 HD
ATOM     42  O   UNL A   1      38.551  26.714  30.329  1.00  0.00    -0.269 OA
BRANCH  40  43
ATOM     43  C   UNL A   1      40.185  28.388  30.333  1.00  0.00     0.039 A 
ATOM     44  C   UNL A   1      40.643  28.634  29.034  1.00  0.00     0.014 A 
ATOM     45  C   UNL A   1      41.070  28.399  31.408  1.00  0.00     0.014 A 
ATOM     46  C   UNL A   1      42.013  28.629  28.786  1.00  0.00     0.010 A 
ATOM     47  C   UNL A   1      42.422  28.294  31.153  1.00  0.00     0.010 A 
ATOM     48  C   UNL A   1      42.883  28.329  29.832  1.00  0.00    -0.014 A 
BRANCH  48  49
ATOM     49  C   UNL A   1      44.266  27.918  29.626  1.00  0.00     0.031 A 
ATOM     50  C   UNL A   1      45.340  28.926  29.530  1.00  0.00     0.074 A 
ATOM     51  C   UNL A   1      44.564  26.600  29.597  1.00  0.00     0.049 A 
ATOM     52  N   UNL A   1      46.511  28.688  29.043  1.00  0.00    -0.248 NA
ATOM     53  C   UNL A   1      45.147  30.327  29.891  1.00  0.00     0.031 C 
ATOM     54  C   UNL A   1      45.884  25.984  29.706  1.00  0.00     0.029 A 
ATOM     55  N   UNL A   1      43.714  25.537  29.237  1.00  0.00    -0.354 N 
ATOM     56  C   UNL A   1      47.299  29.789  29.278  1.00  0.00     0.074 A 
ATOM     57  C   UNL A   1      46.371  30.818  29.671  1.00  0.00     0.031 C 
ATOM     58  C   UNL A   1      45.841  24.764  29.154  1.00  0.00     0.029 A 
ATOM     59  C   UNL A   1      44.535  24.622  28.537  1.00  0.00     0.049 A 
ATOM     60  H   UNL A   1      42.753  25.450  29.431  1.00  0.00     0.167 HD
ATOM     61  C   UNL A   1      48.654  29.638  29.236  1.00  0.00     0.037 A 
ATOM     62  C   UNL A   1      44.326  24.326  27.222  1.00  0.00     0.037 A 
ATOM     63  C   UNL A   1      49.009  28.359  28.614  1.00  0.00     0.049 A 
ATOM     64  C   UNL A   1      45.515  24.593  26.331  1.00  0.00     0.074 A 
ATOM     65  C   UNL A   1      49.474  27.153  29.110  1.00  0.00     0.029 A 
ATOM     66  N   UNL A   1      48.641  28.125  27.289  1.00  0.00    -0.354 N 
ATOM     67  N   UNL A   1      46.490  25.401  26.642  1.00  0.00    -0.248 NA
ATOM     68  C   UNL A   1      45.676  24.002  25.006  1.00  0.00     0.031 C 
ATOM     69  C   UNL A   1      49.322  26.175  28.091  1.00  0.00     0.029 A 
ATOM     70  C   UNL A   1      48.798  26.792  26.968  1.00  0.00     0.049 A 
ATOM     71  H   UNL A   1      48.314  28.817  26.669  1.00  0.00     0.167 HD
ATOM     72  C   UNL A   1      47.374  25.472  25.596  1.00  0.00     0.074 A 
ATOM     73  C   UNL A   1      46.834  24.559  24.608  1.00  0.00     0.031 C 
ATOM     74  C   UNL A   1      48.463  26.297  25.638  1.00  0.00     0.037 A 
BRANCH  61  75
ATOM     75  C   UNL A   1      49.677  30.517  29.949  1.00  0.00     0.064 A 
ATOM     76  C   UNL A   1      49.570  30.738  31.344  1.00  0.00     0.173 A 
ATOM     77  C   UNL A   1      50.694  31.273  29.329  1.00  0.00     0.173 A 
ATOM     78  F   UNL A   1      48.676  30.075  32.089  1.00  0.00    -0.203 F 
ATOM     79  C   UNL A   1      50.365  31.665  32.031  1.00  0.00     0.198 A 
ATOM     80  C   UNL A   1      51.508  32.178  30.021  1.00  0.00     0.198 A 
ATOM     81  F   UNL A   1      50.946  31.210  28.022  1.00  0.00    -0.203 F 
ATOM     82  F   UNL A   1      50.171  31.868  33.342  1.00  0.00    -0.200 F 
ATOM     83  C   UNL A   1      51.332  32.390  31.368  1.00  0.00     0.200 A 
ATOM     84  F   UNL A   1      52.447  32.864  29.353  1.00  0.00    -0.200 F 
ATOM     85  F   UNL A   1      52.083  33.288  32.017  1.00  0.00    -0.200 F 
ENDBRANCH  61  75
BRANCH  62  86
ATOM     86  C   UNL A   1      42.908  24.459  26.805  1.00  0.00     0.064 A 
ATOM     87  C   UNL A   1      42.008  23.433  27.152  1.00  0.00     0.173 A 
ATOM     88  C   UNL A   1      42.368  25.696  26.434  1.00  0.00     0.173 A 
ATOM     89  F   UNL A   1      42.477  22.228  27.514  1.00  0.00    -0.203 F 
ATOM     90  C   UNL A   1      40.639  23.671  27.242  1.00  0.00     0.198 A 
ATOM     91  C   UNL A   1      40.993  25.927  26.513  1.00  0.00     0.198 A 
ATOM     92  F   UNL A   1      43.174  26.719  26.113  1.00  0.00    -0.203 F 
ATOM     93  F   UNL A   1      39.820  22.705  27.685  1.00  0.00    -0.200 F 
ATOM     94  C   UNL A   1      40.136  24.926  26.950  1.00  0.00     0.200 A 
ATOM     95  F   UNL A   1      40.508  27.151  26.262  1.00  0.00    -0.200 F 
ATOM     96  F   UNL A   1      38.834  25.187  27.130  1.00  0.00    -0.200 F 
ENDBRANCH  62  86
BRANCH  74  97
ATOM     97  C   UNL A   1      49.362  26.656  24.473  1.00  0.00     0.064 A 
ATOM     98  C   UNL A   1      48.931  27.324  23.314  1.00  0.00     0.173 A 
ATOM     99  C   UNL A   1      50.762  26.451  24.562  1.00  0.00     0.173 A 
ATOM    100  F   UNL A   1      47.655  27.700  23.156  1.00  0.00    -0.203 F 
ATOM    101  C   UNL A   1      49.817  27.694  22.296  1.00  0.00     0.198 A 
ATOM    102  C   UNL A   1      51.649  26.877  23.573  1.00  0.00     0.198 A 
ATOM    103  F   UNL A   1      51.318  25.857  25.629  1.00  0.00    -0.203 F 
ATOM    104  F   UNL A   1      49.344  28.291  21.192  1.00  0.00    -0.200 F 
ATOM    105  C   UNL A   1      51.175  27.482  22.430  1.00  0.00     0.200 A 
ATOM    106  F   UNL A   1      52.968  26.713  23.748  1.00  0.00    -0.200 F 
ATOM    107  F   UNL A   1      52.023  27.883  21.475  1.00  0.00    -0.200 F 
ENDBRANCH  74  97
ENDBRANCH  48  49
ENDBRANCH  40  43
ENDBRANCH  38  39
ENDBRANCH  37  38
ENDBRANCH  36  37
ENDBRANCH  35  36
ENDBRANCH   1  35
TORSDOF 19
ENDMDL
MODEL 3
REMARK VINA RESULT:     -10.2      4.702     11.314
REMARK SMILES Cc1cccc(C(=O)Nc2ccc(-c3nnc(S[C@H](C(=O)NCCCCCCNC(=O)c4ccc(-c5c6nc(c(-c7c(F)c(F)c(F)c(F)c7F)c7ccc([nH]7)c(-c7c(F)c(F)c(F)c(F)c7F)c7nc(c(-c8c(F)c(F)c(F)c(F)c8F)c8ccc5[nH]8)C=C7)C=C6)cc4)C(C)C)n3C)cc2)c1
REMARK SMILES IDX 24 1 23 2 22 3 20 4 21 5 19 7 18 8 17 9 14 10 15 11 98 12
REMARK SMILES IDX 16 13 99 14 13 15 10 16 11 17 101 18 12 19 100 20 9 21 7 22
REMARK SMILES IDX 8 23 6 25 1 26 2 27 3 28 102 29 4 30 5 31 95 32 96 33 97 34
REMARK SMILES IDX 25 35 26 36 27 37 28 38 29 39 30 40 31 42 32 43 33 44 94 45
REMARK SMILES IDX 34 46 93 47 35 48 36 49 37 50 87 51 38 52 92 53 86 54 88 55
REMARK SMILES IDX 39 56 91 57 85 58 84 59 40 61 72 62 52 63 71 64 53 65 56 66
REMARK SMILES IDX 70 67 89 68 54 69 55 70 69 72 90 73 57 74 41 75 42 76 50 77
REMARK SMILES IDX 43 78 44 79 48 80 51 81 45 82 46 83 49 84 47 85 73 86 74 87
REMARK SMILES IDX 82 88 75 89 76 90 80 91 83 92 77 93 78 94 81 95 79 96 58 97
REMARK SMILES IDX 59 98 67 99 60 100 61 101 65 102 68 103 62 104 63 105 66 106
REMARK SMILES IDX 64 107
REMARK H PARENT 22 6 9 24 29 41 88 60 56 71
REMARK Flexibility Score: inf
ROOT
ATOM      1  C   UNL A   1      37.699  34.088  34.431  1.00  0.00     0.021 C 
ENDROOT
BRANCH   1   2
ATOM      2  C   UNL A   1      37.162  33.881  33.018  1.00  0.00     0.116 C 
BRANCH   2   3
ATOM      3  N   UNL A   1      35.751  33.590  32.913  1.00  0.00    -0.355 N 
ATOM      4  C   UNL A   1      34.981  33.296  31.822  1.00  0.00     0.233 C 
ATOM      5  O   UNL A   1      34.041  32.512  32.025  1.00  0.00    -0.274 OA
ATOM      6  H   UNL A   1      35.263  33.607  33.768  1.00  0.00     0.163 HD
BRANCH   4   7
ATOM      7  C   UNL A   1      35.162  33.885  30.403  1.00  0.00     0.146 C 
BRANCH   7   8
ATOM      8  S   UNL A   1      35.937  32.711  29.222  1.00  0.00    -0.072 SA
BRANCH   8   9
ATOM      9  C   UNL A   1      34.747  31.909  28.272  1.00  0.00     0.192 A 
ATOM     10  C   UNL A   1      33.723  30.240  27.271  1.00  0.00     0.164 A 
ATOM     11  N   UNL A   1      32.934  31.301  27.247  1.00  0.00    -0.129 NA
ATOM     12  N   UNL A   1      34.925  30.623  27.825  1.00  0.00    -0.305 N 
ATOM     13  N   UNL A   1      33.577  32.339  27.878  1.00  0.00    -0.123 NA
ATOM     14  C   UNL A   1      36.141  29.848  27.831  1.00  0.00     0.154 C 
BRANCH  10  15
ATOM     15  C   UNL A   1      33.355  28.909  26.784  1.00  0.00     0.019 A 
ATOM     16  C   UNL A   1      32.457  26.540  25.559  1.00  0.00     0.041 A 
ATOM     17  C   UNL A   1      33.591  27.192  25.074  1.00  0.00     0.027 A 
ATOM     18  C   UNL A   1      31.861  26.988  26.739  1.00  0.00     0.027 A 
ATOM     19  C   UNL A   1      34.017  28.385  25.666  1.00  0.00     0.014 A 
ATOM     20  C   UNL A   1      32.294  28.178  27.336  1.00  0.00     0.014 A 
BRANCH  16  21
ATOM     21  N   UNL A   1      31.927  25.505  24.778  1.00  0.00    -0.322 N 
ATOM     22  C   UNL A   1      30.802  25.452  23.976  1.00  0.00     0.255 C 
ATOM     23  O   UNL A   1      30.435  24.352  23.560  1.00  0.00    -0.269 OA
ATOM     24  H   UNL A   1      32.447  24.669  24.804  1.00  0.00     0.170 HD
BRANCH  22  25
ATOM     25  C   UNL A   1      30.071  26.672  23.510  1.00  0.00     0.040 A 
ATOM     26  C   UNL A   1      26.586  28.210  23.494  1.00  0.00     0.044 C 
ATOM     27  C   UNL A   1      28.062  28.040  23.283  1.00  0.00    -0.050 A 
ATOM     28  C   UNL A   1      28.779  28.956  22.508  1.00  0.00     0.003 A 
ATOM     29  C   UNL A   1      28.741  26.952  23.847  1.00  0.00     0.017 A 
ATOM     30  C   UNL A   1      30.137  28.757  22.264  1.00  0.00     0.001 A 
ATOM     31  C   UNL A   1      30.775  27.610  22.743  1.00  0.00     0.014 A 
ENDBRANCH  22  25
ENDBRANCH  16  21
ENDBRANCH  10  15
ENDBRANCH   8   9
ENDBRANCH   7   8
BRANCH   7  32
ATOM     32  C   UNL A   1      34.032  34.703  29.722  1.00  0.00     0.006 C 
ATOM     33  C   UNL A   1      33.370  35.666  30.721  1.00  0.00     0.009 C 
ATOM     34  C   UNL A   1      34.474  35.551  28.514  1.00  0.00     0.009 C 
ENDBRANCH   7  32
ENDBRANCH   4   7
ENDBRANCH   2   3
ENDBRANCH   1   2
BRANCH   1  35
ATOM     35  C   UNL A   1      37.749  32.875  35.364  1.00  0.00     0.002 C 
BRANCH  35  36
ATOM     36  C   UNL A   1      38.872  31.846  35.165  1.00  0.00     0.002 C 
BRANCH  36  37
ATOM     37  C   UNL A   1      38.481  30.423  34.762  1.00  0.00     0.021 C 
BRANCH  37  38
ATOM     38  C   UNL A   1      38.023  30.245  33.324  1.00  0.00     0.116 C 
BRANCH  38  39
ATOM     39  N   UNL A   1      37.891  28.855  32.894  1.00  0.00    -0.352 N 
ATOM     40  C   UNL A   1      38.776  28.081  32.158  1.00  0.00     0.251 C 
ATOM     41  H   UNL A   1      37.059  28.404  33.167  1.00  0.00     0.163 HD
ATOM     42  O   UNL A   1      38.513  26.941  31.861  1.00  0.00    -0.269 OA
BRANCH  40  43
ATOM     43  C   UNL A   1      40.118  28.643  31.852  1.00  0.00     0.039 A 
ATOM     44  C   UNL A   1      40.384  29.013  30.529  1.00  0.00     0.014 A 
ATOM     45  C   UNL A   1      41.145  28.591  32.791  1.00  0.00     0.014 A 
ATOM     46  C   UNL A   1      41.706  29.075  30.096  1.00  0.00     0.010 A 
ATOM     47  C   UNL A   1      42.450  28.553  32.344  1.00  0.00     0.010 A 
ATOM     48  C   UNL A   1      42.720  28.716  30.981  1.00  0.00    -0.014 A 
BRANCH  48  49
ATOM     49  C   UNL A   1      44.068  28.371  30.551  1.00  0.00     0.031 A 
ATOM     50  C   UNL A   1      45.045  29.428  30.226  1.00  0.00     0.074 A 
ATOM     51  C   UNL A   1      44.438  27.070  30.522  1.00  0.00     0.049 A 
ATOM     52  N   UNL A   1      46.126  29.230  29.550  1.00  0.00    -0.248 NA
ATOM     53  C   UNL A   1      44.831  30.833  30.558  1.00  0.00     0.031 C 
ATOM     54  C   UNL A   1      45.793  26.533  30.422  1.00  0.00     0.029 A 
ATOM     55  N   UNL A   1      43.606  25.947  30.361  1.00  0.00    -0.354 N 
ATOM     56  C   UNL A   1      46.873  30.382  29.597  1.00  0.00     0.074 A 
ATOM     57  C   UNL A   1      45.965  31.378  30.106  1.00  0.00     0.031 C 
ATOM     58  C   UNL A   1      45.730  25.285  29.935  1.00  0.00     0.029 A 
ATOM     59  C   UNL A   1      44.348  25.043  29.565  1.00  0.00     0.049 A 
ATOM     60  H   UNL A   1      42.700  25.818  30.726  1.00  0.00     0.167 HD
ATOM     61  C   UNL A   1      48.207  30.303  29.323  1.00  0.00     0.037 A 
ATOM     62  C   UNL A   1      43.932  24.670  28.321  1.00  0.00     0.037 A 
ATOM     63  C   UNL A   1      48.526  29.015  28.699  1.00  0.00     0.049 A 
ATOM     64  C   UNL A   1      44.929  24.955  27.223  1.00  0.00     0.074 A 
ATOM     65  C   UNL A   1      49.144  27.862  29.154  1.00  0.00     0.029 A 
ATOM     66  N   UNL A   1      47.949  28.695  27.471  1.00  0.00    -0.354 N 
ATOM     67  N   UNL A   1      45.891  25.829  27.325  1.00  0.00    -0.248 NA
ATOM     68  C   UNL A   1      44.894  24.308  25.916  1.00  0.00     0.031 C 
ATOM     69  C   UNL A   1      48.879  26.827  28.218  1.00  0.00     0.029 A 
ATOM     70  C   UNL A   1      48.130  27.357  27.181  1.00  0.00     0.049 A 
ATOM     71  H   UNL A   1      47.477  29.335  26.891  1.00  0.00     0.167 HD
ATOM     72  C   UNL A   1      46.574  25.895  26.137  1.00  0.00     0.074 A 
ATOM     73  C   UNL A   1      45.927  24.905  25.297  1.00  0.00     0.031 C 
ATOM     74  C   UNL A   1      47.600  26.778  25.953  1.00  0.00     0.037 A 
BRANCH  61  75
ATOM     75  C   UNL A   1      49.282  31.270  29.807  1.00  0.00     0.064 A 
ATOM     76  C   UNL A   1      49.494  32.492  29.122  1.00  0.00     0.173 A 
ATOM     77  C   UNL A   1      50.217  31.023  30.834  1.00  0.00     0.173 A 
ATOM     78  F   UNL A   1      48.676  32.893  28.139  1.00  0.00    -0.203 F 
ATOM     79  C   UNL A   1      50.571  33.344  29.401  1.00  0.00     0.198 A 
ATOM     80  C   UNL A   1      51.275  31.890  31.133  1.00  0.00     0.198 A 
ATOM     81  F   UNL A   1      50.189  29.925  31.588  1.00  0.00    -0.203 F 
ATOM     82  F   UNL A   1      50.747  34.456  28.674  1.00  0.00    -0.200 F 
ATOM     83  C   UNL A   1      51.465  33.041  30.405  1.00  0.00     0.200 A 
ATOM     84  F   UNL A   1      52.126  31.575  32.121  1.00  0.00    -0.200 F 
ATOM     85  F   UNL A   1      52.503  33.845  30.667  1.00  0.00    -0.200 F 
ENDBRANCH  61  75
BRANCH  62  86
ATOM     86  C   UNL A   1      42.457  24.705  28.155  1.00  0.00     0.064 A 
ATOM     87  C   UNL A   1      41.870  25.867  27.620  1.00  0.00     0.173 A 
ATOM     88  C   UNL A   1      41.695  23.530  28.145  1.00  0.00     0.173 A 
ATOM     89  F   UNL A   1      42.561  27.019  27.607  1.00  0.00    -0.203 F 
ATOM     90  C   UNL A   1      40.626  25.828  26.994  1.00  0.00     0.198 A 
ATOM     91  C   UNL A   1      40.443  23.498  27.529  1.00  0.00     0.198 A 
ATOM     92  F   UNL A   1      42.207  22.385  28.621  1.00  0.00    -0.203 F 
ATOM     93  F   UNL A   1      40.145  26.927  26.394  1.00  0.00    -0.200 F 
ATOM     94  C   UNL A   1      39.927  24.636  26.924  1.00  0.00     0.200 A 
ATOM     95  F   UNL A   1      39.779  22.338  27.431  1.00  0.00    -0.200 F 
ATOM     96  F   UNL A   1      38.778  24.571  26.237  1.00  0.00    -0.200 F 
ENDBRANCH  62  86
BRANCH  74  97
ATOM     97  C   UNL A   1      48.258  27.126  24.634  1.00  0.00     0.064 A 
ATOM     98  C   UNL A   1      49.583  26.797  24.296  1.00  0.00     0.173 A 
ATOM     99  C   UNL A   1      47.496  27.698  23.584  1.00  0.00     0.173 A 
ATOM    100  F   UNL A   1      50.377  26.132  25.145  1.00  0.00    -0.203 F 
ATOM    101  C   UNL A   1      50.121  27.080  23.036  1.00  0.00     0.198 A 
ATOM    102  C   UNL A   1      48.019  27.923  22.311  1.00  0.00     0.198 A 
ATOM    103  F   UNL A   1      46.207  28.031  23.753  1.00  0.00    -0.203 F 
ATOM    104  F   UNL A   1      51.404  26.783  22.783  1.00  0.00    -0.200 F 
ATOM    105  C   UNL A   1      49.338  27.632  22.041  1.00  0.00     0.200 A 
ATOM    106  F   UNL A   1      47.227  28.406  21.342  1.00  0.00    -0.200 F 
ATOM    107  F   UNL A   1      49.845  27.856  20.822  1.00  0.00    -0.200 F 
ENDBRANCH  74  97
ENDBRANCH  48  49
ENDBRANCH  40  43
ENDBRANCH  38  39
ENDBRANCH  37  38
ENDBRANCH  36  37
ENDBRANCH  35  36
ENDBRANCH   1  35
TORSDOF 19
ENDMDL
