MODEL 1
REMARK VINA RESULT:     -13.2      0.000      0.000
REMARK SMILES O=C1CCCC2=C1[C@H](c1ccc([N+](=O)[O-])cc1)CC(=O)N2c1ccccc1C(=O)NCCCCCCNC(=O)c1ccc(-c2c3nc(c(-c4c(F)c(F)c(F)c(F)c4F)c4ccc([nH]4)c(-c4c(F)c(F)c(F)c(F)c4F)c4nc(c(-c5c(F)c(F)c(F)c(F)c5F)c5ccc2[nH]5)C=C4)C=C3)cc1
REMARK SMILES IDX 33 1 32 2 31 3 30 4 28 5 29 6 27 8 22 9 23 10 24 11 26 12
REMARK SMILES IDX 25 13 21 14 1 15 2 16 3 17 7 18 4 19 6 20 8 21 5 22 18 23
REMARK SMILES IDX 19 24 20 25 9 26 10 27 17 28 11 29 16 30 12 31 13 32 14 33
REMARK SMILES IDX 15 34 34 35 35 36 36 37 37 38 38 39 39 41 40 42 41 43 102 44
REMARK SMILES IDX 42 45 101 46 43 47 44 48 45 49 95 50 46 51 100 52 94 53
REMARK SMILES IDX 96 54 47 55 99 56 93 57 92 58 48 60 80 61 60 62 79 63 61 64
REMARK SMILES IDX 64 65 78 66 97 67 62 68 63 69 77 71 98 72 65 73 49 74 50 75
REMARK SMILES IDX 58 76 51 77 52 78 56 79 59 80 53 81 54 82 57 83 55 84 81 85
REMARK SMILES IDX 82 86 90 87 83 88 84 89 88 90 91 91 85 92 86 93 89 94 87 95
REMARK SMILES IDX 66 96 67 97 75 98 68 99 69 100 73 101 76 102 70 103 71 104
REMARK SMILES IDX 74 105 72 106
REMARK H PARENT 30 7 37 40 96 59 64 70
REMARK Flexibility Score: inf
ROOT
ATOM      1  C   UNL A   1      34.865  32.481  28.046  1.00  0.00     0.002 C 
ENDROOT
BRANCH   1   2
ATOM      2  C   UNL A   1      34.792  30.922  27.813  1.00  0.00     0.021 C 
BRANCH   2   3
ATOM      3  C   UNL A   1      33.779  30.165  26.938  1.00  0.00     0.116 C 
BRANCH   3   4
ATOM      4  N   UNL A   1      33.959  28.723  26.809  1.00  0.00    -0.352 N 
ATOM      5  C   UNL A   1      33.637  27.737  25.894  1.00  0.00     0.253 C 
ATOM      6  O   UNL A   1      34.263  26.689  26.125  1.00  0.00    -0.269 OA
ATOM      7  H   UNL A   1      34.438  28.350  27.585  1.00  0.00     0.163 HD
BRANCH   5   8
ATOM      8  C   UNL A   1      32.699  27.708  24.684  1.00  0.00     0.063 A 
ATOM      9  C   UNL A   1      32.251  26.678  23.828  1.00  0.00     0.061 A 
ATOM     10  C   UNL A   1      31.349  26.966  22.758  1.00  0.00     0.027 A 
ATOM     11  C   UNL A   1      30.888  28.244  22.490  1.00  0.00     0.002 A 
ATOM     12  C   UNL A   1      32.208  29.011  24.349  1.00  0.00     0.016 A 
ATOM     13  C   UNL A   1      31.329  29.277  23.285  1.00  0.00     0.001 A 
BRANCH   9  14
ATOM     14  N   UNL A   1      32.522  25.285  23.952  1.00  0.00    -0.284 N 
ATOM     15  O   UNL A   1      31.122  21.194  25.541  1.00  0.00    -0.294 OA
ATOM     16  C   UNL A   1      31.282  22.382  25.804  1.00  0.00     0.161 C 
ATOM     17  C   UNL A   1      30.559  23.061  26.956  1.00  0.00     0.081 C 
ATOM     18  C   UNL A   1      32.249  23.207  25.024  1.00  0.00     0.023 C 
ATOM     19  C   UNL A   1      29.737  24.201  26.418  1.00  0.00     0.015 C 
ATOM     20  C   UNL A   1      31.799  24.469  24.825  1.00  0.00     0.033 C 
ATOM     21  C   UNL A   1      33.437  22.588  24.246  1.00  0.00     0.064 C 
ATOM     22  C   UNL A   1      30.552  25.085  25.478  1.00  0.00     0.055 C 
ATOM     23  C   UNL A   1      33.347  23.215  22.864  1.00  0.00     0.114 C 
ATOM     24  C   UNL A   1      33.377  24.728  22.972  1.00  0.00     0.232 C 
ATOM     25  O   UNL A   1      34.066  25.381  22.187  1.00  0.00    -0.274 OA
BRANCH  21  26
ATOM     26  C   UNL A   1      34.912  22.627  24.794  1.00  0.00    -0.039 A 
ATOM     27  C   UNL A   1      35.463  23.624  25.630  1.00  0.00     0.011 A 
ATOM     28  C   UNL A   1      35.856  21.708  24.319  1.00  0.00     0.011 A 
ATOM     29  C   UNL A   1      36.824  23.620  26.035  1.00  0.00     0.086 A 
ATOM     30  C   UNL A   1      37.198  21.641  24.743  1.00  0.00     0.086 A 
ATOM     31  C   UNL A   1      37.677  22.596  25.625  1.00  0.00     0.269 A 
BRANCH  31  32
ATOM     32  N   UNL A   1      39.058  22.511  26.118  1.00  0.00     0.062 N 
ATOM     33  O   UNL A   1      39.591  21.394  26.151  1.00  0.00    -0.258 OA
ATOM     34  O   UNL A   1      39.614  23.567  26.457  1.00  0.00    -0.258 OA
ENDBRANCH  31  32
ENDBRANCH  21  26
ENDBRANCH   9  14
ENDBRANCH   5   8
ENDBRANCH   3   4
ENDBRANCH   2   3
ENDBRANCH   1   2
BRANCH   1  35
ATOM     35  C   UNL A   1      34.358  33.484  29.144  1.00  0.00     0.002 C 
BRANCH  35  36
ATOM     36  C   UNL A   1      33.241  34.543  29.055  1.00  0.00     0.021 C 
BRANCH  36  37
ATOM     37  C   UNL A   1      33.192  36.024  29.553  1.00  0.00     0.116 C 
BRANCH  37  38
ATOM     38  N   UNL A   1      32.416  36.369  30.718  1.00  0.00    -0.352 N 
ATOM     39  C   UNL A   1      32.549  35.829  31.994  1.00  0.00     0.251 C 
ATOM     40  H   UNL A   1      31.721  37.056  30.599  1.00  0.00     0.163 HD
ATOM     41  O   UNL A   1      31.660  35.969  32.818  1.00  0.00    -0.269 OA
BRANCH  39  42
ATOM     42  C   UNL A   1      33.770  35.068  32.383  1.00  0.00     0.039 A 
ATOM     43  C   UNL A   1      35.036  35.635  32.198  1.00  0.00     0.014 A 
ATOM     44  C   UNL A   1      33.670  33.741  32.812  1.00  0.00     0.014 A 
ATOM     45  C   UNL A   1      36.195  34.899  32.500  1.00  0.00     0.010 A 
ATOM     46  C   UNL A   1      34.828  33.014  33.137  1.00  0.00     0.010 A 
ATOM     47  C   UNL A   1      36.105  33.585  32.995  1.00  0.00    -0.014 A 
BRANCH  47  48
ATOM     48  C   UNL A   1      37.330  32.818  33.381  1.00  0.00     0.031 A 
ATOM     49  C   UNL A   1      38.062  33.114  34.665  1.00  0.00     0.074 A 
ATOM     50  C   UNL A   1      37.827  31.882  32.548  1.00  0.00     0.049 A 
ATOM     51  N   UNL A   1      39.173  32.596  35.131  1.00  0.00    -0.248 NA
ATOM     52  C   UNL A   1      37.471  34.143  35.529  1.00  0.00     0.031 C 
ATOM     53  C   UNL A   1      37.241  31.512  31.260  1.00  0.00     0.029 A 
ATOM     54  N   UNL A   1      38.944  31.083  32.645  1.00  0.00    -0.354 N 
ATOM     55  C   UNL A   1      39.422  33.245  36.336  1.00  0.00     0.074 A 
ATOM     56  C   UNL A   1      38.366  34.223  36.505  1.00  0.00     0.031 C 
ATOM     57  C   UNL A   1      37.998  30.563  30.688  1.00  0.00     0.029 A 
ATOM     58  C   UNL A   1      39.145  30.280  31.548  1.00  0.00     0.049 A 
ATOM     59  H   UNL A   1      39.542  31.086  33.427  1.00  0.00     0.167 HD
ATOM     60  C   UNL A   1      40.427  33.037  37.224  1.00  0.00     0.037 A 
ATOM     61  C   UNL A   1      40.146  29.425  31.253  1.00  0.00     0.037 A 
ATOM     62  C   UNL A   1      41.473  32.060  37.056  1.00  0.00     0.049 A 
ATOM     63  C   UNL A   1      41.262  29.217  32.241  1.00  0.00     0.074 A 
ATOM     64  C   UNL A   1      42.507  31.741  37.922  1.00  0.00     0.029 A 
ATOM     65  N   UNL A   1      41.627  31.251  35.939  1.00  0.00    -0.354 N 
ATOM     66  N   UNL A   1      41.449  29.791  33.404  1.00  0.00    -0.248 NA
ATOM     67  C   UNL A   1      42.300  28.239  31.884  1.00  0.00     0.031 C 
ATOM     68  C   UNL A   1      43.316  30.782  37.304  1.00  0.00     0.029 A 
ATOM     69  C   UNL A   1      42.754  30.455  36.081  1.00  0.00     0.049 A 
ATOM     70  H   UNL A   1      41.025  31.242  35.160  1.00  0.00     0.167 HD
ATOM     71  C   UNL A   1      42.604  29.228  33.930  1.00  0.00     0.074 A 
ATOM     72  C   UNL A   1      43.077  28.262  32.960  1.00  0.00     0.031 C 
ATOM     73  C   UNL A   1      43.212  29.487  35.114  1.00  0.00     0.037 A 
BRANCH  60  74
ATOM     74  C   UNL A   1      40.455  33.910  38.450  1.00  0.00     0.064 A 
ATOM     75  C   UNL A   1      41.185  35.110  38.489  1.00  0.00     0.173 A 
ATOM     76  C   UNL A   1      39.740  33.545  39.602  1.00  0.00     0.173 A 
ATOM     77  F   UNL A   1      41.884  35.510  37.417  1.00  0.00    -0.203 F 
ATOM     78  C   UNL A   1      41.245  35.876  39.651  1.00  0.00     0.198 A 
ATOM     79  C   UNL A   1      39.774  34.334  40.751  1.00  0.00     0.198 A 
ATOM     80  F   UNL A   1      39.008  32.421  39.617  1.00  0.00    -0.203 F 
ATOM     81  F   UNL A   1      42.009  36.977  39.686  1.00  0.00    -0.200 F 
ATOM     82  C   UNL A   1      40.539  35.488  40.780  1.00  0.00     0.200 A 
ATOM     83  F   UNL A   1      39.075  33.967  41.834  1.00  0.00    -0.200 F 
ATOM     84  F   UNL A   1      40.606  36.222  41.899  1.00  0.00    -0.200 F 
ENDBRANCH  60  74
BRANCH  61  85
ATOM     85  C   UNL A   1      40.124  28.698  29.954  1.00  0.00     0.064 A 
ATOM     86  C   UNL A   1      40.778  29.206  28.825  1.00  0.00     0.173 A 
ATOM     87  C   UNL A   1      39.482  27.455  29.831  1.00  0.00     0.173 A 
ATOM     88  F   UNL A   1      41.387  30.400  28.884  1.00  0.00    -0.203 F 
ATOM     89  C   UNL A   1      40.791  28.502  27.621  1.00  0.00     0.198 A 
ATOM     90  C   UNL A   1      39.519  26.740  28.636  1.00  0.00     0.198 A 
ATOM     91  F   UNL A   1      38.843  26.924  30.883  1.00  0.00    -0.203 F 
ATOM     92  F   UNL A   1      41.401  29.024  26.548  1.00  0.00    -0.200 F 
ATOM     93  C   UNL A   1      40.171  27.265  27.531  1.00  0.00     0.200 A 
ATOM     94  F   UNL A   1      38.931  25.539  28.559  1.00  0.00    -0.200 F 
ATOM     95  F   UNL A   1      40.200  26.580  26.380  1.00  0.00    -0.200 F 
ENDBRANCH  61  85
BRANCH  73  96
ATOM     96  C   UNL A   1      44.438  28.693  35.462  1.00  0.00     0.064 A 
ATOM     97  C   UNL A   1      45.727  29.152  35.156  1.00  0.00     0.173 A 
ATOM     98  C   UNL A   1      44.322  27.500  36.194  1.00  0.00     0.173 A 
ATOM     99  F   UNL A   1      45.893  30.278  34.447  1.00  0.00    -0.203 F 
ATOM    100  C   UNL A   1      46.856  28.444  35.569  1.00  0.00     0.198 A 
ATOM    101  C   UNL A   1      45.451  26.810  36.626  1.00  0.00     0.198 A 
ATOM    102  F   UNL A   1      43.111  27.020  36.514  1.00  0.00    -0.203 F 
ATOM    103  F   UNL A   1      48.078  28.890  35.246  1.00  0.00    -0.200 F 
ATOM    104  C   UNL A   1      46.716  27.283  36.314  1.00  0.00     0.200 A 
ATOM    105  F   UNL A   1      45.314  25.696  37.358  1.00  0.00    -0.200 F 
ATOM    106  F   UNL A   1      47.803  26.617  36.728  1.00  0.00    -0.200 F 
ENDBRANCH  73  96
ENDBRANCH  47  48
ENDBRANCH  39  42
ENDBRANCH  37  38
ENDBRANCH  36  37
ENDBRANCH  35  36
ENDBRANCH   1  35
TORSDOF 16
ENDMDL
MODEL 2
REMARK VINA RESULT:     -12.7      5.933     11.898
REMARK SMILES O=C1CCCC2=C1[C@H](c1ccc([N+](=O)[O-])cc1)CC(=O)N2c1ccccc1C(=O)NCCCCCCNC(=O)c1ccc(-c2c3nc(c(-c4c(F)c(F)c(F)c(F)c4F)c4ccc([nH]4)c(-c4c(F)c(F)c(F)c(F)c4F)c4nc(c(-c5c(F)c(F)c(F)c(F)c5F)c5ccc2[nH]5)C=C4)C=C3)cc1
REMARK SMILES IDX 33 1 32 2 31 3 30 4 28 5 29 6 27 8 22 9 23 10 24 11 26 12
REMARK SMILES IDX 25 13 21 14 1 15 2 16 3 17 7 18 4 19 6 20 8 21 5 22 18 23
REMARK SMILES IDX 19 24 20 25 9 26 10 27 17 28 11 29 16 30 12 31 13 32 14 33
REMARK SMILES IDX 15 34 34 35 35 36 36 37 37 38 38 39 39 41 40 42 41 43 102 44
REMARK SMILES IDX 42 45 101 46 43 47 44 48 45 49 95 50 46 51 100 52 94 53
REMARK SMILES IDX 96 54 47 55 99 56 93 57 92 58 48 60 80 61 60 62 79 63 61 64
REMARK SMILES IDX 64 65 78 66 97 67 62 68 63 69 77 71 98 72 65 73 49 74 50 75
REMARK SMILES IDX 58 76 51 77 52 78 56 79 59 80 53 81 54 82 57 83 55 84 81 85
REMARK SMILES IDX 82 86 90 87 83 88 84 89 88 90 91 91 85 92 86 93 89 94 87 95
REMARK SMILES IDX 66 96 67 97 75 98 68 99 69 100 73 101 76 102 70 103 71 104
REMARK SMILES IDX 74 105 72 106
REMARK H PARENT 30 7 37 40 96 59 64 70
REMARK Flexibility Score: inf
ROOT
ATOM      1  C   UNL A   1      40.684  22.209  26.219  1.00  0.00     0.002 C 
ENDROOT
BRANCH   1   2
ATOM      2  C   UNL A   1      39.298  22.900  26.525  1.00  0.00     0.021 C 
BRANCH   2   3
ATOM      3  C   UNL A   1      37.935  22.552  25.905  1.00  0.00     0.116 C 
BRANCH   3   4
ATOM      4  N   UNL A   1      37.037  23.663  25.608  1.00  0.00    -0.352 N 
ATOM      5  C   UNL A   1      35.672  23.876  25.543  1.00  0.00     0.253 C 
ATOM      6  O   UNL A   1      35.408  25.090  25.513  1.00  0.00    -0.269 OA
ATOM      7  H   UNL A   1      37.539  24.484  25.396  1.00  0.00     0.163 HD
BRANCH   5   8
ATOM      8  C   UNL A   1      34.472  22.926  25.518  1.00  0.00     0.063 A 
ATOM      9  C   UNL A   1      33.085  23.120  25.343  1.00  0.00     0.061 A 
ATOM     10  C   UNL A   1      32.188  22.007  25.365  1.00  0.00     0.027 A 
ATOM     11  C   UNL A   1      32.614  20.706  25.576  1.00  0.00     0.002 A 
ATOM     12  C   UNL A   1      34.854  21.566  25.752  1.00  0.00     0.016 A 
ATOM     13  C   UNL A   1      33.957  20.485  25.781  1.00  0.00     0.001 A 
BRANCH   9  14
ATOM     14  N   UNL A   1      32.424  24.344  25.034  1.00  0.00    -0.284 N 
ATOM     15  O   UNL A   1      30.789  27.145  21.763  1.00  0.00    -0.294 OA
ATOM     16  C   UNL A   1      31.739  26.459  22.127  1.00  0.00     0.161 C 
ATOM     17  C   UNL A   1      32.806  25.975  21.159  1.00  0.00     0.081 C 
ATOM     18  C   UNL A   1      31.916  26.114  23.567  1.00  0.00     0.023 C 
ATOM     19  C   UNL A   1      32.848  24.471  21.185  1.00  0.00     0.015 C 
ATOM     20  C   UNL A   1      32.391  24.856  23.735  1.00  0.00     0.033 C 
ATOM     21  C   UNL A   1      31.297  26.956  24.710  1.00  0.00     0.064 C 
ATOM     22  C   UNL A   1      32.898  23.936  22.613  1.00  0.00     0.055 C 
ATOM     23  C   UNL A   1      30.605  25.933  25.597  1.00  0.00     0.114 C 
ATOM     24  C   UNL A   1      31.596  24.877  26.049  1.00  0.00     0.232 C 
ATOM     25  O   UNL A   1      31.589  24.498  27.222  1.00  0.00    -0.274 OA
BRANCH  21  26
ATOM     26  C   UNL A   1      32.148  27.968  25.564  1.00  0.00    -0.039 A 
ATOM     27  C   UNL A   1      33.386  27.694  26.188  1.00  0.00     0.011 A 
ATOM     28  C   UNL A   1      31.611  29.215  25.906  1.00  0.00     0.011 A 
ATOM     29  C   UNL A   1      34.065  28.645  26.994  1.00  0.00     0.086 A 
ATOM     30  C   UNL A   1      32.281  30.202  26.655  1.00  0.00     0.086 A 
ATOM     31  C   UNL A   1      33.529  29.917  27.185  1.00  0.00     0.269 A 
BRANCH  31  32
ATOM     32  N   UNL A   1      34.264  30.952  27.924  1.00  0.00     0.062 N 
ATOM     33  O   UNL A   1      35.354  30.641  28.423  1.00  0.00    -0.258 OA
ATOM     34  O   UNL A   1      33.756  32.082  27.989  1.00  0.00    -0.258 OA
ENDBRANCH  31  32
ENDBRANCH  21  26
ENDBRANCH   9  14
ENDBRANCH   5   8
ENDBRANCH   3   4
ENDBRANCH   2   3
ENDBRANCH   1   2
BRANCH   1  35
ATOM     35  C   UNL A   1      41.738  21.380  27.038  1.00  0.00     0.002 C 
BRANCH  35  36
ATOM     36  C   UNL A   1      42.434  20.055  26.668  1.00  0.00     0.021 C 
BRANCH  36  37
ATOM     37  C   UNL A   1      42.475  19.261  25.322  1.00  0.00     0.116 C 
BRANCH  37  38
ATOM     38  N   UNL A   1      43.723  18.729  24.834  1.00  0.00    -0.352 N 
ATOM     39  C   UNL A   1      44.847  19.459  24.459  1.00  0.00     0.251 C 
ATOM     40  H   UNL A   1      43.787  17.748  24.759  1.00  0.00     0.163 HD
ATOM     41  O   UNL A   1      45.724  18.938  23.788  1.00  0.00    -0.269 OA
BRANCH  39  42
ATOM     42  C   UNL A   1      45.006  20.886  24.858  1.00  0.00     0.039 A 
ATOM     43  C   UNL A   1      45.494  21.205  26.130  1.00  0.00     0.014 A 
ATOM     44  C   UNL A   1      44.548  21.910  24.023  1.00  0.00     0.014 A 
ATOM     45  C   UNL A   1      45.584  22.547  26.539  1.00  0.00     0.010 A 
ATOM     46  C   UNL A   1      44.661  23.252  24.423  1.00  0.00     0.010 A 
ATOM     47  C   UNL A   1      45.189  23.590  25.682  1.00  0.00    -0.014 A 
BRANCH  47  48
ATOM     48  C   UNL A   1      45.342  25.023  26.084  1.00  0.00     0.031 A 
ATOM     49  C   UNL A   1      46.681  25.711  26.017  1.00  0.00     0.074 A 
ATOM     50  C   UNL A   1      44.282  25.702  26.567  1.00  0.00     0.049 A 
ATOM     51  N   UNL A   1      47.015  26.926  26.383  1.00  0.00    -0.248 NA
ATOM     52  C   UNL A   1      47.795  24.919  25.481  1.00  0.00     0.031 C 
ATOM     53  C   UNL A   1      42.935  25.154  26.716  1.00  0.00     0.029 A 
ATOM     54  N   UNL A   1      44.171  26.990  27.039  1.00  0.00    -0.354 N 
ATOM     55  C   UNL A   1      48.378  27.039  26.135  1.00  0.00     0.074 A 
ATOM     56  C   UNL A   1      48.815  25.755  25.626  1.00  0.00     0.031 C 
ATOM     57  C   UNL A   1      42.134  26.094  27.241  1.00  0.00     0.029 A 
ATOM     58  C   UNL A   1      42.914  27.302  27.502  1.00  0.00     0.049 A 
ATOM     59  H   UNL A   1      44.920  27.629  27.044  1.00  0.00     0.167 HD
ATOM     60  C   UNL A   1      49.189  28.115  26.304  1.00  0.00     0.037 A 
ATOM     61  C   UNL A   1      42.443  28.422  28.086  1.00  0.00     0.037 A 
ATOM     62  C   UNL A   1      48.751  29.394  26.805  1.00  0.00     0.049 A 
ATOM     63  C   UNL A   1      43.357  29.601  28.279  1.00  0.00     0.074 A 
ATOM     64  C   UNL A   1      49.485  30.558  26.965  1.00  0.00     0.029 A 
ATOM     65  N   UNL A   1      47.463  29.673  27.241  1.00  0.00    -0.354 N 
ATOM     66  N   UNL A   1      44.628  29.715  27.982  1.00  0.00    -0.248 NA
ATOM     67  C   UNL A   1      42.775  30.811  28.880  1.00  0.00     0.031 C 
ATOM     68  C   UNL A   1      48.656  31.522  27.549  1.00  0.00     0.029 A 
ATOM     69  C   UNL A   1      47.389  30.981  27.696  1.00  0.00     0.049 A 
ATOM     70  H   UNL A   1      46.712  29.037  27.229  1.00  0.00     0.167 HD
ATOM     71  C   UNL A   1      44.991  31.009  28.330  1.00  0.00     0.074 A 
ATOM     72  C   UNL A   1      43.804  31.647  28.861  1.00  0.00     0.031 C 
ATOM     73  C   UNL A   1      46.200  31.612  28.213  1.00  0.00     0.037 A 
BRANCH  60  74
ATOM     74  C   UNL A   1      50.645  27.941  25.965  1.00  0.00     0.064 A 
ATOM     75  C   UNL A   1      51.117  28.049  24.646  1.00  0.00     0.173 A 
ATOM     76  C   UNL A   1      51.585  27.666  26.972  1.00  0.00     0.173 A 
ATOM     77  F   UNL A   1      50.265  28.313  23.644  1.00  0.00    -0.203 F 
ATOM     78  C   UNL A   1      52.458  27.829  24.343  1.00  0.00     0.198 A 
ATOM     79  C   UNL A   1      52.932  27.483  26.668  1.00  0.00     0.198 A 
ATOM     80  F   UNL A   1      51.196  27.573  28.252  1.00  0.00    -0.203 F 
ATOM     81  F   UNL A   1      52.869  27.863  23.067  1.00  0.00    -0.200 F 
ATOM     82  C   UNL A   1      53.365  27.547  25.354  1.00  0.00     0.200 A 
ATOM     83  F   UNL A   1      53.809  27.230  27.649  1.00  0.00    -0.200 F 
ATOM     84  F   UNL A   1      54.653  27.327  25.059  1.00  0.00    -0.200 F 
ENDBRANCH  60  74
BRANCH  61  85
ATOM     85  C   UNL A   1      41.021  28.472  28.524  1.00  0.00     0.064 A 
ATOM     86  C   UNL A   1      40.643  28.077  29.814  1.00  0.00     0.173 A 
ATOM     87  C   UNL A   1      40.017  28.958  27.672  1.00  0.00     0.173 A 
ATOM     88  F   UNL A   1      41.561  27.584  30.659  1.00  0.00    -0.203 F 
ATOM     89  C   UNL A   1      39.317  28.164  30.236  1.00  0.00     0.198 A 
ATOM     90  C   UNL A   1      38.697  29.071  28.103  1.00  0.00     0.198 A 
ATOM     91  F   UNL A   1      40.326  29.351  26.428  1.00  0.00    -0.203 F 
ATOM     92  F   UNL A   1      38.978  27.754  31.465  1.00  0.00    -0.200 F 
ATOM     93  C   UNL A   1      38.347  28.671  29.384  1.00  0.00     0.200 A 
ATOM     94  F   UNL A   1      37.767  29.575  27.281  1.00  0.00    -0.200 F 
ATOM     95  F   UNL A   1      37.076  28.773  29.796  1.00  0.00    -0.200 F 
ENDBRANCH  61  85
BRANCH  73  96
ATOM     96  C   UNL A   1      46.309  33.052  28.628  1.00  0.00     0.064 A 
ATOM     97  C   UNL A   1      46.702  33.421  29.922  1.00  0.00     0.173 A 
ATOM     98  C   UNL A   1      46.106  34.074  27.686  1.00  0.00     0.173 A 
ATOM     99  F   UNL A   1      46.894  32.484  30.862  1.00  0.00    -0.203 F 
ATOM    100  C   UNL A   1      46.885  34.761  30.260  1.00  0.00     0.198 A 
ATOM    101  C   UNL A   1      46.315  35.409  28.020  1.00  0.00     0.198 A 
ATOM    102  F   UNL A   1      45.731  33.773  26.434  1.00  0.00    -0.203 F 
ATOM    103  F   UNL A   1      47.239  35.092  31.509  1.00  0.00    -0.200 F 
ATOM    104  C   UNL A   1      46.704  35.751  29.305  1.00  0.00     0.200 A 
ATOM    105  F   UNL A   1      46.153  36.363  27.093  1.00  0.00    -0.200 F 
ATOM    106  F   UNL A   1      46.903  37.037  29.627  1.00  0.00    -0.200 F 
ENDBRANCH  73  96
ENDBRANCH  47  48
ENDBRANCH  39  42
ENDBRANCH  37  38
ENDBRANCH  36  37
ENDBRANCH  35  36
ENDBRANCH   1  35
TORSDOF 16
ENDMDL
MODEL 3
REMARK VINA RESULT:     -12.3      4.566     12.215
REMARK SMILES O=C1CCCC2=C1[C@H](c1ccc([N+](=O)[O-])cc1)CC(=O)N2c1ccccc1C(=O)NCCCCCCNC(=O)c1ccc(-c2c3nc(c(-c4c(F)c(F)c(F)c(F)c4F)c4ccc([nH]4)c(-c4c(F)c(F)c(F)c(F)c4F)c4nc(c(-c5c(F)c(F)c(F)c(F)c5F)c5ccc2[nH]5)C=C4)C=C3)cc1
REMARK SMILES IDX 33 1 32 2 31 3 30 4 28 5 29 6 27 8 22 9 23 10 24 11 26 12
REMARK SMILES IDX 25 13 21 14 1 15 2 16 3 17 7 18 4 19 6 20 8 21 5 22 18 23
REMARK SMILES IDX 19 24 20 25 9 26 10 27 17 28 11 29 16 30 12 31 13 32 14 33
REMARK SMILES IDX 15 34 34 35 35 36 36 37 37 38 38 39 39 41 40 42 41 43 102 44
REMARK SMILES IDX 42 45 101 46 43 47 44 48 45 49 95 50 46 51 100 52 94 53
REMARK SMILES IDX 96 54 47 55 99 56 93 57 92 58 48 60 80 61 60 62 79 63 61 64
REMARK SMILES IDX 64 65 78 66 97 67 62 68 63 69 77 71 98 72 65 73 49 74 50 75
REMARK SMILES IDX 58 76 51 77 52 78 56 79 59 80 53 81 54 82 57 83 55 84 81 85
REMARK SMILES IDX 82 86 90 87 83 88 84 89 88 90 91 91 85 92 86 93 89 94 87 95
REMARK SMILES IDX 66 96 67 97 75 98 68 99 69 100 73 101 76 102 70 103 71 104
REMARK SMILES IDX 74 105 72 106
REMARK H PARENT 30 7 37 40 96 59 64 70
REMARK Flexibility Score: inf
ROOT
ATOM      1  C   UNL A   1      43.597  23.284  28.836  1.00  0.00     0.002 C 
ENDROOT
BRANCH   1   2
ATOM      2  C   UNL A   1      44.492  23.858  30.002  1.00  0.00     0.021 C 
BRANCH   2   3
ATOM      3  C   UNL A   1      44.201  23.789  31.510  1.00  0.00     0.116 C 
BRANCH   3   4
ATOM      4  N   UNL A   1      44.869  24.768  32.361  1.00  0.00    -0.352 N 
ATOM      5  C   UNL A   1      44.656  25.353  33.597  1.00  0.00     0.253 C 
ATOM      6  O   UNL A   1      45.678  25.934  34.000  1.00  0.00    -0.269 OA
ATOM      7  H   UNL A   1      45.695  25.104  31.943  1.00  0.00     0.163 HD
BRANCH   5   8
ATOM      8  C   UNL A   1      43.443  25.398  34.530  1.00  0.00     0.063 A 
ATOM      9  C   UNL A   1      42.707  26.452  35.112  1.00  0.00     0.061 A 
ATOM     10  C   UNL A   1      41.591  26.175  35.960  1.00  0.00     0.027 A 
ATOM     11  C   UNL A   1      41.188  24.886  36.271  1.00  0.00     0.002 A 
ATOM     12  C   UNL A   1      42.997  24.089  34.900  1.00  0.00     0.016 A 
ATOM     13  C   UNL A   1      41.903  23.835  35.745  1.00  0.00     0.001 A 
BRANCH   9  14
ATOM     14  N   UNL A   1      42.879  27.848  34.880  1.00  0.00    -0.284 N 
ATOM     15  O   UNL A   1      45.472  31.594  35.553  1.00  0.00    -0.294 OA
ATOM     16  C   UNL A   1      44.955  30.614  36.078  1.00  0.00     0.161 C 
ATOM     17  C   UNL A   1      45.434  30.060  37.410  1.00  0.00     0.081 C 
ATOM     18  C   UNL A   1      43.780  29.948  35.445  1.00  0.00     0.023 C 
ATOM     19  C   UNL A   1      45.865  28.630  37.223  1.00  0.00     0.015 C 
ATOM     20  C   UNL A   1      43.819  28.601  35.587  1.00  0.00     0.033 C 
ATOM     21  C   UNL A   1      42.840  30.678  34.454  1.00  0.00     0.064 C 
ATOM     22  C   UNL A   1      44.816  27.824  36.461  1.00  0.00     0.055 C 
ATOM     23  C   UNL A   1      42.731  29.729  33.272  1.00  0.00     0.114 C 
ATOM     24  C   UNL A   1      42.237  28.371  33.734  1.00  0.00     0.232 C 
ATOM     25  O   UNL A   1      41.379  27.779  33.077  1.00  0.00    -0.274 OA
BRANCH  21  26
ATOM     26  C   UNL A   1      41.425  31.220  34.882  1.00  0.00    -0.039 A 
ATOM     27  C   UNL A   1      41.068  31.692  36.165  1.00  0.00     0.011 A 
ATOM     28  C   UNL A   1      40.339  31.101  34.006  1.00  0.00     0.011 A 
ATOM     29  C   UNL A   1      39.750  32.110  36.490  1.00  0.00     0.086 A 
ATOM     30  C   UNL A   1      39.034  31.557  34.275  1.00  0.00     0.086 A 
ATOM     31  C   UNL A   1      38.746  32.085  35.524  1.00  0.00     0.269 A 
BRANCH  31  32
ATOM     32  N   UNL A   1      37.404  32.613  35.804  1.00  0.00     0.062 N 
ATOM     33  O   UNL A   1      37.072  32.744  36.990  1.00  0.00    -0.258 OA
ATOM     34  O   UNL A   1      36.690  32.912  34.835  1.00  0.00    -0.258 OA
ENDBRANCH  31  32
ENDBRANCH  21  26
ENDBRANCH   9  14
ENDBRANCH   5   8
ENDBRANCH   3   4
ENDBRANCH   2   3
ENDBRANCH   1   2
BRANCH   1  35
ATOM     35  C   UNL A   1      42.167  22.644  28.720  1.00  0.00     0.002 C 
BRANCH  35  36
ATOM     36  C   UNL A   1      41.625  21.656  27.667  1.00  0.00     0.021 C 
BRANCH  36  37
ATOM     37  C   UNL A   1      41.280  21.858  26.156  1.00  0.00     0.116 C 
BRANCH  37  38
ATOM     38  N   UNL A   1      39.904  21.958  25.736  1.00  0.00    -0.352 N 
ATOM     39  C   UNL A   1      38.988  22.932  26.120  1.00  0.00     0.251 C 
ATOM     40  H   UNL A   1      39.580  21.266  25.114  1.00  0.00     0.163 HD
ATOM     41  O   UNL A   1      37.792  22.755  25.949  1.00  0.00    -0.269 OA
BRANCH  39  42
ATOM     42  C   UNL A   1      39.437  24.206  26.749  1.00  0.00     0.039 A 
ATOM     43  C   UNL A   1      39.051  24.513  28.058  1.00  0.00     0.014 A 
ATOM     44  C   UNL A   1      40.133  25.159  25.999  1.00  0.00     0.014 A 
ATOM     45  C   UNL A   1      39.415  25.743  28.636  1.00  0.00     0.010 A 
ATOM     46  C   UNL A   1      40.518  26.377  26.585  1.00  0.00     0.010 A 
ATOM     47  C   UNL A   1      40.172  26.682  27.914  1.00  0.00    -0.014 A 
BRANCH  47  48
ATOM     48  C   UNL A   1      40.619  27.964  28.542  1.00  0.00     0.031 A 
ATOM     49  C   UNL A   1      42.045  28.156  28.989  1.00  0.00     0.074 A 
ATOM     50  C   UNL A   1      39.726  28.949  28.766  1.00  0.00     0.049 A 
ATOM     51  N   UNL A   1      42.596  29.173  29.608  1.00  0.00    -0.248 NA
ATOM     52  C   UNL A   1      42.969  27.048  28.716  1.00  0.00     0.031 C 
ATOM     53  C   UNL A   1      38.309  28.889  28.414  1.00  0.00     0.029 A 
ATOM     54  N   UNL A   1      39.869  30.183  29.359  1.00  0.00    -0.354 N 
ATOM     55  C   UNL A   1      43.927  28.822  29.811  1.00  0.00     0.074 A 
ATOM     56  C   UNL A   1      44.086  27.481  29.285  1.00  0.00     0.031 C 
ATOM     57  C   UNL A   1      37.712  30.030  28.794  1.00  0.00     0.029 A 
ATOM     58  C   UNL A   1      38.694  30.890  29.451  1.00  0.00     0.049 A 
ATOM     59  H   UNL A   1      40.731  30.528  29.685  1.00  0.00     0.167 HD
ATOM     60  C   UNL A   1      44.925  29.551  30.372  1.00  0.00     0.037 A 
ATOM     61  C   UNL A   1      38.427  32.086  30.014  1.00  0.00     0.037 A 
ATOM     62  C   UNL A   1      44.766  30.887  30.890  1.00  0.00     0.049 A 
ATOM     63  C   UNL A   1      39.541  32.877  30.645  1.00  0.00     0.074 A 
ATOM     64  C   UNL A   1      45.726  31.726  31.431  1.00  0.00     0.029 A 
ATOM     65  N   UNL A   1      43.561  31.576  30.943  1.00  0.00    -0.354 N 
ATOM     66  N   UNL A   1      40.806  32.559  30.773  1.00  0.00    -0.248 NA
ATOM     67  C   UNL A   1      39.198  34.194  31.202  1.00  0.00     0.031 C 
ATOM     68  C   UNL A   1      45.093  32.897  31.862  1.00  0.00     0.029 A 
ATOM     69  C   UNL A   1      43.749  32.816  31.533  1.00  0.00     0.049 A 
ATOM     70  H   UNL A   1      42.700  31.234  30.610  1.00  0.00     0.167 HD
ATOM     71  C   UNL A   1      41.414  33.641  31.396  1.00  0.00     0.074 A 
ATOM     72  C   UNL A   1      40.379  34.629  31.620  1.00  0.00     0.031 C 
ATOM     73  C   UNL A   1      42.715  33.799  31.743  1.00  0.00     0.037 A 
BRANCH  60  74
ATOM     74  C   UNL A   1      46.279  28.902  30.477  1.00  0.00     0.064 A 
ATOM     75  C   UNL A   1      47.123  28.765  29.363  1.00  0.00     0.173 A 
ATOM     76  C   UNL A   1      46.741  28.410  31.709  1.00  0.00     0.173 A 
ATOM     77  F   UNL A   1      46.735  29.219  28.162  1.00  0.00    -0.203 F 
ATOM     78  C   UNL A   1      48.348  28.110  29.466  1.00  0.00     0.198 A 
ATOM     79  C   UNL A   1      47.983  27.788  31.815  1.00  0.00     0.198 A 
ATOM     80  F   UNL A   1      45.987  28.531  32.811  1.00  0.00    -0.203 F 
ATOM     81  F   UNL A   1      49.102  27.927  28.373  1.00  0.00    -0.200 F 
ATOM     82  C   UNL A   1      48.778  27.623  30.692  1.00  0.00     0.200 A 
ATOM     83  F   UNL A   1      48.404  27.336  33.004  1.00  0.00    -0.200 F 
ATOM     84  F   UNL A   1      49.953  26.986  30.787  1.00  0.00    -0.200 F 
ENDBRANCH  60  74
BRANCH  61  85
ATOM     85  C   UNL A   1      37.032  32.605  29.996  1.00  0.00     0.064 A 
ATOM     86  C   UNL A   1      36.152  32.364  31.059  1.00  0.00     0.173 A 
ATOM     87  C   UNL A   1      36.565  33.390  28.930  1.00  0.00     0.173 A 
ATOM     88  F   UNL A   1      36.542  31.601  32.091  1.00  0.00    -0.203 F 
ATOM     89  C   UNL A   1      34.859  32.886  31.058  1.00  0.00     0.198 A 
ATOM     90  C   UNL A   1      35.282  33.934  28.942  1.00  0.00     0.198 A 
ATOM     91  F   UNL A   1      37.367  33.652  27.888  1.00  0.00    -0.203 F 
ATOM     92  F   UNL A   1      34.029  32.619  32.075  1.00  0.00    -0.200 F 
ATOM     93  C   UNL A   1      34.429  33.680  30.005  1.00  0.00     0.200 A 
ATOM     94  F   UNL A   1      34.877  34.712  27.930  1.00  0.00    -0.200 F 
ATOM     95  F   UNL A   1      33.193  34.198  30.013  1.00  0.00    -0.200 F 
ENDBRANCH  61  85
BRANCH  73  96
ATOM     96  C   UNL A   1      43.121  35.102  32.371  1.00  0.00     0.064 A 
ATOM     97  C   UNL A   1      43.610  36.170  31.607  1.00  0.00     0.173 A 
ATOM     98  C   UNL A   1      42.928  35.312  33.746  1.00  0.00     0.173 A 
ATOM     99  F   UNL A   1      43.826  36.017  30.292  1.00  0.00    -0.203 F 
ATOM    100  C   UNL A   1      43.895  37.401  32.196  1.00  0.00     0.198 A 
ATOM    101  C   UNL A   1      43.189  36.550  34.327  1.00  0.00     0.198 A 
ATOM    102  F   UNL A   1      42.460  34.322  34.521  1.00  0.00    -0.203 F 
ATOM    103  F   UNL A   1      44.383  38.402  31.450  1.00  0.00    -0.200 F 
ATOM    104  C   UNL A   1      43.671  37.593  33.552  1.00  0.00     0.200 A 
ATOM    105  F   UNL A   1      42.959  36.738  35.633  1.00  0.00    -0.200 F 
ATOM    106  F   UNL A   1      43.924  38.784  34.112  1.00  0.00    -0.200 F 
ENDBRANCH  73  96
ENDBRANCH  47  48
ENDBRANCH  39  42
ENDBRANCH  37  38
ENDBRANCH  36  37
ENDBRANCH  35  36
ENDBRANCH   1  35
TORSDOF 16
ENDMDL
