MODEL 1
REMARK VINA RESULT:     -12.4      0.000      0.000
REMARK SMILES COc1ccc(NS(=O)(=O)c2ccc(Cl)c(C(=O)NCCCCCCNC(=O)c3ccc(-c4c5nc(c(-c6c(F)c(F)c(F)c(F)c6F)c6ccc([nH]6)c(-c6c(F)c(F)c(F)c(F)c6F)c6nc(c(-c7c(F)c(F)c(F)c(F)c7F)c7ccc4[nH]7)C=C6)C=C5)cc3)c2)cc1Cl
REMARK SMILES IDX 21 1 20 2 19 3 17 4 18 5 16 7 11 8 12 9 92 10 13 11 14 12
REMARK SMILES IDX 15 13 8 14 9 15 10 16 7 17 6 19 3 20 4 21 94 22 5 23 93 24
REMARK SMILES IDX 95 25 2 26 1 27 22 28 23 29 24 30 25 31 26 32 27 33 28 35
REMARK SMILES IDX 29 36 30 37 91 38 31 39 90 40 32 41 33 42 34 43 84 44 35 45
REMARK SMILES IDX 89 46 83 47 85 48 36 49 88 50 82 51 81 52 37 54 69 55 49 56
REMARK SMILES IDX 68 57 50 58 53 59 67 60 86 61 51 62 52 63 66 65 87 66 54 67
REMARK SMILES IDX 38 68 39 69 47 70 40 71 41 72 45 73 48 74 42 75 43 76 46 77
REMARK SMILES IDX 44 78 70 79 71 80 79 81 72 82 73 83 77 84 80 85 74 86 75 87
REMARK SMILES IDX 78 88 76 89 55 90 56 91 64 92 57 93 58 94 62 95 65 96 59 97
REMARK SMILES IDX 60 98 63 99 61 100
REMARK H PARENT 19 6 7 18 26 34 85 53 53 64
REMARK Flexibility Score: inf
ROOT
ATOM      1  C   UNL A   1      32.559  28.732  27.589  1.00  0.00     0.021 C 
ENDROOT
BRANCH   1   2
ATOM      2  C   UNL A   1      32.459  27.463  26.755  1.00  0.00     0.116 C 
BRANCH   2   3
ATOM      3  N   UNL A   1      31.192  26.785  26.886  1.00  0.00    -0.352 N 
ATOM      4  C   UNL A   1      30.475  26.031  26.001  1.00  0.00     0.252 C 
ATOM      5  O   UNL A   1      29.408  25.562  26.399  1.00  0.00    -0.269 OA
ATOM      6  H   UNL A   1      30.770  26.883  27.771  1.00  0.00     0.163 HD
BRANCH   4   7
ATOM      7  C   UNL A   1      30.857  25.793  24.582  1.00  0.00     0.059 A 
ATOM      8  C   UNL A   1      32.141  24.290  23.157  1.00  0.00     0.088 A 
ATOM      9  C   UNL A   1      32.011  25.151  22.072  1.00  0.00     0.024 A 
ATOM     10  C   UNL A   1      31.475  24.546  24.361  1.00  0.00     0.037 A 
ATOM     11  C   UNL A   1      31.365  26.372  22.268  1.00  0.00     0.023 A 
ATOM     12  C   UNL A   1      30.881  26.732  23.539  1.00  0.00     0.053 A 
ATOM     13  Cl  UNL A   1      30.588  28.422  23.747  1.00  0.00    -0.083 Cl
BRANCH   8  14
ATOM     14  S   UNL A   1      33.348  22.984  23.118  1.00  0.00     0.261 S 
ATOM     15  O   UNL A   1      34.423  23.410  22.249  1.00  0.00    -0.201 OA
ATOM     16  O   UNL A   1      32.664  21.729  22.892  1.00  0.00    -0.201 OA
BRANCH  14  17
ATOM     17  N   UNL A   1      33.995  22.967  24.701  1.00  0.00    -0.280 N 
ATOM     18  H   UNL A   1      33.419  23.173  25.471  1.00  0.00     0.180 HD
BRANCH  17  19
ATOM     19  C   UNL A   1      35.380  22.649  24.903  1.00  0.00     0.051 A 
ATOM     20  C   UNL A   1      38.099  22.096  25.305  1.00  0.00     0.137 A 
ATOM     21  C   UNL A   1      37.633  23.405  25.406  1.00  0.00     0.050 A 
ATOM     22  C   UNL A   1      37.203  21.061  25.015  1.00  0.00     0.085 A 
ATOM     23  C   UNL A   1      36.288  23.681  25.160  1.00  0.00     0.030 A 
ATOM     24  C   UNL A   1      35.839  21.334  24.828  1.00  0.00     0.051 A 
ATOM     25  Cl  UNL A   1      37.753  19.434  24.838  1.00  0.00    -0.080 Cl
BRANCH  20  26
ATOM     26  O   UNL A   1      39.418  21.842  25.576  1.00  0.00    -0.495 OA
ATOM     27  C   UNL A   1      39.699  21.981  26.969  1.00  0.00     0.278 C 
ENDBRANCH  20  26
ENDBRANCH  17  19
ENDBRANCH  14  17
ENDBRANCH   8  14
ENDBRANCH   4   7
ENDBRANCH   2   3
ENDBRANCH   1   2
BRANCH   1  28
ATOM     28  C   UNL A   1      32.788  30.038  26.819  1.00  0.00     0.002 C 
BRANCH  28  29
ATOM     29  C   UNL A   1      31.554  30.767  26.279  1.00  0.00     0.002 C 
BRANCH  29  30
ATOM     30  C   UNL A   1      31.377  32.231  26.683  1.00  0.00     0.021 C 
BRANCH  30  31
ATOM     31  C   UNL A   1      32.611  32.936  27.233  1.00  0.00     0.116 C 
BRANCH  31  32
ATOM     32  N   UNL A   1      32.349  34.294  27.670  1.00  0.00    -0.352 N 
ATOM     33  C   UNL A   1      32.967  35.031  28.649  1.00  0.00     0.251 C 
ATOM     34  H   UNL A   1      31.622  34.756  27.194  1.00  0.00     0.163 HD
ATOM     35  O   UNL A   1      32.532  36.139  28.951  1.00  0.00    -0.269 OA
BRANCH  33  36
ATOM     36  C   UNL A   1      34.138  34.485  29.374  1.00  0.00     0.039 A 
ATOM     37  C   UNL A   1      33.927  33.861  30.607  1.00  0.00     0.014 A 
ATOM     38  C   UNL A   1      35.434  34.597  28.863  1.00  0.00     0.014 A 
ATOM     39  C   UNL A   1      35.002  33.295  31.296  1.00  0.00     0.010 A 
ATOM     40  C   UNL A   1      36.496  33.975  29.518  1.00  0.00     0.010 A 
ATOM     41  C   UNL A   1      36.292  33.318  30.741  1.00  0.00    -0.014 A 
BRANCH  41  42
ATOM     42  C   UNL A   1      37.433  32.657  31.426  1.00  0.00     0.031 A 
ATOM     43  C   UNL A   1      38.122  31.482  30.790  1.00  0.00     0.074 A 
ATOM     44  C   UNL A   1      37.812  33.080  32.647  1.00  0.00     0.049 A 
ATOM     45  N   UNL A   1      39.091  30.736  31.260  1.00  0.00    -0.248 NA
ATOM     46  C   UNL A   1      37.643  31.075  29.460  1.00  0.00     0.031 C 
ATOM     47  C   UNL A   1      37.196  34.181  33.389  1.00  0.00     0.029 A 
ATOM     48  N   UNL A   1      38.799  32.626  33.487  1.00  0.00    -0.354 N 
ATOM     49  C   UNL A   1      39.325  29.767  30.292  1.00  0.00     0.074 A 
ATOM     50  C   UNL A   1      38.367  29.989  29.231  1.00  0.00     0.031 C 
ATOM     51  C   UNL A   1      37.829  34.329  34.563  1.00  0.00     0.029 A 
ATOM     52  C   UNL A   1      38.872  33.313  34.674  1.00  0.00     0.049 A 
ATOM     53  H   UNL A   1      39.398  31.879  33.260  1.00  0.00     0.167 HD
ATOM     54  C   UNL A   1      40.269  28.795  30.282  1.00  0.00     0.037 A 
ATOM     55  C   UNL A   1      39.682  33.138  35.736  1.00  0.00     0.037 A 
ATOM     56  C   UNL A   1      41.239  28.594  31.326  1.00  0.00     0.049 A 
ATOM     57  C   UNL A   1      40.720  32.050  35.697  1.00  0.00     0.074 A 
ATOM     58  C   UNL A   1      42.273  27.675  31.378  1.00  0.00     0.029 A 
ATOM     59  N   UNL A   1      41.292  29.322  32.504  1.00  0.00    -0.354 N 
ATOM     60  N   UNL A   1      40.976  31.182  34.748  1.00  0.00    -0.248 NA
ATOM     61  C   UNL A   1      41.587  31.920  36.877  1.00  0.00     0.031 C 
ATOM     62  C   UNL A   1      42.925  27.818  32.606  1.00  0.00     0.029 A 
ATOM     63  C   UNL A   1      42.329  28.859  33.300  1.00  0.00     0.049 A 
ATOM     64  H   UNL A   1      40.685  30.059  32.742  1.00  0.00     0.167 HD
ATOM     65  C   UNL A   1      42.047  30.425  35.201  1.00  0.00     0.074 A 
ATOM     66  C   UNL A   1      42.404  30.944  36.505  1.00  0.00     0.031 C 
ATOM     67  C   UNL A   1      42.677  29.392  34.592  1.00  0.00     0.037 A 
BRANCH  54  68
ATOM     68  C   UNL A   1      40.303  27.872  29.097  1.00  0.00     0.064 A 
ATOM     69  C   UNL A   1      41.121  28.132  27.986  1.00  0.00     0.173 A 
ATOM     70  C   UNL A   1      39.544  26.693  29.090  1.00  0.00     0.173 A 
ATOM     71  F   UNL A   1      41.859  29.251  27.939  1.00  0.00    -0.203 F 
ATOM     72  C   UNL A   1      41.157  27.259  26.902  1.00  0.00     0.198 A 
ATOM     73  C   UNL A   1      39.604  25.807  28.017  1.00  0.00     0.198 A 
ATOM     74  F   UNL A   1      38.750  26.393  30.129  1.00  0.00    -0.203 F 
ATOM     75  F   UNL A   1      41.911  27.552  25.834  1.00  0.00    -0.200 F 
ATOM     76  C   UNL A   1      40.405  26.094  26.922  1.00  0.00     0.200 A 
ATOM     77  F   UNL A   1      38.887  24.675  28.043  1.00  0.00    -0.200 F 
ATOM     78  F   UNL A   1      40.448  25.251  25.882  1.00  0.00    -0.200 F 
ENDBRANCH  54  68
BRANCH  55  79
ATOM     79  C   UNL A   1      39.560  34.031  36.918  1.00  0.00     0.064 A 
ATOM     80  C   UNL A   1      38.803  33.648  38.034  1.00  0.00     0.173 A 
ATOM     81  C   UNL A   1      40.187  35.284  36.953  1.00  0.00     0.173 A 
ATOM     82  F   UNL A   1      38.166  32.468  38.037  1.00  0.00    -0.203 F 
ATOM     83  C   UNL A   1      38.660  34.494  39.132  1.00  0.00     0.198 A 
ATOM     84  C   UNL A   1      40.068  36.118  38.063  1.00  0.00     0.198 A 
ATOM     85  F   UNL A   1      40.926  35.697  35.912  1.00  0.00    -0.203 F 
ATOM     86  F   UNL A   1      37.892  34.123  40.165  1.00  0.00    -0.200 F 
ATOM     87  C   UNL A   1      39.297  35.726  39.148  1.00  0.00     0.200 A 
ATOM     88  F   UNL A   1      40.696  37.301  38.082  1.00  0.00    -0.200 F 
ATOM     89  F   UNL A   1      39.162  36.538  40.205  1.00  0.00    -0.200 F 
ENDBRANCH  55  79
BRANCH  67  90
ATOM     90  C   UNL A   1      43.841  28.775  35.312  1.00  0.00     0.064 A 
ATOM     91  C   UNL A   1      45.154  29.228  35.113  1.00  0.00     0.173 A 
ATOM     92  C   UNL A   1      43.635  27.743  36.240  1.00  0.00     0.173 A 
ATOM     93  F   UNL A   1      45.405  30.201  34.224  1.00  0.00    -0.203 F 
ATOM     94  C   UNL A   1      46.220  28.654  35.799  1.00  0.00     0.198 A 
ATOM     95  C   UNL A   1      44.700  27.192  36.946  1.00  0.00     0.198 A 
ATOM     96  F   UNL A   1      42.399  27.278  36.471  1.00  0.00    -0.203 F 
ATOM     97  F   UNL A   1      47.471  29.070  35.559  1.00  0.00    -0.200 F 
ATOM     98  C   UNL A   1      45.992  27.642  36.720  1.00  0.00     0.200 A 
ATOM     99  F   UNL A   1      44.477  26.223  37.845  1.00  0.00    -0.200 F 
ATOM    100  F   UNL A   1      47.019  27.095  37.384  1.00  0.00    -0.200 F 
ENDBRANCH  67  90
ENDBRANCH  41  42
ENDBRANCH  33  36
ENDBRANCH  31  32
ENDBRANCH  30  31
ENDBRANCH  29  30
ENDBRANCH  28  29
ENDBRANCH   1  28
TORSDOF 17
ENDMDL
MODEL 2
REMARK VINA RESULT:     -12.1      3.756      8.588
REMARK SMILES COc1ccc(NS(=O)(=O)c2ccc(Cl)c(C(=O)NCCCCCCNC(=O)c3ccc(-c4c5nc(c(-c6c(F)c(F)c(F)c(F)c6F)c6ccc([nH]6)c(-c6c(F)c(F)c(F)c(F)c6F)c6nc(c(-c7c(F)c(F)c(F)c(F)c7F)c7ccc4[nH]7)C=C6)C=C5)cc3)c2)cc1Cl
REMARK SMILES IDX 21 1 20 2 19 3 17 4 18 5 16 7 11 8 12 9 92 10 13 11 14 12
REMARK SMILES IDX 15 13 8 14 9 15 10 16 7 17 6 19 3 20 4 21 94 22 5 23 93 24
REMARK SMILES IDX 95 25 2 26 1 27 22 28 23 29 24 30 25 31 26 32 27 33 28 35
REMARK SMILES IDX 29 36 30 37 91 38 31 39 90 40 32 41 33 42 34 43 84 44 35 45
REMARK SMILES IDX 89 46 83 47 85 48 36 49 88 50 82 51 81 52 37 54 69 55 49 56
REMARK SMILES IDX 68 57 50 58 53 59 67 60 86 61 51 62 52 63 66 65 87 66 54 67
REMARK SMILES IDX 38 68 39 69 47 70 40 71 41 72 45 73 48 74 42 75 43 76 46 77
REMARK SMILES IDX 44 78 70 79 71 80 79 81 72 82 73 83 77 84 80 85 74 86 75 87
REMARK SMILES IDX 78 88 76 89 55 90 56 91 64 92 57 93 58 94 62 95 65 96 59 97
REMARK SMILES IDX 60 98 63 99 61 100
REMARK H PARENT 19 6 7 18 26 34 85 53 53 64
REMARK Flexibility Score: inf
ROOT
ATOM      1  C   UNL A   1      31.303  26.010  26.263  1.00  0.00     0.021 C 
ENDROOT
BRANCH   1   2
ATOM      2  C   UNL A   1      30.092  25.250  25.741  1.00  0.00     0.116 C 
BRANCH   2   3
ATOM      3  N   UNL A   1      29.183  26.070  24.977  1.00  0.00    -0.352 N 
ATOM      4  C   UNL A   1      29.360  26.776  23.821  1.00  0.00     0.252 C 
ATOM      5  O   UNL A   1      28.385  27.392  23.386  1.00  0.00    -0.269 OA
ATOM      6  H   UNL A   1      28.276  26.131  25.355  1.00  0.00     0.163 HD
BRANCH   4   7
ATOM      7  C   UNL A   1      30.650  26.907  23.092  1.00  0.00     0.059 A 
ATOM      8  C   UNL A   1      32.466  25.593  22.135  1.00  0.00     0.088 A 
ATOM      9  C   UNL A   1      33.240  26.734  21.948  1.00  0.00     0.024 A 
ATOM     10  C   UNL A   1      31.146  25.688  22.588  1.00  0.00     0.037 A 
ATOM     11  C   UNL A   1      32.743  27.955  22.405  1.00  0.00     0.023 A 
ATOM     12  C   UNL A   1      31.500  28.024  23.063  1.00  0.00     0.053 A 
ATOM     13  Cl  UNL A   1      31.261  29.452  24.006  1.00  0.00    -0.083 Cl
BRANCH   8  14
ATOM     14  S   UNL A   1      33.216  23.984  22.039  1.00  0.00     0.261 S 
ATOM     15  O   UNL A   1      34.363  23.984  22.920  1.00  0.00    -0.201 OA
ATOM     16  O   UNL A   1      33.350  23.618  20.646  1.00  0.00    -0.201 OA
BRANCH  14  17
ATOM     17  N   UNL A   1      32.065  22.944  22.759  1.00  0.00    -0.280 N 
ATOM     18  H   UNL A   1      31.125  23.226  22.834  1.00  0.00     0.180 HD
BRANCH  17  19
ATOM     19  C   UNL A   1      32.472  21.660  23.252  1.00  0.00     0.051 A 
ATOM     20  C   UNL A   1      33.300  19.181  24.268  1.00  0.00     0.137 A 
ATOM     21  C   UNL A   1      33.589  20.351  24.966  1.00  0.00     0.050 A 
ATOM     22  C   UNL A   1      32.586  19.249  23.067  1.00  0.00     0.085 A 
ATOM     23  C   UNL A   1      33.215  21.585  24.434  1.00  0.00     0.030 A 
ATOM     24  C   UNL A   1      32.158  20.488  22.564  1.00  0.00     0.051 A 
ATOM     25  Cl  UNL A   1      32.249  17.824  22.152  1.00  0.00    -0.080 Cl
BRANCH  20  26
ATOM     26  O   UNL A   1      33.653  17.977  24.821  1.00  0.00    -0.495 OA
ATOM     27  C   UNL A   1      35.012  17.651  24.531  1.00  0.00     0.278 C 
ENDBRANCH  20  26
ENDBRANCH  17  19
ENDBRANCH  14  17
ENDBRANCH   8  14
ENDBRANCH   4   7
ENDBRANCH   2   3
ENDBRANCH   1   2
BRANCH   1  28
ATOM     28  C   UNL A   1      32.677  25.428  25.911  1.00  0.00     0.002 C 
BRANCH  28  29
ATOM     29  C   UNL A   1      33.837  26.412  25.735  1.00  0.00     0.002 C 
BRANCH  29  30
ATOM     30  C   UNL A   1      33.545  27.889  25.999  1.00  0.00     0.021 C 
BRANCH  30  31
ATOM     31  C   UNL A   1      33.638  28.350  27.449  1.00  0.00     0.116 C 
BRANCH  31  32
ATOM     32  N   UNL A   1      33.600  29.792  27.597  1.00  0.00    -0.352 N 
ATOM     33  C   UNL A   1      34.575  30.650  28.043  1.00  0.00     0.251 C 
ATOM     34  H   UNL A   1      32.752  30.220  27.338  1.00  0.00     0.163 HD
ATOM     35  O   UNL A   1      34.320  31.841  28.201  1.00  0.00    -0.269 OA
BRANCH  33  36
ATOM     36  C   UNL A   1      35.928  30.144  28.373  1.00  0.00     0.039 A 
ATOM     37  C   UNL A   1      36.917  30.193  27.386  1.00  0.00     0.014 A 
ATOM     38  C   UNL A   1      36.225  29.611  29.630  1.00  0.00     0.014 A 
ATOM     39  C   UNL A   1      38.215  29.768  27.677  1.00  0.00     0.010 A 
ATOM     40  C   UNL A   1      37.535  29.249  29.940  1.00  0.00     0.010 A 
ATOM     41  C   UNL A   1      38.544  29.322  28.967  1.00  0.00    -0.014 A 
BRANCH  41  42
ATOM     42  C   UNL A   1      39.936  28.935  29.313  1.00  0.00     0.031 A 
ATOM     43  C   UNL A   1      40.796  29.853  30.135  1.00  0.00     0.074 A 
ATOM     44  C   UNL A   1      40.443  27.782  28.839  1.00  0.00     0.049 A 
ATOM     45  N   UNL A   1      42.052  29.720  30.484  1.00  0.00    -0.248 NA
ATOM     46  C   UNL A   1      40.172  31.098  30.607  1.00  0.00     0.031 C 
ATOM     47  C   UNL A   1      39.724  26.826  27.995  1.00  0.00     0.029 A 
ATOM     48  N   UNL A   1      41.688  27.221  28.988  1.00  0.00    -0.354 N 
ATOM     49  C   UNL A   1      42.369  30.867  31.202  1.00  0.00     0.074 A 
ATOM     50  C   UNL A   1      41.190  31.707  31.197  1.00  0.00     0.031 C 
ATOM     51  C   UNL A   1      40.531  25.790  27.717  1.00  0.00     0.029 A 
ATOM     52  C   UNL A   1      41.836  26.023  28.331  1.00  0.00     0.049 A 
ATOM     53  H   UNL A   1      42.407  27.637  29.516  1.00  0.00     0.167 HD
ATOM     54  C   UNL A   1      43.531  31.179  31.825  1.00  0.00     0.037 A 
ATOM     55  C   UNL A   1      42.904  25.210  28.228  1.00  0.00     0.037 A 
ATOM     56  C   UNL A   1      44.692  30.329  31.851  1.00  0.00     0.049 A 
ATOM     57  C   UNL A   1      44.182  25.583  28.929  1.00  0.00     0.074 A 
ATOM     58  C   UNL A   1      45.894  30.531  32.507  1.00  0.00     0.029 A 
ATOM     59  N   UNL A   1      44.796  29.115  31.189  1.00  0.00    -0.354 N 
ATOM     60  N   UNL A   1      44.448  26.638  29.660  1.00  0.00    -0.248 NA
ATOM     61  C   UNL A   1      45.308  24.647  28.796  1.00  0.00     0.031 C 
ATOM     62  C   UNL A   1      46.742  29.460  32.207  1.00  0.00     0.029 A 
ATOM     63  C   UNL A   1      46.052  28.566  31.403  1.00  0.00     0.049 A 
ATOM     64  H   UNL A   1      44.085  28.703  30.648  1.00  0.00     0.167 HD
ATOM     65  C   UNL A   1      45.757  26.481  30.097  1.00  0.00     0.074 A 
ATOM     66  C   UNL A   1      46.227  25.220  29.560  1.00  0.00     0.031 C 
ATOM     67  C   UNL A   1      46.502  27.307  30.870  1.00  0.00     0.037 A 
BRANCH  54  68
ATOM     68  C   UNL A   1      43.603  32.499  32.539  1.00  0.00     0.064 A 
ATOM     69  C   UNL A   1      43.926  33.684  31.861  1.00  0.00     0.173 A 
ATOM     70  C   UNL A   1      43.303  32.586  33.906  1.00  0.00     0.173 A 
ATOM     71  F   UNL A   1      44.231  33.653  30.554  1.00  0.00    -0.203 F 
ATOM     72  C   UNL A   1      43.973  34.904  32.530  1.00  0.00     0.198 A 
ATOM     73  C   UNL A   1      43.322  33.812  34.567  1.00  0.00     0.198 A 
ATOM     74  F   UNL A   1      42.982  31.485  34.601  1.00  0.00    -0.203 F 
ATOM     75  F   UNL A   1      44.328  36.015  31.872  1.00  0.00    -0.200 F 
ATOM     76  C   UNL A   1      43.663  34.968  33.881  1.00  0.00     0.200 A 
ATOM     77  F   UNL A   1      43.010  33.875  35.869  1.00  0.00    -0.200 F 
ATOM     78  F   UNL A   1      43.699  36.144  34.522  1.00  0.00    -0.200 F 
ENDBRANCH  54  68
BRANCH  55  79
ATOM     79  C   UNL A   1      42.805  23.949  27.448  1.00  0.00     0.064 A 
ATOM     80  C   UNL A   1      42.382  22.758  28.055  1.00  0.00     0.173 A 
ATOM     81  C   UNL A   1      43.139  23.905  26.087  1.00  0.00     0.173 A 
ATOM     82  F   UNL A   1      42.073  22.746  29.360  1.00  0.00    -0.203 F 
ATOM     83  C   UNL A   1      42.316  21.567  27.336  1.00  0.00     0.198 A 
ATOM     84  C   UNL A   1      43.046  22.719  25.361  1.00  0.00     0.198 A 
ATOM     85  F   UNL A   1      43.546  25.017  25.458  1.00  0.00    -0.203 F 
ATOM     86  F   UNL A   1      41.954  20.434  27.952  1.00  0.00    -0.200 F 
ATOM     87  C   UNL A   1      42.643  21.549  25.988  1.00  0.00     0.200 A 
ATOM     88  F   UNL A   1      43.348  22.709  24.056  1.00  0.00    -0.200 F 
ATOM     89  F   UNL A   1      42.577  20.404  25.296  1.00  0.00    -0.200 F 
ENDBRANCH  55  79
BRANCH  67  90
ATOM     90  C   UNL A   1      47.893  26.859  31.214  1.00  0.00     0.064 A 
ATOM     91  C   UNL A   1      48.142  25.997  32.293  1.00  0.00     0.173 A 
ATOM     92  C   UNL A   1      48.984  27.267  30.432  1.00  0.00     0.173 A 
ATOM     93  F   UNL A   1      47.135  25.592  33.081  1.00  0.00    -0.203 F 
ATOM     94  C   UNL A   1      49.437  25.581  32.591  1.00  0.00     0.198 A 
ATOM     95  C   UNL A   1      50.272  26.824  30.714  1.00  0.00     0.198 A 
ATOM     96  F   UNL A   1      48.797  28.085  29.386  1.00  0.00    -0.203 F 
ATOM     97  F   UNL A   1      49.659  24.795  33.654  1.00  0.00    -0.200 F 
ATOM     98  C   UNL A   1      50.499  25.988  31.797  1.00  0.00     0.200 A 
ATOM     99  F   UNL A   1      51.296  27.208  29.939  1.00  0.00    -0.200 F 
ATOM    100  F   UNL A   1      51.743  25.580  32.081  1.00  0.00    -0.200 F 
ENDBRANCH  67  90
ENDBRANCH  41  42
ENDBRANCH  33  36
ENDBRANCH  31  32
ENDBRANCH  30  31
ENDBRANCH  29  30
ENDBRANCH  28  29
ENDBRANCH   1  28
TORSDOF 17
ENDMDL
MODEL 3
REMARK VINA RESULT:     -12.0      5.902     10.970
REMARK SMILES COc1ccc(NS(=O)(=O)c2ccc(Cl)c(C(=O)NCCCCCCNC(=O)c3ccc(-c4c5nc(c(-c6c(F)c(F)c(F)c(F)c6F)c6ccc([nH]6)c(-c6c(F)c(F)c(F)c(F)c6F)c6nc(c(-c7c(F)c(F)c(F)c(F)c7F)c7ccc4[nH]7)C=C6)C=C5)cc3)c2)cc1Cl
REMARK SMILES IDX 21 1 20 2 19 3 17 4 18 5 16 7 11 8 12 9 92 10 13 11 14 12
REMARK SMILES IDX 15 13 8 14 9 15 10 16 7 17 6 19 3 20 4 21 94 22 5 23 93 24
REMARK SMILES IDX 95 25 2 26 1 27 22 28 23 29 24 30 25 31 26 32 27 33 28 35
REMARK SMILES IDX 29 36 30 37 91 38 31 39 90 40 32 41 33 42 34 43 84 44 35 45
REMARK SMILES IDX 89 46 83 47 85 48 36 49 88 50 82 51 81 52 37 54 69 55 49 56
REMARK SMILES IDX 68 57 50 58 53 59 67 60 86 61 51 62 52 63 66 65 87 66 54 67
REMARK SMILES IDX 38 68 39 69 47 70 40 71 41 72 45 73 48 74 42 75 43 76 46 77
REMARK SMILES IDX 44 78 70 79 71 80 79 81 72 82 73 83 77 84 80 85 74 86 75 87
REMARK SMILES IDX 78 88 76 89 55 90 56 91 64 92 57 93 58 94 62 95 65 96 59 97
REMARK SMILES IDX 60 98 63 99 61 100
REMARK H PARENT 19 6 7 18 26 34 85 53 53 64
REMARK Flexibility Score: inf
ROOT
ATOM      1  C   UNL A   1      38.907  22.971  26.384  1.00  0.00     0.021 C 
ENDROOT
BRANCH   1   2
ATOM      2  C   UNL A   1      37.650  23.507  25.713  1.00  0.00     0.116 C 
BRANCH   2   3
ATOM      3  N   UNL A   1      36.455  23.327  26.502  1.00  0.00    -0.352 N 
ATOM      4  C   UNL A   1      35.135  23.304  26.149  1.00  0.00     0.252 C 
ATOM      5  O   UNL A   1      34.317  23.122  27.052  1.00  0.00    -0.269 OA
ATOM      6  H   UNL A   1      36.620  23.200  27.465  1.00  0.00     0.163 HD
BRANCH   4   7
ATOM      7  C   UNL A   1      34.618  23.544  24.775  1.00  0.00     0.059 A 
ATOM      8  C   UNL A   1      33.662  25.274  23.349  1.00  0.00     0.088 A 
ATOM      9  C   UNL A   1      33.327  24.337  22.377  1.00  0.00     0.024 A 
ATOM     10  C   UNL A   1      34.403  24.905  24.477  1.00  0.00     0.037 A 
ATOM     11  C   UNL A   1      33.572  22.990  22.642  1.00  0.00     0.023 A 
ATOM     12  C   UNL A   1      34.122  22.588  23.874  1.00  0.00     0.053 A 
ATOM     13  Cl  UNL A   1      33.891  20.920  24.258  1.00  0.00    -0.083 Cl
BRANCH   8  14
ATOM     14  S   UNL A   1      32.947  26.901  23.300  1.00  0.00     0.261 S 
ATOM     15  O   UNL A   1      31.840  26.864  22.370  1.00  0.00    -0.201 OA
ATOM     16  O   UNL A   1      34.011  27.870  23.150  1.00  0.00    -0.201 OA
BRANCH  14  17
ATOM     17  N   UNL A   1      32.255  27.100  24.852  1.00  0.00    -0.280 N 
ATOM     18  H   UNL A   1      31.588  26.454  25.180  1.00  0.00     0.180 HD
BRANCH  17  19
ATOM     19  C   UNL A   1      32.650  28.207  25.674  1.00  0.00     0.051 A 
ATOM     20  C   UNL A   1      33.470  30.333  27.308  1.00  0.00     0.137 A 
ATOM     21  C   UNL A   1      34.191  29.141  27.304  1.00  0.00     0.050 A 
ATOM     22  C   UNL A   1      32.346  30.467  26.487  1.00  0.00     0.085 A 
ATOM     23  C   UNL A   1      33.752  28.071  26.523  1.00  0.00     0.030 A 
ATOM     24  C   UNL A   1      31.942  29.409  25.657  1.00  0.00     0.051 A 
ATOM     25  Cl  UNL A   1      31.403  31.914  26.501  1.00  0.00    -0.080 Cl
BRANCH  20  26
ATOM     26  O   UNL A   1      33.932  31.381  28.061  1.00  0.00    -0.495 OA
ATOM     27  C   UNL A   1      35.224  31.804  27.625  1.00  0.00     0.278 C 
ENDBRANCH  20  26
ENDBRANCH  17  19
ENDBRANCH  14  17
ENDBRANCH   8  14
ENDBRANCH   4   7
ENDBRANCH   2   3
ENDBRANCH   1   2
BRANCH   1  28
ATOM     28  C   UNL A   1      39.283  21.519  26.066  1.00  0.00     0.002 C 
BRANCH  28  29
ATOM     29  C   UNL A   1      40.673  21.038  26.495  1.00  0.00     0.002 C 
BRANCH  29  30
ATOM     30  C   UNL A   1      41.060  19.606  26.125  1.00  0.00     0.021 C 
BRANCH  30  31
ATOM     31  C   UNL A   1      42.464  19.162  26.516  1.00  0.00     0.116 C 
BRANCH  31  32
ATOM     32  N   UNL A   1      43.274  18.759  25.382  1.00  0.00    -0.352 N 
ATOM     33  C   UNL A   1      44.156  19.497  24.632  1.00  0.00     0.251 C 
ATOM     34  H   UNL A   1      43.179  17.817  25.111  1.00  0.00     0.163 HD
ATOM     35  O   UNL A   1      44.675  19.004  23.634  1.00  0.00    -0.269 OA
BRANCH  33  36
ATOM     36  C   UNL A   1      44.461  20.900  24.994  1.00  0.00     0.039 A 
ATOM     37  C   UNL A   1      43.990  21.921  24.164  1.00  0.00     0.014 A 
ATOM     38  C   UNL A   1      45.216  21.217  26.127  1.00  0.00     0.014 A 
ATOM     39  C   UNL A   1      44.220  23.256  24.501  1.00  0.00     0.010 A 
ATOM     40  C   UNL A   1      45.388  22.550  26.498  1.00  0.00     0.010 A 
ATOM     41  C   UNL A   1      44.893  23.584  25.689  1.00  0.00    -0.014 A 
BRANCH  41  42
ATOM     42  C   UNL A   1      45.082  24.999  26.098  1.00  0.00     0.031 A 
ATOM     43  C   UNL A   1      46.438  25.641  26.006  1.00  0.00     0.074 A 
ATOM     44  C   UNL A   1      44.043  25.689  26.606  1.00  0.00     0.049 A 
ATOM     45  N   UNL A   1      46.813  26.841  26.374  1.00  0.00    -0.248 NA
ATOM     46  C   UNL A   1      47.522  24.818  25.450  1.00  0.00     0.031 C 
ATOM     47  C   UNL A   1      42.688  25.166  26.788  1.00  0.00     0.029 A 
ATOM     48  N   UNL A   1      43.966  26.978  27.076  1.00  0.00    -0.354 N 
ATOM     49  C   UNL A   1      48.175  26.910  26.107  1.00  0.00     0.074 A 
ATOM     50  C   UNL A   1      48.570  25.617  25.592  1.00  0.00     0.031 C 
ATOM     51  C   UNL A   1      41.912  26.127  27.311  1.00  0.00     0.029 A 
ATOM     52  C   UNL A   1      42.718  27.324  27.535  1.00  0.00     0.049 A 
ATOM     53  H   UNL A   1      44.732  27.596  27.082  1.00  0.00     0.167 HD
ATOM     54  C   UNL A   1      49.013  27.964  26.258  1.00  0.00     0.037 A 
ATOM     55  C   UNL A   1      42.278  28.472  28.084  1.00  0.00     0.037 A 
ATOM     56  C   UNL A   1      48.611  29.257  26.745  1.00  0.00     0.049 A 
ATOM     57  C   UNL A   1      43.231  29.625  28.242  1.00  0.00     0.074 A 
ATOM     58  C   UNL A   1      49.374  30.405  26.876  1.00  0.00     0.029 A 
ATOM     59  N   UNL A   1      47.334  29.574  27.183  1.00  0.00    -0.354 N 
ATOM     60  N   UNL A   1      44.501  29.699  27.923  1.00  0.00    -0.248 NA
ATOM     61  C   UNL A   1      42.687  30.858  28.829  1.00  0.00     0.031 C 
ATOM     62  C   UNL A   1      48.570  31.404  27.434  1.00  0.00     0.029 A 
ATOM     63  C   UNL A   1      47.293  30.894  27.606  1.00  0.00     0.049 A 
ATOM     64  H   UNL A   1      46.570  28.954  27.193  1.00  0.00     0.167 HD
ATOM     65  C   UNL A   1      44.900  30.989  28.244  1.00  0.00     0.074 A 
ATOM     66  C   UNL A   1      43.733  31.669  28.769  1.00  0.00     0.031 C 
ATOM     67  C   UNL A   1      46.123  31.559  28.117  1.00  0.00     0.037 A 
BRANCH  54  68
ATOM     68  C   UNL A   1      50.455  27.764  25.887  1.00  0.00     0.064 A 
ATOM     69  C   UNL A   1      50.892  27.865  24.557  1.00  0.00     0.173 A 
ATOM     70  C   UNL A   1      51.417  27.514  26.877  1.00  0.00     0.173 A 
ATOM     71  F   UNL A   1      50.011  28.092  23.572  1.00  0.00    -0.203 F 
ATOM     72  C   UNL A   1      52.234  27.695  24.230  1.00  0.00     0.198 A 
ATOM     73  C   UNL A   1      52.763  27.374  26.549  1.00  0.00     0.198 A 
ATOM     74  F   UNL A   1      51.053  27.415  28.164  1.00  0.00    -0.203 F 
ATOM     75  F   UNL A   1      52.621  27.750  22.948  1.00  0.00    -0.200 F 
ATOM     76  C   UNL A   1      53.169  27.457  25.226  1.00  0.00     0.200 A 
ATOM     77  F   UNL A   1      53.668  27.158  27.514  1.00  0.00    -0.200 F 
ATOM     78  F   UNL A   1      54.463  27.304  24.910  1.00  0.00    -0.200 F 
ENDBRANCH  54  68
BRANCH  55  79
ATOM     79  C   UNL A   1      40.858  28.596  28.505  1.00  0.00     0.064 A 
ATOM     80  C   UNL A   1      40.463  28.279  29.812  1.00  0.00     0.173 A 
ATOM     81  C   UNL A   1      39.866  29.024  27.610  1.00  0.00     0.173 A 
ATOM     82  F   UNL A   1      41.372  27.844  30.698  1.00  0.00    -0.203 F 
ATOM     83  C   UNL A   1      39.129  28.365  30.203  1.00  0.00     0.198 A 
ATOM     84  C   UNL A   1      38.536  29.137  28.009  1.00  0.00     0.198 A 
ATOM     85  F   UNL A   1      40.191  29.343  26.348  1.00  0.00    -0.203 F 
ATOM     86  F   UNL A   1      38.773  28.010  31.445  1.00  0.00    -0.200 F 
ATOM     87  C   UNL A   1      38.167  28.799  29.303  1.00  0.00     0.200 A 
ATOM     88  F   UNL A   1      37.612  29.570  27.142  1.00  0.00    -0.200 F 
ATOM     89  F   UNL A   1      36.884  28.884  29.680  1.00  0.00    -0.200 F 
ENDBRANCH  55  79
BRANCH  67  90
ATOM     90  C   UNL A   1      46.256  32.999  28.519  1.00  0.00     0.064 A 
ATOM     91  C   UNL A   1      46.607  33.370  29.826  1.00  0.00     0.173 A 
ATOM     92  C   UNL A   1      46.068  34.020  27.574  1.00  0.00     0.173 A 
ATOM     93  F   UNL A   1      46.781  32.432  30.769  1.00  0.00    -0.203 F 
ATOM     94  C   UNL A   1      46.739  34.709  30.178  1.00  0.00     0.198 A 
ATOM     95  C   UNL A   1      46.231  35.357  27.922  1.00  0.00     0.198 A 
ATOM     96  F   UNL A   1      45.738  33.718  26.310  1.00  0.00    -0.203 F 
ATOM     97  F   UNL A   1      47.029  35.043  31.444  1.00  0.00    -0.200 F 
ATOM     98  C   UNL A   1      46.559  35.702  29.225  1.00  0.00     0.200 A 
ATOM     99  F   UNL A   1      46.069  36.314  26.997  1.00  0.00    -0.200 F 
ATOM    100  F   UNL A   1      46.694  36.990  29.564  1.00  0.00    -0.200 F 
ENDBRANCH  67  90
ENDBRANCH  41  42
ENDBRANCH  33  36
ENDBRANCH  31  32
ENDBRANCH  30  31
ENDBRANCH  29  30
ENDBRANCH  28  29
ENDBRANCH   1  28
TORSDOF 17
ENDMDL
