MODEL 1
REMARK VINA RESULT:     -11.7      0.000      0.000
REMARK SMILES CCCNC(=O)c1cnn([C@@H](C)C(=O)NCCCCCCNC(=O)c2ccc(-c3c4nc(c(-c5c(F)c(F)c(F)c(F)c5F)c5ccc([nH]5)c(-c5c(F)c(F)c(F)c(F)c5F)c5nc(c(-c6c(F)c(F)c(F)c(F)c6F)c6ccc3[nH]6)C=C5)C=C4)cc2)c1
REMARK SMILES IDX 17 1 16 2 15 3 13 4 14 5 11 7 12 8 10 9 7 10 8 11 88 12 9 13
REMARK SMILES IDX 5 14 4 15 6 17 3 18 2 19 1 20 18 21 19 22 20 23 21 24 22 25
REMARK SMILES IDX 23 26 24 28 25 29 26 30 87 31 27 32 86 33 28 34 29 35 30 36
REMARK SMILES IDX 80 37 31 38 85 39 79 40 81 41 32 42 84 43 78 44 77 45 33 47
REMARK SMILES IDX 65 48 45 49 64 50 46 51 49 52 63 53 82 54 47 55 48 56 62 58
REMARK SMILES IDX 83 59 50 60 34 61 35 62 43 63 36 64 37 65 41 66 44 67 38 68
REMARK SMILES IDX 39 69 42 70 40 71 66 72 67 73 75 74 68 75 69 76 73 77 76 78
REMARK SMILES IDX 70 79 71 80 74 81 72 82 51 83 52 84 60 85 53 86 54 87 58 88
REMARK SMILES IDX 61 89 55 90 56 91 59 92 57 93
REMARK H PARENT 15 6 4 16 22 27 81 46 49 57
REMARK Flexibility Score: inf
ROOT
ATOM      1  C   UNL A   1      33.786  27.920  25.350  1.00  0.00     0.021 C 
ENDROOT
BRANCH   1   2
ATOM      2  C   UNL A   1      32.959  26.792  24.724  1.00  0.00     0.116 C 
BRANCH   2   3
ATOM      3  N   UNL A   1      33.315  26.580  23.332  1.00  0.00    -0.354 N 
ATOM      4  C   UNL A   1      33.119  25.508  22.515  1.00  0.00     0.244 C 
ATOM      5  O   UNL A   1      33.659  25.561  21.402  1.00  0.00    -0.273 OA
ATOM      6  H   UNL A   1      33.776  27.340  22.907  1.00  0.00     0.163 HD
BRANCH   4   7
ATOM      7  C   UNL A   1      32.237  24.312  22.871  1.00  0.00     0.193 C 
ATOM      8  C   UNL A   1      30.807  24.699  23.242  1.00  0.00     0.044 C 
BRANCH   7   9
ATOM      9  N   UNL A   1      32.879  23.401  23.812  1.00  0.00    -0.260 N 
ATOM     10  C   UNL A   1      34.205  21.907  24.760  1.00  0.00     0.077 A 
ATOM     11  C   UNL A   1      33.339  22.531  25.674  1.00  0.00     0.149 A 
ATOM     12  C   UNL A   1      33.911  22.534  23.560  1.00  0.00     0.123 A 
ATOM     13  N   UNL A   1      32.446  23.314  25.080  1.00  0.00    -0.180 NA
BRANCH  10  14
ATOM     14  C   UNL A   1      35.231  20.913  24.993  1.00  0.00     0.254 C 
ATOM     15  N   UNL A   1      34.883  19.581  25.003  1.00  0.00    -0.352 N 
ATOM     16  H   UNL A   1      35.581  18.978  25.346  1.00  0.00     0.163 HD
ATOM     17  O   UNL A   1      36.402  21.219  25.177  1.00  0.00    -0.269 OA
BRANCH  15  18
ATOM     18  C   UNL A   1      33.655  18.917  24.591  1.00  0.00     0.116 C 
BRANCH  18  19
ATOM     19  C   UNL A   1      33.804  17.401  24.525  1.00  0.00     0.018 C 
ATOM     20  C   UNL A   1      34.147  16.909  23.131  1.00  0.00     0.006 C 
ENDBRANCH  18  19
ENDBRANCH  15  18
ENDBRANCH  10  14
ENDBRANCH   7   9
ENDBRANCH   4   7
ENDBRANCH   2   3
ENDBRANCH   1   2
BRANCH   1  21
ATOM     21  C   UNL A   1      33.570  28.089  26.855  1.00  0.00     0.002 C 
BRANCH  21  22
ATOM     22  C   UNL A   1      32.423  29.031  27.248  1.00  0.00     0.002 C 
BRANCH  22  23
ATOM     23  C   UNL A   1      32.698  30.532  27.068  1.00  0.00     0.021 C 
BRANCH  23  24
ATOM     24  C   UNL A   1      34.093  30.939  27.510  1.00  0.00     0.116 C 
BRANCH  24  25
ATOM     25  N   UNL A   1      34.060  31.835  28.662  1.00  0.00    -0.352 N 
ATOM     26  C   UNL A   1      34.913  31.867  29.742  1.00  0.00     0.251 C 
ATOM     27  H   UNL A   1      33.335  32.500  28.668  1.00  0.00     0.163 HD
ATOM     28  O   UNL A   1      34.590  32.418  30.786  1.00  0.00    -0.269 OA
BRANCH  26  29
ATOM     29  C   UNL A   1      36.233  31.226  29.620  1.00  0.00     0.039 A 
ATOM     30  C   UNL A   1      37.392  31.998  29.506  1.00  0.00     0.014 A 
ATOM     31  C   UNL A   1      36.297  29.833  29.619  1.00  0.00     0.014 A 
ATOM     32  C   UNL A   1      38.623  31.353  29.456  1.00  0.00     0.010 A 
ATOM     33  C   UNL A   1      37.513  29.205  29.709  1.00  0.00     0.010 A 
ATOM     34  C   UNL A   1      38.674  29.955  29.575  1.00  0.00    -0.014 A 
BRANCH  34  35
ATOM     35  C   UNL A   1      39.956  29.271  29.688  1.00  0.00     0.031 A 
ATOM     36  C   UNL A   1      40.441  29.115  31.088  1.00  0.00     0.074 A 
ATOM     37  C   UNL A   1      40.544  28.642  28.648  1.00  0.00     0.049 A 
ATOM     38  N   UNL A   1      41.516  29.606  31.609  1.00  0.00    -0.248 NA
ATOM     39  C   UNL A   1      39.565  28.442  32.063  1.00  0.00     0.031 C 
ATOM     40  C   UNL A   1      40.030  28.441  27.290  1.00  0.00     0.029 A 
ATOM     41  N   UNL A   1      41.713  27.947  28.624  1.00  0.00    -0.354 N 
ATOM     42  C   UNL A   1      41.552  29.159  32.928  1.00  0.00     0.074 A 
ATOM     43  C   UNL A   1      40.259  28.588  33.195  1.00  0.00     0.031 C 
ATOM     44  C   UNL A   1      40.755  27.485  26.666  1.00  0.00     0.029 A 
ATOM     45  C   UNL A   1      41.878  27.129  27.513  1.00  0.00     0.049 A 
ATOM     46  H   UNL A   1      42.388  28.018  29.337  1.00  0.00     0.167 HD
ATOM     47  C   UNL A   1      42.729  29.096  33.610  1.00  0.00     0.037 A 
ATOM     48  C   UNL A   1      42.847  26.195  27.337  1.00  0.00     0.037 A 
ATOM     49  C   UNL A   1      43.731  29.918  32.978  1.00  0.00     0.049 A 
ATOM     50  C   UNL A   1      43.948  26.525  28.282  1.00  0.00     0.074 A 
ATOM     51  C   UNL A   1      43.822  31.265  32.676  1.00  0.00     0.029 A 
ATOM     52  N   UNL A   1      44.677  29.304  32.193  1.00  0.00    -0.354 N 
ATOM     53  N   UNL A   1      44.693  27.591  28.176  1.00  0.00    -0.248 NA
ATOM     54  C   UNL A   1      43.882  25.935  29.611  1.00  0.00     0.031 C 
ATOM     55  C   UNL A   1      44.414  31.308  31.380  1.00  0.00     0.029 A 
ATOM     56  C   UNL A   1      44.734  30.001  31.013  1.00  0.00     0.049 A 
ATOM     57  H   UNL A   1      45.211  28.512  32.431  1.00  0.00     0.167 HD
ATOM     58  C   UNL A   1      44.824  28.057  29.476  1.00  0.00     0.074 A 
ATOM     59  C   UNL A   1      44.354  26.961  30.324  1.00  0.00     0.031 C 
ATOM     60  C   UNL A   1      45.013  29.382  29.739  1.00  0.00     0.037 A 
BRANCH  47  61
ATOM     61  C   UNL A   1      43.088  28.018  34.605  1.00  0.00     0.064 A 
ATOM     62  C   UNL A   1      43.462  28.393  35.913  1.00  0.00     0.173 A 
ATOM     63  C   UNL A   1      43.386  26.684  34.252  1.00  0.00     0.173 A 
ATOM     64  F   UNL A   1      43.234  29.638  36.359  1.00  0.00    -0.203 F 
ATOM     65  C   UNL A   1      44.171  27.533  36.756  1.00  0.00     0.198 A 
ATOM     66  C   UNL A   1      44.048  25.813  35.116  1.00  0.00     0.198 A 
ATOM     67  F   UNL A   1      43.159  26.198  33.027  1.00  0.00    -0.203 F 
ATOM     68  F   UNL A   1      44.626  27.984  37.933  1.00  0.00    -0.200 F 
ATOM     69  C   UNL A   1      44.472  26.247  36.352  1.00  0.00     0.200 A 
ATOM     70  F   UNL A   1      44.344  24.573  34.699  1.00  0.00    -0.200 F 
ATOM     71  F   UNL A   1      45.212  25.445  37.128  1.00  0.00    -0.200 F 
ENDBRANCH  47  61
BRANCH  48  72
ATOM     72  C   UNL A   1      42.731  24.868  26.682  1.00  0.00     0.064 A 
ATOM     73  C   UNL A   1      43.398  24.590  25.477  1.00  0.00     0.173 A 
ATOM     74  C   UNL A   1      42.199  23.758  27.370  1.00  0.00     0.173 A 
ATOM     75  F   UNL A   1      43.980  25.581  24.786  1.00  0.00    -0.203 F 
ATOM     76  C   UNL A   1      43.544  23.281  25.001  1.00  0.00     0.198 A 
ATOM     77  C   UNL A   1      42.342  22.454  26.892  1.00  0.00     0.198 A 
ATOM     78  F   UNL A   1      41.621  23.904  28.570  1.00  0.00    -0.203 F 
ATOM     79  F   UNL A   1      44.244  23.050  23.881  1.00  0.00    -0.200 F 
ATOM     80  C   UNL A   1      43.024  22.214  25.715  1.00  0.00     0.200 A 
ATOM     81  F   UNL A   1      41.877  21.427  27.619  1.00  0.00    -0.200 F 
ATOM     82  F   UNL A   1      43.222  20.956  25.297  1.00  0.00    -0.200 F 
ENDBRANCH  48  72
BRANCH  60  83
ATOM     83  C   UNL A   1      45.311  30.307  28.591  1.00  0.00     0.064 A 
ATOM     84  C   UNL A   1      44.331  30.952  27.815  1.00  0.00     0.173 A 
ATOM     85  C   UNL A   1      46.645  30.684  28.379  1.00  0.00     0.173 A 
ATOM     86  F   UNL A   1      43.028  30.728  28.022  1.00  0.00    -0.203 F 
ATOM     87  C   UNL A   1      44.676  31.895  26.847  1.00  0.00     0.198 A 
ATOM     88  C   UNL A   1      46.984  31.654  27.440  1.00  0.00     0.198 A 
ATOM     89  F   UNL A   1      47.621  30.144  29.126  1.00  0.00    -0.203 F 
ATOM     90  F   UNL A   1      43.722  32.489  26.115  1.00  0.00    -0.200 F 
ATOM     91  C   UNL A   1      46.002  32.251  26.668  1.00  0.00     0.200 A 
ATOM     92  F   UNL A   1      48.263  32.031  27.309  1.00  0.00    -0.200 F 
ATOM     93  F   UNL A   1      46.332  33.190  25.771  1.00  0.00    -0.200 F 
ENDBRANCH  60  83
ENDBRANCH  34  35
ENDBRANCH  26  29
ENDBRANCH  24  25
ENDBRANCH  23  24
ENDBRANCH  22  23
ENDBRANCH  21  22
ENDBRANCH   1  21
TORSDOF 17
ENDMDL
MODEL 2
REMARK VINA RESULT:     -11.5      3.106      8.819
REMARK SMILES CCCNC(=O)c1cnn([C@@H](C)C(=O)NCCCCCCNC(=O)c2ccc(-c3c4nc(c(-c5c(F)c(F)c(F)c(F)c5F)c5ccc([nH]5)c(-c5c(F)c(F)c(F)c(F)c5F)c5nc(c(-c6c(F)c(F)c(F)c(F)c6F)c6ccc3[nH]6)C=C5)C=C4)cc2)c1
REMARK SMILES IDX 17 1 16 2 15 3 13 4 14 5 11 7 12 8 10 9 7 10 8 11 88 12 9 13
REMARK SMILES IDX 5 14 4 15 6 17 3 18 2 19 1 20 18 21 19 22 20 23 21 24 22 25
REMARK SMILES IDX 23 26 24 28 25 29 26 30 87 31 27 32 86 33 28 34 29 35 30 36
REMARK SMILES IDX 80 37 31 38 85 39 79 40 81 41 32 42 84 43 78 44 77 45 33 47
REMARK SMILES IDX 65 48 45 49 64 50 46 51 49 52 63 53 82 54 47 55 48 56 62 58
REMARK SMILES IDX 83 59 50 60 34 61 35 62 43 63 36 64 37 65 41 66 44 67 38 68
REMARK SMILES IDX 39 69 42 70 40 71 66 72 67 73 75 74 68 75 69 76 73 77 76 78
REMARK SMILES IDX 70 79 71 80 74 81 72 82 51 83 52 84 60 85 53 86 54 87 58 88
REMARK SMILES IDX 61 89 55 90 56 91 59 92 57 93
REMARK H PARENT 15 6 4 16 22 27 81 46 49 57
REMARK Flexibility Score: inf
ROOT
ATOM      1  C   UNL A   1      36.494  22.152  24.318  1.00  0.00     0.021 C 
ENDROOT
BRANCH   1   2
ATOM      2  C   UNL A   1      35.259  21.729  25.121  1.00  0.00     0.116 C 
BRANCH   2   3
ATOM      3  N   UNL A   1      34.139  21.421  24.249  1.00  0.00    -0.354 N 
ATOM      4  C   UNL A   1      32.878  21.934  24.203  1.00  0.00     0.244 C 
ATOM      5  O   UNL A   1      32.085  21.374  23.434  1.00  0.00    -0.273 OA
ATOM      6  H   UNL A   1      34.321  20.723  23.579  1.00  0.00     0.163 HD
BRANCH   4   7
ATOM      7  C   UNL A   1      32.429  23.171  24.980  1.00  0.00     0.193 C 
ATOM      8  C   UNL A   1      31.129  22.965  25.755  1.00  0.00     0.044 C 
BRANCH   7   9
ATOM      9  N   UNL A   1      32.464  24.385  24.172  1.00  0.00    -0.260 N 
ATOM     10  C   UNL A   1      32.006  26.341  23.247  1.00  0.00     0.077 A 
ATOM     11  C   UNL A   1      33.272  25.847  22.889  1.00  0.00     0.149 A 
ATOM     12  C   UNL A   1      31.526  25.383  24.126  1.00  0.00     0.123 A 
ATOM     13  N   UNL A   1      33.481  24.610  23.324  1.00  0.00    -0.180 NA
BRANCH  10  14
ATOM     14  C   UNL A   1      31.364  27.585  22.882  1.00  0.00     0.254 C 
ATOM     15  N   UNL A   1      31.659  28.726  23.594  1.00  0.00    -0.352 N 
ATOM     16  H   UNL A   1      31.060  29.486  23.417  1.00  0.00     0.163 HD
ATOM     17  O   UNL A   1      30.569  27.658  21.953  1.00  0.00    -0.269 OA
BRANCH  15  18
ATOM     18  C   UNL A   1      32.709  28.994  24.565  1.00  0.00     0.116 C 
BRANCH  18  19
ATOM     19  C   UNL A   1      32.156  29.372  25.934  1.00  0.00     0.018 C 
ATOM     20  C   UNL A   1      31.629  28.174  26.703  1.00  0.00     0.006 C 
ENDBRANCH  18  19
ENDBRANCH  15  18
ENDBRANCH  10  14
ENDBRANCH   7   9
ENDBRANCH   4   7
ENDBRANCH   2   3
ENDBRANCH   1   2
BRANCH   1  21
ATOM     21  C   UNL A   1      37.263  23.323  24.932  1.00  0.00     0.002 C 
BRANCH  21  22
ATOM     22  C   UNL A   1      38.211  22.953  26.081  1.00  0.00     0.002 C 
BRANCH  22  23
ATOM     23  C   UNL A   1      38.967  21.624  25.924  1.00  0.00     0.021 C 
BRANCH  23  24
ATOM     24  C   UNL A   1      40.192  21.527  26.817  1.00  0.00     0.116 C 
BRANCH  24  25
ATOM     25  N   UNL A   1      41.432  21.645  26.054  1.00  0.00    -0.352 N 
ATOM     26  C   UNL A   1      42.163  22.780  25.785  1.00  0.00     0.251 C 
ATOM     27  H   UNL A   1      41.792  20.807  25.687  1.00  0.00     0.163 HD
ATOM     28  O   UNL A   1      42.976  22.806  24.871  1.00  0.00    -0.269 OA
BRANCH  26  29
ATOM     29  C   UNL A   1      41.953  23.973  26.623  1.00  0.00     0.039 A 
ATOM     30  C   UNL A   1      42.599  24.101  27.855  1.00  0.00     0.014 A 
ATOM     31  C   UNL A   1      41.093  24.968  26.159  1.00  0.00     0.014 A 
ATOM     32  C   UNL A   1      42.422  25.270  28.586  1.00  0.00     0.010 A 
ATOM     33  C   UNL A   1      41.027  26.173  26.810  1.00  0.00     0.010 A 
ATOM     34  C   UNL A   1      41.645  26.309  28.047  1.00  0.00    -0.014 A 
BRANCH  34  35
ATOM     35  C   UNL A   1      41.576  27.601  28.715  1.00  0.00     0.031 A 
ATOM     36  C   UNL A   1      42.672  28.540  28.342  1.00  0.00     0.074 A 
ATOM     37  C   UNL A   1      40.505  27.996  29.435  1.00  0.00     0.049 A 
ATOM     38  N   UNL A   1      43.578  29.040  29.114  1.00  0.00    -0.248 NA
ATOM     39  C   UNL A   1      42.865  28.860  26.916  1.00  0.00     0.031 C 
ATOM     40  C   UNL A   1      39.224  27.307  29.625  1.00  0.00     0.029 A 
ATOM     41  N   UNL A   1      40.299  29.177  30.080  1.00  0.00    -0.354 N 
ATOM     42  C   UNL A   1      44.350  29.882  28.316  1.00  0.00     0.074 A 
ATOM     43  C   UNL A   1      43.970  29.609  26.956  1.00  0.00     0.031 C 
ATOM     44  C   UNL A   1      38.310  28.174  30.117  1.00  0.00     0.029 A 
ATOM     45  C   UNL A   1      38.978  29.422  30.431  1.00  0.00     0.049 A 
ATOM     46  H   UNL A   1      41.029  29.806  30.281  1.00  0.00     0.167 HD
ATOM     47  C   UNL A   1      45.074  30.894  28.869  1.00  0.00     0.037 A 
ATOM     48  C   UNL A   1      38.474  30.593  30.901  1.00  0.00     0.037 A 
ATOM     49  C   UNL A   1      45.262  30.677  30.282  1.00  0.00     0.049 A 
ATOM     50  C   UNL A   1      39.621  31.385  31.421  1.00  0.00     0.074 A 
ATOM     51  C   UNL A   1      45.843  29.670  31.033  1.00  0.00     0.029 A 
ATOM     52  N   UNL A   1      44.466  31.374  31.160  1.00  0.00    -0.354 N 
ATOM     53  N   UNL A   1      40.315  31.043  32.472  1.00  0.00    -0.248 NA
ATOM     54  C   UNL A   1      40.297  32.270  30.483  1.00  0.00     0.031 C 
ATOM     55  C   UNL A   1      44.970  29.498  32.148  1.00  0.00     0.029 A 
ATOM     56  C   UNL A   1      43.970  30.466  32.060  1.00  0.00     0.049 A 
ATOM     57  H   UNL A   1      44.286  32.342  31.144  1.00  0.00     0.167 HD
ATOM     58  C   UNL A   1      41.632  31.294  32.118  1.00  0.00     0.074 A 
ATOM     59  C   UNL A   1      41.554  32.106  30.905  1.00  0.00     0.031 C 
ATOM     60  C   UNL A   1      42.661  30.578  32.659  1.00  0.00     0.037 A 
BRANCH  47  61
ATOM     61  C   UNL A   1      45.282  32.249  28.233  1.00  0.00     0.064 A 
ATOM     62  C   UNL A   1      44.159  33.067  27.988  1.00  0.00     0.173 A 
ATOM     63  C   UNL A   1      46.468  32.638  27.573  1.00  0.00     0.173 A 
ATOM     64  F   UNL A   1      42.975  32.792  28.556  1.00  0.00    -0.203 F 
ATOM     65  C   UNL A   1      44.198  34.125  27.076  1.00  0.00     0.198 A 
ATOM     66  C   UNL A   1      46.515  33.726  26.703  1.00  0.00     0.198 A 
ATOM     67  F   UNL A   1      47.597  31.925  27.647  1.00  0.00    -0.203 F 
ATOM     68  F   UNL A   1      43.071  34.782  26.773  1.00  0.00    -0.200 F 
ATOM     69  C   UNL A   1      45.374  34.446  26.426  1.00  0.00     0.200 A 
ATOM     70  F   UNL A   1      47.662  34.012  26.071  1.00  0.00    -0.200 F 
ATOM     71  F   UNL A   1      45.399  35.412  25.499  1.00  0.00    -0.200 F 
ENDBRANCH  47  61
BRANCH  48  72
ATOM     72  C   UNL A   1      37.153  31.203  30.610  1.00  0.00     0.064 A 
ATOM     73  C   UNL A   1      36.240  31.489  31.639  1.00  0.00     0.173 A 
ATOM     74  C   UNL A   1      36.875  31.780  29.353  1.00  0.00     0.173 A 
ATOM     75  F   UNL A   1      36.456  31.025  32.878  1.00  0.00    -0.203 F 
ATOM     76  C   UNL A   1      35.132  32.320  31.430  1.00  0.00     0.198 A 
ATOM     77  C   UNL A   1      35.768  32.604  29.146  1.00  0.00     0.198 A 
ATOM     78  F   UNL A   1      37.728  31.641  28.329  1.00  0.00    -0.203 F 
ATOM     79  F   UNL A   1      34.320  32.623  32.453  1.00  0.00    -0.200 F 
ATOM     80  C   UNL A   1      34.903  32.884  30.186  1.00  0.00     0.200 A 
ATOM     81  F   UNL A   1      35.587  33.183  27.949  1.00  0.00    -0.200 F 
ATOM     82  F   UNL A   1      33.883  33.733  30.002  1.00  0.00    -0.200 F 
ENDBRANCH  48  72
BRANCH  60  83
ATOM     83  C   UNL A   1      42.371  29.668  33.820  1.00  0.00     0.064 A 
ATOM     84  C   UNL A   1      41.892  28.351  33.696  1.00  0.00     0.173 A 
ATOM     85  C   UNL A   1      42.751  30.092  35.101  1.00  0.00     0.173 A 
ATOM     86  F   UNL A   1      41.603  27.830  32.498  1.00  0.00    -0.203 F 
ATOM     87  C   UNL A   1      41.764  27.518  34.808  1.00  0.00     0.198 A 
ATOM     88  C   UNL A   1      42.660  29.247  36.202  1.00  0.00     0.198 A 
ATOM     89  F   UNL A   1      43.266  31.320  35.274  1.00  0.00    -0.203 F 
ATOM     90  F   UNL A   1      41.298  26.269  34.663  1.00  0.00    -0.200 F 
ATOM     91  C   UNL A   1      42.157  27.965  36.058  1.00  0.00     0.200 A 
ATOM     92  F   UNL A   1      43.090  29.668  37.399  1.00  0.00    -0.200 F 
ATOM     93  F   UNL A   1      42.078  27.151  37.120  1.00  0.00    -0.200 F 
ENDBRANCH  60  83
ENDBRANCH  34  35
ENDBRANCH  26  29
ENDBRANCH  24  25
ENDBRANCH  23  24
ENDBRANCH  22  23
ENDBRANCH  21  22
ENDBRANCH   1  21
TORSDOF 17
ENDMDL
MODEL 3
REMARK VINA RESULT:     -11.5      2.028      3.848
REMARK SMILES CCCNC(=O)c1cnn([C@@H](C)C(=O)NCCCCCCNC(=O)c2ccc(-c3c4nc(c(-c5c(F)c(F)c(F)c(F)c5F)c5ccc([nH]5)c(-c5c(F)c(F)c(F)c(F)c5F)c5nc(c(-c6c(F)c(F)c(F)c(F)c6F)c6ccc3[nH]6)C=C5)C=C4)cc2)c1
REMARK SMILES IDX 17 1 16 2 15 3 13 4 14 5 11 7 12 8 10 9 7 10 8 11 88 12 9 13
REMARK SMILES IDX 5 14 4 15 6 17 3 18 2 19 1 20 18 21 19 22 20 23 21 24 22 25
REMARK SMILES IDX 23 26 24 28 25 29 26 30 87 31 27 32 86 33 28 34 29 35 30 36
REMARK SMILES IDX 80 37 31 38 85 39 79 40 81 41 32 42 84 43 78 44 77 45 33 47
REMARK SMILES IDX 65 48 45 49 64 50 46 51 49 52 63 53 82 54 47 55 48 56 62 58
REMARK SMILES IDX 83 59 50 60 34 61 35 62 43 63 36 64 37 65 41 66 44 67 38 68
REMARK SMILES IDX 39 69 42 70 40 71 66 72 67 73 75 74 68 75 69 76 73 77 76 78
REMARK SMILES IDX 70 79 71 80 74 81 72 82 51 83 52 84 60 85 53 86 54 87 58 88
REMARK SMILES IDX 61 89 55 90 56 91 59 92 57 93
REMARK H PARENT 15 6 4 16 22 27 81 46 49 57
REMARK Flexibility Score: inf
ROOT
ATOM      1  C   UNL A   1      33.963  27.125  25.277  1.00  0.00     0.021 C 
ENDROOT
BRANCH   1   2
ATOM      2  C   UNL A   1      33.949  25.593  25.252  1.00  0.00     0.116 C 
BRANCH   2   3
ATOM      3  N   UNL A   1      32.981  25.055  26.191  1.00  0.00    -0.354 N 
ATOM      4  C   UNL A   1      31.655  24.779  26.044  1.00  0.00     0.244 C 
ATOM      5  O   UNL A   1      31.045  24.452  27.071  1.00  0.00    -0.273 OA
ATOM      6  H   UNL A   1      33.344  24.856  27.084  1.00  0.00     0.163 HD
BRANCH   4   7
ATOM      7  C   UNL A   1      30.922  24.789  24.703  1.00  0.00     0.193 C 
ATOM      8  C   UNL A   1      31.368  23.675  23.758  1.00  0.00     0.044 C 
BRANCH   7   9
ATOM      9  N   UNL A   1      30.880  26.115  24.096  1.00  0.00    -0.260 N 
ATOM     10  C   UNL A   1      30.664  28.286  23.738  1.00  0.00     0.077 A 
ATOM     11  C   UNL A   1      31.198  27.599  22.635  1.00  0.00     0.149 A 
ATOM     12  C   UNL A   1      30.514  27.293  24.693  1.00  0.00     0.123 A 
ATOM     13  N   UNL A   1      31.186  26.281  22.798  1.00  0.00    -0.180 NA
BRANCH  10  14
ATOM     14  C   UNL A   1      30.407  29.701  23.906  1.00  0.00     0.254 C 
ATOM     15  N   UNL A   1      29.571  30.340  23.018  1.00  0.00    -0.352 N 
ATOM     16  H   UNL A   1      29.585  31.322  23.077  1.00  0.00     0.163 HD
ATOM     17  O   UNL A   1      30.904  30.348  24.819  1.00  0.00    -0.269 OA
BRANCH  15  18
ATOM     18  C   UNL A   1      28.673  29.804  22.006  1.00  0.00     0.116 C 
BRANCH  18  19
ATOM     19  C   UNL A   1      28.035  30.896  21.154  1.00  0.00     0.018 C 
ATOM     20  C   UNL A   1      28.281  32.288  21.709  1.00  0.00     0.006 C 
ENDBRANCH  18  19
ENDBRANCH  15  18
ENDBRANCH  10  14
ENDBRANCH   7   9
ENDBRANCH   4   7
ENDBRANCH   2   3
ENDBRANCH   1   2
BRANCH   1  21
ATOM     21  C   UNL A   1      33.619  27.729  26.640  1.00  0.00     0.002 C 
BRANCH  21  22
ATOM     22  C   UNL A   1      34.555  28.849  27.114  1.00  0.00     0.002 C 
BRANCH  22  23
ATOM     23  C   UNL A   1      33.900  30.222  27.331  1.00  0.00     0.021 C 
BRANCH  23  24
ATOM     24  C   UNL A   1      34.910  31.338  27.535  1.00  0.00     0.116 C 
BRANCH  24  25
ATOM     25  N   UNL A   1      34.622  32.121  28.733  1.00  0.00    -0.352 N 
ATOM     26  C   UNL A   1      35.139  31.965  30.000  1.00  0.00     0.251 C 
ATOM     27  H   UNL A   1      33.977  32.855  28.621  1.00  0.00     0.163 HD
ATOM     28  O   UNL A   1      34.580  32.448  30.974  1.00  0.00    -0.269 OA
BRANCH  26  29
ATOM     29  C   UNL A   1      36.389  31.205  30.164  1.00  0.00     0.039 A 
ATOM     30  C   UNL A   1      36.361  29.824  30.375  1.00  0.00     0.014 A 
ATOM     31  C   UNL A   1      37.600  31.895  30.106  1.00  0.00     0.014 A 
ATOM     32  C   UNL A   1      37.566  29.135  30.462  1.00  0.00     0.010 A 
ATOM     33  C   UNL A   1      38.782  31.201  30.054  1.00  0.00     0.010 A 
ATOM     34  C   UNL A   1      38.772  29.832  30.284  1.00  0.00    -0.014 A 
BRANCH  34  35
ATOM     35  C   UNL A   1      40.036  29.110  30.209  1.00  0.00     0.031 A 
ATOM     36  C   UNL A   1      40.688  28.884  31.530  1.00  0.00     0.074 A 
ATOM     37  C   UNL A   1      40.469  28.508  29.081  1.00  0.00     0.049 A 
ATOM     38  N   UNL A   1      41.835  29.325  31.927  1.00  0.00    -0.248 NA
ATOM     39  C   UNL A   1      39.920  28.196  32.583  1.00  0.00     0.031 C 
ATOM     40  C   UNL A   1      39.781  28.376  27.792  1.00  0.00     0.029 A 
ATOM     41  N   UNL A   1      41.603  27.783  28.883  1.00  0.00    -0.354 N 
ATOM     42  C   UNL A   1      42.022  28.823  33.214  1.00  0.00     0.074 A 
ATOM     43  C   UNL A   1      40.755  28.277  33.621  1.00  0.00     0.031 C 
ATOM     44  C   UNL A   1      40.392  27.427  27.047  1.00  0.00     0.029 A 
ATOM     45  C   UNL A   1      41.600  27.007  27.730  1.00  0.00     0.049 A 
ATOM     46  H   UNL A   1      42.363  27.807  29.507  1.00  0.00     0.167 HD
ATOM     47  C   UNL A   1      43.272  28.702  33.739  1.00  0.00     0.037 A 
ATOM     48  C   UNL A   1      42.510  26.055  27.399  1.00  0.00     0.037 A 
ATOM     49  C   UNL A   1      44.213  29.521  33.016  1.00  0.00     0.049 A 
ATOM     50  C   UNL A   1      43.731  26.316  28.208  1.00  0.00     0.074 A 
ATOM     51  C   UNL A   1      44.308  30.877  32.755  1.00  0.00     0.029 A 
ATOM     52  N   UNL A   1      45.032  28.914  32.094  1.00  0.00    -0.354 N 
ATOM     53  N   UNL A   1      44.490  27.365  28.048  1.00  0.00    -0.248 NA
ATOM     54  C   UNL A   1      43.814  25.675  29.512  1.00  0.00     0.031 C 
ATOM     55  C   UNL A   1      44.734  30.956  31.396  1.00  0.00     0.029 A 
ATOM     56  C   UNL A   1      44.963  29.657  30.944  1.00  0.00     0.049 A 
ATOM     57  H   UNL A   1      45.567  28.099  32.234  1.00  0.00     0.167 HD
ATOM     58  C   UNL A   1      44.797  27.774  29.337  1.00  0.00     0.074 A 
ATOM     59  C   UNL A   1      44.404  26.659  30.196  1.00  0.00     0.031 C 
ATOM     60  C   UNL A   1      45.060  29.083  29.622  1.00  0.00     0.037 A 
BRANCH  47  61
ATOM     61  C   UNL A   1      43.720  27.575  34.640  1.00  0.00     0.064 A 
ATOM     62  C   UNL A   1      44.244  27.886  35.913  1.00  0.00     0.173 A 
ATOM     63  C   UNL A   1      43.951  26.253  34.198  1.00  0.00     0.173 A 
ATOM     64  F   UNL A   1      44.092  29.112  36.434  1.00  0.00    -0.203 F 
ATOM     65  C   UNL A   1      45.026  26.979  36.633  1.00  0.00     0.198 A 
ATOM     66  C   UNL A   1      44.687  25.335  34.945  1.00  0.00     0.198 A 
ATOM     67  F   UNL A   1      43.579  25.827  32.987  1.00  0.00    -0.203 F 
ATOM     68  F   UNL A   1      45.618  27.369  37.769  1.00  0.00    -0.200 F 
ATOM     69  C   UNL A   1      45.255  25.707  36.143  1.00  0.00     0.200 A 
ATOM     70  F   UNL A   1      44.911  24.112  34.444  1.00  0.00    -0.200 F 
ATOM     71  F   UNL A   1      46.061  24.860  36.795  1.00  0.00    -0.200 F 
ENDBRANCH  47  61
BRANCH  48  72
ATOM     72  C   UNL A   1      42.271  24.759  26.716  1.00  0.00     0.064 A 
ATOM     73  C   UNL A   1      43.066  24.350  25.633  1.00  0.00     0.173 A 
ATOM     74  C   UNL A   1      41.445  23.770  27.291  1.00  0.00     0.173 A 
ATOM     75  F   UNL A   1      43.919  25.211  25.060  1.00  0.00    -0.203 F 
ATOM     76  C   UNL A   1      43.055  23.028  25.169  1.00  0.00     0.198 A 
ATOM     77  C   UNL A   1      41.432  22.454  26.825  1.00  0.00     0.198 A 
ATOM     78  F   UNL A   1      40.714  24.035  28.382  1.00  0.00    -0.203 F 
ATOM     79  F   UNL A   1      43.877  22.660  24.176  1.00  0.00    -0.200 F 
ATOM     80  C   UNL A   1      42.245  22.080  25.773  1.00  0.00     0.200 A 
ATOM     81  F   UNL A   1      40.681  21.537  27.451  1.00  0.00    -0.200 F 
ATOM     82  F   UNL A   1      42.284  20.801  25.375  1.00  0.00    -0.200 F 
ENDBRANCH  48  72
BRANCH  60  83
ATOM     83  C   UNL A   1      45.241  30.045  28.481  1.00  0.00     0.064 A 
ATOM     84  C   UNL A   1      44.194  30.759  27.870  1.00  0.00     0.173 A 
ATOM     85  C   UNL A   1      46.549  30.381  28.104  1.00  0.00     0.173 A 
ATOM     86  F   UNL A   1      42.922  30.574  28.243  1.00  0.00    -0.203 F 
ATOM     87  C   UNL A   1      44.446  31.730  26.901  1.00  0.00     0.198 A 
ATOM     88  C   UNL A   1      46.800  31.378  27.166  1.00  0.00     0.198 A 
ATOM     89  F   UNL A   1      47.593  29.774  28.692  1.00  0.00    -0.203 F 
ATOM     90  F   UNL A   1      43.429  32.389  26.328  1.00  0.00    -0.200 F 
ATOM     91  C   UNL A   1      45.750  32.044  26.557  1.00  0.00     0.200 A 
ATOM     92  F   UNL A   1      48.065  31.713  26.877  1.00  0.00    -0.200 F 
ATOM     93  F   UNL A   1      45.996  33.009  25.660  1.00  0.00    -0.200 F 
ENDBRANCH  60  83
ENDBRANCH  34  35
ENDBRANCH  26  29
ENDBRANCH  24  25
ENDBRANCH  23  24
ENDBRANCH  22  23
ENDBRANCH  21  22
ENDBRANCH   1  21
TORSDOF 17
ENDMDL
