MODEL 1
REMARK VINA RESULT:     -12.1      0.000      0.000
REMARK SMILES CC(C)N1C(=O)C[C@@H]([N@@H+]2CC[C@H](C(=O)NCCCCCCNC(=O)c3ccc(-c4c5nc(c(-c6c(F)c(F)c(F)c(F)c6F)c6ccc([nH]6)c(-c6c(F)c(F)c(F)c(F)c6F)c6nc(c(-c7c(F)c(F)c(F)c(F)c7F)c7ccc4[nH]7)C=C6)C=C5)cc3)[C@@H]2C)C1=O
REMARK SMILES IDX 18 1 17 2 16 3 15 4 13 5 14 6 12 8 9 9 10 10 88 11 11 13
REMARK SMILES IDX 89 14 8 15 4 16 5 17 90 18 6 19 7 20 91 21 2 22 1 23 3 24
REMARK SMILES IDX 19 25 20 26 21 27 22 28 23 29 24 31 25 32 26 33 87 34 27 35
REMARK SMILES IDX 86 36 28 37 29 38 30 39 80 40 31 41 85 42 79 43 81 44 32 45
REMARK SMILES IDX 84 46 78 47 77 48 33 50 65 51 45 52 64 53 46 54 49 55 63 56
REMARK SMILES IDX 82 57 47 58 48 59 62 61 83 62 50 63 34 64 35 65 43 66 36 67
REMARK SMILES IDX 37 68 41 69 44 70 38 71 39 72 42 73 40 74 66 75 67 76 75 77
REMARK SMILES IDX 68 78 69 79 73 80 76 81 70 82 71 83 74 84 72 85 51 86 52 87
REMARK SMILES IDX 60 88 53 89 54 90 58 91 61 92 55 93 56 94 59 95 57 96
REMARK H PARENT 15 7 9 12 22 30 81 49 49 60
REMARK Flexibility Score: inf
ROOT
ATOM      1  C   UNL A   1      31.793  29.948  25.101  1.00  0.00     0.002 C 
ENDROOT
BRANCH   1   2
ATOM      2  C   UNL A   1      30.506  29.705  24.305  1.00  0.00     0.021 C 
BRANCH   2   3
ATOM      3  C   UNL A   1      30.647  28.727  23.142  1.00  0.00     0.116 C 
BRANCH   3   4
ATOM      4  N   UNL A   1      30.493  27.352  23.572  1.00  0.00    -0.356 N 
ATOM      5  C   UNL A   1      31.428  26.397  23.831  1.00  0.00     0.229 C 
ATOM      6  O   UNL A   1      31.031  25.302  24.233  1.00  0.00    -0.275 OA
ATOM      7  H   UNL A   1      29.561  27.061  23.697  1.00  0.00     0.163 HD
BRANCH   5   8
ATOM      8  C   UNL A   1      32.902  26.695  23.599  1.00  0.00     0.142 C 
ATOM      9  N   UNL A   1      34.394  24.802  23.714  1.00  0.00    -0.321 N 
ATOM     10  C   UNL A   1      34.141  25.273  25.078  1.00  0.00     0.264 C 
ATOM     11  C   UNL A   1      33.623  25.625  22.762  1.00  0.00     0.194 C 
ATOM     12  H   UNL A   1      35.372  24.965  23.478  1.00  0.00     0.349 HD
ATOM     13  C   UNL A   1      33.660  26.701  24.922  1.00  0.00     0.081 C 
ATOM     14  C   UNL A   1      32.764  24.939  21.697  1.00  0.00     0.076 C 
BRANCH   9  15
ATOM     15  C   UNL A   1      34.408  23.341  23.537  1.00  0.00     0.284 C 
ATOM     16  N   UNL A   1      35.840  21.997  24.848  1.00  0.00    -0.275 N 
ATOM     17  C   UNL A   1      34.590  21.850  25.388  1.00  0.00     0.236 C 
ATOM     18  C   UNL A   1      35.817  22.774  23.718  1.00  0.00     0.288 C 
ATOM     19  O   UNL A   1      34.302  21.221  26.394  1.00  0.00    -0.274 OA
ATOM     20  C   UNL A   1      33.579  22.530  24.522  1.00  0.00     0.176 C 
ATOM     21  O   UNL A   1      36.754  23.015  22.968  1.00  0.00    -0.267 OA
BRANCH  16  22
ATOM     22  C   UNL A   1      37.006  21.343  25.455  1.00  0.00     0.087 C 
ATOM     23  C   UNL A   1      37.392  20.077  24.681  1.00  0.00     0.031 C 
ATOM     24  C   UNL A   1      38.239  22.230  25.631  1.00  0.00     0.031 C 
ENDBRANCH  16  22
ENDBRANCH   9  15
ENDBRANCH   5   8
ENDBRANCH   3   4
ENDBRANCH   2   3
ENDBRANCH   1   2
BRANCH   1  25
ATOM     25  C   UNL A   1      31.592  30.492  26.519  1.00  0.00     0.002 C 
BRANCH  25  26
ATOM     26  C   UNL A   1      31.481  32.014  26.622  1.00  0.00     0.021 C 
BRANCH  26  27
ATOM     27  C   UNL A   1      32.686  32.700  27.254  1.00  0.00     0.116 C 
BRANCH  27  28
ATOM     28  N   UNL A   1      32.416  34.089  27.589  1.00  0.00    -0.352 N 
ATOM     29  C   UNL A   1      32.975  34.872  28.569  1.00  0.00     0.251 C 
ATOM     30  H   UNL A   1      31.735  34.532  27.034  1.00  0.00     0.163 HD
ATOM     31  O   UNL A   1      32.494  35.969  28.833  1.00  0.00    -0.269 OA
BRANCH  29  32
ATOM     32  C   UNL A   1      34.146  34.380  29.325  1.00  0.00     0.039 A 
ATOM     33  C   UNL A   1      33.933  33.700  30.526  1.00  0.00     0.014 A 
ATOM     34  C   UNL A   1      35.446  34.585  28.854  1.00  0.00     0.014 A 
ATOM     35  C   UNL A   1      35.022  33.169  31.221  1.00  0.00     0.010 A 
ATOM     36  C   UNL A   1      36.521  33.989  29.507  1.00  0.00     0.010 A 
ATOM     37  C   UNL A   1      36.321  33.274  30.697  1.00  0.00    -0.014 A 
BRANCH  37  38
ATOM     38  C   UNL A   1      37.475  32.629  31.374  1.00  0.00     0.031 A 
ATOM     39  C   UNL A   1      38.169  31.455  30.740  1.00  0.00     0.074 A 
ATOM     40  C   UNL A   1      37.859  33.064  32.590  1.00  0.00     0.049 A 
ATOM     41  N   UNL A   1      39.151  30.723  31.206  1.00  0.00    -0.248 NA
ATOM     42  C   UNL A   1      37.682  31.031  29.418  1.00  0.00     0.031 C 
ATOM     43  C   UNL A   1      37.237  34.164  33.330  1.00  0.00     0.029 A 
ATOM     44  N   UNL A   1      38.860  32.630  33.426  1.00  0.00    -0.354 N 
ATOM     45  C   UNL A   1      39.389  29.752  30.243  1.00  0.00     0.074 A 
ATOM     46  C   UNL A   1      38.417  29.951  29.190  1.00  0.00     0.031 C 
ATOM     47  C   UNL A   1      37.879  34.331  34.496  1.00  0.00     0.029 A 
ATOM     48  C   UNL A   1      38.931  33.324  34.609  1.00  0.00     0.049 A 
ATOM     49  H   UNL A   1      39.468  31.890  33.198  1.00  0.00     0.167 HD
ATOM     50  C   UNL A   1      40.347  28.795  30.229  1.00  0.00     0.037 A 
ATOM     51  C   UNL A   1      39.740  33.158  35.672  1.00  0.00     0.037 A 
ATOM     52  C   UNL A   1      41.326  28.614  31.268  1.00  0.00     0.049 A 
ATOM     53  C   UNL A   1      40.782  32.071  35.636  1.00  0.00     0.074 A 
ATOM     54  C   UNL A   1      42.377  27.713  31.316  1.00  0.00     0.029 A 
ATOM     55  N   UNL A   1      41.373  29.343  32.448  1.00  0.00    -0.354 N 
ATOM     56  N   UNL A   1      41.048  31.208  34.685  1.00  0.00    -0.248 NA
ATOM     57  C   UNL A   1      41.643  31.939  36.819  1.00  0.00     0.031 C 
ATOM     58  C   UNL A   1      43.021  27.855  32.548  1.00  0.00     0.029 A 
ATOM     59  C   UNL A   1      42.415  28.890  33.241  1.00  0.00     0.049 A 
ATOM     60  H   UNL A   1      40.759  30.075  32.684  1.00  0.00     0.167 HD
ATOM     61  C   UNL A   1      42.122  30.456  35.140  1.00  0.00     0.074 A 
ATOM     62  C   UNL A   1      42.473  30.976  36.445  1.00  0.00     0.031 C 
ATOM     63  C   UNL A   1      42.760  29.424  34.534  1.00  0.00     0.037 A 
BRANCH  50  64
ATOM     64  C   UNL A   1      40.391  27.862  29.051  1.00  0.00     0.064 A 
ATOM     65  C   UNL A   1      39.622  26.689  29.012  1.00  0.00     0.173 A 
ATOM     66  C   UNL A   1      41.161  28.180  27.922  1.00  0.00     0.173 A 
ATOM     67  F   UNL A   1      38.878  26.333  30.070  1.00  0.00    -0.203 F 
ATOM     68  C   UNL A   1      39.640  25.858  27.895  1.00  0.00     0.198 A 
ATOM     69  C   UNL A   1      41.150  27.364  26.793  1.00  0.00     0.198 A 
ATOM     70  F   UNL A   1      41.909  29.293  27.904  1.00  0.00    -0.203 F 
ATOM     71  F   UNL A   1      38.929  24.721  27.896  1.00  0.00    -0.200 F 
ATOM     72  C   UNL A   1      40.394  26.201  26.783  1.00  0.00     0.200 A 
ATOM     73  F   UNL A   1      41.867  27.706  25.715  1.00  0.00    -0.200 F 
ATOM     74  F   UNL A   1      40.396  25.410  25.701  1.00  0.00    -0.200 F 
ENDBRANCH  50  64
BRANCH  51  75
ATOM     75  C   UNL A   1      39.605  34.038  36.864  1.00  0.00     0.064 A 
ATOM     76  C   UNL A   1      40.279  35.266  36.937  1.00  0.00     0.173 A 
ATOM     77  C   UNL A   1      38.828  33.657  37.968  1.00  0.00     0.173 A 
ATOM     78  F   UNL A   1      41.051  35.667  35.916  1.00  0.00    -0.203 F 
ATOM     79  C   UNL A   1      40.207  36.061  38.079  1.00  0.00     0.198 A 
ATOM     80  C   UNL A   1      38.728  34.470  39.095  1.00  0.00     0.198 A 
ATOM     81  F   UNL A   1      38.157  32.496  37.950  1.00  0.00    -0.203 F 
ATOM     82  F   UNL A   1      40.914  37.198  38.146  1.00  0.00    -0.200 F 
ATOM     83  C   UNL A   1      39.430  35.665  39.156  1.00  0.00     0.200 A 
ATOM     84  F   UNL A   1      37.961  34.090  40.126  1.00  0.00    -0.200 F 
ATOM     85  F   UNL A   1      39.364  36.427  40.255  1.00  0.00    -0.200 F 
ENDBRANCH  51  75
BRANCH  63  86
ATOM     86  C   UNL A   1      43.929  28.816  35.255  1.00  0.00     0.064 A 
ATOM     87  C   UNL A   1      43.771  27.755  36.158  1.00  0.00     0.173 A 
ATOM     88  C   UNL A   1      45.232  29.277  35.007  1.00  0.00     0.173 A 
ATOM     89  F   UNL A   1      42.546  27.286  36.441  1.00  0.00    -0.203 F 
ATOM     90  C   UNL A   1      44.869  27.200  36.810  1.00  0.00     0.198 A 
ATOM     91  C   UNL A   1      46.330  28.696  35.632  1.00  0.00     0.198 A 
ATOM     92  F   UNL A   1      45.441  30.284  34.145  1.00  0.00    -0.203 F 
ATOM     93  F   UNL A   1      44.688  26.224  37.711  1.00  0.00    -0.200 F 
ATOM     94  C   UNL A   1      46.147  27.664  36.540  1.00  0.00     0.200 A 
ATOM     95  F   UNL A   1      47.567  29.134  35.357  1.00  0.00    -0.200 F 
ATOM     96  F   UNL A   1      47.204  27.121  37.161  1.00  0.00    -0.200 F 
ENDBRANCH  63  86
ENDBRANCH  37  38
ENDBRANCH  29  32
ENDBRANCH  27  28
ENDBRANCH  26  27
ENDBRANCH  25  26
ENDBRANCH   1  25
TORSDOF 15
ENDMDL
MODEL 2
REMARK VINA RESULT:     -12.1      0.218      1.940
REMARK SMILES CC(C)N1C(=O)C[C@@H]([N@@H+]2CC[C@H](C(=O)NCCCCCCNC(=O)c3ccc(-c4c5nc(c(-c6c(F)c(F)c(F)c(F)c6F)c6ccc([nH]6)c(-c6c(F)c(F)c(F)c(F)c6F)c6nc(c(-c7c(F)c(F)c(F)c(F)c7F)c7ccc4[nH]7)C=C6)C=C5)cc3)[C@@H]2C)C1=O
REMARK SMILES IDX 18 1 17 2 16 3 15 4 13 5 14 6 12 8 9 9 10 10 88 11 11 13
REMARK SMILES IDX 89 14 8 15 4 16 5 17 90 18 6 19 7 20 91 21 2 22 1 23 3 24
REMARK SMILES IDX 19 25 20 26 21 27 22 28 23 29 24 31 25 32 26 33 87 34 27 35
REMARK SMILES IDX 86 36 28 37 29 38 30 39 80 40 31 41 85 42 79 43 81 44 32 45
REMARK SMILES IDX 84 46 78 47 77 48 33 50 65 51 45 52 64 53 46 54 49 55 63 56
REMARK SMILES IDX 82 57 47 58 48 59 62 61 83 62 50 63 34 64 35 65 43 66 36 67
REMARK SMILES IDX 37 68 41 69 44 70 38 71 39 72 42 73 40 74 66 75 67 76 75 77
REMARK SMILES IDX 68 78 69 79 73 80 76 81 70 82 71 83 74 84 72 85 51 86 52 87
REMARK SMILES IDX 60 88 53 89 54 90 58 91 61 92 55 93 56 94 59 95 57 96
REMARK H PARENT 15 7 9 12 22 30 81 49 49 60
REMARK Flexibility Score: inf
ROOT
ATOM      1  C   UNL A   1      31.720  30.006  25.133  1.00  0.00     0.002 C 
ENDROOT
BRANCH   1   2
ATOM      2  C   UNL A   1      30.508  29.757  24.228  1.00  0.00     0.021 C 
BRANCH   2   3
ATOM      3  C   UNL A   1      30.705  28.661  23.183  1.00  0.00     0.116 C 
BRANCH   3   4
ATOM      4  N   UNL A   1      30.540  27.338  23.752  1.00  0.00    -0.356 N 
ATOM      5  C   UNL A   1      31.469  26.415  24.126  1.00  0.00     0.229 C 
ATOM      6  O   UNL A   1      31.063  25.369  24.633  1.00  0.00    -0.275 OA
ATOM      7  H   UNL A   1      29.605  27.062  23.891  1.00  0.00     0.163 HD
BRANCH   5   8
ATOM      8  C   UNL A   1      32.947  26.687  23.889  1.00  0.00     0.142 C 
ATOM      9  N   UNL A   1      34.397  24.759  23.936  1.00  0.00    -0.321 N 
ATOM     10  C   UNL A   1      34.166  25.196  25.315  1.00  0.00     0.264 C 
ATOM     11  C   UNL A   1      33.637  25.626  23.015  1.00  0.00     0.194 C 
ATOM     12  H   UNL A   1      35.376  24.907  23.696  1.00  0.00     0.349 HD
ATOM     13  C   UNL A   1      33.716  26.639  25.204  1.00  0.00     0.081 C 
ATOM     14  C   UNL A   1      32.753  24.989  21.939  1.00  0.00     0.076 C 
BRANCH   9  15
ATOM     15  C   UNL A   1      34.377  23.303  23.718  1.00  0.00     0.284 C 
ATOM     16  N   UNL A   1      35.820  21.896  24.946  1.00  0.00    -0.275 N 
ATOM     17  C   UNL A   1      34.585  21.757  25.520  1.00  0.00     0.236 C 
ATOM     18  C   UNL A   1      35.779  22.705  23.840  1.00  0.00     0.288 C 
ATOM     19  O   UNL A   1      34.314  21.105  26.517  1.00  0.00    -0.274 OA
ATOM     20  C   UNL A   1      33.562  22.481  24.705  1.00  0.00     0.176 C 
ATOM     21  O   UNL A   1      36.698  22.950  23.069  1.00  0.00    -0.267 OA
BRANCH  16  22
ATOM     22  C   UNL A   1      36.991  21.202  25.499  1.00  0.00     0.087 C 
ATOM     23  C   UNL A   1      37.385  20.006  24.626  1.00  0.00     0.031 C 
ATOM     24  C   UNL A   1      38.218  22.081  25.747  1.00  0.00     0.031 C 
ENDBRANCH  16  22
ENDBRANCH   9  15
ENDBRANCH   5   8
ENDBRANCH   3   4
ENDBRANCH   2   3
ENDBRANCH   1   2
BRANCH   1  25
ATOM     25  C   UNL A   1      31.404  30.642  26.490  1.00  0.00     0.002 C 
BRANCH  25  26
ATOM     26  C   UNL A   1      31.422  32.172  26.510  1.00  0.00     0.021 C 
BRANCH  26  27
ATOM     27  C   UNL A   1      32.600  32.786  27.256  1.00  0.00     0.116 C 
BRANCH  27  28
ATOM     28  N   UNL A   1      32.375  34.183  27.588  1.00  0.00    -0.352 N 
ATOM     29  C   UNL A   1      32.970  34.954  28.556  1.00  0.00     0.251 C 
ATOM     30  H   UNL A   1      31.700  34.642  27.040  1.00  0.00     0.163 HD
ATOM     31  O   UNL A   1      32.525  36.066  28.822  1.00  0.00    -0.269 OA
BRANCH  29  32
ATOM     32  C   UNL A   1      34.137  34.432  29.298  1.00  0.00     0.039 A 
ATOM     33  C   UNL A   1      33.925  33.795  30.523  1.00  0.00     0.014 A 
ATOM     34  C   UNL A   1      35.433  34.567  28.791  1.00  0.00     0.014 A 
ATOM     35  C   UNL A   1      35.007  33.236  31.207  1.00  0.00     0.010 A 
ATOM     36  C   UNL A   1      36.498  33.943  29.436  1.00  0.00     0.010 A 
ATOM     37  C   UNL A   1      36.296  33.270  30.650  1.00  0.00    -0.014 A 
BRANCH  37  38
ATOM     38  C   UNL A   1      37.437  32.594  31.318  1.00  0.00     0.031 A 
ATOM     39  C   UNL A   1      38.124  31.431  30.656  1.00  0.00     0.074 A 
ATOM     40  C   UNL A   1      37.816  32.990  32.548  1.00  0.00     0.049 A 
ATOM     41  N   UNL A   1      39.095  30.676  31.109  1.00  0.00    -0.248 NA
ATOM     42  C   UNL A   1      37.644  31.049  29.318  1.00  0.00     0.031 C 
ATOM     43  C   UNL A   1      37.199  34.075  33.314  1.00  0.00     0.029 A 
ATOM     44  N   UNL A   1      38.805  32.521  33.379  1.00  0.00    -0.354 N 
ATOM     45  C   UNL A   1      39.331  29.729  30.120  1.00  0.00     0.074 A 
ATOM     46  C   UNL A   1      38.370  29.969  29.066  1.00  0.00     0.031 C 
ATOM     47  C   UNL A   1      37.833  34.202  34.489  1.00  0.00     0.029 A 
ATOM     48  C   UNL A   1      38.873  33.181  34.582  1.00  0.00     0.049 A 
ATOM     49  H   UNL A   1      39.407  31.782  33.135  1.00  0.00     0.167 HD
ATOM     50  C   UNL A   1      40.279  28.763  30.087  1.00  0.00     0.037 A 
ATOM     51  C   UNL A   1      39.672  32.976  35.647  1.00  0.00     0.037 A 
ATOM     52  C   UNL A   1      41.247  28.542  31.129  1.00  0.00     0.049 A 
ATOM     53  C   UNL A   1      40.703  31.880  35.588  1.00  0.00     0.074 A 
ATOM     54  C   UNL A   1      42.288  27.629  31.159  1.00  0.00     0.029 A 
ATOM     55  N   UNL A   1      41.292  29.237  32.329  1.00  0.00    -0.354 N 
ATOM     56  N   UNL A   1      40.967  31.042  34.615  1.00  0.00    -0.248 NA
ATOM     57  C   UNL A   1      41.552  31.705  36.774  1.00  0.00     0.031 C 
ATOM     58  C   UNL A   1      42.923  27.729  32.400  1.00  0.00     0.029 A 
ATOM     59  C   UNL A   1      42.323  28.750  33.118  1.00  0.00     0.049 A 
ATOM     60  H   UNL A   1      40.683  29.968  32.581  1.00  0.00     0.167 HD
ATOM     61  C   UNL A   1      42.030  30.265  35.058  1.00  0.00     0.074 A 
ATOM     62  C   UNL A   1      42.375  30.745  36.379  1.00  0.00     0.031 C 
ATOM     63  C   UNL A   1      42.662  29.244  34.427  1.00  0.00     0.037 A 
BRANCH  50  64
ATOM     64  C   UNL A   1      40.323  27.863  28.884  1.00  0.00     0.064 A 
ATOM     65  C   UNL A   1      41.089  28.184  27.753  1.00  0.00     0.173 A 
ATOM     66  C   UNL A   1      39.645  26.635  28.891  1.00  0.00     0.173 A 
ATOM     67  F   UNL A   1      41.748  29.351  27.691  1.00  0.00    -0.203 F 
ATOM     68  C   UNL A   1      41.157  27.317  26.665  1.00  0.00     0.198 A 
ATOM     69  C   UNL A   1      39.742  25.756  27.814  1.00  0.00     0.198 A 
ATOM     70  F   UNL A   1      38.904  26.276  29.949  1.00  0.00    -0.203 F 
ATOM     71  F   UNL A   1      41.862  27.663  25.578  1.00  0.00    -0.200 F 
ATOM     72  C   UNL A   1      40.493  26.100  26.701  1.00  0.00     0.200 A 
ATOM     73  F   UNL A   1      39.113  24.574  27.858  1.00  0.00    -0.200 F 
ATOM     74  F   UNL A   1      40.574  25.260  25.660  1.00  0.00    -0.200 F 
ENDBRANCH  50  64
BRANCH  51  75
ATOM     75  C   UNL A   1      39.536  33.824  36.862  1.00  0.00     0.064 A 
ATOM     76  C   UNL A   1      38.761  33.405  37.954  1.00  0.00     0.173 A 
ATOM     77  C   UNL A   1      40.149  35.082  36.946  1.00  0.00     0.173 A 
ATOM     78  F   UNL A   1      38.138  32.217  37.916  1.00  0.00    -0.203 F 
ATOM     79  C   UNL A   1      38.578  34.225  39.065  1.00  0.00     0.198 A 
ATOM     80  C   UNL A   1      39.995  35.887  38.073  1.00  0.00     0.198 A 
ATOM     81  F   UNL A   1      40.906  35.531  35.934  1.00  0.00    -0.203 F 
ATOM     82  F   UNL A   1      37.780  33.826  40.065  1.00  0.00    -0.200 F 
ATOM     83  C   UNL A   1      39.197  35.464  39.126  1.00  0.00     0.200 A 
ATOM     84  F   UNL A   1      40.609  37.075  38.134  1.00  0.00    -0.200 F 
ATOM     85  F   UNL A   1      39.018  36.254  40.193  1.00  0.00    -0.200 F 
ENDBRANCH  51  75
BRANCH  63  86
ATOM     86  C   UNL A   1      43.819  28.603  35.140  1.00  0.00     0.064 A 
ATOM     87  C   UNL A   1      45.128  29.086  35.009  1.00  0.00     0.173 A 
ATOM     88  C   UNL A   1      43.605  27.514  36.000  1.00  0.00     0.173 A 
ATOM     89  F   UNL A   1      45.389  30.116  34.190  1.00  0.00    -0.203 F 
ATOM     90  C   UNL A   1      46.185  28.483  35.685  1.00  0.00     0.198 A 
ATOM     91  C   UNL A   1      44.658  26.936  36.702  1.00  0.00     0.198 A 
ATOM     92  F   UNL A   1      42.370  27.017  36.169  1.00  0.00    -0.203 F 
ATOM     93  F   UNL A   1      47.437  28.927  35.501  1.00  0.00    -0.200 F 
ATOM     94  C   UNL A   1      45.948  27.416  36.538  1.00  0.00     0.200 A 
ATOM     95  F   UNL A   1      44.424  25.916  37.539  1.00  0.00    -0.200 F 
ATOM     96  F   UNL A   1      46.966  26.842  37.196  1.00  0.00    -0.200 F 
ENDBRANCH  63  86
ENDBRANCH  37  38
ENDBRANCH  29  32
ENDBRANCH  27  28
ENDBRANCH  26  27
ENDBRANCH  25  26
ENDBRANCH   1  25
TORSDOF 15
ENDMDL
MODEL 3
REMARK VINA RESULT:     -12.0      5.361     11.193
REMARK SMILES CC(C)N1C(=O)C[C@@H]([N@@H+]2CC[C@H](C(=O)NCCCCCCNC(=O)c3ccc(-c4c5nc(c(-c6c(F)c(F)c(F)c(F)c6F)c6ccc([nH]6)c(-c6c(F)c(F)c(F)c(F)c6F)c6nc(c(-c7c(F)c(F)c(F)c(F)c7F)c7ccc4[nH]7)C=C6)C=C5)cc3)[C@@H]2C)C1=O
REMARK SMILES IDX 18 1 17 2 16 3 15 4 13 5 14 6 12 8 9 9 10 10 88 11 11 13
REMARK SMILES IDX 89 14 8 15 4 16 5 17 90 18 6 19 7 20 91 21 2 22 1 23 3 24
REMARK SMILES IDX 19 25 20 26 21 27 22 28 23 29 24 31 25 32 26 33 87 34 27 35
REMARK SMILES IDX 86 36 28 37 29 38 30 39 80 40 31 41 85 42 79 43 81 44 32 45
REMARK SMILES IDX 84 46 78 47 77 48 33 50 65 51 45 52 64 53 46 54 49 55 63 56
REMARK SMILES IDX 82 57 47 58 48 59 62 61 83 62 50 63 34 64 35 65 43 66 36 67
REMARK SMILES IDX 37 68 41 69 44 70 38 71 39 72 42 73 40 74 66 75 67 76 75 77
REMARK SMILES IDX 68 78 69 79 73 80 76 81 70 82 71 83 74 84 72 85 51 86 52 87
REMARK SMILES IDX 60 88 53 89 54 90 58 91 61 92 55 93 56 94 59 95 57 96
REMARK H PARENT 15 7 9 12 22 30 81 49 49 60
REMARK Flexibility Score: inf
ROOT
ATOM      1  C   UNL A   1      35.793  20.847  25.302  1.00  0.00     0.002 C 
ENDROOT
BRANCH   1   2
ATOM      2  C   UNL A   1      34.691  19.958  24.715  1.00  0.00     0.021 C 
BRANCH   2   3
ATOM      3  C   UNL A   1      33.298  20.204  25.290  1.00  0.00     0.116 C 
BRANCH   3   4
ATOM      4  N   UNL A   1      32.573  21.207  24.536  1.00  0.00    -0.356 N 
ATOM      5  C   UNL A   1      32.324  22.516  24.819  1.00  0.00     0.229 C 
ATOM      6  O   UNL A   1      31.713  23.176  23.978  1.00  0.00    -0.275 OA
ATOM      7  H   UNL A   1      32.202  20.893  23.680  1.00  0.00     0.163 HD
BRANCH   5   8
ATOM      8  C   UNL A   1      32.775  23.104  26.148  1.00  0.00     0.142 C 
ATOM      9  N   UNL A   1      32.260  25.434  26.501  1.00  0.00    -0.321 N 
ATOM     10  C   UNL A   1      33.489  25.349  25.708  1.00  0.00     0.264 C 
ATOM     11  C   UNL A   1      31.757  24.074  26.770  1.00  0.00     0.194 C 
ATOM     12  H   UNL A   1      32.477  25.826  27.416  1.00  0.00     0.349 HD
ATOM     13  C   UNL A   1      34.026  23.954  25.958  1.00  0.00     0.081 C 
ATOM     14  C   UNL A   1      30.287  23.746  26.492  1.00  0.00     0.076 C 
BRANCH   9  15
ATOM     15  C   UNL A   1      31.304  26.474  26.083  1.00  0.00     0.284 C 
ATOM     16  N   UNL A   1      32.006  28.718  25.868  1.00  0.00    -0.275 N 
ATOM     17  C   UNL A   1      31.924  28.227  24.592  1.00  0.00     0.236 C 
ATOM     18  C   UNL A   1      31.582  27.800  26.794  1.00  0.00     0.288 C 
ATOM     19  O   UNL A   1      32.236  28.812  23.566  1.00  0.00    -0.274 OA
ATOM     20  C   UNL A   1      31.322  26.859  24.612  1.00  0.00     0.176 C 
ATOM     21  O   UNL A   1      31.457  27.970  28.000  1.00  0.00    -0.267 OA
BRANCH  16  22
ATOM     22  C   UNL A   1      32.477  30.086  26.122  1.00  0.00     0.087 C 
ATOM     23  C   UNL A   1      31.301  31.035  26.377  1.00  0.00     0.031 C 
ATOM     24  C   UNL A   1      33.503  30.229  27.247  1.00  0.00     0.031 C 
ENDBRANCH  16  22
ENDBRANCH   9  15
ENDBRANCH   5   8
ENDBRANCH   3   4
ENDBRANCH   2   3
ENDBRANCH   1   2
BRANCH   1  25
ATOM     25  C   UNL A   1      37.140  20.785  24.574  1.00  0.00     0.002 C 
BRANCH  25  26
ATOM     26  C   UNL A   1      38.070  19.655  25.022  1.00  0.00     0.021 C 
BRANCH  26  27
ATOM     27  C   UNL A   1      39.278  20.107  25.833  1.00  0.00     0.116 C 
BRANCH  27  28
ATOM     28  N   UNL A   1      40.292  19.071  25.936  1.00  0.00    -0.352 N 
ATOM     29  C   UNL A   1      41.649  19.195  26.109  1.00  0.00     0.251 C 
ATOM     30  H   UNL A   1      39.958  18.148  25.873  1.00  0.00     0.163 HD
ATOM     31  O   UNL A   1      42.379  18.217  25.986  1.00  0.00    -0.269 OA
BRANCH  29  32
ATOM     32  C   UNL A   1      42.233  20.516  26.420  1.00  0.00     0.039 A 
ATOM     33  C   UNL A   1      42.746  21.288  25.375  1.00  0.00     0.014 A 
ATOM     34  C   UNL A   1      42.273  20.995  27.733  1.00  0.00     0.014 A 
ATOM     35  C   UNL A   1      43.241  22.566  25.639  1.00  0.00     0.010 A 
ATOM     36  C   UNL A   1      42.695  22.299  27.982  1.00  0.00     0.010 A 
ATOM     37  C   UNL A   1      43.183  23.099  26.937  1.00  0.00    -0.014 A 
BRANCH  37  38
ATOM     38  C   UNL A   1      43.614  24.493  27.215  1.00  0.00     0.031 A 
ATOM     39  C   UNL A   1      42.619  25.514  27.695  1.00  0.00     0.074 A 
ATOM     40  C   UNL A   1      44.890  24.854  26.976  1.00  0.00     0.049 A 
ATOM     41  N   UNL A   1      42.792  26.791  27.930  1.00  0.00    -0.248 NA
ATOM     42  C   UNL A   1      41.243  25.046  27.920  1.00  0.00     0.031 C 
ATOM     43  C   UNL A   1      45.937  23.967  26.465  1.00  0.00     0.029 A 
ATOM     44  N   UNL A   1      45.524  26.064  27.120  1.00  0.00    -0.354 N 
ATOM     45  C   UNL A   1      41.551  27.277  28.318  1.00  0.00     0.074 A 
ATOM     46  C   UNL A   1      40.620  26.173  28.236  1.00  0.00     0.031 C 
ATOM     47  C   UNL A   1      47.084  24.654  26.359  1.00  0.00     0.029 A 
ATOM     48  C   UNL A   1      46.847  26.041  26.749  1.00  0.00     0.049 A 
ATOM     49  H   UNL A   1      45.072  26.871  27.456  1.00  0.00     0.167 HD
ATOM     50  C   UNL A   1      41.223  28.525  28.726  1.00  0.00     0.037 A 
ATOM     51  C   UNL A   1      47.760  27.029  26.713  1.00  0.00     0.037 A 
ATOM     52  C   UNL A   1      42.157  29.616  28.826  1.00  0.00     0.049 A 
ATOM     53  C   UNL A   1      47.361  28.413  27.153  1.00  0.00     0.074 A 
ATOM     54  C   UNL A   1      41.935  30.902  29.289  1.00  0.00     0.029 A 
ATOM     55  N   UNL A   1      43.492  29.553  28.452  1.00  0.00    -0.354 N 
ATOM     56  N   UNL A   1      46.201  28.841  27.592  1.00  0.00    -0.248 NA
ATOM     57  C   UNL A   1      48.399  29.451  27.100  1.00  0.00     0.031 C 
ATOM     58  C   UNL A   1      43.116  31.633  29.138  1.00  0.00     0.029 A 
ATOM     59  C   UNL A   1      44.095  30.786  28.644  1.00  0.00     0.049 A 
ATOM     60  H   UNL A   1      43.943  28.750  28.103  1.00  0.00     0.167 HD
ATOM     61  C   UNL A   1      46.379  30.184  27.895  1.00  0.00     0.074 A 
ATOM     62  C   UNL A   1      47.764  30.496  27.610  1.00  0.00     0.031 C 
ATOM     63  C   UNL A   1      45.477  31.080  28.366  1.00  0.00     0.037 A 
BRANCH  50  64
ATOM     64  C   UNL A   1      39.791  28.790  29.099  1.00  0.00     0.064 A 
ATOM     65  C   UNL A   1      39.330  28.623  30.414  1.00  0.00     0.173 A 
ATOM     66  C   UNL A   1      38.888  29.282  28.144  1.00  0.00     0.173 A 
ATOM     67  F   UNL A   1      40.150  28.145  31.362  1.00  0.00    -0.203 F 
ATOM     68  C   UNL A   1      38.012  28.917  30.753  1.00  0.00     0.198 A 
ATOM     69  C   UNL A   1      37.579  29.606  28.495  1.00  0.00     0.198 A 
ATOM     70  F   UNL A   1      39.278  29.467  26.875  1.00  0.00    -0.203 F 
ATOM     71  F   UNL A   1      37.582  28.710  32.006  1.00  0.00    -0.200 F 
ATOM     72  C   UNL A   1      37.141  29.418  29.797  1.00  0.00     0.200 A 
ATOM     73  F   UNL A   1      36.745  30.105  27.573  1.00  0.00    -0.200 F 
ATOM     74  F   UNL A   1      35.878  29.717  30.129  1.00  0.00    -0.200 F 
ENDBRANCH  50  64
BRANCH  51  75
ATOM     75  C   UNL A   1      49.146  26.754  26.245  1.00  0.00     0.064 A 
ATOM     76  C   UNL A   1      49.501  26.919  24.898  1.00  0.00     0.173 A 
ATOM     77  C   UNL A   1      50.134  26.290  27.125  1.00  0.00     0.173 A 
ATOM     78  F   UNL A   1      48.587  27.342  24.012  1.00  0.00    -0.203 F 
ATOM     79  C   UNL A   1      50.779  26.598  24.445  1.00  0.00     0.198 A 
ATOM     80  C   UNL A   1      51.422  26.004  26.678  1.00  0.00     0.198 A 
ATOM     81  F   UNL A   1      49.851  26.120  28.425  1.00  0.00    -0.203 F 
ATOM     82  F   UNL A   1      51.071  26.704  23.141  1.00  0.00    -0.200 F 
ATOM     83  C   UNL A   1      51.740  26.144  25.335  1.00  0.00     0.200 A 
ATOM     84  F   UNL A   1      52.352  25.582  27.545  1.00  0.00    -0.200 F 
ATOM     85  F   UNL A   1      52.968  25.833  24.899  1.00  0.00    -0.200 F 
ENDBRANCH  51  75
BRANCH  63  86
ATOM     86  C   UNL A   1      45.967  32.473  28.642  1.00  0.00     0.064 A 
ATOM     87  C   UNL A   1      46.502  32.836  29.887  1.00  0.00     0.173 A 
ATOM     88  C   UNL A   1      45.937  33.447  27.632  1.00  0.00     0.173 A 
ATOM     89  F   UNL A   1      46.541  31.946  30.890  1.00  0.00    -0.203 F 
ATOM     90  C   UNL A   1      46.959  34.130  30.120  1.00  0.00     0.198 A 
ATOM     91  C   UNL A   1      46.427  34.730  27.857  1.00  0.00     0.198 A 
ATOM     92  F   UNL A   1      45.443  33.152  26.420  1.00  0.00    -0.203 F 
ATOM     93  F   UNL A   1      47.415  34.469  31.334  1.00  0.00    -0.200 F 
ATOM     94  C   UNL A   1      46.930  35.073  29.103  1.00  0.00     0.200 A 
ATOM     95  F   UNL A   1      46.414  35.634  26.868  1.00  0.00    -0.200 F 
ATOM     96  F   UNL A   1      47.379  36.316  29.327  1.00  0.00    -0.200 F 
ENDBRANCH  63  86
ENDBRANCH  37  38
ENDBRANCH  29  32
ENDBRANCH  27  28
ENDBRANCH  26  27
ENDBRANCH  25  26
ENDBRANCH   1  25
TORSDOF 15
ENDMDL
