MODEL 1
REMARK VINA RESULT:     -12.9      0.000      0.000
REMARK SMILES CC1(C)[C@H](C(=O)Nc2ccc(C(F)(F)F)nc2)[C@@H]1C(=O)NCCCCCCNC(=O)c1ccc(-c2c3nc(c(-c4c(F)c(F)c(F)c(F)c4F)c4ccc([nH]4)c(-c4c(F)c(F)c(F)c(F)c4F)c4nc(c(-c5c(F)c(F)c(F)c(F)c5F)c5ccc2[nH]5)C=C4)C=C3)cc1
REMARK SMILES IDX 24 1 23 2 22 3 21 4 19 5 20 6 18 8 1 9 2 10 3 11 4 12 5 13
REMARK SMILES IDX 6 14 7 15 8 17 9 18 17 19 10 20 16 21 11 22 12 23 13 24
REMARK SMILES IDX 14 25 15 26 25 27 26 28 27 29 28 30 29 31 30 33 31 34 32 35
REMARK SMILES IDX 93 36 33 37 92 38 34 39 35 40 36 41 86 42 37 43 91 44 85 45
REMARK SMILES IDX 87 46 38 47 90 48 84 49 83 50 39 52 71 53 51 54 70 55 52 56
REMARK SMILES IDX 55 57 69 58 88 59 53 60 54 61 68 63 89 64 56 65 40 66 41 67
REMARK SMILES IDX 49 68 42 69 43 70 47 71 50 72 44 73 45 74 48 75 46 76 72 77
REMARK SMILES IDX 73 78 81 79 74 80 75 81 79 82 82 83 76 84 77 85 80 86 78 87
REMARK SMILES IDX 57 88 58 89 66 90 59 91 60 92 64 93 67 94 61 95 62 96 65 97
REMARK SMILES IDX 63 98
REMARK H PARENT 21 7 7 16 28 32 87 51 55 62
REMARK Flexibility Score: inf
ROOT
ATOM      1  C   UNL A   1      32.184  29.631  27.095  1.00  0.00     0.002 C 
ENDROOT
BRANCH   1   2
ATOM      2  C   UNL A   1      33.682  29.325  26.987  1.00  0.00     0.021 C 
BRANCH   2   3
ATOM      3  C   UNL A   1      34.040  28.057  26.220  1.00  0.00     0.116 C 
BRANCH   3   4
ATOM      4  N   UNL A   1      32.883  27.352  25.705  1.00  0.00    -0.356 N 
ATOM      5  C   UNL A   1      32.667  25.999  25.692  1.00  0.00     0.224 C 
ATOM      6  O   UNL A   1      31.628  25.540  25.227  1.00  0.00    -0.275 OA
ATOM      7  H   UNL A   1      32.170  27.911  25.321  1.00  0.00     0.163 HD
BRANCH   5   8
ATOM      8  C   UNL A   1      33.769  25.121  26.132  1.00  0.00     0.098 C 
ATOM      9  C   UNL A   1      35.969  23.877  25.478  1.00  0.00     0.013 C 
ATOM     10  C   UNL A   1      34.473  24.059  25.274  1.00  0.00    -0.011 C 
ATOM     11  C   UNL A   1      34.100  23.839  23.841  1.00  0.00     0.013 C 
ATOM     12  C   UNL A   1      33.619  23.659  26.464  1.00  0.00     0.098 C 
BRANCH  12  13
ATOM     13  C   UNL A   1      32.372  22.840  26.626  1.00  0.00     0.228 C 
ATOM     14  O   UNL A   1      31.564  23.262  27.458  1.00  0.00    -0.274 OA
ATOM     15  N   UNL A   1      31.885  21.891  25.760  1.00  0.00    -0.324 N 
ATOM     16  H   UNL A   1      30.923  21.975  25.570  1.00  0.00     0.169 HD
BRANCH  15  17
ATOM     17  C   UNL A   1      32.505  20.833  25.101  1.00  0.00     0.059 A 
ATOM     18  C   UNL A   1      32.077  20.373  23.873  1.00  0.00     0.030 A 
ATOM     19  C   UNL A   1      33.643  20.248  25.634  1.00  0.00     0.137 A 
ATOM     20  C   UNL A   1      32.610  19.190  23.365  1.00  0.00     0.035 A 
ATOM     21  N   UNL A   1      34.187  19.100  25.177  1.00  0.00    -0.250 NA
ATOM     22  C   UNL A   1      33.595  18.521  24.093  1.00  0.00     0.144 A 
BRANCH  22  23
ATOM     23  C   UNL A   1      33.990  17.108  23.689  1.00  0.00     0.433 C 
ATOM     24  F   UNL A   1      33.010  16.194  23.937  1.00  0.00    -0.165 F 
ATOM     25  F   UNL A   1      34.299  16.982  22.367  1.00  0.00    -0.165 F 
ATOM     26  F   UNL A   1      35.090  16.652  24.363  1.00  0.00    -0.165 F 
ENDBRANCH  22  23
ENDBRANCH  15  17
ENDBRANCH  12  13
ENDBRANCH   5   8
ENDBRANCH   3   4
ENDBRANCH   2   3
ENDBRANCH   1   2
BRANCH   1  27
ATOM     27  C   UNL A   1      31.648  30.724  26.167  1.00  0.00     0.002 C 
BRANCH  27  28
ATOM     28  C   UNL A   1      31.385  32.085  26.807  1.00  0.00     0.021 C 
BRANCH  28  29
ATOM     29  C   UNL A   1      32.628  32.810  27.303  1.00  0.00     0.116 C 
BRANCH  29  30
ATOM     30  N   UNL A   1      32.372  34.203  27.626  1.00  0.00    -0.352 N 
ATOM     31  C   UNL A   1      32.970  35.002  28.568  1.00  0.00     0.251 C 
ATOM     32  H   UNL A   1      31.669  34.638  27.090  1.00  0.00     0.163 HD
ATOM     33  O   UNL A   1      32.523  36.119  28.807  1.00  0.00    -0.269 OA
BRANCH  31  34
ATOM     34  C   UNL A   1      34.139  34.500  29.319  1.00  0.00     0.039 A 
ATOM     35  C   UNL A   1      33.935  33.916  30.572  1.00  0.00     0.014 A 
ATOM     36  C   UNL A   1      35.428  34.590  28.787  1.00  0.00     0.014 A 
ATOM     37  C   UNL A   1      35.015  33.361  31.259  1.00  0.00     0.010 A 
ATOM     38  C   UNL A   1      36.488  33.961  29.433  1.00  0.00     0.010 A 
ATOM     39  C   UNL A   1      36.294  33.342  30.677  1.00  0.00    -0.014 A 
BRANCH  39  40
ATOM     40  C   UNL A   1      37.438  32.678  31.351  1.00  0.00     0.031 A 
ATOM     41  C   UNL A   1      38.120  31.507  30.701  1.00  0.00     0.074 A 
ATOM     42  C   UNL A   1      37.819  33.089  32.575  1.00  0.00     0.049 A 
ATOM     43  N   UNL A   1      39.087  30.753  31.159  1.00  0.00    -0.248 NA
ATOM     44  C   UNL A   1      37.632  31.112  29.370  1.00  0.00     0.031 C 
ATOM     45  C   UNL A   1      37.207  34.186  33.327  1.00  0.00     0.029 A 
ATOM     46  N   UNL A   1      38.807  32.627  33.409  1.00  0.00    -0.354 N 
ATOM     47  C   UNL A   1      39.314  29.794  30.181  1.00  0.00     0.074 A 
ATOM     48  C   UNL A   1      38.343  30.021  29.132  1.00  0.00     0.031 C 
ATOM     49  C   UNL A   1      37.849  34.327  34.498  1.00  0.00     0.029 A 
ATOM     50  C   UNL A   1      38.886  33.306  34.600  1.00  0.00     0.049 A 
ATOM     51  H   UNL A   1      39.404  31.879  33.174  1.00  0.00     0.167 HD
ATOM     52  C   UNL A   1      40.262  28.827  30.149  1.00  0.00     0.037 A 
ATOM     53  C   UNL A   1      39.694  33.116  35.660  1.00  0.00     0.037 A 
ATOM     54  C   UNL A   1      41.233  28.615  31.189  1.00  0.00     0.049 A 
ATOM     55  C   UNL A   1      40.719  32.015  35.611  1.00  0.00     0.074 A 
ATOM     56  C   UNL A   1      42.269  27.697  31.228  1.00  0.00     0.029 A 
ATOM     57  N   UNL A   1      41.284  29.324  32.381  1.00  0.00    -0.354 N 
ATOM     58  N   UNL A   1      40.973  31.160  34.651  1.00  0.00    -0.248 NA
ATOM     59  C   UNL A   1      41.576  31.857  36.795  1.00  0.00     0.031 C 
ATOM     60  C   UNL A   1      42.907  27.811  32.468  1.00  0.00     0.029 A 
ATOM     61  C   UNL A   1      42.314  28.844  33.175  1.00  0.00     0.049 A 
ATOM     62  H   UNL A   1      40.678  30.060  32.626  1.00  0.00     0.167 HD
ATOM     63  C   UNL A   1      42.034  30.384  35.099  1.00  0.00     0.074 A 
ATOM     64  C   UNL A   1      42.388  30.883  36.411  1.00  0.00     0.031 C 
ATOM     65  C   UNL A   1      42.660  29.355  34.478  1.00  0.00     0.037 A 
BRANCH  52  66
ATOM     66  C   UNL A   1      40.292  27.922  28.949  1.00  0.00     0.064 A 
ATOM     67  C   UNL A   1      41.038  28.238  27.804  1.00  0.00     0.173 A 
ATOM     68  C   UNL A   1      39.589  26.706  28.957  1.00  0.00     0.173 A 
ATOM     69  F   UNL A   1      41.720  29.392  27.739  1.00  0.00    -0.203 F 
ATOM     70  C   UNL A   1      41.052  27.390  26.699  1.00  0.00     0.198 A 
ATOM     71  C   UNL A   1      39.636  25.844  27.865  1.00  0.00     0.198 A 
ATOM     72  F   UNL A   1      38.864  26.350  30.027  1.00  0.00    -0.203 F 
ATOM     73  F   UNL A   1      41.726  27.742  25.595  1.00  0.00    -0.200 F 
ATOM     74  C   UNL A   1      40.358  26.190  26.732  1.00  0.00     0.200 A 
ATOM     75  F   UNL A   1      38.976  24.678  27.906  1.00  0.00    -0.200 F 
ATOM     76  F   UNL A   1      40.379  25.372  25.672  1.00  0.00    -0.200 F 
ENDBRANCH  52  66
BRANCH  53  77
ATOM     77  C   UNL A   1      39.580  34.000  36.851  1.00  0.00     0.064 A 
ATOM     78  C   UNL A   1      40.240  35.236  36.897  1.00  0.00     0.173 A 
ATOM     79  C   UNL A   1      38.816  33.628  37.967  1.00  0.00     0.173 A 
ATOM     80  F   UNL A   1      40.999  35.628  35.863  1.00  0.00    -0.203 F 
ATOM     81  C   UNL A   1      40.163  36.053  38.023  1.00  0.00     0.198 A 
ATOM     82  C   UNL A   1      38.712  34.461  39.080  1.00  0.00     0.198 A 
ATOM     83  F   UNL A   1      38.159  32.459  37.973  1.00  0.00    -0.203 F 
ATOM     84  F   UNL A   1      40.847  37.205  38.060  1.00  0.00    -0.200 F 
ATOM     85  C   UNL A   1      39.393  35.669  39.110  1.00  0.00     0.200 A 
ATOM     86  F   UNL A   1      37.954  34.094  40.121  1.00  0.00    -0.200 F 
ATOM     87  F   UNL A   1      39.315  36.457  40.191  1.00  0.00    -0.200 F 
ENDBRANCH  53  77
BRANCH  65  88
ATOM     88  C   UNL A   1      43.820  28.720  35.191  1.00  0.00     0.064 A 
ATOM     89  C   UNL A   1      45.134  29.177  35.020  1.00  0.00     0.173 A 
ATOM     90  C   UNL A   1      43.605  27.666  36.093  1.00  0.00     0.173 A 
ATOM     91  F   UNL A   1      45.397  30.172  34.159  1.00  0.00    -0.203 F 
ATOM     92  C   UNL A   1      46.194  28.584  35.704  1.00  0.00     0.198 A 
ATOM     93  C   UNL A   1      44.660  27.099  36.801  1.00  0.00     0.198 A 
ATOM     94  F   UNL A   1      42.365  27.194  36.300  1.00  0.00    -0.203 F 
ATOM     95  F   UNL A   1      47.448  29.004  35.485  1.00  0.00    -0.200 F 
ATOM     96  C   UNL A   1      45.955  27.554  36.600  1.00  0.00     0.200 A 
ATOM     97  F   UNL A   1      44.425  26.116  37.680  1.00  0.00    -0.200 F 
ATOM     98  F   UNL A   1      46.974  26.992  37.265  1.00  0.00    -0.200 F 
ENDBRANCH  65  88
ENDBRANCH  39  40
ENDBRANCH  31  34
ENDBRANCH  29  30
ENDBRANCH  28  29
ENDBRANCH  27  28
ENDBRANCH   1  27
TORSDOF 16
ENDMDL
MODEL 2
REMARK VINA RESULT:     -12.9      2.617      3.862
REMARK SMILES CC1(C)[C@H](C(=O)Nc2ccc(C(F)(F)F)nc2)[C@@H]1C(=O)NCCCCCCNC(=O)c1ccc(-c2c3nc(c(-c4c(F)c(F)c(F)c(F)c4F)c4ccc([nH]4)c(-c4c(F)c(F)c(F)c(F)c4F)c4nc(c(-c5c(F)c(F)c(F)c(F)c5F)c5ccc2[nH]5)C=C4)C=C3)cc1
REMARK SMILES IDX 24 1 23 2 22 3 21 4 19 5 20 6 18 8 1 9 2 10 3 11 4 12 5 13
REMARK SMILES IDX 6 14 7 15 8 17 9 18 17 19 10 20 16 21 11 22 12 23 13 24
REMARK SMILES IDX 14 25 15 26 25 27 26 28 27 29 28 30 29 31 30 33 31 34 32 35
REMARK SMILES IDX 93 36 33 37 92 38 34 39 35 40 36 41 86 42 37 43 91 44 85 45
REMARK SMILES IDX 87 46 38 47 90 48 84 49 83 50 39 52 71 53 51 54 70 55 52 56
REMARK SMILES IDX 55 57 69 58 88 59 53 60 54 61 68 63 89 64 56 65 40 66 41 67
REMARK SMILES IDX 49 68 42 69 43 70 47 71 50 72 44 73 45 74 48 75 46 76 72 77
REMARK SMILES IDX 73 78 81 79 74 80 75 81 79 82 82 83 76 84 77 85 80 86 78 87
REMARK SMILES IDX 57 88 58 89 66 90 59 91 60 92 64 93 67 94 61 95 62 96 65 97
REMARK SMILES IDX 63 98
REMARK H PARENT 21 7 7 16 28 32 87 51 55 62
REMARK Flexibility Score: inf
ROOT
ATOM      1  C   UNL A   1      32.488  29.680  26.917  1.00  0.00     0.002 C 
ENDROOT
BRANCH   1   2
ATOM      2  C   UNL A   1      31.652  28.578  27.579  1.00  0.00     0.021 C 
BRANCH   2   3
ATOM      3  C   UNL A   1      31.634  27.239  26.850  1.00  0.00     0.116 C 
BRANCH   3   4
ATOM      4  N   UNL A   1      32.764  27.055  25.962  1.00  0.00    -0.356 N 
ATOM      5  C   UNL A   1      33.295  25.870  25.522  1.00  0.00     0.224 C 
ATOM      6  O   UNL A   1      34.256  25.866  24.758  1.00  0.00    -0.275 OA
ATOM      7  H   UNL A   1      33.199  27.875  25.636  1.00  0.00     0.163 HD
BRANCH   5   8
ATOM      8  C   UNL A   1      32.759  24.620  26.095  1.00  0.00     0.098 C 
ATOM      9  C   UNL A   1      33.275  22.396  27.360  1.00  0.00     0.013 C 
ATOM     10  C   UNL A   1      33.477  23.263  26.126  1.00  0.00    -0.011 C 
ATOM     11  C   UNL A   1      34.861  23.097  25.579  1.00  0.00     0.013 C 
ATOM     12  C   UNL A   1      32.230  23.465  25.285  1.00  0.00     0.098 C 
BRANCH  12  13
ATOM     13  C   UNL A   1      31.938  23.384  23.814  1.00  0.00     0.228 C 
ATOM     14  O   UNL A   1      32.370  22.379  23.243  1.00  0.00    -0.274 OA
ATOM     15  N   UNL A   1      31.000  24.104  23.114  1.00  0.00    -0.324 N 
ATOM     16  H   UNL A   1      30.449  23.562  22.505  1.00  0.00     0.169 HD
BRANCH  15  17
ATOM     17  C   UNL A   1      30.687  25.460  23.110  1.00  0.00     0.059 A 
ATOM     18  C   UNL A   1      29.751  26.006  23.965  1.00  0.00     0.030 A 
ATOM     19  C   UNL A   1      31.375  26.334  22.284  1.00  0.00     0.137 A 
ATOM     20  C   UNL A   1      29.342  27.324  23.774  1.00  0.00     0.035 A 
ATOM     21  N   UNL A   1      31.007  27.615  22.065  1.00  0.00    -0.250 NA
ATOM     22  C   UNL A   1      29.918  28.072  22.747  1.00  0.00     0.144 A 
BRANCH  22  23
ATOM     23  C   UNL A   1      29.297  29.407  22.359  1.00  0.00     0.433 C 
ATOM     24  F   UNL A   1      28.019  29.283  21.902  1.00  0.00    -0.165 F 
ATOM     25  F   UNL A   1      29.248  30.307  23.383  1.00  0.00    -0.165 F 
ATOM     26  F   UNL A   1      29.981  30.038  21.356  1.00  0.00    -0.165 F 
ENDBRANCH  22  23
ENDBRANCH  15  17
ENDBRANCH  12  13
ENDBRANCH   5   8
ENDBRANCH   3   4
ENDBRANCH   2   3
ENDBRANCH   1   2
BRANCH   1  27
ATOM     27  C   UNL A   1      31.715  30.712  26.093  1.00  0.00     0.002 C 
BRANCH  27  28
ATOM     28  C   UNL A   1      31.433  32.049  26.776  1.00  0.00     0.021 C 
BRANCH  28  29
ATOM     29  C   UNL A   1      32.669  32.789  27.267  1.00  0.00     0.116 C 
BRANCH  29  30
ATOM     30  N   UNL A   1      32.392  34.174  27.607  1.00  0.00    -0.352 N 
ATOM     31  C   UNL A   1      32.975  34.968  28.564  1.00  0.00     0.251 C 
ATOM     32  H   UNL A   1      31.686  34.607  27.074  1.00  0.00     0.163 HD
ATOM     33  O   UNL A   1      32.512  36.076  28.816  1.00  0.00    -0.269 OA
BRANCH  31  34
ATOM     34  C   UNL A   1      34.147  34.471  29.314  1.00  0.00     0.039 A 
ATOM     35  C   UNL A   1      33.944  33.854  30.551  1.00  0.00     0.014 A 
ATOM     36  C   UNL A   1      35.439  34.598  28.796  1.00  0.00     0.014 A 
ATOM     37  C   UNL A   1      35.028  33.304  31.235  1.00  0.00     0.010 A 
ATOM     38  C   UNL A   1      36.505  33.975  29.436  1.00  0.00     0.010 A 
ATOM     39  C   UNL A   1      36.312  33.324  30.664  1.00  0.00    -0.014 A 
BRANCH  39  40
ATOM     40  C   UNL A   1      37.463  32.666  31.333  1.00  0.00     0.031 A 
ATOM     41  C   UNL A   1      38.168  31.518  30.666  1.00  0.00     0.074 A 
ATOM     42  C   UNL A   1      37.830  33.061  32.567  1.00  0.00     0.049 A 
ATOM     43  N   UNL A   1      39.144  30.771  31.117  1.00  0.00    -0.248 NA
ATOM     44  C   UNL A   1      37.695  31.140  29.325  1.00  0.00     0.031 C 
ATOM     45  C   UNL A   1      37.196  34.133  33.335  1.00  0.00     0.029 A 
ATOM     46  N   UNL A   1      38.820  32.599  33.398  1.00  0.00    -0.354 N 
ATOM     47  C   UNL A   1      39.393  29.835  30.123  1.00  0.00     0.074 A 
ATOM     48  C   UNL A   1      38.425  30.065  29.072  1.00  0.00     0.031 C 
ATOM     49  C   UNL A   1      37.827  34.264  34.512  1.00  0.00     0.029 A 
ATOM     50  C   UNL A   1      38.880  33.257  34.602  1.00  0.00     0.049 A 
ATOM     51  H   UNL A   1      39.430  31.866  33.154  1.00  0.00     0.167 HD
ATOM     52  C   UNL A   1      40.357  28.884  30.079  1.00  0.00     0.037 A 
ATOM     53  C   UNL A   1      39.685  33.061  35.664  1.00  0.00     0.037 A 
ATOM     54  C   UNL A   1      41.326  28.669  31.122  1.00  0.00     0.049 A 
ATOM     55  C   UNL A   1      40.729  31.979  35.602  1.00  0.00     0.074 A 
ATOM     56  C   UNL A   1      42.376  27.768  31.150  1.00  0.00     0.029 A 
ATOM     57  N   UNL A   1      41.357  29.357  32.326  1.00  0.00    -0.354 N 
ATOM     58  N   UNL A   1      41.002  31.145  34.627  1.00  0.00    -0.248 NA
ATOM     59  C   UNL A   1      41.581  31.813  36.788  1.00  0.00     0.031 C 
ATOM     60  C   UNL A   1      43.004  27.869  32.396  1.00  0.00     0.029 A 
ATOM     61  C   UNL A   1      42.390  28.879  33.118  1.00  0.00     0.049 A 
ATOM     62  H   UNL A   1      40.738  30.079  32.581  1.00  0.00     0.167 HD
ATOM     63  C   UNL A   1      42.073  30.379  35.067  1.00  0.00     0.074 A 
ATOM     64  C   UNL A   1      42.412  30.859  36.391  1.00  0.00     0.031 C 
ATOM     65  C   UNL A   1      42.720  29.372  34.432  1.00  0.00     0.037 A 
BRANCH  52  66
ATOM     66  C   UNL A   1      40.409  28.002  28.864  1.00  0.00     0.064 A 
ATOM     67  C   UNL A   1      41.157  28.351  27.729  1.00  0.00     0.173 A 
ATOM     68  C   UNL A   1      39.726  26.775  28.844  1.00  0.00     0.173 A 
ATOM     69  F   UNL A   1      41.821  29.517  27.689  1.00  0.00    -0.203 F 
ATOM     70  C   UNL A   1      41.192  27.524  26.609  1.00  0.00     0.198 A 
ATOM     71  C   UNL A   1      39.793  25.934  27.737  1.00  0.00     0.198 A 
ATOM     72  F   UNL A   1      39.001  26.388  29.903  1.00  0.00    -0.203 F 
ATOM     73  F   UNL A   1      41.867  27.906  25.515  1.00  0.00    -0.200 F 
ATOM     74  C   UNL A   1      40.517  26.312  26.616  1.00  0.00     0.200 A 
ATOM     75  F   UNL A   1      39.153  24.757  27.753  1.00  0.00    -0.200 F 
ATOM     76  F   UNL A   1      40.557  25.514  25.541  1.00  0.00    -0.200 F 
ENDBRANCH  52  66
BRANCH  53  77
ATOM     77  C   UNL A   1      39.549  33.922  36.870  1.00  0.00     0.064 A 
ATOM     78  C   UNL A   1      38.782  33.509  37.967  1.00  0.00     0.173 A 
ATOM     79  C   UNL A   1      40.175  35.175  36.947  1.00  0.00     0.173 A 
ATOM     80  F   UNL A   1      38.148  32.327  37.934  1.00  0.00    -0.203 F 
ATOM     81  C   UNL A   1      38.625  34.325  39.086  1.00  0.00     0.198 A 
ATOM     82  C   UNL A   1      40.045  35.977  38.080  1.00  0.00     0.198 A 
ATOM     83  F   UNL A   1      40.926  35.617  35.927  1.00  0.00    -0.203 F 
ATOM     84  F   UNL A   1      37.844  33.926  40.099  1.00  0.00    -0.200 F 
ATOM     85  C   UNL A   1      39.263  35.555  39.144  1.00  0.00     0.200 A 
ATOM     86  F   UNL A   1      40.676  37.157  38.139  1.00  0.00    -0.200 F 
ATOM     87  F   UNL A   1      39.115  36.338  40.222  1.00  0.00    -0.200 F 
ENDBRANCH  53  77
BRANCH  65  88
ATOM     88  C   UNL A   1      43.886  28.743  35.141  1.00  0.00     0.064 A 
ATOM     89  C   UNL A   1      45.192  29.233  34.997  1.00  0.00     0.173 A 
ATOM     90  C   UNL A   1      43.684  27.660  36.012  1.00  0.00     0.173 A 
ATOM     91  F   UNL A   1      45.441  30.256  34.166  1.00  0.00    -0.203 F 
ATOM     92  C   UNL A   1      46.256  28.645  35.676  1.00  0.00     0.198 A 
ATOM     93  C   UNL A   1      44.745  27.098  36.716  1.00  0.00     0.198 A 
ATOM     94  F   UNL A   1      42.453  27.157  36.192  1.00  0.00    -0.203 F 
ATOM     95  F   UNL A   1      47.503  29.097  35.483  1.00  0.00    -0.200 F 
ATOM     96  C   UNL A   1      46.031  27.585  36.542  1.00  0.00     0.200 A 
ATOM     97  F   UNL A   1      44.522  26.086  37.566  1.00  0.00    -0.200 F 
ATOM     98  F   UNL A   1      47.055  27.028  37.203  1.00  0.00    -0.200 F 
ENDBRANCH  65  88
ENDBRANCH  39  40
ENDBRANCH  31  34
ENDBRANCH  29  30
ENDBRANCH  28  29
ENDBRANCH  27  28
ENDBRANCH   1  27
TORSDOF 16
ENDMDL
MODEL 3
REMARK VINA RESULT:     -12.7      2.755      8.076
REMARK SMILES CC1(C)[C@H](C(=O)Nc2ccc(C(F)(F)F)nc2)[C@@H]1C(=O)NCCCCCCNC(=O)c1ccc(-c2c3nc(c(-c4c(F)c(F)c(F)c(F)c4F)c4ccc([nH]4)c(-c4c(F)c(F)c(F)c(F)c4F)c4nc(c(-c5c(F)c(F)c(F)c(F)c5F)c5ccc2[nH]5)C=C4)C=C3)cc1
REMARK SMILES IDX 24 1 23 2 22 3 21 4 19 5 20 6 18 8 1 9 2 10 3 11 4 12 5 13
REMARK SMILES IDX 6 14 7 15 8 17 9 18 17 19 10 20 16 21 11 22 12 23 13 24
REMARK SMILES IDX 14 25 15 26 25 27 26 28 27 29 28 30 29 31 30 33 31 34 32 35
REMARK SMILES IDX 93 36 33 37 92 38 34 39 35 40 36 41 86 42 37 43 91 44 85 45
REMARK SMILES IDX 87 46 38 47 90 48 84 49 83 50 39 52 71 53 51 54 70 55 52 56
REMARK SMILES IDX 55 57 69 58 88 59 53 60 54 61 68 63 89 64 56 65 40 66 41 67
REMARK SMILES IDX 49 68 42 69 43 70 47 71 50 72 44 73 45 74 48 75 46 76 72 77
REMARK SMILES IDX 73 78 81 79 74 80 75 81 79 82 82 83 76 84 77 85 80 86 78 87
REMARK SMILES IDX 57 88 58 89 66 90 59 91 60 92 64 93 67 94 61 95 62 96 65 97
REMARK SMILES IDX 63 98
REMARK H PARENT 21 7 7 16 28 32 87 51 55 62
REMARK Flexibility Score: inf
ROOT
ATOM      1  C   UNL A   1      32.352  29.995  26.921  1.00  0.00     0.002 C 
ENDROOT
BRANCH   1   2
ATOM      2  C   UNL A   1      31.787  28.607  27.242  1.00  0.00     0.021 C 
BRANCH   2   3
ATOM      3  C   UNL A   1      32.744  27.441  27.020  1.00  0.00     0.116 C 
BRANCH   3   4
ATOM      4  N   UNL A   1      33.382  27.462  25.719  1.00  0.00    -0.356 N 
ATOM      5  C   UNL A   1      33.701  26.388  24.929  1.00  0.00     0.224 C 
ATOM      6  O   UNL A   1      34.236  26.558  23.837  1.00  0.00    -0.275 OA
ATOM      7  H   UNL A   1      33.612  28.349  25.363  1.00  0.00     0.163 HD
BRANCH   5   8
ATOM      8  C   UNL A   1      33.499  25.037  25.487  1.00  0.00     0.098 C 
ATOM      9  C   UNL A   1      34.605  22.894  26.484  1.00  0.00     0.013 C 
ATOM     10  C   UNL A   1      34.437  23.836  25.302  1.00  0.00    -0.011 C 
ATOM     11  C   UNL A   1      35.713  23.951  24.527  1.00  0.00     0.013 C 
ATOM     12  C   UNL A   1      33.047  23.841  24.691  1.00  0.00     0.098 C 
BRANCH  12  13
ATOM     13  C   UNL A   1      32.524  23.770  23.286  1.00  0.00     0.228 C 
ATOM     14  O   UNL A   1      33.045  22.912  22.568  1.00  0.00    -0.274 OA
ATOM     15  N   UNL A   1      31.350  24.303  22.810  1.00  0.00    -0.324 N 
ATOM     16  H   UNL A   1      30.824  23.685  22.254  1.00  0.00     0.169 HD
BRANCH  15  17
ATOM     17  C   UNL A   1      30.770  25.558  22.973  1.00  0.00     0.059 A 
ATOM     18  C   UNL A   1      29.866  25.831  23.979  1.00  0.00     0.030 A 
ATOM     19  C   UNL A   1      31.148  26.614  22.159  1.00  0.00     0.137 A 
ATOM     20  C   UNL A   1      29.175  27.040  23.964  1.00  0.00     0.035 A 
ATOM     21  N   UNL A   1      30.501  27.799  22.108  1.00  0.00    -0.250 NA
ATOM     22  C   UNL A   1      29.443  27.964  22.953  1.00  0.00     0.144 A 
BRANCH  22  23
ATOM     23  C   UNL A   1      28.518  29.158  22.770  1.00  0.00     0.433 C 
ATOM     24  F   UNL A   1      27.234  28.895  23.146  1.00  0.00    -0.165 F 
ATOM     25  F   UNL A   1      28.900  30.261  23.475  1.00  0.00    -0.165 F 
ATOM     26  F   UNL A   1      28.437  29.571  21.468  1.00  0.00    -0.165 F 
ENDBRANCH  22  23
ENDBRANCH  15  17
ENDBRANCH  12  13
ENDBRANCH   5   8
ENDBRANCH   3   4
ENDBRANCH   2   3
ENDBRANCH   1   2
BRANCH   1  27
ATOM     27  C   UNL A   1      31.452  30.917  26.095  1.00  0.00     0.002 C 
BRANCH  27  28
ATOM     28  C   UNL A   1      31.297  32.348  26.607  1.00  0.00     0.021 C 
BRANCH  28  29
ATOM     29  C   UNL A   1      32.532  32.920  27.288  1.00  0.00     0.116 C 
BRANCH  29  30
ATOM     30  N   UNL A   1      32.370  34.316  27.657  1.00  0.00    -0.352 N 
ATOM     31  C   UNL A   1      33.041  35.049  28.604  1.00  0.00     0.251 C 
ATOM     32  H   UNL A   1      31.680  34.808  27.156  1.00  0.00     0.163 HD
ATOM     33  O   UNL A   1      32.670  36.183  28.888  1.00  0.00    -0.269 OA
BRANCH  31  34
ATOM     34  C   UNL A   1      34.199  34.455  29.306  1.00  0.00     0.039 A 
ATOM     35  C   UNL A   1      33.971  33.685  30.449  1.00  0.00     0.014 A 
ATOM     36  C   UNL A   1      35.500  34.642  28.832  1.00  0.00     0.014 A 
ATOM     37  C   UNL A   1      35.041  33.047  31.076  1.00  0.00     0.010 A 
ATOM     38  C   UNL A   1      36.553  33.938  29.407  1.00  0.00     0.010 A 
ATOM     39  C   UNL A   1      36.335  33.135  30.537  1.00  0.00    -0.014 A 
BRANCH  39  40
ATOM     40  C   UNL A   1      37.472  32.392  31.137  1.00  0.00     0.031 A 
ATOM     41  C   UNL A   1      37.976  32.758  32.505  1.00  0.00     0.074 A 
ATOM     42  C   UNL A   1      38.091  31.432  30.423  1.00  0.00     0.049 A 
ATOM     43  N   UNL A   1      38.996  32.277  33.168  1.00  0.00    -0.248 NA
ATOM     44  C   UNL A   1      37.254  33.828  33.211  1.00  0.00     0.031 C 
ATOM     45  C   UNL A   1      37.723  31.016  29.069  1.00  0.00     0.029 A 
ATOM     46  N   UNL A   1      39.167  30.637  30.732  1.00  0.00    -0.354 N 
ATOM     47  C   UNL A   1      39.043  32.989  34.359  1.00  0.00     0.074 A 
ATOM     48  C   UNL A   1      37.988  33.978  34.302  1.00  0.00     0.031 C 
ATOM     49  C   UNL A   1      38.541  30.028  28.675  1.00  0.00     0.029 A 
ATOM     50  C   UNL A   1      39.519  29.770  29.727  1.00  0.00     0.049 A 
ATOM     51  H   UNL A   1      39.641  30.684  31.595  1.00  0.00     0.167 HD
ATOM     52  C   UNL A   1      39.874  32.818  35.415  1.00  0.00     0.037 A 
ATOM     53  C   UNL A   1      40.525  28.879  29.657  1.00  0.00     0.037 A 
ATOM     54  C   UNL A   1      40.912  31.823  35.471  1.00  0.00     0.049 A 
ATOM     55  C   UNL A   1      41.453  28.728  30.833  1.00  0.00     0.074 A 
ATOM     56  C   UNL A   1      41.773  31.532  36.516  1.00  0.00     0.029 A 
ATOM     57  N   UNL A   1      41.238  30.960  34.434  1.00  0.00    -0.354 N 
ATOM     58  N   UNL A   1      41.444  29.358  31.983  1.00  0.00    -0.248 NA
ATOM     59  C   UNL A   1      42.531  27.738  30.702  1.00  0.00     0.031 C 
ATOM     60  C   UNL A   1      42.658  30.537  36.089  1.00  0.00     0.029 A 
ATOM     61  C   UNL A   1      42.307  30.158  34.803  1.00  0.00     0.049 A 
ATOM     62  H   UNL A   1      40.778  30.923  33.565  1.00  0.00     0.167 HD
ATOM     63  C   UNL A   1      42.489  28.821  32.722  1.00  0.00     0.074 A 
ATOM     64  C   UNL A   1      43.102  27.801  31.897  1.00  0.00     0.031 C 
ATOM     65  C   UNL A   1      42.902  29.141  33.972  1.00  0.00     0.037 A 
BRANCH  52  66
ATOM     66  C   UNL A   1      39.695  33.730  36.596  1.00  0.00     0.064 A 
ATOM     67  C   UNL A   1      40.306  34.992  36.654  1.00  0.00     0.173 A 
ATOM     68  C   UNL A   1      38.877  33.350  37.672  1.00  0.00     0.173 A 
ATOM     69  F   UNL A   1      41.107  35.401  35.657  1.00  0.00    -0.203 F 
ATOM     70  C   UNL A   1      40.133  35.824  37.757  1.00  0.00     0.198 A 
ATOM     71  C   UNL A   1      38.677  34.200  38.756  1.00  0.00     0.198 A 
ATOM     72  F   UNL A   1      38.263  32.158  37.668  1.00  0.00    -0.203 F 
ATOM     73  F   UNL A   1      40.773  37.000  37.814  1.00  0.00    -0.200 F 
ATOM     74  C   UNL A   1      39.313  35.431  38.804  1.00  0.00     0.200 A 
ATOM     75  F   UNL A   1      37.871  33.824  39.759  1.00  0.00    -0.200 F 
ATOM     76  F   UNL A   1      39.141  36.236  39.862  1.00  0.00    -0.200 F 
ENDBRANCH  52  66
BRANCH  53  77
ATOM     77  C   UNL A   1      40.697  28.044  28.438  1.00  0.00     0.064 A 
ATOM     78  C   UNL A   1      40.099  26.781  28.339  1.00  0.00     0.173 A 
ATOM     79  C   UNL A   1      41.466  28.488  27.352  1.00  0.00     0.173 A 
ATOM     80  F   UNL A   1      39.370  26.303  29.359  1.00  0.00    -0.203 F 
ATOM     81  C   UNL A   1      40.285  25.981  27.212  1.00  0.00     0.198 A 
ATOM     82  C   UNL A   1      41.624  27.702  26.212  1.00  0.00     0.198 A 
ATOM     83  F   UNL A   1      42.057  29.692  27.392  1.00  0.00    -0.203 F 
ATOM     84  F   UNL A   1      39.743  24.756  27.167  1.00  0.00    -0.200 F 
ATOM     85  C   UNL A   1      41.040  26.446  26.146  1.00  0.00     0.200 A 
ATOM     86  F   UNL A   1      42.341  28.161  25.177  1.00  0.00    -0.200 F 
ATOM     87  F   UNL A   1      41.214  25.679  25.062  1.00  0.00    -0.200 F 
ENDBRANCH  53  77
BRANCH  65  88
ATOM     88  C   UNL A   1      44.049  28.355  34.545  1.00  0.00     0.064 A 
ATOM     89  C   UNL A   1      45.376  28.793  34.430  1.00  0.00     0.173 A 
ATOM     90  C   UNL A   1      43.808  27.170  35.257  1.00  0.00     0.173 A 
ATOM     91  F   UNL A   1      45.662  29.911  33.746  1.00  0.00    -0.203 F 
ATOM     92  C   UNL A   1      46.423  28.057  34.981  1.00  0.00     0.198 A 
ATOM     93  C   UNL A   1      44.852  26.456  35.837  1.00  0.00     0.198 A 
ATOM     94  F   UNL A   1      42.555  26.711  35.404  1.00  0.00    -0.203 F 
ATOM     95  F   UNL A   1      47.688  28.466  34.814  1.00  0.00    -0.200 F 
ATOM     96  C   UNL A   1      46.159  26.896  35.693  1.00  0.00     0.200 A 
ATOM     97  F   UNL A   1      44.594  25.344  36.539  1.00  0.00    -0.200 F 
ATOM     98  F   UNL A   1      47.166  26.196  36.232  1.00  0.00    -0.200 F 
ENDBRANCH  65  88
ENDBRANCH  39  40
ENDBRANCH  31  34
ENDBRANCH  29  30
ENDBRANCH  28  29
ENDBRANCH  27  28
ENDBRANCH   1  27
TORSDOF 16
ENDMDL
