MODEL 1
REMARK VINA RESULT:     -11.3      0.000      0.000
REMARK SMILES C[NH2+][C@]1(C(=O)NCCCCCCNC(=O)c2ccc(-c3c4nc(c(-c5c(F)c(F)c(F)c(F)c5F)c5ccc([nH]5)c(-c5c(F)c(F)c(F)c(F)c5F)c5nc(c(-c6c(F)c(F)c(F)c(F)c6F)c6ccc3[nH]6)C=C5)C=C4)cc2)CCC[C@H]1CCOC1C[C@@H](C)C[C@H](C)C1
REMARK SMILES IDX 8 1 7 2 6 3 4 4 5 5 3 7 79 8 82 9 80 10 81 11 2 12 1 13
REMARK SMILES IDX 83 16 84 17 85 18 86 19 87 20 93 21 88 22 91 23 89 24 90 25
REMARK SMILES IDX 92 26 9 27 10 28 11 29 12 30 13 31 14 32 15 34 16 35 17 36
REMARK SMILES IDX 78 37 18 38 77 39 19 40 20 41 21 42 71 43 22 44 76 45 70 46
REMARK SMILES IDX 72 47 23 48 75 49 69 50 68 51 24 53 56 54 36 55 55 56 37 57
REMARK SMILES IDX 40 58 54 59 73 60 38 61 39 62 53 64 74 65 41 66 25 67 26 68
REMARK SMILES IDX 34 69 27 70 28 71 32 72 35 73 29 74 30 75 33 76 31 77 57 78
REMARK SMILES IDX 58 79 66 80 59 81 60 82 64 83 67 84 61 85 62 86 65 87 63 88
REMARK SMILES IDX 42 89 43 90 51 91 44 92 45 93 49 94 52 95 46 96 47 97 50 98
REMARK SMILES IDX 48 99
REMARK H PARENT 6 6 2 14 2 15 13 33 72 52 40 63
REMARK Flexibility Score: inf
ROOT
ATOM      1  C   UNL A   1      37.093  23.212  25.522  1.00  0.00     0.021 C 
ENDROOT
BRANCH   1   2
ATOM      2  C   UNL A   1      35.943  24.197  25.340  1.00  0.00     0.116 C 
BRANCH   2   3
ATOM      3  N   UNL A   1      34.820  23.799  26.143  1.00  0.00    -0.351 N 
ATOM      4  C   UNL A   1      33.553  23.447  25.825  1.00  0.00     0.281 C 
ATOM      5  O   UNL A   1      32.807  23.422  26.812  1.00  0.00    -0.268 OA
ATOM      6  H   UNL A   1      35.009  23.780  27.109  1.00  0.00     0.163 HD
BRANCH   4   7
ATOM      7  C   UNL A   1      33.068  23.179  24.358  1.00  0.00     0.178 C 
ATOM      8  C   UNL A   1      31.535  22.896  24.497  1.00  0.00     0.079 C 
ATOM      9  C   UNL A   1      33.176  24.265  23.136  1.00  0.00     0.063 C 
ATOM     10  C   UNL A   1      30.951  23.155  23.127  1.00  0.00     0.008 C 
ATOM     11  C   UNL A   1      31.676  24.408  22.693  1.00  0.00     0.011 C 
BRANCH   7  12
ATOM     12  N   UNL A   1      33.481  21.823  23.840  1.00  0.00    -0.336 N 
ATOM     13  C   UNL A   1      33.185  20.581  24.525  1.00  0.00     0.331 C 
ATOM     14  H   UNL A   1      33.058  21.738  22.915  1.00  0.00     0.346 HD
ATOM     15  H   UNL A   1      34.494  21.871  23.943  1.00  0.00     0.346 HD
ENDBRANCH   7  12
BRANCH   9  16
ATOM     16  C   UNL A   1      33.756  25.761  23.012  1.00  0.00     0.039 C 
BRANCH  16  17
ATOM     17  C   UNL A   1      33.767  27.053  23.935  1.00  0.00     0.161 C 
BRANCH  17  18
ATOM     18  O   UNL A   1      33.012  27.059  25.143  1.00  0.00    -0.378 OA
BRANCH  18  19
ATOM     19  C   UNL A   1      32.084  28.064  25.592  1.00  0.00     0.118 C 
ATOM     20  C   UNL A   1      31.231  28.905  24.643  1.00  0.00     0.035 C 
ATOM     21  C   UNL A   1      31.115  27.325  26.521  1.00  0.00     0.035 C 
ATOM     22  C   UNL A   1      30.294  28.095  23.763  1.00  0.00    -0.011 C 
ATOM     23  C   UNL A   1      30.494  26.223  25.681  1.00  0.00    -0.011 C 
ATOM     24  C   UNL A   1      30.943  27.929  22.390  1.00  0.00     0.008 C 
ATOM     25  C   UNL A   1      29.731  26.828  24.481  1.00  0.00     0.006 C 
ATOM     26  C   UNL A   1      29.703  25.206  26.500  1.00  0.00     0.008 C 
ENDBRANCH  18  19
ENDBRANCH  17  18
ENDBRANCH  16  17
ENDBRANCH   9  16
ENDBRANCH   4   7
ENDBRANCH   2   3
ENDBRANCH   1   2
BRANCH   1  27
ATOM     27  C   UNL A   1      37.128  22.096  24.471  1.00  0.00     0.002 C 
BRANCH  27  28
ATOM     28  C   UNL A   1      36.811  20.687  24.987  1.00  0.00     0.002 C 
BRANCH  28  29
ATOM     29  C   UNL A   1      37.973  19.693  24.964  1.00  0.00     0.021 C 
BRANCH  29  30
ATOM     30  C   UNL A   1      39.190  20.088  25.788  1.00  0.00     0.116 C 
BRANCH  30  31
ATOM     31  N   UNL A   1      40.217  19.069  25.836  1.00  0.00    -0.352 N 
ATOM     32  C   UNL A   1      41.559  19.226  26.107  1.00  0.00     0.251 C 
ATOM     33  H   UNL A   1      39.920  18.149  25.651  1.00  0.00     0.163 HD
ATOM     34  O   UNL A   1      42.320  18.283  26.052  1.00  0.00    -0.269 OA
BRANCH  32  35
ATOM     35  C   UNL A   1      42.068  20.582  26.420  1.00  0.00     0.039 A 
ATOM     36  C   UNL A   1      42.302  21.458  25.358  1.00  0.00     0.014 A 
ATOM     37  C   UNL A   1      42.281  20.996  27.739  1.00  0.00     0.014 A 
ATOM     38  C   UNL A   1      42.698  22.771  25.622  1.00  0.00     0.010 A 
ATOM     39  C   UNL A   1      42.606  22.323  28.001  1.00  0.00     0.010 A 
ATOM     40  C   UNL A   1      42.822  23.223  26.945  1.00  0.00    -0.014 A 
BRANCH  40  41
ATOM     41  C   UNL A   1      43.187  24.630  27.238  1.00  0.00     0.031 A 
ATOM     42  C   UNL A   1      44.584  25.117  26.978  1.00  0.00     0.074 A 
ATOM     43  C   UNL A   1      42.274  25.455  27.786  1.00  0.00     0.049 A 
ATOM     44  N   UNL A   1      45.108  26.294  27.210  1.00  0.00    -0.248 NA
ATOM     45  C   UNL A   1      45.526  24.143  26.406  1.00  0.00     0.031 C 
ATOM     46  C   UNL A   1      40.900  25.085  28.132  1.00  0.00     0.029 A 
ATOM     47  N   UNL A   1      42.366  26.773  28.157  1.00  0.00    -0.354 N 
ATOM     48  C   UNL A   1      46.439  26.196  26.826  1.00  0.00     0.074 A 
ATOM     49  C   UNL A   1      46.657  24.832  26.397  1.00  0.00     0.031 C 
ATOM     50  C   UNL A   1      40.271  26.156  28.643  1.00  0.00     0.029 A 
ATOM     51  C   UNL A   1      41.205  27.277  28.693  1.00  0.00     0.049 A 
ATOM     52  H   UNL A   1      43.185  27.307  28.049  1.00  0.00     0.167 HD
ATOM     53  C   UNL A   1      47.387  27.163  26.810  1.00  0.00     0.037 A 
ATOM     54  C   UNL A   1      40.929  28.504  29.173  1.00  0.00     0.037 A 
ATOM     55  C   UNL A   1      47.157  28.526  27.210  1.00  0.00     0.049 A 
ATOM     56  C   UNL A   1      41.997  29.563  29.137  1.00  0.00     0.074 A 
ATOM     57  C   UNL A   1      48.032  29.598  27.169  1.00  0.00     0.029 A 
ATOM     58  N   UNL A   1      45.962  29.005  27.727  1.00  0.00    -0.354 N 
ATOM     59  N   UNL A   1      43.231  29.479  28.704  1.00  0.00    -0.248 NA
ATOM     60  C   UNL A   1      41.631  30.891  29.651  1.00  0.00     0.031 C 
ATOM     61  C   UNL A   1      47.381  30.715  27.703  1.00  0.00     0.029 A 
ATOM     62  C   UNL A   1      46.084  30.352  28.030  1.00  0.00     0.049 A 
ATOM     63  H   UNL A   1      45.147  28.468  27.859  1.00  0.00     0.167 HD
ATOM     64  C   UNL A   1      43.780  30.744  28.866  1.00  0.00     0.074 A 
ATOM     65  C   UNL A   1      42.739  31.582  29.424  1.00  0.00     0.031 C 
ATOM     66  C   UNL A   1      45.034  31.173  28.579  1.00  0.00     0.037 A 
BRANCH  53  67
ATOM     67  C   UNL A   1      48.759  26.781  26.339  1.00  0.00     0.064 A 
ATOM     68  C   UNL A   1      49.690  26.176  27.197  1.00  0.00     0.173 A 
ATOM     69  C   UNL A   1      49.140  26.992  25.005  1.00  0.00     0.173 A 
ATOM     70  F   UNL A   1      49.381  25.962  28.485  1.00  0.00    -0.203 F 
ATOM     71  C   UNL A   1      50.961  25.826  26.746  1.00  0.00     0.198 A 
ATOM     72  C   UNL A   1      50.400  26.614  24.550  1.00  0.00     0.198 A 
ATOM     73  F   UNL A   1      48.287  27.563  24.140  1.00  0.00    -0.203 F 
ATOM     74  F   UNL A   1      51.850  25.297  27.598  1.00  0.00    -0.200 F 
ATOM     75  C   UNL A   1      51.312  26.039  25.422  1.00  0.00     0.200 A 
ATOM     76  F   UNL A   1      50.734  26.810  23.267  1.00  0.00    -0.200 F 
ATOM     77  F   UNL A   1      52.533  25.698  24.988  1.00  0.00    -0.200 F 
ENDBRANCH  53  67
BRANCH  54  78
ATOM     78  C   UNL A   1      39.574  28.805  29.704  1.00  0.00     0.064 A 
ATOM     79  C   UNL A   1      39.246  28.528  31.039  1.00  0.00     0.173 A 
ATOM     80  C   UNL A   1      38.580  29.370  28.892  1.00  0.00     0.173 A 
ATOM     81  F   UNL A   1      40.157  27.968  31.849  1.00  0.00    -0.203 F 
ATOM     82  C   UNL A   1      37.971  28.788  31.536  1.00  0.00     0.198 A 
ATOM     83  C   UNL A   1      37.314  29.655  29.398  1.00  0.00     0.198 A 
ATOM     84  F   UNL A   1      38.845  29.659  27.609  1.00  0.00    -0.203 F 
ATOM     85  F   UNL A   1      37.672  28.474  32.804  1.00  0.00    -0.200 F 
ATOM     86  C   UNL A   1      37.007  29.356  30.717  1.00  0.00     0.200 A 
ATOM     87  F   UNL A   1      36.390  30.217  28.606  1.00  0.00    -0.200 F 
ATOM     88  F   UNL A   1      35.782  29.610  31.196  1.00  0.00    -0.200 F 
ENDBRANCH  54  78
BRANCH  66  89
ATOM     89  C   UNL A   1      45.341  32.619  28.833  1.00  0.00     0.064 A 
ATOM     90  C   UNL A   1      45.907  33.049  30.042  1.00  0.00     0.173 A 
ATOM     91  C   UNL A   1      45.104  33.580  27.839  1.00  0.00     0.173 A 
ATOM     92  F   UNL A   1      46.137  32.171  31.030  1.00  0.00    -0.203 F 
ATOM     93  C   UNL A   1      46.202  34.393  30.255  1.00  0.00     0.198 A 
ATOM     94  C   UNL A   1      45.427  34.918  28.044  1.00  0.00     0.198 A 
ATOM     95  F   UNL A   1      44.570  33.218  26.662  1.00  0.00    -0.203 F 
ATOM     96  F   UNL A   1      46.699  34.788  31.435  1.00  0.00    -0.200 F 
ATOM     97  C   UNL A   1      45.969  35.324  29.254  1.00  0.00     0.200 A 
ATOM     98  F   UNL A   1      45.214  35.814  27.070  1.00  0.00    -0.200 F 
ATOM     99  F   UNL A   1      46.262  36.616  29.458  1.00  0.00    -0.200 F 
ENDBRANCH  66  89
ENDBRANCH  40  41
ENDBRANCH  32  35
ENDBRANCH  30  31
ENDBRANCH  29  30
ENDBRANCH  28  29
ENDBRANCH  27  28
ENDBRANCH   1  27
TORSDOF 18
ENDMDL
MODEL 2
REMARK VINA RESULT:     -11.2      5.262      9.807
REMARK SMILES C[NH2+][C@]1(C(=O)NCCCCCCNC(=O)c2ccc(-c3c4nc(c(-c5c(F)c(F)c(F)c(F)c5F)c5ccc([nH]5)c(-c5c(F)c(F)c(F)c(F)c5F)c5nc(c(-c6c(F)c(F)c(F)c(F)c6F)c6ccc3[nH]6)C=C5)C=C4)cc2)CCC[C@H]1CCOC1C[C@@H](C)C[C@H](C)C1
REMARK SMILES IDX 8 1 7 2 6 3 4 4 5 5 3 7 79 8 82 9 80 10 81 11 2 12 1 13
REMARK SMILES IDX 83 16 84 17 85 18 86 19 87 20 93 21 88 22 91 23 89 24 90 25
REMARK SMILES IDX 92 26 9 27 10 28 11 29 12 30 13 31 14 32 15 34 16 35 17 36
REMARK SMILES IDX 78 37 18 38 77 39 19 40 20 41 21 42 71 43 22 44 76 45 70 46
REMARK SMILES IDX 72 47 23 48 75 49 69 50 68 51 24 53 56 54 36 55 55 56 37 57
REMARK SMILES IDX 40 58 54 59 73 60 38 61 39 62 53 64 74 65 41 66 25 67 26 68
REMARK SMILES IDX 34 69 27 70 28 71 32 72 35 73 29 74 30 75 33 76 31 77 57 78
REMARK SMILES IDX 58 79 66 80 59 81 60 82 64 83 67 84 61 85 62 86 65 87 63 88
REMARK SMILES IDX 42 89 43 90 51 91 44 92 45 93 49 94 52 95 46 96 47 97 50 98
REMARK SMILES IDX 48 99
REMARK H PARENT 6 6 2 14 2 15 13 33 72 52 40 63
REMARK Flexibility Score: inf
ROOT
ATOM      1  C   UNL A   1      31.448  28.154  26.245  1.00  0.00     0.021 C 
ENDROOT
BRANCH   1   2
ATOM      2  C   UNL A   1      32.131  26.899  26.776  1.00  0.00     0.116 C 
BRANCH   2   3
ATOM      3  N   UNL A   1      31.524  25.728  26.208  1.00  0.00    -0.351 N 
ATOM      4  C   UNL A   1      31.868  24.941  25.164  1.00  0.00     0.281 C 
ATOM      5  O   UNL A   1      30.954  24.180  24.821  1.00  0.00    -0.268 OA
ATOM      6  H   UNL A   1      30.699  25.447  26.664  1.00  0.00     0.163 HD
BRANCH   4   7
ATOM      7  C   UNL A   1      33.246  25.036  24.419  1.00  0.00     0.178 C 
ATOM      8  C   UNL A   1      34.311  24.728  25.523  1.00  0.00     0.079 C 
ATOM      9  C   UNL A   1      33.680  24.091  23.154  1.00  0.00     0.063 C 
ATOM     10  C   UNL A   1      35.553  24.296  24.777  1.00  0.00     0.008 C 
ATOM     11  C   UNL A   1      34.990  23.409  23.690  1.00  0.00     0.011 C 
BRANCH   7  12
ATOM     12  N   UNL A   1      33.659  26.458  24.127  1.00  0.00    -0.336 N 
ATOM     13  C   UNL A   1      33.161  27.220  23.000  1.00  0.00     0.331 C 
ATOM     14  H   UNL A   1      33.412  26.996  24.958  1.00  0.00     0.346 HD
ATOM     15  H   UNL A   1      34.637  26.331  23.865  1.00  0.00     0.346 HD
ENDBRANCH   7  12
BRANCH   9  16
ATOM     16  C   UNL A   1      32.951  22.919  22.327  1.00  0.00     0.039 C 
BRANCH  16  17
ATOM     17  C   UNL A   1      32.133  21.609  22.696  1.00  0.00     0.161 C 
BRANCH  17  18
ATOM     18  O   UNL A   1      32.812  20.500  23.278  1.00  0.00    -0.378 OA
BRANCH  18  19
ATOM     19  C   UNL A   1      32.610  19.938  24.588  1.00  0.00     0.118 C 
ATOM     20  C   UNL A   1      32.530  18.435  24.856  1.00  0.00     0.035 C 
ATOM     21  C   UNL A   1      33.768  20.477  25.435  1.00  0.00     0.035 C 
ATOM     22  C   UNL A   1      33.776  17.664  24.457  1.00  0.00    -0.011 C 
ATOM     23  C   UNL A   1      35.039  20.020  24.740  1.00  0.00    -0.011 C 
ATOM     24  C   UNL A   1      33.534  17.027  23.090  1.00  0.00     0.008 C 
ATOM     25  C   UNL A   1      35.091  18.477  24.680  1.00  0.00     0.006 C 
ATOM     26  C   UNL A   1      36.301  20.685  25.281  1.00  0.00     0.008 C 
ENDBRANCH  18  19
ENDBRANCH  17  18
ENDBRANCH  16  17
ENDBRANCH   9  16
ENDBRANCH   4   7
ENDBRANCH   2   3
ENDBRANCH   1   2
BRANCH   1  27
ATOM     27  C   UNL A   1      31.859  29.441  26.971  1.00  0.00     0.002 C 
BRANCH  27  28
ATOM     28  C   UNL A   1      31.822  30.721  26.128  1.00  0.00     0.002 C 
BRANCH  28  29
ATOM     29  C   UNL A   1      31.496  32.009  26.887  1.00  0.00     0.021 C 
BRANCH  29  30
ATOM     30  C   UNL A   1      32.697  32.847  27.302  1.00  0.00     0.116 C 
BRANCH  30  31
ATOM     31  N   UNL A   1      32.363  34.210  27.653  1.00  0.00    -0.352 N 
ATOM     32  C   UNL A   1      32.979  35.026  28.577  1.00  0.00     0.251 C 
ATOM     33  H   UNL A   1      31.599  34.604  27.173  1.00  0.00     0.163 HD
ATOM     34  O   UNL A   1      32.550  36.136  28.814  1.00  0.00    -0.269 OA
BRANCH  32  35
ATOM     35  C   UNL A   1      34.153  34.504  29.317  1.00  0.00     0.039 A 
ATOM     36  C   UNL A   1      33.930  33.868  30.539  1.00  0.00     0.014 A 
ATOM     37  C   UNL A   1      35.448  34.611  28.801  1.00  0.00     0.014 A 
ATOM     38  C   UNL A   1      35.002  33.287  31.221  1.00  0.00     0.010 A 
ATOM     39  C   UNL A   1      36.502  33.970  29.445  1.00  0.00     0.010 A 
ATOM     40  C   UNL A   1      36.290  33.306  30.663  1.00  0.00    -0.014 A 
BRANCH  40  41
ATOM     41  C   UNL A   1      37.426  32.644  31.350  1.00  0.00     0.031 A 
ATOM     42  C   UNL A   1      38.146  31.503  30.688  1.00  0.00     0.074 A 
ATOM     43  C   UNL A   1      37.776  33.037  32.590  1.00  0.00     0.049 A 
ATOM     44  N   UNL A   1      39.128  30.768  31.144  1.00  0.00    -0.248 NA
ATOM     45  C   UNL A   1      37.680  31.119  29.347  1.00  0.00     0.031 C 
ATOM     46  C   UNL A   1      37.120  34.099  33.356  1.00  0.00     0.029 A 
ATOM     47  N   UNL A   1      38.763  32.584  33.428  1.00  0.00    -0.354 N 
ATOM     48  C   UNL A   1      39.388  29.831  30.153  1.00  0.00     0.074 A 
ATOM     49  C   UNL A   1      38.426  30.053  29.096  1.00  0.00     0.031 C 
ATOM     50  C   UNL A   1      37.738  34.230  34.542  1.00  0.00     0.029 A 
ATOM     51  C   UNL A   1      38.808  33.241  34.634  1.00  0.00     0.049 A 
ATOM     52  H   UNL A   1      39.381  31.856  33.188  1.00  0.00     0.167 HD
ATOM     53  C   UNL A   1      40.357  28.885  30.118  1.00  0.00     0.037 A 
ATOM     54  C   UNL A   1      39.619  33.063  35.693  1.00  0.00     0.037 A 
ATOM     55  C   UNL A   1      41.330  28.687  31.159  1.00  0.00     0.049 A 
ATOM     56  C   UNL A   1      40.693  32.011  35.626  1.00  0.00     0.074 A 
ATOM     57  C   UNL A   1      42.393  27.800  31.190  1.00  0.00     0.029 A 
ATOM     58  N   UNL A   1      41.358  29.386  32.356  1.00  0.00    -0.354 N 
ATOM     59  N   UNL A   1      40.976  31.178  34.654  1.00  0.00    -0.248 NA
ATOM     60  C   UNL A   1      41.565  31.878  36.802  1.00  0.00     0.031 C 
ATOM     61  C   UNL A   1      43.036  27.933  32.425  1.00  0.00     0.029 A 
ATOM     62  C   UNL A   1      42.406  28.937  33.143  1.00  0.00     0.049 A 
ATOM     63  H   UNL A   1      40.726  30.098  32.610  1.00  0.00     0.167 HD
ATOM     64  C   UNL A   1      42.071  30.443  35.087  1.00  0.00     0.074 A 
ATOM     65  C   UNL A   1      42.411  30.939  36.404  1.00  0.00     0.031 C 
ATOM     66  C   UNL A   1      42.735  29.447  34.450  1.00  0.00     0.037 A 
BRANCH  53  67
ATOM     67  C   UNL A   1      40.414  27.996  28.911  1.00  0.00     0.064 A 
ATOM     68  C   UNL A   1      39.707  26.784  28.854  1.00  0.00     0.173 A 
ATOM     69  C   UNL A   1      41.158  28.372  27.782  1.00  0.00     0.173 A 
ATOM     70  F   UNL A   1      38.990  26.372  29.910  1.00  0.00    -0.203 F 
ATOM     71  C   UNL A   1      39.770  25.969  27.727  1.00  0.00     0.198 A 
ATOM     72  C   UNL A   1      41.194  27.569  26.645  1.00  0.00     0.198 A 
ATOM     73  F   UNL A   1      41.848  29.523  27.780  1.00  0.00    -0.203 F 
ATOM     74  F   UNL A   1      39.128  24.792  27.717  1.00  0.00    -0.200 F 
ATOM     75  C   UNL A   1      40.507  26.365  26.622  1.00  0.00     0.200 A 
ATOM     76  F   UNL A   1      41.897  27.959  25.573  1.00  0.00    -0.200 F 
ATOM     77  F   UNL A   1      40.562  25.582  25.536  1.00  0.00    -0.200 F 
ENDBRANCH  53  67
BRANCH  54  78
ATOM     78  C   UNL A   1      39.465  33.920  36.897  1.00  0.00     0.064 A 
ATOM     79  C   UNL A   1      38.718  33.482  38.001  1.00  0.00     0.173 A 
ATOM     80  C   UNL A   1      40.055  35.190  36.971  1.00  0.00     0.173 A 
ATOM     81  F   UNL A   1      38.118  32.284  37.969  1.00  0.00    -0.203 F 
ATOM     82  C   UNL A   1      38.552  34.290  39.124  1.00  0.00     0.198 A 
ATOM     83  C   UNL A   1      39.911  35.985  38.105  1.00  0.00     0.198 A 
ATOM     84  F   UNL A   1      40.784  35.652  35.945  1.00  0.00    -0.203 F 
ATOM     85  F   UNL A   1      37.797  33.865  40.146  1.00  0.00    -0.200 F 
ATOM     86  C   UNL A   1      39.153  35.539  39.178  1.00  0.00     0.200 A 
ATOM     87  F   UNL A   1      40.506  37.185  38.159  1.00  0.00    -0.200 F 
ATOM     88  F   UNL A   1      38.997  36.314  40.259  1.00  0.00    -0.200 F 
ENDBRANCH  54  78
BRANCH  66  89
ATOM     89  C   UNL A   1      43.916  28.848  35.156  1.00  0.00     0.064 A 
ATOM     90  C   UNL A   1      43.783  27.732  35.994  1.00  0.00     0.173 A 
ATOM     91  C   UNL A   1      45.201  29.373  34.957  1.00  0.00     0.173 A 
ATOM     92  F   UNL A   1      42.572  27.204  36.229  1.00  0.00    -0.203 F 
ATOM     93  C   UNL A   1      44.892  27.178  36.627  1.00  0.00     0.198 A 
ATOM     94  C   UNL A   1      46.312  28.798  35.568  1.00  0.00     0.198 A 
ATOM     95  F   UNL A   1      45.382  30.436  34.159  1.00  0.00    -0.203 F 
ATOM     96  F   UNL A   1      44.735  26.140  37.461  1.00  0.00    -0.200 F 
ATOM     97  C   UNL A   1      46.155  27.706  36.408  1.00  0.00     0.200 A 
ATOM     98  F   UNL A   1      47.534  29.301  35.344  1.00  0.00    -0.200 F 
ATOM     99  F   UNL A   1      47.223  27.165  37.011  1.00  0.00    -0.200 F 
ENDBRANCH  66  89
ENDBRANCH  40  41
ENDBRANCH  32  35
ENDBRANCH  30  31
ENDBRANCH  29  30
ENDBRANCH  28  29
ENDBRANCH  27  28
ENDBRANCH   1  27
TORSDOF 18
ENDMDL
MODEL 3
REMARK VINA RESULT:     -11.2      0.200      1.571
REMARK SMILES C[NH2+][C@]1(C(=O)NCCCCCCNC(=O)c2ccc(-c3c4nc(c(-c5c(F)c(F)c(F)c(F)c5F)c5ccc([nH]5)c(-c5c(F)c(F)c(F)c(F)c5F)c5nc(c(-c6c(F)c(F)c(F)c(F)c6F)c6ccc3[nH]6)C=C5)C=C4)cc2)CCC[C@H]1CCOC1C[C@@H](C)C[C@H](C)C1
REMARK SMILES IDX 8 1 7 2 6 3 4 4 5 5 3 7 79 8 82 9 80 10 81 11 2 12 1 13
REMARK SMILES IDX 83 16 84 17 85 18 86 19 87 20 93 21 88 22 91 23 89 24 90 25
REMARK SMILES IDX 92 26 9 27 10 28 11 29 12 30 13 31 14 32 15 34 16 35 17 36
REMARK SMILES IDX 78 37 18 38 77 39 19 40 20 41 21 42 71 43 22 44 76 45 70 46
REMARK SMILES IDX 72 47 23 48 75 49 69 50 68 51 24 53 56 54 36 55 55 56 37 57
REMARK SMILES IDX 40 58 54 59 73 60 38 61 39 62 53 64 74 65 41 66 25 67 26 68
REMARK SMILES IDX 34 69 27 70 28 71 32 72 35 73 29 74 30 75 33 76 31 77 57 78
REMARK SMILES IDX 58 79 66 80 59 81 60 82 64 83 67 84 61 85 62 86 65 87 63 88
REMARK SMILES IDX 42 89 43 90 51 91 44 92 45 93 49 94 52 95 46 96 47 97 50 98
REMARK SMILES IDX 48 99
REMARK H PARENT 6 6 2 14 2 15 13 33 72 52 40 63
REMARK Flexibility Score: inf
ROOT
ATOM      1  C   UNL A   1      37.239  23.018  25.546  1.00  0.00     0.021 C 
ENDROOT
BRANCH   1   2
ATOM      2  C   UNL A   1      36.143  24.047  25.290  1.00  0.00     0.116 C 
BRANCH   2   3
ATOM      3  N   UNL A   1      34.998  23.763  26.109  1.00  0.00    -0.351 N 
ATOM      4  C   UNL A   1      33.703  23.512  25.808  1.00  0.00     0.281 C 
ATOM      5  O   UNL A   1      32.965  23.572  26.799  1.00  0.00    -0.268 OA
ATOM      6  H   UNL A   1      35.192  23.750  27.074  1.00  0.00     0.163 HD
BRANCH   4   7
ATOM      7  C   UNL A   1      33.185  23.252  24.350  1.00  0.00     0.178 C 
ATOM      8  C   UNL A   1      31.670  22.903  24.528  1.00  0.00     0.079 C 
ATOM      9  C   UNL A   1      33.211  24.366  23.148  1.00  0.00     0.063 C 
ATOM     10  C   UNL A   1      31.034  23.164  23.182  1.00  0.00     0.008 C 
ATOM     11  C   UNL A   1      31.693  24.455  22.753  1.00  0.00     0.011 C 
BRANCH   7  12
ATOM     12  N   UNL A   1      33.637  21.926  23.792  1.00  0.00    -0.336 N 
ATOM     13  C   UNL A   1      33.342  20.652  24.416  1.00  0.00     0.331 C 
ATOM     14  H   UNL A   1      33.247  21.871  22.851  1.00  0.00     0.346 HD
ATOM     15  H   UNL A   1      34.646  21.985  23.930  1.00  0.00     0.346 HD
ENDBRANCH   7  12
BRANCH   9  16
ATOM     16  C   UNL A   1      33.724  25.887  23.039  1.00  0.00     0.039 C 
BRANCH  16  17
ATOM     17  C   UNL A   1      33.872  27.110  24.042  1.00  0.00     0.161 C 
BRANCH  17  18
ATOM     18  O   UNL A   1      33.140  27.106  25.264  1.00  0.00    -0.378 OA
BRANCH  18  19
ATOM     19  C   UNL A   1      32.214  28.102  25.734  1.00  0.00     0.118 C 
ATOM     20  C   UNL A   1      31.392  28.992  24.802  1.00  0.00     0.035 C 
ATOM     21  C   UNL A   1      31.216  27.337  26.610  1.00  0.00     0.035 C 
ATOM     22  C   UNL A   1      30.466  28.230  23.869  1.00  0.00    -0.011 C 
ATOM     23  C   UNL A   1      30.602  26.277  25.711  1.00  0.00    -0.011 C 
ATOM     24  C   UNL A   1      31.144  28.113  22.505  1.00  0.00     0.008 C 
ATOM     25  C   UNL A   1      29.873  26.940  24.521  1.00  0.00     0.006 C 
ATOM     26  C   UNL A   1      29.782  25.237  26.469  1.00  0.00     0.008 C 
ENDBRANCH  18  19
ENDBRANCH  17  18
ENDBRANCH  16  17
ENDBRANCH   9  16
ENDBRANCH   4   7
ENDBRANCH   2   3
ENDBRANCH   1   2
BRANCH   1  27
ATOM     27  C   UNL A   1      37.293  21.895  24.503  1.00  0.00     0.002 C 
BRANCH  27  28
ATOM     28  C   UNL A   1      36.970  20.489  25.022  1.00  0.00     0.002 C 
BRANCH  28  29
ATOM     29  C   UNL A   1      38.131  19.493  25.013  1.00  0.00     0.021 C 
BRANCH  29  30
ATOM     30  C   UNL A   1      39.386  19.942  25.747  1.00  0.00     0.116 C 
BRANCH  30  31
ATOM     31  N   UNL A   1      40.426  18.937  25.792  1.00  0.00    -0.352 N 
ATOM     32  C   UNL A   1      41.765  19.110  26.065  1.00  0.00     0.251 C 
ATOM     33  H   UNL A   1      40.141  18.014  25.603  1.00  0.00     0.163 HD
ATOM     34  O   UNL A   1      42.539  18.178  26.008  1.00  0.00    -0.269 OA
BRANCH  32  35
ATOM     35  C   UNL A   1      42.256  20.472  26.383  1.00  0.00     0.039 A 
ATOM     36  C   UNL A   1      42.662  21.288  25.326  1.00  0.00     0.014 A 
ATOM     37  C   UNL A   1      42.287  20.948  27.697  1.00  0.00     0.014 A 
ATOM     38  C   UNL A   1      43.047  22.606  25.580  1.00  0.00     0.010 A 
ATOM     39  C   UNL A   1      42.603  22.282  27.940  1.00  0.00     0.010 A 
ATOM     40  C   UNL A   1      42.990  23.123  26.885  1.00  0.00    -0.014 A 
BRANCH  40  41
ATOM     41  C   UNL A   1      43.343  24.537  27.160  1.00  0.00     0.031 A 
ATOM     42  C   UNL A   1      44.736  25.032  26.892  1.00  0.00     0.074 A 
ATOM     43  C   UNL A   1      42.422  25.361  27.697  1.00  0.00     0.049 A 
ATOM     44  N   UNL A   1      45.249  26.217  27.109  1.00  0.00    -0.248 NA
ATOM     45  C   UNL A   1      45.686  24.059  26.333  1.00  0.00     0.031 C 
ATOM     46  C   UNL A   1      41.053  24.982  28.048  1.00  0.00     0.029 A 
ATOM     47  N   UNL A   1      42.503  26.684  28.052  1.00  0.00    -0.354 N 
ATOM     48  C   UNL A   1      46.581  26.126  26.726  1.00  0.00     0.074 A 
ATOM     49  C   UNL A   1      46.811  24.758  26.314  1.00  0.00     0.031 C 
ATOM     50  C   UNL A   1      40.414  26.055  28.547  1.00  0.00     0.029 A 
ATOM     51  C   UNL A   1      41.339  27.185  28.582  1.00  0.00     0.049 A 
ATOM     52  H   UNL A   1      43.318  27.224  27.937  1.00  0.00     0.167 HD
ATOM     53  C   UNL A   1      47.520  27.101  26.697  1.00  0.00     0.037 A 
ATOM     54  C   UNL A   1      41.051  28.415  29.046  1.00  0.00     0.037 A 
ATOM     55  C   UNL A   1      47.278  28.467  27.079  1.00  0.00     0.049 A 
ATOM     56  C   UNL A   1      42.111  29.483  28.996  1.00  0.00     0.074 A 
ATOM     57  C   UNL A   1      48.144  29.546  27.024  1.00  0.00     0.029 A 
ATOM     58  N   UNL A   1      46.079  28.942  27.592  1.00  0.00    -0.354 N 
ATOM     59  N   UNL A   1      43.345  29.405  28.563  1.00  0.00    -0.248 NA
ATOM     60  C   UNL A   1      41.733  30.814  29.493  1.00  0.00     0.031 C 
ATOM     61  C   UNL A   1      47.483  30.664  27.544  1.00  0.00     0.029 A 
ATOM     62  C   UNL A   1      46.190  30.294  27.877  1.00  0.00     0.049 A 
ATOM     63  H   UNL A   1      45.270  28.400  27.731  1.00  0.00     0.167 HD
ATOM     64  C   UNL A   1      43.883  30.676  28.709  1.00  0.00     0.074 A 
ATOM     65  C   UNL A   1      42.835  31.512  29.257  1.00  0.00     0.031 C 
ATOM     66  C   UNL A   1      45.133  31.112  28.416  1.00  0.00     0.037 A 
BRANCH  53  67
ATOM     67  C   UNL A   1      48.896  26.725  26.230  1.00  0.00     0.064 A 
ATOM     68  C   UNL A   1      49.305  26.926  24.903  1.00  0.00     0.173 A 
ATOM     69  C   UNL A   1      49.829  26.184  27.128  1.00  0.00     0.173 A 
ATOM     70  F   UNL A   1      48.447  27.430  24.002  1.00  0.00    -0.203 F 
ATOM     71  C   UNL A   1      50.585  26.571  24.485  1.00  0.00     0.198 A 
ATOM     72  C   UNL A   1      51.118  25.858  26.713  1.00  0.00     0.198 A 
ATOM     73  F   UNL A   1      49.492  25.974  28.410  1.00  0.00    -0.203 F 
ATOM     74  F   UNL A   1      50.934  26.726  23.199  1.00  0.00    -0.200 F 
ATOM     75  C   UNL A   1      51.491  26.044  25.391  1.00  0.00     0.200 A 
ATOM     76  F   UNL A   1      51.997  25.360  27.592  1.00  0.00    -0.200 F 
ATOM     77  F   UNL A   1      52.724  25.708  24.988  1.00  0.00    -0.200 F 
ENDBRANCH  53  67
BRANCH  54  78
ATOM     78  C   UNL A   1      39.694  28.710  29.574  1.00  0.00     0.064 A 
ATOM     79  C   UNL A   1      39.378  28.474  30.920  1.00  0.00     0.173 A 
ATOM     80  C   UNL A   1      38.687  29.231  28.749  1.00  0.00     0.173 A 
ATOM     81  F   UNL A   1      40.302  27.957  31.743  1.00  0.00    -0.203 F 
ATOM     82  C   UNL A   1      38.101  28.729  31.414  1.00  0.00     0.198 A 
ATOM     83  C   UNL A   1      37.419  29.512  29.251  1.00  0.00     0.198 A 
ATOM     84  F   UNL A   1      38.940  29.480  27.456  1.00  0.00    -0.203 F 
ATOM     85  F   UNL A   1      37.813  28.452  32.694  1.00  0.00    -0.200 F 
ATOM     86  C   UNL A   1      37.123  29.252  30.582  1.00  0.00     0.200 A 
ATOM     87  F   UNL A   1      36.481  30.031  28.446  1.00  0.00    -0.200 F 
ATOM     88  F   UNL A   1      35.897  29.501  31.058  1.00  0.00    -0.200 F 
ENDBRANCH  54  78
BRANCH  66  89
ATOM     89  C   UNL A   1      45.427  32.564  28.652  1.00  0.00     0.064 A 
ATOM     90  C   UNL A   1      45.160  33.536  27.677  1.00  0.00     0.173 A 
ATOM     91  C   UNL A   1      45.945  32.992  29.884  1.00  0.00     0.173 A 
ATOM     92  F   UNL A   1      44.681  33.176  26.477  1.00  0.00    -0.203 F 
ATOM     93  C   UNL A   1      45.423  34.882  27.920  1.00  0.00     0.198 A 
ATOM     94  C   UNL A   1      46.179  34.340  30.133  1.00  0.00     0.198 A 
ATOM     95  F   UNL A   1      46.211  32.101  30.851  1.00  0.00    -0.203 F 
ATOM     96  F   UNL A   1      45.204  35.789  26.958  1.00  0.00    -0.200 F 
ATOM     97  C   UNL A   1      45.925  35.283  29.149  1.00  0.00     0.200 A 
ATOM     98  F   UNL A   1      46.651  34.728  31.327  1.00  0.00    -0.200 F 
ATOM     99  F   UNL A   1      46.169  36.580  29.383  1.00  0.00    -0.200 F 
ENDBRANCH  66  89
ENDBRANCH  40  41
ENDBRANCH  32  35
ENDBRANCH  30  31
ENDBRANCH  29  30
ENDBRANCH  28  29
ENDBRANCH  27  28
ENDBRANCH   1  27
TORSDOF 18
ENDMDL
