MODEL 1
REMARK VINA RESULT:     -11.0      0.000      0.000
REMARK SMILES O=C(NCCCCCCNC(=O)[C@@H]1CC[C@@H](CNC(=O)c2ccc(O)nn2)O1)c1ccc(-c2c3nc(c(-c4c(F)c(F)c(F)c(F)c4F)c4ccc([nH]4)c(-c4c(F)c(F)c(F)c(F)c4F)c4nc(c(-c5c(F)c(F)c(F)c(F)c5F)c5ccc2[nH]5)C=C4)C=C3)cc1
REMARK SMILES IDX 7 1 6 2 5 3 4 4 3 5 1 6 2 7 29 9 30 10 91 11 31 12 90 13
REMARK SMILES IDX 32 14 33 15 34 16 84 17 35 18 89 19 83 20 85 21 36 22 88 23
REMARK SMILES IDX 82 24 81 25 37 27 69 28 49 29 68 30 50 31 53 32 67 33 86 34
REMARK SMILES IDX 51 35 52 36 66 38 87 39 54 40 38 41 39 42 47 43 40 44 41 45
REMARK SMILES IDX 45 46 48 47 42 48 43 49 46 50 44 51 70 52 71 53 79 54 72 55
REMARK SMILES IDX 73 56 77 57 80 58 74 59 75 60 78 61 76 62 55 63 56 64 64 65
REMARK SMILES IDX 57 66 58 67 62 68 65 69 59 70 60 71 63 72 61 73 8 74 9 75
REMARK SMILES IDX 10 76 11 77 12 79 13 80 14 81 28 82 15 83 16 84 17 85 18 86
REMARK SMILES IDX 19 87 20 89 21 90 22 91 27 92 23 93 26 94 24 95 25 96
REMARK H PARENT 3 8 85 26 53 37 10 78 18 88 25 97
REMARK Flexibility Score: inf
ROOT
ATOM      1  C   UNL A   1      33.279  34.508  28.400  1.00  0.00     0.002 C 
ENDROOT
BRANCH   1   2
ATOM      2  C   UNL A   1      34.781  34.558  28.096  1.00  0.00     0.002 C 
BRANCH   2   3
ATOM      3  C   UNL A   1      35.574  33.325  28.542  1.00  0.00     0.021 C 
BRANCH   3   4
ATOM      4  C   UNL A   1      34.783  32.339  29.397  1.00  0.00     0.116 C 
BRANCH   4   5
ATOM      5  N   UNL A   1      34.132  31.325  28.584  1.00  0.00    -0.352 N 
ATOM      6  O   UNL A   1      34.035  29.615  27.110  1.00  0.00    -0.269 OA
ATOM      7  C   UNL A   1      34.688  30.254  27.933  1.00  0.00     0.251 C 
ATOM      8  H   UNL A   1      33.156  31.420  28.486  1.00  0.00     0.163 HD
BRANCH   7   9
ATOM      9  C   UNL A   1      36.084  29.872  28.218  1.00  0.00     0.039 A 
ATOM     10  C   UNL A   1      36.415  29.255  29.428  1.00  0.00     0.014 A 
ATOM     11  C   UNL A   1      37.066  30.107  27.251  1.00  0.00     0.014 A 
ATOM     12  C   UNL A   1      37.746  28.956  29.709  1.00  0.00     0.010 A 
ATOM     13  C   UNL A   1      38.394  29.772  27.519  1.00  0.00     0.010 A 
ATOM     14  C   UNL A   1      38.745  29.217  28.759  1.00  0.00    -0.014 A 
BRANCH  14  15
ATOM     15  C   UNL A   1      40.156  28.888  29.072  1.00  0.00     0.031 A 
ATOM     16  C   UNL A   1      40.994  29.828  29.888  1.00  0.00     0.074 A 
ATOM     17  C   UNL A   1      40.669  27.721  28.639  1.00  0.00     0.049 A 
ATOM     18  N   UNL A   1      42.230  29.686  30.299  1.00  0.00    -0.248 NA
ATOM     19  C   UNL A   1      40.367  31.094  30.300  1.00  0.00     0.031 C 
ATOM     20  C   UNL A   1      39.949  26.734  27.832  1.00  0.00     0.029 A 
ATOM     21  N   UNL A   1      41.910  27.165  28.818  1.00  0.00    -0.354 N 
ATOM     22  C   UNL A   1      42.524  30.835  31.019  1.00  0.00     0.074 A 
ATOM     23  C   UNL A   1      41.353  31.683  30.963  1.00  0.00     0.031 C 
ATOM     24  C   UNL A   1      40.756  25.688  27.597  1.00  0.00     0.029 A 
ATOM     25  C   UNL A   1      42.057  25.943  28.211  1.00  0.00     0.049 A 
ATOM     26  H   UNL A   1      42.627  27.602  29.333  1.00  0.00     0.167 HD
ATOM     27  C   UNL A   1      43.665  31.141  31.680  1.00  0.00     0.037 A 
ATOM     28  C   UNL A   1      43.125  25.125  28.149  1.00  0.00     0.037 A 
ATOM     29  C   UNL A   1      44.823  30.290  31.742  1.00  0.00     0.049 A 
ATOM     30  C   UNL A   1      44.395  25.518  28.851  1.00  0.00     0.074 A 
ATOM     31  C   UNL A   1      46.005  30.493  32.434  1.00  0.00     0.029 A 
ATOM     32  N   UNL A   1      44.951  29.079  31.080  1.00  0.00    -0.354 N 
ATOM     33  N   UNL A   1      44.639  26.576  29.585  1.00  0.00    -0.248 NA
ATOM     34  C   UNL A   1      45.538  24.603  28.718  1.00  0.00     0.031 C 
ATOM     35  C   UNL A   1      46.865  29.429  32.153  1.00  0.00     0.029 A 
ATOM     36  C   UNL A   1      46.203  28.540  31.320  1.00  0.00     0.049 A 
ATOM     37  H   UNL A   1      44.254  28.664  30.521  1.00  0.00     0.167 HD
ATOM     38  C   UNL A   1      45.954  26.450  30.009  1.00  0.00     0.074 A 
ATOM     39  C   UNL A   1      46.451  25.202  29.471  1.00  0.00     0.031 C 
ATOM     40  C   UNL A   1      46.684  27.298  30.773  1.00  0.00     0.037 A 
BRANCH  27  41
ATOM     41  C   UNL A   1      43.728  32.448  32.412  1.00  0.00     0.064 A 
ATOM     42  C   UNL A   1      44.225  33.604  31.794  1.00  0.00     0.173 A 
ATOM     43  C   UNL A   1      43.189  32.569  33.702  1.00  0.00     0.173 A 
ATOM     44  F   UNL A   1      44.759  33.537  30.565  1.00  0.00    -0.203 F 
ATOM     45  C   UNL A   1      44.180  34.836  32.441  1.00  0.00     0.198 A 
ATOM     46  C   UNL A   1      43.127  33.805  34.338  1.00  0.00     0.198 A 
ATOM     47  F   UNL A   1      42.697  31.491  34.331  1.00  0.00    -0.203 F 
ATOM     48  F   UNL A   1      44.673  35.926  31.838  1.00  0.00    -0.200 F 
ATOM     49  C   UNL A   1      43.622  34.937  33.707  1.00  0.00     0.200 A 
ATOM     50  F   UNL A   1      42.578  33.904  35.556  1.00  0.00    -0.200 F 
ATOM     51  F   UNL A   1      43.560  36.128  34.320  1.00  0.00    -0.200 F 
ENDBRANCH  27  41
BRANCH  28  52
ATOM     52  C   UNL A   1      43.037  23.852  27.390  1.00  0.00     0.064 A 
ATOM     53  C   UNL A   1      43.427  23.783  26.046  1.00  0.00     0.173 A 
ATOM     54  C   UNL A   1      42.558  22.680  27.994  1.00  0.00     0.173 A 
ATOM     55  F   UNL A   1      43.871  24.884  25.421  1.00  0.00    -0.203 F 
ATOM     56  C   UNL A   1      43.328  22.593  25.329  1.00  0.00     0.198 A 
ATOM     57  C   UNL A   1      42.484  21.484  27.283  1.00  0.00     0.198 A 
ATOM     58  F   UNL A   1      42.173  22.694  29.278  1.00  0.00    -0.203 F 
ATOM     59  F   UNL A   1      43.669  22.564  24.034  1.00  0.00    -0.200 F 
ATOM     60  C   UNL A   1      42.862  21.443  25.949  1.00  0.00     0.200 A 
ATOM     61  F   UNL A   1      42.043  20.373  27.889  1.00  0.00    -0.200 F 
ATOM     62  F   UNL A   1      42.770  20.298  25.260  1.00  0.00    -0.200 F 
ENDBRANCH  28  52
BRANCH  40  63
ATOM     63  C   UNL A   1      48.101  26.911  31.075  1.00  0.00     0.064 A 
ATOM     64  C   UNL A   1      49.165  27.381  30.293  1.00  0.00     0.173 A 
ATOM     65  C   UNL A   1      48.403  26.124  32.196  1.00  0.00     0.173 A 
ATOM     66  F   UNL A   1      48.924  28.124  29.203  1.00  0.00    -0.203 F 
ATOM     67  C   UNL A   1      50.483  27.069  30.618  1.00  0.00     0.198 A 
ATOM     68  C   UNL A   1      49.723  25.837  32.533  1.00  0.00     0.198 A 
ATOM     69  F   UNL A   1      47.420  25.657  32.981  1.00  0.00    -0.203 F 
ATOM     70  F   UNL A   1      51.483  27.506  29.840  1.00  0.00    -0.200 F 
ATOM     71  C   UNL A   1      50.761  26.307  31.742  1.00  0.00     0.200 A 
ATOM     72  F   UNL A   1      49.991  25.111  33.628  1.00  0.00    -0.200 F 
ATOM     73  F   UNL A   1      52.030  26.022  32.063  1.00  0.00    -0.200 F 
ENDBRANCH  40  63
ENDBRANCH  14  15
ENDBRANCH   7   9
ENDBRANCH   4   5
ENDBRANCH   3   4
ENDBRANCH   2   3
ENDBRANCH   1   2
BRANCH   1  74
ATOM     74  C   UNL A   1      32.657  35.844  28.826  1.00  0.00     0.021 C 
BRANCH  74  75
ATOM     75  C   UNL A   1      33.682  36.922  29.177  1.00  0.00     0.116 C 
BRANCH  75  76
ATOM     76  N   UNL A   1      33.326  37.597  30.410  1.00  0.00    -0.354 N 
ATOM     77  C   UNL A   1      33.461  37.167  31.702  1.00  0.00     0.249 C 
ATOM     78  H   UNL A   1      32.931  38.492  30.301  1.00  0.00     0.163 HD
ATOM     79  O   UNL A   1      33.007  37.878  32.599  1.00  0.00    -0.272 OA
BRANCH  77  80
ATOM     80  C   UNL A   1      34.189  35.837  31.970  1.00  0.00     0.207 C 
ATOM     81  C   UNL A   1      33.239  34.747  32.449  1.00  0.00     0.045 C 
ATOM     82  O   UNL A   1      35.217  35.941  32.969  1.00  0.00    -0.363 OA
ATOM     83  C   UNL A   1      34.155  33.871  33.264  1.00  0.00     0.037 C 
ATOM     84  C   UNL A   1      35.027  34.907  33.954  1.00  0.00     0.138 C 
BRANCH  84  85
ATOM     85  C   UNL A   1      36.393  34.425  34.479  1.00  0.00     0.148 C 
BRANCH  85  86
ATOM     86  N   UNL A   1      37.497  34.679  33.561  1.00  0.00    -0.348 N 
ATOM     87  C   UNL A   1      38.415  33.777  33.071  1.00  0.00     0.271 C 
ATOM     88  H   UNL A   1      37.598  35.609  33.254  1.00  0.00     0.163 HD
ATOM     89  O   UNL A   1      39.466  34.187  32.583  1.00  0.00    -0.267 OA
BRANCH  87  90
ATOM     90  C   UNL A   1      38.174  32.317  33.176  1.00  0.00     0.151 A 
ATOM     91  C   UNL A   1      39.111  31.500  33.792  1.00  0.00     0.042 A 
ATOM     92  N   UNL A   1      37.043  31.831  32.607  1.00  0.00    -0.142 NA
ATOM     93  C   UNL A   1      38.850  30.137  33.849  1.00  0.00     0.072 A 
ATOM     94  N   UNL A   1      36.793  30.492  32.658  1.00  0.00    -0.112 NA
ATOM     95  C   UNL A   1      37.684  29.689  33.268  1.00  0.00     0.230 A 
BRANCH  95  96
ATOM     96  O   UNL A   1      37.369  28.369  33.283  1.00  0.00    -0.492 OA
ATOM     97  H   UNL A   1      37.066  27.967  34.074  1.00  0.00     0.295 HD
ENDBRANCH  95  96
ENDBRANCH  87  90
ENDBRANCH  85  86
ENDBRANCH  84  85
ENDBRANCH  77  80
ENDBRANCH  75  76
ENDBRANCH  74  75
ENDBRANCH   1  74
TORSDOF 17
ENDMDL
MODEL 2
REMARK VINA RESULT:     -10.8      0.295      7.225
REMARK SMILES O=C(NCCCCCCNC(=O)[C@@H]1CC[C@@H](CNC(=O)c2ccc(O)nn2)O1)c1ccc(-c2c3nc(c(-c4c(F)c(F)c(F)c(F)c4F)c4ccc([nH]4)c(-c4c(F)c(F)c(F)c(F)c4F)c4nc(c(-c5c(F)c(F)c(F)c(F)c5F)c5ccc2[nH]5)C=C4)C=C3)cc1
REMARK SMILES IDX 7 1 6 2 5 3 4 4 3 5 1 6 2 7 29 9 30 10 91 11 31 12 90 13
REMARK SMILES IDX 32 14 33 15 34 16 84 17 35 18 89 19 83 20 85 21 36 22 88 23
REMARK SMILES IDX 82 24 81 25 37 27 69 28 49 29 68 30 50 31 53 32 67 33 86 34
REMARK SMILES IDX 51 35 52 36 66 38 87 39 54 40 38 41 39 42 47 43 40 44 41 45
REMARK SMILES IDX 45 46 48 47 42 48 43 49 46 50 44 51 70 52 71 53 79 54 72 55
REMARK SMILES IDX 73 56 77 57 80 58 74 59 75 60 78 61 76 62 55 63 56 64 64 65
REMARK SMILES IDX 57 66 58 67 62 68 65 69 59 70 60 71 63 72 61 73 8 74 9 75
REMARK SMILES IDX 10 76 11 77 12 79 13 80 14 81 28 82 15 83 16 84 17 85 18 86
REMARK SMILES IDX 19 87 20 89 21 90 22 91 27 92 23 93 26 94 24 95 25 96
REMARK H PARENT 3 8 85 26 53 37 10 78 18 88 25 97
REMARK Flexibility Score: inf
ROOT
ATOM      1  C   UNL A   1      33.273  34.413  28.352  1.00  0.00     0.002 C 
ENDROOT
BRANCH   1   2
ATOM      2  C   UNL A   1      34.776  34.479  28.061  1.00  0.00     0.002 C 
BRANCH   2   3
ATOM      3  C   UNL A   1      35.594  33.303  28.604  1.00  0.00     0.021 C 
BRANCH   3   4
ATOM      4  C   UNL A   1      34.783  32.276  29.389  1.00  0.00     0.116 C 
BRANCH   4   5
ATOM      5  N   UNL A   1      34.181  31.284  28.514  1.00  0.00    -0.352 N 
ATOM      6  O   UNL A   1      34.171  29.616  26.990  1.00  0.00    -0.269 OA
ATOM      7  C   UNL A   1      34.776  30.233  27.865  1.00  0.00     0.251 C 
ATOM      8  H   UNL A   1      33.212  31.380  28.366  1.00  0.00     0.163 HD
BRANCH   7   9
ATOM      9  C   UNL A   1      36.155  29.846  28.215  1.00  0.00     0.039 A 
ATOM     10  C   UNL A   1      36.424  29.205  29.428  1.00  0.00     0.014 A 
ATOM     11  C   UNL A   1      37.186  30.102  27.306  1.00  0.00     0.014 A 
ATOM     12  C   UNL A   1      37.738  28.901  29.772  1.00  0.00     0.010 A 
ATOM     13  C   UNL A   1      38.499  29.762  27.636  1.00  0.00     0.010 A 
ATOM     14  C   UNL A   1      38.786  29.182  28.881  1.00  0.00    -0.014 A 
BRANCH  14  15
ATOM     15  C   UNL A   1      40.178  28.847  29.262  1.00  0.00     0.031 A 
ATOM     16  C   UNL A   1      40.820  27.583  28.767  1.00  0.00     0.074 A 
ATOM     17  C   UNL A   1      40.871  29.703  30.036  1.00  0.00     0.049 A 
ATOM     18  N   UNL A   1      42.040  27.149  28.958  1.00  0.00    -0.248 NA
ATOM     19  C   UNL A   1      39.986  26.689  27.948  1.00  0.00     0.031 C 
ATOM     20  C   UNL A   1      40.347  30.956  30.582  1.00  0.00     0.029 A 
ATOM     21  N   UNL A   1      42.163  29.654  30.495  1.00  0.00    -0.354 N 
ATOM     22  C   UNL A   1      42.122  25.940  28.282  1.00  0.00     0.074 A 
ATOM     23  C   UNL A   1      40.821  25.688  27.703  1.00  0.00     0.031 C 
ATOM     24  C   UNL A   1      41.312  31.563  31.290  1.00  0.00     0.029 A 
ATOM     25  C   UNL A   1      42.511  30.730  31.272  1.00  0.00     0.049 A 
ATOM     26  H   UNL A   1      42.781  28.916  30.286  1.00  0.00     0.167 HD
ATOM     27  C   UNL A   1      43.196  25.127  28.145  1.00  0.00     0.037 A 
ATOM     28  C   UNL A   1      43.665  31.007  31.908  1.00  0.00     0.037 A 
ATOM     29  C   UNL A   1      44.491  25.386  28.714  1.00  0.00     0.049 A 
ATOM     30  C   UNL A   1      44.823  30.057  31.778  1.00  0.00     0.074 A 
ATOM     31  C   UNL A   1      45.654  24.645  28.583  1.00  0.00     0.029 A 
ATOM     32  N   UNL A   1      44.794  26.464  29.531  1.00  0.00    -0.354 N 
ATOM     33  N   UNL A   1      44.910  28.950  31.081  1.00  0.00    -0.248 NA
ATOM     34  C   UNL A   1      46.045  30.393  32.523  1.00  0.00     0.031 C 
ATOM     35  C   UNL A   1      46.647  25.249  29.358  1.00  0.00     0.029 A 
ATOM     36  C   UNL A   1      46.116  26.391  29.938  1.00  0.00     0.049 A 
ATOM     37  H   UNL A   1      44.164  27.177  29.785  1.00  0.00     0.167 HD
ATOM     38  C   UNL A   1      46.192  28.466  31.293  1.00  0.00     0.074 A 
ATOM     39  C   UNL A   1      46.859  29.409  32.165  1.00  0.00     0.031 C 
ATOM     40  C   UNL A   1      46.763  27.336  30.810  1.00  0.00     0.037 A 
BRANCH  27  41
ATOM     41  C   UNL A   1      43.035  23.875  27.336  1.00  0.00     0.064 A 
ATOM     42  C   UNL A   1      43.429  23.822  25.992  1.00  0.00     0.173 A 
ATOM     43  C   UNL A   1      42.584  22.691  27.939  1.00  0.00     0.173 A 
ATOM     44  F   UNL A   1      43.858  24.931  25.370  1.00  0.00    -0.203 F 
ATOM     45  C   UNL A   1      43.378  22.628  25.278  1.00  0.00     0.198 A 
ATOM     46  C   UNL A   1      42.553  21.494  27.228  1.00  0.00     0.198 A 
ATOM     47  F   UNL A   1      42.201  22.691  29.224  1.00  0.00    -0.203 F 
ATOM     48  F   UNL A   1      43.747  22.603  23.990  1.00  0.00    -0.200 F 
ATOM     49  C   UNL A   1      42.950  21.464  25.899  1.00  0.00     0.200 A 
ATOM     50  F   UNL A   1      42.150  20.368  27.832  1.00  0.00    -0.200 F 
ATOM     51  F   UNL A   1      42.923  20.310  25.217  1.00  0.00    -0.200 F 
ENDBRANCH  27  41
BRANCH  28  52
ATOM     52  C   UNL A   1      43.780  32.241  32.726  1.00  0.00     0.064 A 
ATOM     53  C   UNL A   1      43.355  32.265  34.061  1.00  0.00     0.173 A 
ATOM     54  C   UNL A   1      44.315  33.420  32.187  1.00  0.00     0.173 A 
ATOM     55  F   UNL A   1      42.817  31.167  34.611  1.00  0.00    -0.203 F 
ATOM     56  C   UNL A   1      43.446  33.428  34.822  1.00  0.00     0.198 A 
ATOM     57  C   UNL A   1      44.431  34.575  32.958  1.00  0.00     0.198 A 
ATOM     58  F   UNL A   1      44.737  33.448  30.914  1.00  0.00    -0.203 F 
ATOM     59  F   UNL A   1      42.995  33.436  36.084  1.00  0.00    -0.200 F 
ATOM     60  C   UNL A   1      43.989  34.580  34.273  1.00  0.00     0.200 A 
ATOM     61  F   UNL A   1      44.965  35.683  32.426  1.00  0.00    -0.200 F 
ATOM     62  F   UNL A   1      44.080  35.697  35.007  1.00  0.00    -0.200 F 
ENDBRANCH  28  52
BRANCH  40  63
ATOM     63  C   UNL A   1      48.179  27.051  31.211  1.00  0.00     0.064 A 
ATOM     64  C   UNL A   1      49.259  27.616  30.519  1.00  0.00     0.173 A 
ATOM     65  C   UNL A   1      48.457  26.267  32.341  1.00  0.00     0.173 A 
ATOM     66  F   UNL A   1      49.043  28.361  29.424  1.00  0.00    -0.203 F 
ATOM     67  C   UNL A   1      50.569  27.398  30.936  1.00  0.00     0.198 A 
ATOM     68  C   UNL A   1      49.767  26.073  32.771  1.00  0.00     0.198 A 
ATOM     69  F   UNL A   1      47.458  25.711  33.042  1.00  0.00    -0.203 F 
ATOM     70  F   UNL A   1      51.587  27.924  30.242  1.00  0.00    -0.200 F 
ATOM     71  C   UNL A   1      50.822  26.636  32.067  1.00  0.00     0.200 A 
ATOM     72  F   UNL A   1      50.009  25.347  33.872  1.00  0.00    -0.200 F 
ATOM     73  F   UNL A   1      52.081  26.441  32.478  1.00  0.00    -0.200 F 
ENDBRANCH  40  63
ENDBRANCH  14  15
ENDBRANCH   7   9
ENDBRANCH   4   5
ENDBRANCH   3   4
ENDBRANCH   2   3
ENDBRANCH   1   2
BRANCH   1  74
ATOM     74  C   UNL A   1      32.639  35.734  28.805  1.00  0.00     0.021 C 
BRANCH  74  75
ATOM     75  C   UNL A   1      33.655  36.813  29.182  1.00  0.00     0.116 C 
BRANCH  75  76
ATOM     76  N   UNL A   1      33.270  37.486  30.406  1.00  0.00    -0.354 N 
ATOM     77  C   UNL A   1      33.442  37.087  31.704  1.00  0.00     0.249 C 
ATOM     78  H   UNL A   1      32.820  38.354  30.287  1.00  0.00     0.163 HD
ATOM     79  O   UNL A   1      32.954  37.784  32.593  1.00  0.00    -0.272 OA
BRANCH  77  80
ATOM     80  C   UNL A   1      34.251  35.808  31.987  1.00  0.00     0.207 C 
ATOM     81  C   UNL A   1      33.361  34.644  32.400  1.00  0.00     0.045 C 
ATOM     82  O   UNL A   1      35.220  35.966  33.036  1.00  0.00    -0.363 OA
ATOM     83  C   UNL A   1      34.298  33.820  33.246  1.00  0.00     0.037 C 
ATOM     84  C   UNL A   1      35.058  34.902  33.995  1.00  0.00     0.138 C 
BRANCH  84  85
ATOM     85  C   UNL A   1      36.429  34.510  34.578  1.00  0.00     0.148 C 
BRANCH  85  86
ATOM     86  N   UNL A   1      37.543  34.741  33.667  1.00  0.00    -0.348 N 
ATOM     87  C   UNL A   1      38.438  33.818  33.173  1.00  0.00     0.271 C 
ATOM     88  H   UNL A   1      37.671  35.670  33.367  1.00  0.00     0.163 HD
ATOM     89  O   UNL A   1      39.502  34.203  32.691  1.00  0.00    -0.267 OA
BRANCH  87  90
ATOM     90  C   UNL A   1      38.156  32.364  33.265  1.00  0.00     0.151 A 
ATOM     91  C   UNL A   1      38.923  31.559  34.095  1.00  0.00     0.042 A 
ATOM     92  N   UNL A   1      37.170  31.870  32.476  1.00  0.00    -0.142 NA
ATOM     93  C   UNL A   1      38.634  30.201  34.134  1.00  0.00     0.072 A 
ATOM     94  N   UNL A   1      36.894  30.536  32.512  1.00  0.00    -0.112 NA
ATOM     95  C   UNL A   1      37.617  29.745  33.325  1.00  0.00     0.230 A 
BRANCH  95  96
ATOM     96  O   UNL A   1      37.286  28.429  33.310  1.00  0.00    -0.492 OA
ATOM     97  H   UNL A   1      37.772  27.829  32.778  1.00  0.00     0.295 HD
ENDBRANCH  95  96
ENDBRANCH  87  90
ENDBRANCH  85  86
ENDBRANCH  84  85
ENDBRANCH  77  80
ENDBRANCH  75  76
ENDBRANCH  74  75
ENDBRANCH   1  74
TORSDOF 17
ENDMDL
MODEL 3
REMARK VINA RESULT:     -10.8      5.268     11.123
REMARK SMILES O=C(NCCCCCCNC(=O)[C@@H]1CC[C@@H](CNC(=O)c2ccc(O)nn2)O1)c1ccc(-c2c3nc(c(-c4c(F)c(F)c(F)c(F)c4F)c4ccc([nH]4)c(-c4c(F)c(F)c(F)c(F)c4F)c4nc(c(-c5c(F)c(F)c(F)c(F)c5F)c5ccc2[nH]5)C=C4)C=C3)cc1
REMARK SMILES IDX 7 1 6 2 5 3 4 4 3 5 1 6 2 7 29 9 30 10 91 11 31 12 90 13
REMARK SMILES IDX 32 14 33 15 34 16 84 17 35 18 89 19 83 20 85 21 36 22 88 23
REMARK SMILES IDX 82 24 81 25 37 27 69 28 49 29 68 30 50 31 53 32 67 33 86 34
REMARK SMILES IDX 51 35 52 36 66 38 87 39 54 40 38 41 39 42 47 43 40 44 41 45
REMARK SMILES IDX 45 46 48 47 42 48 43 49 46 50 44 51 70 52 71 53 79 54 72 55
REMARK SMILES IDX 73 56 77 57 80 58 74 59 75 60 78 61 76 62 55 63 56 64 64 65
REMARK SMILES IDX 57 66 58 67 62 68 65 69 59 70 60 71 63 72 61 73 8 74 9 75
REMARK SMILES IDX 10 76 11 77 12 79 13 80 14 81 28 82 15 83 16 84 17 85 18 86
REMARK SMILES IDX 19 87 20 89 21 90 22 91 27 92 23 93 26 94 24 95 25 96
REMARK H PARENT 3 8 85 26 53 37 10 78 18 88 25 97
REMARK Flexibility Score: inf
ROOT
ATOM      1  C   UNL A   1      32.563  30.180  26.869  1.00  0.00     0.002 C 
ENDROOT
BRANCH   1   2
ATOM      2  C   UNL A   1      31.378  30.942  26.264  1.00  0.00     0.002 C 
BRANCH   2   3
ATOM      3  C   UNL A   1      31.385  32.453  26.512  1.00  0.00     0.021 C 
BRANCH   3   4
ATOM      4  C   UNL A   1      32.609  32.967  27.264  1.00  0.00     0.116 C 
BRANCH   4   5
ATOM      5  N   UNL A   1      32.447  34.353  27.672  1.00  0.00    -0.352 N 
ATOM      6  O   UNL A   1      32.632  36.128  29.057  1.00  0.00    -0.269 OA
ATOM      7  C   UNL A   1      33.038  35.020  28.714  1.00  0.00     0.251 C 
ATOM      8  H   UNL A   1      31.827  34.887  27.124  1.00  0.00     0.163 HD
BRANCH   7   9
ATOM      9  C   UNL A   1      34.165  34.397  29.433  1.00  0.00     0.039 A 
ATOM     10  C   UNL A   1      35.470  34.523  28.947  1.00  0.00     0.014 A 
ATOM     11  C   UNL A   1      33.915  33.704  30.621  1.00  0.00     0.014 A 
ATOM     12  C   UNL A   1      36.516  33.878  29.603  1.00  0.00     0.010 A 
ATOM     13  C   UNL A   1      34.970  33.089  31.298  1.00  0.00     0.010 A 
ATOM     14  C   UNL A   1      36.273  33.152  30.779  1.00  0.00    -0.014 A 
BRANCH  14  15
ATOM     15  C   UNL A   1      37.399  32.477  31.467  1.00  0.00     0.031 A 
ATOM     16  C   UNL A   1      38.123  31.340  30.806  1.00  0.00     0.074 A 
ATOM     17  C   UNL A   1      37.782  32.912  32.682  1.00  0.00     0.049 A 
ATOM     18  N   UNL A   1      39.157  30.661  31.234  1.00  0.00    -0.248 NA
ATOM     19  C   UNL A   1      37.625  30.908  29.491  1.00  0.00     0.031 C 
ATOM     20  C   UNL A   1      37.146  34.002  33.423  1.00  0.00     0.029 A 
ATOM     21  N   UNL A   1      38.797  32.496  33.505  1.00  0.00    -0.354 N 
ATOM     22  C   UNL A   1      39.436  29.731  30.244  1.00  0.00     0.074 A 
ATOM     23  C   UNL A   1      38.444  29.904  29.206  1.00  0.00     0.031 C 
ATOM     24  C   UNL A   1      37.794  34.178  34.585  1.00  0.00     0.029 A 
ATOM     25  C   UNL A   1      38.870  33.196  34.683  1.00  0.00     0.049 A 
ATOM     26  H   UNL A   1      39.414  31.765  33.271  1.00  0.00     0.167 HD
ATOM     27  C   UNL A   1      40.443  28.826  30.203  1.00  0.00     0.037 A 
ATOM     28  C   UNL A   1      39.706  33.054  35.729  1.00  0.00     0.037 A 
ATOM     29  C   UNL A   1      41.434  28.664  31.233  1.00  0.00     0.049 A 
ATOM     30  C   UNL A   1      40.782  32.005  35.674  1.00  0.00     0.074 A 
ATOM     31  C   UNL A   1      42.524  27.810  31.252  1.00  0.00     0.029 A 
ATOM     32  N   UNL A   1      41.451  29.361  32.430  1.00  0.00    -0.354 N 
ATOM     33  N   UNL A   1      41.078  31.175  34.703  1.00  0.00    -0.248 NA
ATOM     34  C   UNL A   1      41.642  31.872  36.859  1.00  0.00     0.031 C 
ATOM     35  C   UNL A   1      43.173  27.957  32.481  1.00  0.00     0.029 A 
ATOM     36  C   UNL A   1      42.513  28.933  33.210  1.00  0.00     0.049 A 
ATOM     37  H   UNL A   1      40.804  30.057  32.689  1.00  0.00     0.167 HD
ATOM     38  C   UNL A   1      42.160  30.432  35.153  1.00  0.00     0.074 A 
ATOM     39  C   UNL A   1      42.485  30.923  36.475  1.00  0.00     0.031 C 
ATOM     40  C   UNL A   1      42.820  29.429  34.526  1.00  0.00     0.037 A 
BRANCH  27  41
ATOM     41  C   UNL A   1      40.546  27.940  28.998  1.00  0.00     0.064 A 
ATOM     42  C   UNL A   1      39.793  26.762  28.895  1.00  0.00     0.173 A 
ATOM     43  C   UNL A   1      41.322  28.326  27.895  1.00  0.00     0.173 A 
ATOM     44  F   UNL A   1      39.044  26.346  29.928  1.00  0.00    -0.203 F 
ATOM     45  C   UNL A   1      39.812  26.001  27.730  1.00  0.00     0.198 A 
ATOM     46  C   UNL A   1      41.323  27.573  26.723  1.00  0.00     0.198 A 
ATOM     47  F   UNL A   1      42.056  29.447  27.944  1.00  0.00    -0.203 F 
ATOM     48  F   UNL A   1      39.095  24.871  27.657  1.00  0.00    -0.200 F 
ATOM     49  C   UNL A   1      40.568  26.412  26.641  1.00  0.00     0.200 A 
ATOM     50  F   UNL A   1      42.045  27.978  25.669  1.00  0.00    -0.200 F 
ATOM     51  F   UNL A   1      40.568  25.690  25.512  1.00  0.00    -0.200 F 
ENDBRANCH  27  41
BRANCH  28  52
ATOM     52  C   UNL A   1      39.556  33.929  36.919  1.00  0.00     0.064 A 
ATOM     53  C   UNL A   1      40.179  35.183  36.977  1.00  0.00     0.173 A 
ATOM     54  C   UNL A   1      38.788  33.528  38.022  1.00  0.00     0.173 A 
ATOM     55  F   UNL A   1      40.941  35.599  35.954  1.00  0.00    -0.203 F 
ATOM     56  C   UNL A   1      40.053  35.996  38.100  1.00  0.00     0.198 A 
ATOM     57  C   UNL A   1      38.642  34.354  39.134  1.00  0.00     0.198 A 
ATOM     58  F   UNL A   1      38.172  32.337  38.015  1.00  0.00    -0.203 F 
ATOM     59  F   UNL A   1      40.693  37.172  38.147  1.00  0.00    -0.200 F 
ATOM     60  C   UNL A   1      39.280  35.584  39.176  1.00  0.00     0.200 A 
ATOM     61  F   UNL A   1      37.885  33.956  40.167  1.00  0.00    -0.200 F 
ATOM     62  F   UNL A   1      39.156  36.369  40.255  1.00  0.00    -0.200 F 
ENDBRANCH  28  52
BRANCH  40  63
ATOM     63  C   UNL A   1      43.962  28.789  35.258  1.00  0.00     0.064 A 
ATOM     64  C   UNL A   1      43.767  27.656  36.059  1.00  0.00     0.173 A 
ATOM     65  C   UNL A   1      45.271  29.268  35.098  1.00  0.00     0.173 A 
ATOM     66  F   UNL A   1      42.531  27.171  36.253  1.00  0.00    -0.203 F 
ATOM     67  C   UNL A   1      44.842  27.029  36.684  1.00  0.00     0.198 A 
ATOM     68  C   UNL A   1      46.346  28.623  35.704  1.00  0.00     0.198 A 
ATOM     69  F   UNL A   1      45.510  30.345  34.335  1.00  0.00    -0.203 F 
ATOM     70  F   UNL A   1      44.629  25.965  37.470  1.00  0.00    -0.200 F 
ATOM     71  C   UNL A   1      46.130  27.506  36.498  1.00  0.00     0.200 A 
ATOM     72  F   UNL A   1      47.593  29.077  35.511  1.00  0.00    -0.200 F 
ATOM     73  F   UNL A   1      47.166  26.893  37.086  1.00  0.00    -0.200 F 
ENDBRANCH  40  63
ENDBRANCH  14  15
ENDBRANCH   7   9
ENDBRANCH   4   5
ENDBRANCH   3   4
ENDBRANCH   2   3
ENDBRANCH   1   2
BRANCH   1  74
ATOM     74  C   UNL A   1      32.240  28.770  27.377  1.00  0.00     0.021 C 
BRANCH  74  75
ATOM     75  C   UNL A   1      31.983  27.752  26.265  1.00  0.00     0.116 C 
BRANCH  75  76
ATOM     76  N   UNL A   1      31.069  26.718  26.706  1.00  0.00    -0.354 N 
ATOM     77  C   UNL A   1      30.833  25.483  26.167  1.00  0.00     0.249 C 
ATOM     78  H   UNL A   1      30.543  26.936  27.510  1.00  0.00     0.163 HD
ATOM     79  O   UNL A   1      29.941  24.795  26.663  1.00  0.00    -0.272 OA
BRANCH  77  80
ATOM     80  C   UNL A   1      31.705  25.008  24.990  1.00  0.00     0.207 C 
ATOM     81  C   UNL A   1      31.028  25.234  23.645  1.00  0.00     0.045 C 
ATOM     82  O   UNL A   1      32.029  23.609  25.047  1.00  0.00    -0.363 OA
ATOM     83  C   UNL A   1      31.648  24.152  22.798  1.00  0.00     0.037 C 
ATOM     84  C   UNL A   1      31.709  22.996  23.783  1.00  0.00     0.138 C 
BRANCH  84  85
ATOM     85  C   UNL A   1      32.719  21.874  23.474  1.00  0.00     0.148 C 
BRANCH  85  86
ATOM     86  N   UNL A   1      33.911  21.910  24.313  1.00  0.00    -0.348 N 
ATOM     87  C   UNL A   1      34.380  20.931  25.160  1.00  0.00     0.271 C 
ATOM     88  H   UNL A   1      34.447  22.735  24.267  1.00  0.00     0.163 HD
ATOM     89  O   UNL A   1      35.193  21.224  26.034  1.00  0.00    -0.267 OA
BRANCH  87  90
ATOM     90  C   UNL A   1      33.873  19.539  25.064  1.00  0.00     0.151 A 
ATOM     91  C   UNL A   1      34.627  18.567  24.423  1.00  0.00     0.042 A 
ATOM     92  N   UNL A   1      32.642  19.289  25.576  1.00  0.00    -0.142 NA
ATOM     93  C   UNL A   1      34.102  17.284  24.342  1.00  0.00     0.072 A 
ATOM     94  N   UNL A   1      32.127  18.030  25.489  1.00  0.00    -0.112 NA
ATOM     95  C   UNL A   1      32.855  17.072  24.886  1.00  0.00     0.230 A 
BRANCH  95  96
ATOM     96  O   UNL A   1      32.280  15.843  24.836  1.00  0.00    -0.492 OA
ATOM     97  H   UNL A   1      31.385  15.754  24.573  1.00  0.00     0.295 HD
ENDBRANCH  95  96
ENDBRANCH  87  90
ENDBRANCH  85  86
ENDBRANCH  84  85
ENDBRANCH  77  80
ENDBRANCH  75  76
ENDBRANCH  74  75
ENDBRANCH   1  74
TORSDOF 17
ENDMDL
