MODEL 1
REMARK VINA RESULT:     -13.1      0.000      0.000
REMARK SMILES O=C(NCCCCCCNC(=O)[C@H]1CC2=c3ccccc3=N[C@H]2[C@@H](c2ccccc2)[NH2+]1)c1ccc(-c2c3nc(c(-c4c(F)c(F)c(F)c(F)c4F)c4ccc([nH]4)c(-c4c(F)c(F)c(F)c(F)c4F)c4nc(c(-c5c(F)c(F)c(F)c(F)c5F)c5ccc2[nH]5)C=C4)C=C3)cc1
REMARK SMILES IDX 6 1 5 2 4 3 3 4 1 5 2 6 32 8 33 9 94 10 34 11 93 12 35 13
REMARK SMILES IDX 36 14 37 15 87 16 38 17 92 18 86 19 88 20 39 21 91 22 85 23
REMARK SMILES IDX 84 24 40 26 72 27 52 28 71 29 53 30 56 31 70 32 89 33 54 34
REMARK SMILES IDX 55 35 69 37 90 38 57 39 41 40 42 41 50 42 43 43 44 44 48 45
REMARK SMILES IDX 51 46 45 47 46 48 49 49 47 50 73 51 74 52 82 53 75 54 76 55
REMARK SMILES IDX 80 56 83 57 77 58 78 59 81 60 79 61 58 62 59 63 67 64 60 65
REMARK SMILES IDX 61 66 65 67 68 68 62 69 63 70 66 71 64 72 7 73 8 74 9 75
REMARK SMILES IDX 10 76 11 77 12 79 13 80 14 81 31 82 15 83 24 84 16 87 23 88
REMARK SMILES IDX 17 89 21 90 22 91 18 92 20 93 19 94 25 95 26 96 30 97 27 98
REMARK SMILES IDX 29 99 28 100
REMARK H PARENT 3 7 88 25 56 36 10 78 31 85 31 86
REMARK Flexibility Score: inf
ROOT
ATOM      1  C   UNL A   1      34.576  33.803  28.760  1.00  0.00     0.002 C 
ENDROOT
BRANCH   1   2
ATOM      2  C   UNL A   1      33.278  34.616  28.707  1.00  0.00     0.021 C 
BRANCH   2   3
ATOM      3  C   UNL A   1      33.357  36.038  29.255  1.00  0.00     0.116 C 
BRANCH   3   4
ATOM      4  N   UNL A   1      32.528  36.239  30.434  1.00  0.00    -0.352 N 
ATOM      5  O   UNL A   1      31.757  35.932  32.526  1.00  0.00    -0.269 OA
ATOM      6  C   UNL A   1      32.666  35.748  31.705  1.00  0.00     0.251 C 
ATOM      7  H   UNL A   1      31.744  36.818  30.295  1.00  0.00     0.163 HD
BRANCH   6   8
ATOM      8  C   UNL A   1      33.868  34.991  32.124  1.00  0.00     0.039 A 
ATOM      9  C   UNL A   1      35.104  35.646  32.138  1.00  0.00     0.014 A 
ATOM     10  C   UNL A   1      33.809  33.631  32.443  1.00  0.00     0.014 A 
ATOM     11  C   UNL A   1      36.265  34.953  32.501  1.00  0.00     0.010 A 
ATOM     12  C   UNL A   1      34.952  32.962  32.882  1.00  0.00     0.010 A 
ATOM     13  C   UNL A   1      36.198  33.608  32.893  1.00  0.00    -0.014 A 
BRANCH  13  14
ATOM     14  C   UNL A   1      37.427  32.848  33.248  1.00  0.00     0.031 A 
ATOM     15  C   UNL A   1      38.126  33.120  34.555  1.00  0.00     0.074 A 
ATOM     16  C   UNL A   1      37.932  31.931  32.398  1.00  0.00     0.049 A 
ATOM     17  N   UNL A   1      39.233  32.603  35.028  1.00  0.00    -0.248 NA
ATOM     18  C   UNL A   1      37.516  34.126  35.441  1.00  0.00     0.031 C 
ATOM     19  C   UNL A   1      37.371  31.593  31.089  1.00  0.00     0.029 A 
ATOM     20  N   UNL A   1      39.030  31.113  32.508  1.00  0.00    -0.354 N 
ATOM     21  C   UNL A   1      39.453  33.228  36.248  1.00  0.00     0.074 A 
ATOM     22  C   UNL A   1      38.402  34.204  36.423  1.00  0.00     0.031 C 
ATOM     23  C   UNL A   1      38.107  30.618  30.534  1.00  0.00     0.029 A 
ATOM     24  C   UNL A   1      39.214  30.284  31.427  1.00  0.00     0.049 A 
ATOM     25  H   UNL A   1      39.631  31.120  33.289  1.00  0.00     0.167 HD
ATOM     26  C   UNL A   1      40.425  32.987  37.158  1.00  0.00     0.037 A 
ATOM     27  C   UNL A   1      40.165  29.360  31.184  1.00  0.00     0.037 A 
ATOM     28  C   UNL A   1      41.439  31.978  37.013  1.00  0.00     0.049 A 
ATOM     29  C   UNL A   1      41.239  29.117  32.212  1.00  0.00     0.074 A 
ATOM     30  C   UNL A   1      42.428  31.619  37.912  1.00  0.00     0.029 A 
ATOM     31  N   UNL A   1      41.586  31.160  35.905  1.00  0.00    -0.354 N 
ATOM     32  N   UNL A   1      41.402  29.679  33.384  1.00  0.00    -0.248 NA
ATOM     33  C   UNL A   1      42.262  28.111  31.885  1.00  0.00     0.031 C 
ATOM     34  C   UNL A   1      43.199  30.609  37.333  1.00  0.00     0.029 A 
ATOM     35  C   UNL A   1      42.663  30.309  36.090  1.00  0.00     0.049 A 
ATOM     36  H   UNL A   1      41.012  31.181  35.105  1.00  0.00     0.167 HD
ATOM     37  C   UNL A   1      42.522  29.079  33.944  1.00  0.00     0.074 A 
ATOM     38  C   UNL A   1      42.996  28.101  32.989  1.00  0.00     0.031 C 
ATOM     39  C   UNL A   1      43.107  29.323  35.141  1.00  0.00     0.037 A 
BRANCH  26  40
ATOM     40  C   UNL A   1      40.431  33.800  38.419  1.00  0.00     0.064 A 
ATOM     41  C   UNL A   1      41.180  34.981  38.522  1.00  0.00     0.173 A 
ATOM     42  C   UNL A   1      39.603  33.450  39.497  1.00  0.00     0.173 A 
ATOM     43  F   UNL A   1      41.992  35.353  37.522  1.00  0.00    -0.203 F 
ATOM     44  C   UNL A   1      41.109  35.777  39.661  1.00  0.00     0.198 A 
ATOM     45  C   UNL A   1      39.514  34.263  40.624  1.00  0.00     0.198 A 
ATOM     46  F   UNL A   1      38.860  32.334  39.445  1.00  0.00    -0.203 F 
ATOM     47  F   UNL A   1      41.854  36.888  39.748  1.00  0.00    -0.200 F 
ATOM     48  C   UNL A   1      40.267  35.424  40.706  1.00  0.00     0.200 A 
ATOM     49  F   UNL A   1      38.688  33.929  41.626  1.00  0.00    -0.200 F 
ATOM     50  F   UNL A   1      40.181  36.204  41.791  1.00  0.00    -0.200 F 
ENDBRANCH  26  40
BRANCH  27  51
ATOM     51  C   UNL A   1      40.129  28.570  29.925  1.00  0.00     0.064 A 
ATOM     52  C   UNL A   1      39.481  27.327  29.876  1.00  0.00     0.173 A 
ATOM     53  C   UNL A   1      40.738  29.033  28.749  1.00  0.00     0.173 A 
ATOM     54  F   UNL A   1      38.902  26.829  30.979  1.00  0.00    -0.203 F 
ATOM     55  C   UNL A   1      39.457  26.571  28.705  1.00  0.00     0.198 A 
ATOM     56  C   UNL A   1      40.690  28.290  27.572  1.00  0.00     0.198 A 
ATOM     57  F   UNL A   1      41.370  30.215  28.742  1.00  0.00    -0.203 F 
ATOM     58  F   UNL A   1      38.866  25.369  28.698  1.00  0.00    -0.200 F 
ATOM     59  C   UNL A   1      40.055  27.057  27.551  1.00  0.00     0.200 A 
ATOM     60  F   UNL A   1      41.259  28.767  26.457  1.00  0.00    -0.200 F 
ATOM     61  F   UNL A   1      40.029  26.333  26.424  1.00  0.00    -0.200 F 
ENDBRANCH  27  51
BRANCH  39  62
ATOM     62  C   UNL A   1      44.311  28.511  35.517  1.00  0.00     0.064 A 
ATOM     63  C   UNL A   1      45.608  28.967  35.250  1.00  0.00     0.173 A 
ATOM     64  C   UNL A   1      44.165  27.328  36.256  1.00  0.00     0.173 A 
ATOM     65  F   UNL A   1      45.798  30.088  34.539  1.00  0.00    -0.203 F 
ATOM     66  C   UNL A   1      46.720  28.267  35.713  1.00  0.00     0.198 A 
ATOM     67  C   UNL A   1      45.276  26.644  36.740  1.00  0.00     0.198 A 
ATOM     68  F   UNL A   1      42.941  26.858  36.546  1.00  0.00    -0.203 F 
ATOM     69  F   UNL A   1      47.953  28.711  35.435  1.00  0.00    -0.200 F 
ATOM     70  C   UNL A   1      46.552  27.115  36.468  1.00  0.00     0.200 A 
ATOM     71  F   UNL A   1      45.113  25.542  37.485  1.00  0.00    -0.200 F 
ATOM     72  F   UNL A   1      47.623  26.459  36.937  1.00  0.00    -0.200 F 
ENDBRANCH  39  62
ENDBRANCH  13  14
ENDBRANCH   6   8
ENDBRANCH   3   4
ENDBRANCH   2   3
ENDBRANCH   1   2
BRANCH   1  73
ATOM     73  C   UNL A   1      34.422  32.278  28.821  1.00  0.00     0.002 C 
BRANCH  73  74
ATOM     74  C   UNL A   1      35.001  31.498  27.635  1.00  0.00     0.021 C 
BRANCH  74  75
ATOM     75  C   UNL A   1      35.278  30.013  27.896  1.00  0.00     0.116 C 
BRANCH  75  76
ATOM     76  N   UNL A   1      34.049  29.233  27.941  1.00  0.00    -0.351 N 
ATOM     77  C   UNL A   1      32.973  29.064  27.126  1.00  0.00     0.278 C 
ATOM     78  H   UNL A   1      33.979  28.697  28.765  1.00  0.00     0.163 HD
ATOM     79  O   UNL A   1      32.039  28.421  27.632  1.00  0.00    -0.268 OA
BRANCH  77  80
ATOM     80  C   UNL A   1      32.802  29.581  25.668  1.00  0.00     0.277 C 
ATOM     81  C   UNL A   1      33.544  28.655  24.646  1.00  0.00     0.109 C 
ATOM     82  N   UNL A   1      31.427  30.001  25.300  1.00  0.00    -0.327 N 
ATOM     83  C   UNL A   1      32.615  27.546  24.263  1.00  0.00    -0.024 C 
ATOM     84  C   UNL A   1      31.005  29.432  24.003  1.00  0.00     0.243 C 
ATOM     85  H   UNL A   1      31.400  31.019  25.237  1.00  0.00     0.347 HD
ATOM     86  H   UNL A   1      30.789  29.659  26.018  1.00  0.00     0.347 HD
ATOM     87  C   UNL A   1      32.697  26.311  24.737  1.00  0.00     0.002 A 
ATOM     88  C   UNL A   1      31.209  27.891  23.850  1.00  0.00     0.196 C 
ATOM     89  C   UNL A   1      33.764  25.548  25.295  1.00  0.00     0.010 A 
ATOM     90  C   UNL A   1      31.278  26.087  25.094  1.00  0.00     0.066 A 
ATOM     91  N   UNL A   1      30.392  26.964  24.696  1.00  0.00    -0.270 NA
ATOM     92  C   UNL A   1      33.472  24.539  26.125  1.00  0.00     0.001 A 
ATOM     93  C   UNL A   1      31.046  24.952  26.027  1.00  0.00     0.028 A 
ATOM     94  C   UNL A   1      32.099  24.259  26.506  1.00  0.00     0.002 A 
BRANCH  84  95
ATOM     95  C   UNL A   1      29.731  30.055  23.448  1.00  0.00     0.012 A 
ATOM     96  C   UNL A   1      29.119  29.441  22.334  1.00  0.00     0.010 A 
ATOM     97  C   UNL A   1      29.230  31.291  23.876  1.00  0.00     0.010 A 
ATOM     98  C   UNL A   1      28.099  30.077  21.626  1.00  0.00     0.001 A 
ATOM     99  C   UNL A   1      28.204  31.926  23.165  1.00  0.00     0.001 A 
ATOM    100  C   UNL A   1      27.653  31.329  22.032  1.00  0.00     0.000 A 
ENDBRANCH  84  95
ENDBRANCH  77  80
ENDBRANCH  75  76
ENDBRANCH  74  75
ENDBRANCH  73  74
ENDBRANCH   1  73
TORSDOF 14
ENDMDL
MODEL 2
REMARK VINA RESULT:     -13.0      6.938     12.481
REMARK SMILES O=C(NCCCCCCNC(=O)[C@H]1CC2=c3ccccc3=N[C@H]2[C@@H](c2ccccc2)[NH2+]1)c1ccc(-c2c3nc(c(-c4c(F)c(F)c(F)c(F)c4F)c4ccc([nH]4)c(-c4c(F)c(F)c(F)c(F)c4F)c4nc(c(-c5c(F)c(F)c(F)c(F)c5F)c5ccc2[nH]5)C=C4)C=C3)cc1
REMARK SMILES IDX 6 1 5 2 4 3 3 4 1 5 2 6 32 8 33 9 94 10 34 11 93 12 35 13
REMARK SMILES IDX 36 14 37 15 87 16 38 17 92 18 86 19 88 20 39 21 91 22 85 23
REMARK SMILES IDX 84 24 40 26 72 27 52 28 71 29 53 30 56 31 70 32 89 33 54 34
REMARK SMILES IDX 55 35 69 37 90 38 57 39 41 40 42 41 50 42 43 43 44 44 48 45
REMARK SMILES IDX 51 46 45 47 46 48 49 49 47 50 73 51 74 52 82 53 75 54 76 55
REMARK SMILES IDX 80 56 83 57 77 58 78 59 81 60 79 61 58 62 59 63 67 64 60 65
REMARK SMILES IDX 61 66 65 67 68 68 62 69 63 70 66 71 64 72 7 73 8 74 9 75
REMARK SMILES IDX 10 76 11 77 12 79 13 80 14 81 31 82 15 83 24 84 16 87 23 88
REMARK SMILES IDX 17 89 21 90 22 91 18 92 20 93 19 94 25 95 26 96 30 97 27 98
REMARK SMILES IDX 29 99 28 100
REMARK H PARENT 3 7 88 25 56 36 10 78 31 85 31 86
REMARK Flexibility Score: inf
ROOT
ATOM      1  C   UNL A   1      41.682  20.581  27.127  1.00  0.00     0.002 C 
ENDROOT
BRANCH   1   2
ATOM      2  C   UNL A   1      41.857  19.510  26.045  1.00  0.00     0.021 C 
BRANCH   2   3
ATOM      3  C   UNL A   1      43.135  18.680  26.126  1.00  0.00     0.116 C 
BRANCH   3   4
ATOM      4  N   UNL A   1      43.860  18.630  24.866  1.00  0.00    -0.352 N 
ATOM      5  O   UNL A   1      44.916  19.389  23.029  1.00  0.00    -0.269 OA
ATOM      6  C   UNL A   1      44.476  19.630  24.161  1.00  0.00     0.251 C 
ATOM      7  H   UNL A   1      43.916  17.738  24.455  1.00  0.00     0.163 HD
BRANCH   6   8
ATOM      8  C   UNL A   1      44.620  20.998  24.710  1.00  0.00     0.039 A 
ATOM      9  C   UNL A   1      44.149  22.078  23.954  1.00  0.00     0.014 A 
ATOM     10  C   UNL A   1      45.266  21.242  25.925  1.00  0.00     0.014 A 
ATOM     11  C   UNL A   1      44.295  23.387  24.428  1.00  0.00     0.010 A 
ATOM     12  C   UNL A   1      45.339  22.539  26.434  1.00  0.00     0.010 A 
ATOM     13  C   UNL A   1      44.877  23.629  25.682  1.00  0.00    -0.014 A 
BRANCH  13  14
ATOM     14  C   UNL A   1      45.069  25.017  26.184  1.00  0.00     0.031 A 
ATOM     15  C   UNL A   1      46.428  25.664  26.104  1.00  0.00     0.074 A 
ATOM     16  C   UNL A   1      44.038  25.692  26.731  1.00  0.00     0.049 A 
ATOM     17  N   UNL A   1      46.812  26.841  26.528  1.00  0.00    -0.248 NA
ATOM     18  C   UNL A   1      47.506  24.874  25.485  1.00  0.00     0.031 C 
ATOM     19  C   UNL A   1      42.680  25.172  26.898  1.00  0.00     0.029 A 
ATOM     20  N   UNL A   1      43.970  26.964  27.247  1.00  0.00    -0.354 N 
ATOM     21  C   UNL A   1      48.169  26.922  26.243  1.00  0.00     0.074 A 
ATOM     22  C   UNL A   1      48.558  25.659  25.660  1.00  0.00     0.031 C 
ATOM     23  C   UNL A   1      41.908  26.125  27.444  1.00  0.00     0.029 A 
ATOM     24  C   UNL A   1      42.721  27.312  27.702  1.00  0.00     0.049 A 
ATOM     25  H   UNL A   1      44.746  27.571  27.288  1.00  0.00     0.167 HD
ATOM     26  C   UNL A   1      49.008  27.970  26.417  1.00  0.00     0.037 A 
ATOM     27  C   UNL A   1      42.280  28.457  28.260  1.00  0.00     0.037 A 
ATOM     28  C   UNL A   1      48.612  29.247  26.944  1.00  0.00     0.049 A 
ATOM     29  C   UNL A   1      43.237  29.604  28.450  1.00  0.00     0.074 A 
ATOM     30  C   UNL A   1      49.380  30.388  27.099  1.00  0.00     0.029 A 
ATOM     31  N   UNL A   1      47.336  29.556  27.388  1.00  0.00    -0.354 N 
ATOM     32  N   UNL A   1      44.504  29.683  28.124  1.00  0.00    -0.248 NA
ATOM     33  C   UNL A   1      42.706  30.821  29.082  1.00  0.00     0.031 C 
ATOM     34  C   UNL A   1      48.580  31.378  27.672  1.00  0.00     0.029 A 
ATOM     35  C   UNL A   1      47.301  30.867  27.835  1.00  0.00     0.049 A 
ATOM     36  H   UNL A   1      46.571  28.938  27.386  1.00  0.00     0.167 HD
ATOM     37  C   UNL A   1      44.913  30.961  28.486  1.00  0.00     0.074 A 
ATOM     38  C   UNL A   1      43.758  31.629  29.045  1.00  0.00     0.031 C 
ATOM     39  C   UNL A   1      46.138  31.525  28.366  1.00  0.00     0.037 A 
BRANCH  26  40
ATOM     40  C   UNL A   1      50.442  27.803  26.006  1.00  0.00     0.064 A 
ATOM     41  C   UNL A   1      51.437  27.488  26.942  1.00  0.00     0.173 A 
ATOM     42  C   UNL A   1      50.806  27.860  24.652  1.00  0.00     0.173 A 
ATOM     43  F   UNL A   1      51.140  27.431  28.249  1.00  0.00    -0.203 F 
ATOM     44  C   UNL A   1      52.747  27.247  26.540  1.00  0.00     0.198 A 
ATOM     45  C   UNL A   1      52.112  27.590  24.250  1.00  0.00     0.198 A 
ATOM     46  F   UNL A   1      49.889  28.149  23.716  1.00  0.00    -0.203 F 
ATOM     47  F   UNL A   1      53.688  26.973  27.455  1.00  0.00    -0.200 F 
ATOM     48  C   UNL A   1      53.081  27.286  25.194  1.00  0.00     0.200 A 
ATOM     49  F   UNL A   1      52.430  27.613  22.948  1.00  0.00    -0.200 F 
ATOM     50  F   UNL A   1      54.337  27.028  24.806  1.00  0.00    -0.200 F 
ENDBRANCH  26  40
BRANCH  27  51
ATOM     51  C   UNL A   1      40.852  28.590  28.655  1.00  0.00     0.064 A 
ATOM     52  C   UNL A   1      40.432  28.255  29.950  1.00  0.00     0.173 A 
ATOM     53  C   UNL A   1      39.881  29.050  27.754  1.00  0.00     0.173 A 
ATOM     54  F   UNL A   1      41.318  27.787  30.842  1.00  0.00    -0.203 F 
ATOM     55  C   UNL A   1      39.093  28.360  30.325  1.00  0.00     0.198 A 
ATOM     56  C   UNL A   1      38.548  29.181  28.137  1.00  0.00     0.198 A 
ATOM     57  F   UNL A   1      40.230  29.385  26.504  1.00  0.00    -0.203 F 
ATOM     58  F   UNL A   1      38.713  27.993  31.555  1.00  0.00    -0.200 F 
ATOM     59  C   UNL A   1      38.153  28.830  29.419  1.00  0.00     0.200 A 
ATOM     60  F   UNL A   1      37.644  29.647  27.264  1.00  0.00    -0.200 F 
ATOM     61  F   UNL A   1      36.867  28.935  29.780  1.00  0.00    -0.200 F 
ENDBRANCH  27  51
BRANCH  39  62
ATOM     62  C   UNL A   1      46.308  32.945  28.821  1.00  0.00     0.064 A 
ATOM     63  C   UNL A   1      46.687  33.247  30.135  1.00  0.00     0.173 A 
ATOM     64  C   UNL A   1      46.209  34.000  27.902  1.00  0.00     0.173 A 
ATOM     65  F   UNL A   1      46.785  32.273  31.052  1.00  0.00    -0.203 F 
ATOM     66  C   UNL A   1      46.963  34.559  30.514  1.00  0.00     0.198 A 
ATOM     67  C   UNL A   1      46.510  35.306  28.276  1.00  0.00     0.198 A 
ATOM     68  F   UNL A   1      45.860  33.758  26.629  1.00  0.00    -0.203 F 
ATOM     69  F   UNL A   1      47.309  34.830  31.780  1.00  0.00    -0.200 F 
ATOM     70  C   UNL A   1      46.887  35.583  29.582  1.00  0.00     0.200 A 
ATOM     71  F   UNL A   1      46.456  36.292  27.371  1.00  0.00    -0.200 F 
ATOM     72  F   UNL A   1      47.182  36.841  29.942  1.00  0.00    -0.200 F 
ENDBRANCH  39  62
ENDBRANCH  13  14
ENDBRANCH   6   8
ENDBRANCH   3   4
ENDBRANCH   2   3
ENDBRANCH   1   2
BRANCH   1  73
ATOM     73  C   UNL A   1      41.156  21.944  26.658  1.00  0.00     0.002 C 
BRANCH  73  74
ATOM     74  C   UNL A   1      39.631  22.079  26.567  1.00  0.00     0.021 C 
BRANCH  74  75
ATOM     75  C   UNL A   1      39.094  23.514  26.612  1.00  0.00     0.116 C 
BRANCH  75  76
ATOM     76  N   UNL A   1      38.174  23.782  25.514  1.00  0.00    -0.351 N 
ATOM     77  C   UNL A   1      37.003  23.248  25.074  1.00  0.00     0.278 C 
ATOM     78  H   UNL A   1      38.476  24.533  24.951  1.00  0.00     0.163 HD
ATOM     79  O   UNL A   1      36.625  23.676  23.971  1.00  0.00    -0.268 OA
BRANCH  77  80
ATOM     80  C   UNL A   1      36.117  22.191  25.793  1.00  0.00     0.277 C 
ATOM     81  C   UNL A   1      35.026  22.875  26.685  1.00  0.00     0.109 C 
ATOM     82  N   UNL A   1      35.664  21.060  24.947  1.00  0.00    -0.327 N 
ATOM     83  C   UNL A   1      33.832  23.154  25.827  1.00  0.00    -0.024 C 
ATOM     84  C   UNL A   1      34.216  20.800  25.103  1.00  0.00     0.243 C 
ATOM     85  H   UNL A   1      36.179  20.221  25.214  1.00  0.00     0.347 HD
ATOM     86  H   UNL A   1      35.837  21.305  23.972  1.00  0.00     0.347 HD
ATOM     87  C   UNL A   1      33.528  24.351  25.344  1.00  0.00     0.002 A 
ATOM     88  C   UNL A   1      33.292  22.050  24.958  1.00  0.00     0.196 C 
ATOM     89  C   UNL A   1      33.845  25.679  25.754  1.00  0.00     0.010 A 
ATOM     90  C   UNL A   1      33.258  23.989  23.935  1.00  0.00     0.066 A 
ATOM     91  N   UNL A   1      33.183  22.720  23.623  1.00  0.00    -0.270 NA
ATOM     92  C   UNL A   1      33.832  26.658  24.841  1.00  0.00     0.001 A 
ATOM     93  C   UNL A   1      33.273  25.135  22.986  1.00  0.00     0.028 A 
ATOM     94  C   UNL A   1      33.563  26.370  23.443  1.00  0.00     0.002 A 
BRANCH  84  95
ATOM     95  C   UNL A   1      33.763  19.484  24.485  1.00  0.00     0.012 A 
ATOM     96  C   UNL A   1      34.642  18.381  24.548  1.00  0.00     0.010 A 
ATOM     97  C   UNL A   1      32.601  19.356  23.715  1.00  0.00     0.010 A 
ATOM     98  C   UNL A   1      34.407  17.223  23.805  1.00  0.00     0.001 A 
ATOM     99  C   UNL A   1      32.365  18.192  22.972  1.00  0.00     0.001 A 
ATOM    100  C   UNL A   1      33.275  17.137  23.002  1.00  0.00     0.000 A 
ENDBRANCH  84  95
ENDBRANCH  77  80
ENDBRANCH  75  76
ENDBRANCH  74  75
ENDBRANCH  73  74
ENDBRANCH   1  73
TORSDOF 14
ENDMDL
MODEL 3
REMARK VINA RESULT:     -12.8      2.638      5.713
REMARK SMILES O=C(NCCCCCCNC(=O)[C@H]1CC2=c3ccccc3=N[C@H]2[C@@H](c2ccccc2)[NH2+]1)c1ccc(-c2c3nc(c(-c4c(F)c(F)c(F)c(F)c4F)c4ccc([nH]4)c(-c4c(F)c(F)c(F)c(F)c4F)c4nc(c(-c5c(F)c(F)c(F)c(F)c5F)c5ccc2[nH]5)C=C4)C=C3)cc1
REMARK SMILES IDX 6 1 5 2 4 3 3 4 1 5 2 6 32 8 33 9 94 10 34 11 93 12 35 13
REMARK SMILES IDX 36 14 37 15 87 16 38 17 92 18 86 19 88 20 39 21 91 22 85 23
REMARK SMILES IDX 84 24 40 26 72 27 52 28 71 29 53 30 56 31 70 32 89 33 54 34
REMARK SMILES IDX 55 35 69 37 90 38 57 39 41 40 42 41 50 42 43 43 44 44 48 45
REMARK SMILES IDX 51 46 45 47 46 48 49 49 47 50 73 51 74 52 82 53 75 54 76 55
REMARK SMILES IDX 80 56 83 57 77 58 78 59 81 60 79 61 58 62 59 63 67 64 60 65
REMARK SMILES IDX 61 66 65 67 68 68 62 69 63 70 66 71 64 72 7 73 8 74 9 75
REMARK SMILES IDX 10 76 11 77 12 79 13 80 14 81 31 82 15 83 24 84 16 87 23 88
REMARK SMILES IDX 17 89 21 90 22 91 18 92 20 93 19 94 25 95 26 96 30 97 27 98
REMARK SMILES IDX 29 99 28 100
REMARK H PARENT 3 7 88 25 56 36 10 78 31 85 31 86
REMARK Flexibility Score: inf
ROOT
ATOM      1  C   UNL A   1      31.035  29.158  23.818  1.00  0.00     0.002 C 
ENDROOT
BRANCH   1   2
ATOM      2  C   UNL A   1      32.532  28.985  24.095  1.00  0.00     0.021 C 
BRANCH   2   3
ATOM      3  C   UNL A   1      32.987  29.290  25.520  1.00  0.00     0.116 C 
BRANCH   3   4
ATOM      4  N   UNL A   1      32.611  30.623  25.963  1.00  0.00    -0.352 N 
ATOM      5  O   UNL A   1      32.584  32.469  27.252  1.00  0.00    -0.269 OA
ATOM      6  C   UNL A   1      33.155  31.415  26.940  1.00  0.00     0.251 C 
ATOM      7  H   UNL A   1      31.847  31.019  25.486  1.00  0.00     0.163 HD
BRANCH   6   8
ATOM      8  C   UNL A   1      34.402  31.040  27.646  1.00  0.00     0.039 A 
ATOM      9  C   UNL A   1      34.575  29.709  28.043  1.00  0.00     0.014 A 
ATOM     10  C   UNL A   1      35.374  31.986  27.979  1.00  0.00     0.014 A 
ATOM     11  C   UNL A   1      35.727  29.325  28.738  1.00  0.00     0.010 A 
ATOM     12  C   UNL A   1      36.559  31.588  28.600  1.00  0.00     0.010 A 
ATOM     13  C   UNL A   1      36.739  30.258  29.009  1.00  0.00    -0.014 A 
BRANCH  13  14
ATOM     14  C   UNL A   1      37.955  29.873  29.776  1.00  0.00     0.031 A 
ATOM     15  C   UNL A   1      38.161  30.402  31.172  1.00  0.00     0.074 A 
ATOM     16  C   UNL A   1      38.884  29.068  29.222  1.00  0.00     0.049 A 
ATOM     17  N   UNL A   1      39.172  30.225  31.985  1.00  0.00    -0.248 NA
ATOM     18  C   UNL A   1      37.103  31.267  31.721  1.00  0.00     0.031 C 
ATOM     19  C   UNL A   1      38.822  28.512  27.869  1.00  0.00     0.029 A 
ATOM     20  N   UNL A   1      40.063  28.576  29.727  1.00  0.00    -0.354 N 
ATOM     21  C   UNL A   1      38.877  30.963  33.124  1.00  0.00     0.074 A 
ATOM     22  C   UNL A   1      37.622  31.637  32.881  1.00  0.00     0.031 C 
ATOM     23  C   UNL A   1      39.894  27.731  27.666  1.00  0.00     0.029 A 
ATOM     24  C   UNL A   1      40.741  27.757  28.856  1.00  0.00     0.049 A 
ATOM     25  H   UNL A   1      40.393  28.791  30.631  1.00  0.00     0.167 HD
ATOM     26  C   UNL A   1      39.572  31.045  34.283  1.00  0.00     0.037 A 
ATOM     27  C   UNL A   1      41.910  27.102  29.000  1.00  0.00     0.037 A 
ATOM     28  C   UNL A   1      40.791  30.331  34.548  1.00  0.00     0.049 A 
ATOM     29  C   UNL A   1      42.666  27.217  30.298  1.00  0.00     0.074 A 
ATOM     30  C   UNL A   1      41.533  30.303  35.716  1.00  0.00     0.029 A 
ATOM     31  N   UNL A   1      41.440  29.511  33.639  1.00  0.00    -0.354 N 
ATOM     32  N   UNL A   1      42.346  27.875  31.385  1.00  0.00    -0.248 NA
ATOM     33  C   UNL A   1      43.945  26.496  30.393  1.00  0.00     0.031 C 
ATOM     34  C   UNL A   1      42.652  29.496  35.504  1.00  0.00     0.029 A 
ATOM     35  C   UNL A   1      42.585  28.986  34.216  1.00  0.00     0.049 A 
ATOM     36  H   UNL A   1      41.134  29.329  32.722  1.00  0.00     0.167 HD
ATOM     37  C   UNL A   1      43.364  27.628  32.296  1.00  0.00     0.074 A 
ATOM     38  C   UNL A   1      44.310  26.750  31.642  1.00  0.00     0.031 C 
ATOM     39  C   UNL A   1      43.503  28.093  33.561  1.00  0.00     0.037 A 
BRANCH  26  40
ATOM     40  C   UNL A   1      39.021  31.910  35.378  1.00  0.00     0.064 A 
ATOM     41  C   UNL A   1      38.241  31.369  36.411  1.00  0.00     0.173 A 
ATOM     42  C   UNL A   1      39.359  33.269  35.451  1.00  0.00     0.173 A 
ATOM     43  F   UNL A   1      37.885  30.077  36.381  1.00  0.00    -0.203 F 
ATOM     44  C   UNL A   1      37.809  32.161  37.471  1.00  0.00     0.198 A 
ATOM     45  C   UNL A   1      38.949  34.052  36.527  1.00  0.00     0.198 A 
ATOM     46  F   UNL A   1      40.111  33.833  34.492  1.00  0.00    -0.203 F 
ATOM     47  F   UNL A   1      37.043  31.630  38.433  1.00  0.00    -0.200 F 
ATOM     48  C   UNL A   1      38.174  33.499  37.535  1.00  0.00     0.200 A 
ATOM     49  F   UNL A   1      39.315  35.340  36.596  1.00  0.00    -0.200 F 
ATOM     50  F   UNL A   1      37.779  34.253  38.569  1.00  0.00    -0.200 F 
ENDBRANCH  26  40
BRANCH  27  51
ATOM     51  C   UNL A   1      42.427  26.251  27.895  1.00  0.00     0.064 A 
ATOM     52  C   UNL A   1      43.282  26.784  26.920  1.00  0.00     0.173 A 
ATOM     53  C   UNL A   1      42.080  24.897  27.788  1.00  0.00     0.173 A 
ATOM     54  F   UNL A   1      43.625  28.080  26.965  1.00  0.00    -0.203 F 
ATOM     55  C   UNL A   1      43.758  25.998  25.871  1.00  0.00     0.198 A 
ATOM     56  C   UNL A   1      42.578  24.106  26.755  1.00  0.00     0.198 A 
ATOM     57  F   UNL A   1      41.266  24.338  28.695  1.00  0.00    -0.203 F 
ATOM     58  F   UNL A   1      44.539  26.544  24.930  1.00  0.00    -0.200 F 
ATOM     59  C   UNL A   1      43.411  24.658  25.794  1.00  0.00     0.200 A 
ATOM     60  F   UNL A   1      42.251  22.808  26.690  1.00  0.00    -0.200 F 
ATOM     61  F   UNL A   1      43.872  23.901  24.788  1.00  0.00    -0.200 F 
ENDBRANCH  27  51
BRANCH  39  62
ATOM     62  C   UNL A   1      44.701  27.652  34.347  1.00  0.00     0.064 A 
ATOM     63  C   UNL A   1      45.859  28.437  34.411  1.00  0.00     0.173 A 
ATOM     64  C   UNL A   1      44.642  26.496  35.139  1.00  0.00     0.173 A 
ATOM     65  F   UNL A   1      45.965  29.547  33.664  1.00  0.00    -0.203 F 
ATOM     66  C   UNL A   1      46.919  28.081  35.242  1.00  0.00     0.198 A 
ATOM     67  C   UNL A   1      45.691  26.155  35.989  1.00  0.00     0.198 A 
ATOM     68  F   UNL A   1      43.549  25.718  35.121  1.00  0.00    -0.203 F 
ATOM     69  F   UNL A   1      48.024  28.837  35.278  1.00  0.00    -0.200 F 
ATOM     70  C   UNL A   1      46.827  26.949  36.039  1.00  0.00     0.200 A 
ATOM     71  F   UNL A   1      45.594  25.072  36.772  1.00  0.00    -0.200 F 
ATOM     72  F   UNL A   1      47.836  26.624  36.861  1.00  0.00    -0.200 F 
ENDBRANCH  39  62
ENDBRANCH  13  14
ENDBRANCH   6   8
ENDBRANCH   3   4
ENDBRANCH   2   3
ENDBRANCH   1   2
BRANCH   1  73
ATOM     73  C   UNL A   1      30.470  28.383  22.619  1.00  0.00     0.002 C 
BRANCH  73  74
ATOM     74  C   UNL A   1      30.561  26.855  22.706  1.00  0.00     0.021 C 
BRANCH  74  75
ATOM     75  C   UNL A   1      31.500  26.193  21.691  1.00  0.00     0.116 C 
BRANCH  75  76
ATOM     76  N   UNL A   1      31.796  24.812  22.049  1.00  0.00    -0.351 N 
ATOM     77  C   UNL A   1      32.867  24.148  22.560  1.00  0.00     0.278 C 
ATOM     78  H   UNL A   1      31.033  24.212  21.878  1.00  0.00     0.163 HD
ATOM     79  O   UNL A   1      32.757  22.911  22.553  1.00  0.00    -0.268 OA
BRANCH  77  80
ATOM     80  C   UNL A   1      34.175  24.764  23.135  1.00  0.00     0.277 C 
ATOM     81  C   UNL A   1      33.863  25.904  24.163  1.00  0.00     0.109 C 
ATOM     82  N   UNL A   1      35.218  23.786  23.530  1.00  0.00    -0.327 N 
ATOM     83  C   UNL A   1      33.677  25.276  25.509  1.00  0.00    -0.024 C 
ATOM     84  C   UNL A   1      35.768  24.078  24.871  1.00  0.00     0.243 C 
ATOM     85  H   UNL A   1      35.977  23.820  22.849  1.00  0.00     0.347 HD
ATOM     86  H   UNL A   1      34.790  22.861  23.559  1.00  0.00     0.347 HD
ATOM     87  C   UNL A   1      32.497  25.072  26.078  1.00  0.00     0.002 A 
ATOM     88  C   UNL A   1      34.707  24.293  25.998  1.00  0.00     0.196 C 
ATOM     89  C   UNL A   1      31.218  25.680  25.918  1.00  0.00     0.010 A 
ATOM     90  C   UNL A   1      32.669  23.667  26.510  1.00  0.00     0.066 A 
ATOM     91  N   UNL A   1      33.862  23.135  26.428  1.00  0.00    -0.270 NA
ATOM     92  C   UNL A   1      30.124  24.978  26.237  1.00  0.00     0.001 A 
ATOM     93  C   UNL A   1      31.402  22.959  26.835  1.00  0.00     0.028 A 
ATOM     94  C   UNL A   1      30.226  23.598  26.678  1.00  0.00     0.002 A 
BRANCH  84  95
ATOM     95  C   UNL A   1      37.028  23.287  25.200  1.00  0.00     0.012 A 
ATOM     96  C   UNL A   1      37.104  21.946  24.763  1.00  0.00     0.010 A 
ATOM     97  C   UNL A   1      38.034  23.761  26.049  1.00  0.00     0.010 A 
ATOM     98  C   UNL A   1      38.106  21.091  25.225  1.00  0.00     0.001 A 
ATOM     99  C   UNL A   1      39.040  22.902  26.509  1.00  0.00     0.001 A 
ATOM    100  C   UNL A   1      39.064  21.565  26.112  1.00  0.00     0.000 A 
ENDBRANCH  84  95
ENDBRANCH  77  80
ENDBRANCH  75  76
ENDBRANCH  74  75
ENDBRANCH  73  74
ENDBRANCH   1  73
TORSDOF 14
ENDMDL
