MODEL 1
REMARK VINA RESULT:     -12.0      0.000      0.000
REMARK SMILES Cc1ccccc1OCC(=O)NCCC(=O)NCCCCCCNC(=O)c1ccc(-c2c3nc(c(-c4c(F)c(F)c(F)c(F)c4F)c4ccc([nH]4)c(-c4c(F)c(F)c(F)c(F)c4F)c4nc(c(-c5c(F)c(F)c(F)c(F)c5F)c5ccc2[nH]5)C=C4)C=C3)cc1
REMARK SMILES IDX 19 1 18 2 17 3 15 4 16 5 14 7 13 8 12 9 10 10 11 11 9 13
REMARK SMILES IDX 8 14 7 15 1 16 2 17 3 18 4 19 6 20 5 21 20 22 21 23 22 24
REMARK SMILES IDX 23 25 24 26 25 27 26 29 27 30 28 31 89 32 29 33 88 34 30 35
REMARK SMILES IDX 31 36 32 37 82 38 33 39 87 40 81 41 83 42 34 43 86 44 80 45
REMARK SMILES IDX 79 46 35 48 67 49 47 50 66 51 48 52 51 53 65 54 84 55 49 56
REMARK SMILES IDX 50 57 64 59 85 60 52 61 36 62 37 63 45 64 38 65 39 66 43 67
REMARK SMILES IDX 46 68 40 69 41 70 44 71 42 72 68 73 69 74 77 75 70 76 71 77
REMARK SMILES IDX 75 78 78 79 72 80 73 81 76 82 74 83 53 84 54 85 62 86 55 87
REMARK SMILES IDX 56 88 60 89 63 90 57 91 58 92 61 93 59 94
REMARK H PARENT 17 6 12 12 24 28 83 47 51 58
REMARK Flexibility Score: inf
ROOT
ATOM      1  C   UNL A   1      33.770  27.769  25.908  1.00  0.00     0.021 C 
ENDROOT
BRANCH   1   2
ATOM      2  C   UNL A   1      33.342  26.300  25.933  1.00  0.00     0.116 C 
BRANCH   2   3
ATOM      3  N   UNL A   1      31.956  26.147  26.337  1.00  0.00    -0.356 N 
ATOM      4  C   UNL A   1      31.077  25.144  26.053  1.00  0.00     0.221 C 
ATOM      5  O   UNL A   1      29.932  25.217  26.501  1.00  0.00    -0.275 OA
ATOM      6  H   UNL A   1      31.599  26.872  26.899  1.00  0.00     0.163 HD
BRANCH   4   7
ATOM      7  C   UNL A   1      31.496  23.981  25.182  1.00  0.00     0.121 C 
BRANCH   7   8
ATOM      8  C   UNL A   1      31.286  24.285  23.704  1.00  0.00     0.126 C 
BRANCH   8   9
ATOM      9  N   UNL A   1      32.486  24.768  23.040  1.00  0.00    -0.353 N 
ATOM     10  C   UNL A   1      32.614  25.750  22.098  1.00  0.00     0.257 C 
ATOM     11  O   UNL A   1      33.727  25.952  21.608  1.00  0.00    -0.271 OA
ATOM     12  H   UNL A   1      33.324  24.326  23.307  1.00  0.00     0.163 HD
BRANCH  10  13
ATOM     13  C   UNL A   1      31.402  26.608  21.729  1.00  0.00     0.329 C 
BRANCH  13  14
ATOM     14  O   UNL A   1      31.121  27.704  22.564  1.00  0.00    -0.484 OA
BRANCH  14  15
ATOM     15  C   UNL A   1      29.925  28.355  22.610  1.00  0.00     0.122 A 
ATOM     16  C   UNL A   1      28.372  26.703  23.876  1.00  0.00     0.048 C 
ATOM     17  C   UNL A   1      28.690  27.988  23.165  1.00  0.00    -0.009 A 
ATOM     18  C   UNL A   1      27.633  28.930  23.120  1.00  0.00     0.007 A 
ATOM     19  C   UNL A   1      27.777  30.181  22.524  1.00  0.00     0.001 A 
ATOM     20  C   UNL A   1      30.047  29.621  22.004  1.00  0.00     0.047 A 
ATOM     21  C   UNL A   1      28.990  30.527  21.956  1.00  0.00     0.004 A 
ENDBRANCH  14  15
ENDBRANCH  13  14
ENDBRANCH  10  13
ENDBRANCH   8   9
ENDBRANCH   7   8
ENDBRANCH   4   7
ENDBRANCH   2   3
ENDBRANCH   1   2
BRANCH   1  22
ATOM     22  C   UNL A   1      33.542  28.546  27.211  1.00  0.00     0.002 C 
BRANCH  22  23
ATOM     23  C   UNL A   1      32.324  29.483  27.251  1.00  0.00     0.002 C 
BRANCH  23  24
ATOM     24  C   UNL A   1      32.620  30.985  27.251  1.00  0.00     0.021 C 
BRANCH  24  25
ATOM     25  C   UNL A   1      34.088  31.342  27.450  1.00  0.00     0.116 C 
BRANCH  25  26
ATOM     26  N   UNL A   1      34.404  31.858  28.776  1.00  0.00    -0.352 N 
ATOM     27  C   UNL A   1      35.331  31.383  29.689  1.00  0.00     0.251 C 
ATOM     28  H   UNL A   1      33.892  32.649  29.061  1.00  0.00     0.163 HD
ATOM     29  O   UNL A   1      35.473  31.916  30.777  1.00  0.00    -0.269 OA
BRANCH  27  30
ATOM     30  C   UNL A   1      36.232  30.282  29.275  1.00  0.00     0.039 A 
ATOM     31  C   UNL A   1      36.653  29.375  30.252  1.00  0.00     0.014 A 
ATOM     32  C   UNL A   1      36.804  30.270  28.004  1.00  0.00     0.014 A 
ATOM     33  C   UNL A   1      37.801  28.619  30.028  1.00  0.00     0.010 A 
ATOM     34  C   UNL A   1      37.987  29.582  27.807  1.00  0.00     0.010 A 
ATOM     35  C   UNL A   1      38.520  28.810  28.844  1.00  0.00    -0.014 A 
BRANCH  35  36
ATOM     36  C   UNL A   1      39.891  28.342  28.681  1.00  0.00     0.031 A 
ATOM     37  C   UNL A   1      40.184  26.933  28.355  1.00  0.00     0.074 A 
ATOM     38  C   UNL A   1      40.916  29.210  28.837  1.00  0.00     0.049 A 
ATOM     39  N   UNL A   1      41.228  26.300  28.777  1.00  0.00    -0.248 NA
ATOM     40  C   UNL A   1      39.298  26.115  27.539  1.00  0.00     0.031 C 
ATOM     41  C   UNL A   1      42.327  28.965  28.551  1.00  0.00     0.029 A 
ATOM     42  N   UNL A   1      40.901  30.450  29.497  1.00  0.00    -0.354 N 
ATOM     43  C   UNL A   1      41.296  25.108  28.094  1.00  0.00     0.074 A 
ATOM     44  C   UNL A   1      40.037  25.010  27.386  1.00  0.00     0.031 C 
ATOM     45  C   UNL A   1      43.067  29.818  29.277  1.00  0.00     0.029 A 
ATOM     46  C   UNL A   1      42.158  30.556  30.136  1.00  0.00     0.049 A 
ATOM     47  H   UNL A   1      40.168  31.107  29.513  1.00  0.00     0.167 HD
ATOM     48  C   UNL A   1      42.462  24.398  28.085  1.00  0.00     0.037 A 
ATOM     49  C   UNL A   1      42.271  30.672  31.488  1.00  0.00     0.037 A 
ATOM     50  C   UNL A   1      43.508  25.072  28.846  1.00  0.00     0.049 A 
ATOM     51  C   UNL A   1      43.106  29.596  32.135  1.00  0.00     0.074 A 
ATOM     52  C   UNL A   1      44.551  25.898  28.457  1.00  0.00     0.029 A 
ATOM     53  N   UNL A   1      43.402  25.195  30.227  1.00  0.00    -0.354 N 
ATOM     54  N   UNL A   1      43.383  28.456  31.568  1.00  0.00    -0.248 NA
ATOM     55  C   UNL A   1      43.649  29.696  33.486  1.00  0.00     0.031 C 
ATOM     56  C   UNL A   1      45.067  26.532  29.609  1.00  0.00     0.029 A 
ATOM     57  C   UNL A   1      44.343  26.090  30.701  1.00  0.00     0.049 A 
ATOM     58  H   UNL A   1      42.751  24.713  30.786  1.00  0.00     0.167 HD
ATOM     59  C   UNL A   1      44.086  27.669  32.445  1.00  0.00     0.074 A 
ATOM     60  C   UNL A   1      44.251  28.501  33.621  1.00  0.00     0.031 C 
ATOM     61  C   UNL A   1      44.451  26.393  32.119  1.00  0.00     0.037 A 
BRANCH  48  62
ATOM     62  C   UNL A   1      42.737  23.263  27.124  1.00  0.00     0.064 A 
ATOM     63  C   UNL A   1      42.264  21.955  27.376  1.00  0.00     0.173 A 
ATOM     64  C   UNL A   1      43.508  23.394  25.954  1.00  0.00     0.173 A 
ATOM     65  F   UNL A   1      41.412  21.695  28.375  1.00  0.00    -0.203 F 
ATOM     66  C   UNL A   1      42.652  20.856  26.608  1.00  0.00     0.198 A 
ATOM     67  C   UNL A   1      43.940  22.287  25.216  1.00  0.00     0.198 A 
ATOM     68  F   UNL A   1      43.828  24.603  25.473  1.00  0.00    -0.203 F 
ATOM     69  F   UNL A   1      42.185  19.636  26.910  1.00  0.00    -0.200 F 
ATOM     70  C   UNL A   1      43.527  21.015  25.554  1.00  0.00     0.200 A 
ATOM     71  F   UNL A   1      44.767  22.464  24.175  1.00  0.00    -0.200 F 
ATOM     72  F   UNL A   1      43.947  19.954  24.853  1.00  0.00    -0.200 F 
ENDBRANCH  48  62
BRANCH  49  73
ATOM     73  C   UNL A   1      41.111  31.342  32.125  1.00  0.00     0.064 A 
ATOM     74  C   UNL A   1      40.108  30.539  32.704  1.00  0.00     0.173 A 
ATOM     75  C   UNL A   1      41.148  32.693  32.488  1.00  0.00     0.173 A 
ATOM     76  F   UNL A   1      40.031  29.235  32.391  1.00  0.00    -0.203 F 
ATOM     77  C   UNL A   1      39.255  31.039  33.684  1.00  0.00     0.198 A 
ATOM     78  C   UNL A   1      40.281  33.195  33.459  1.00  0.00     0.198 A 
ATOM     79  F   UNL A   1      42.091  33.504  31.985  1.00  0.00    -0.203 F 
ATOM     80  F   UNL A   1      38.383  30.222  34.292  1.00  0.00    -0.200 F 
ATOM     81  C   UNL A   1      39.359  32.363  34.080  1.00  0.00     0.200 A 
ATOM     82  F   UNL A   1      40.394  34.470  33.857  1.00  0.00    -0.200 F 
ATOM     83  F   UNL A   1      38.598  32.824  35.081  1.00  0.00    -0.200 F 
ENDBRANCH  49  73
BRANCH  61  84
ATOM     84  C   UNL A   1      45.036  25.348  33.042  1.00  0.00     0.064 A 
ATOM     85  C   UNL A   1      46.400  25.022  33.107  1.00  0.00     0.173 A 
ATOM     86  C   UNL A   1      44.219  24.720  34.018  1.00  0.00     0.173 A 
ATOM     87  F   UNL A   1      47.302  25.632  32.328  1.00  0.00    -0.203 F 
ATOM     88  C   UNL A   1      46.899  24.094  34.028  1.00  0.00     0.198 A 
ATOM     89  C   UNL A   1      44.730  23.841  34.973  1.00  0.00     0.198 A 
ATOM     90  F   UNL A   1      42.902  24.961  34.094  1.00  0.00    -0.203 F 
ATOM     91  F   UNL A   1      48.203  23.786  34.018  1.00  0.00    -0.200 F 
ATOM     92  C   UNL A   1      46.067  23.514  34.967  1.00  0.00     0.200 A 
ATOM     93  F   UNL A   1      43.917  23.330  35.909  1.00  0.00    -0.200 F 
ATOM     94  F   UNL A   1      46.558  22.662  35.877  1.00  0.00    -0.200 F 
ENDBRANCH  61  84
ENDBRANCH  35  36
ENDBRANCH  27  30
ENDBRANCH  25  26
ENDBRANCH  24  25
ENDBRANCH  23  24
ENDBRANCH  22  23
ENDBRANCH   1  22
TORSDOF 18
ENDMDL
MODEL 2
REMARK VINA RESULT:     -12.0      1.667      3.400
REMARK SMILES Cc1ccccc1OCC(=O)NCCC(=O)NCCCCCCNC(=O)c1ccc(-c2c3nc(c(-c4c(F)c(F)c(F)c(F)c4F)c4ccc([nH]4)c(-c4c(F)c(F)c(F)c(F)c4F)c4nc(c(-c5c(F)c(F)c(F)c(F)c5F)c5ccc2[nH]5)C=C4)C=C3)cc1
REMARK SMILES IDX 19 1 18 2 17 3 15 4 16 5 14 7 13 8 12 9 10 10 11 11 9 13
REMARK SMILES IDX 8 14 7 15 1 16 2 17 3 18 4 19 6 20 5 21 20 22 21 23 22 24
REMARK SMILES IDX 23 25 24 26 25 27 26 29 27 30 28 31 89 32 29 33 88 34 30 35
REMARK SMILES IDX 31 36 32 37 82 38 33 39 87 40 81 41 83 42 34 43 86 44 80 45
REMARK SMILES IDX 79 46 35 48 67 49 47 50 66 51 48 52 51 53 65 54 84 55 49 56
REMARK SMILES IDX 50 57 64 59 85 60 52 61 36 62 37 63 45 64 38 65 39 66 43 67
REMARK SMILES IDX 46 68 40 69 41 70 44 71 42 72 68 73 69 74 77 75 70 76 71 77
REMARK SMILES IDX 75 78 78 79 72 80 73 81 76 82 74 83 53 84 54 85 62 86 55 87
REMARK SMILES IDX 56 88 60 89 63 90 57 91 58 92 61 93 59 94
REMARK H PARENT 17 6 12 12 24 28 83 47 51 58
REMARK Flexibility Score: inf
ROOT
ATOM      1  C   UNL A   1      32.971  29.254  23.450  1.00  0.00     0.021 C 
ENDROOT
BRANCH   1   2
ATOM      2  C   UNL A   1      32.454  27.934  22.876  1.00  0.00     0.116 C 
BRANCH   2   3
ATOM      3  N   UNL A   1      31.004  27.894  22.831  1.00  0.00    -0.356 N 
ATOM      4  C   UNL A   1      30.127  27.296  23.688  1.00  0.00     0.221 C 
ATOM      5  O   UNL A   1      28.920  27.384  23.456  1.00  0.00    -0.275 OA
ATOM      6  H   UNL A   1      30.593  28.367  22.073  1.00  0.00     0.163 HD
BRANCH   4   7
ATOM      7  C   UNL A   1      30.632  26.518  24.882  1.00  0.00     0.121 C 
BRANCH   7   8
ATOM      8  C   UNL A   1      30.627  25.018  24.616  1.00  0.00     0.126 C 
BRANCH   8   9
ATOM      9  N   UNL A   1      30.132  24.236  25.737  1.00  0.00    -0.353 N 
ATOM     10  C   UNL A   1      30.834  23.618  26.734  1.00  0.00     0.257 C 
ATOM     11  O   UNL A   1      30.214  22.937  27.554  1.00  0.00    -0.271 OA
ATOM     12  H   UNL A   1      29.154  24.138  25.786  1.00  0.00     0.163 HD
BRANCH  10  13
ATOM     13  C   UNL A   1      32.344  23.837  26.845  1.00  0.00     0.329 C 
BRANCH  13  14
ATOM     14  O   UNL A   1      33.172  22.782  26.422  1.00  0.00    -0.484 OA
BRANCH  14  15
ATOM     15  C   UNL A   1      34.183  22.907  25.518  1.00  0.00     0.122 A 
ATOM     16  C   UNL A   1      33.041  22.415  23.239  1.00  0.00     0.048 C 
ATOM     17  C   UNL A   1      34.203  22.769  24.123  1.00  0.00    -0.009 A 
ATOM     18  C   UNL A   1      35.416  23.043  23.443  1.00  0.00     0.007 A 
ATOM     19  C   UNL A   1      36.578  23.414  24.116  1.00  0.00     0.001 A 
ATOM     20  C   UNL A   1      35.372  23.274  26.180  1.00  0.00     0.047 A 
ATOM     21  C   UNL A   1      36.559  23.525  25.495  1.00  0.00     0.004 A 
ENDBRANCH  14  15
ENDBRANCH  13  14
ENDBRANCH  10  13
ENDBRANCH   8   9
ENDBRANCH   7   8
ENDBRANCH   4   7
ENDBRANCH   2   3
ENDBRANCH   1   2
BRANCH   1  22
ATOM     22  C   UNL A   1      33.169  29.280  24.971  1.00  0.00     0.002 C 
BRANCH  22  23
ATOM     23  C   UNL A   1      32.143  30.083  25.787  1.00  0.00     0.002 C 
BRANCH  23  24
ATOM     24  C   UNL A   1      32.621  30.630  27.135  1.00  0.00     0.021 C 
BRANCH  24  25
ATOM     25  C   UNL A   1      34.070  30.301  27.475  1.00  0.00     0.116 C 
BRANCH  25  26
ATOM     26  N   UNL A   1      34.677  31.206  28.443  1.00  0.00    -0.352 N 
ATOM     27  C   UNL A   1      35.852  31.042  29.158  1.00  0.00     0.251 C 
ATOM     28  H   UNL A   1      34.189  32.044  28.610  1.00  0.00     0.163 HD
ATOM     29  O   UNL A   1      36.228  31.889  29.952  1.00  0.00    -0.269 OA
BRANCH  27  30
ATOM     30  C   UNL A   1      36.707  29.871  28.856  1.00  0.00     0.039 A 
ATOM     31  C   UNL A   1      37.143  29.083  29.925  1.00  0.00     0.014 A 
ATOM     32  C   UNL A   1      37.228  29.680  27.577  1.00  0.00     0.014 A 
ATOM     33  C   UNL A   1      38.262  28.270  29.759  1.00  0.00     0.010 A 
ATOM     34  C   UNL A   1      38.385  28.937  27.428  1.00  0.00     0.010 A 
ATOM     35  C   UNL A   1      38.938  28.287  28.535  1.00  0.00    -0.014 A 
BRANCH  35  36
ATOM     36  C   UNL A   1      40.290  27.762  28.385  1.00  0.00     0.031 A 
ATOM     37  C   UNL A   1      40.526  26.333  28.103  1.00  0.00     0.074 A 
ATOM     38  C   UNL A   1      41.349  28.593  28.511  1.00  0.00     0.049 A 
ATOM     39  N   UNL A   1      41.546  25.672  28.543  1.00  0.00    -0.248 NA
ATOM     40  C   UNL A   1      39.606  25.524  27.315  1.00  0.00     0.031 C 
ATOM     41  C   UNL A   1      42.748  28.284  28.231  1.00  0.00     0.029 A 
ATOM     42  N   UNL A   1      41.384  29.852  29.132  1.00  0.00    -0.354 N 
ATOM     43  C   UNL A   1      41.565  24.458  27.898  1.00  0.00     0.074 A 
ATOM     44  C   UNL A   1      40.301  24.387  27.196  1.00  0.00     0.031 C 
ATOM     45  C   UNL A   1      43.523  29.130  28.928  1.00  0.00     0.029 A 
ATOM     46  C   UNL A   1      42.646  29.929  29.764  1.00  0.00     0.049 A 
ATOM     47  H   UNL A   1      40.677  30.538  29.128  1.00  0.00     0.167 HD
ATOM     48  C   UNL A   1      42.702  23.702  27.909  1.00  0.00     0.037 A 
ATOM     49  C   UNL A   1      42.768  30.084  31.112  1.00  0.00     0.037 A 
ATOM     50  C   UNL A   1      43.776  24.358  28.646  1.00  0.00     0.049 A 
ATOM     51  C   UNL A   1      43.562  28.996  31.791  1.00  0.00     0.074 A 
ATOM     52  C   UNL A   1      44.849  25.130  28.229  1.00  0.00     0.029 A 
ATOM     53  N   UNL A   1      43.680  24.529  30.022  1.00  0.00    -0.354 N 
ATOM     54  N   UNL A   1      43.793  27.829  31.260  1.00  0.00    -0.248 NA
ATOM     55  C   UNL A   1      44.113  29.117  33.137  1.00  0.00     0.031 C 
ATOM     56  C   UNL A   1      45.394  25.780  29.359  1.00  0.00     0.029 A 
ATOM     57  C   UNL A   1      44.656  25.401  30.466  1.00  0.00     0.049 A 
ATOM     58  H   UNL A   1      43.012  24.091  30.598  1.00  0.00     0.167 HD
ATOM     59  C   UNL A   1      44.467  27.043  32.160  1.00  0.00     0.074 A 
ATOM     60  C   UNL A   1      44.668  27.904  33.309  1.00  0.00     0.031 C 
ATOM     61  C   UNL A   1      44.781  25.744  31.873  1.00  0.00     0.037 A 
BRANCH  48  62
ATOM     62  C   UNL A   1      42.930  22.527  26.984  1.00  0.00     0.064 A 
ATOM     63  C   UNL A   1      42.288  21.287  27.199  1.00  0.00     0.173 A 
ATOM     64  C   UNL A   1      43.812  22.551  25.888  1.00  0.00     0.173 A 
ATOM     65  F   UNL A   1      41.325  21.143  28.118  1.00  0.00    -0.203 F 
ATOM     66  C   UNL A   1      42.614  20.138  26.476  1.00  0.00     0.198 A 
ATOM     67  C   UNL A   1      44.179  21.390  25.199  1.00  0.00     0.198 A 
ATOM     68  F   UNL A   1      44.312  23.707  25.431  1.00  0.00    -0.203 F 
ATOM     69  F   UNL A   1      41.984  18.985  26.742  1.00  0.00    -0.200 F 
ATOM     70  C   UNL A   1      43.592  20.179  25.506  1.00  0.00     0.200 A 
ATOM     71  F   UNL A   1      45.110  21.454  24.237  1.00  0.00    -0.200 F 
ATOM     72  F   UNL A   1      43.948  19.065  24.852  1.00  0.00    -0.200 F 
ENDBRANCH  48  62
BRANCH  49  73
ATOM     73  C   UNL A   1      41.637  30.818  31.730  1.00  0.00     0.064 A 
ATOM     74  C   UNL A   1      41.585  32.218  31.580  1.00  0.00     0.173 A 
ATOM     75  C   UNL A   1      40.464  30.165  32.128  1.00  0.00     0.173 A 
ATOM     76  F   UNL A   1      42.682  32.891  31.198  1.00  0.00    -0.203 F 
ATOM     77  C   UNL A   1      40.388  32.917  31.714  1.00  0.00     0.198 A 
ATOM     78  C   UNL A   1      39.270  30.872  32.276  1.00  0.00     0.198 A 
ATOM     79  F   UNL A   1      40.446  28.832  32.269  1.00  0.00    -0.203 F 
ATOM     80  F   UNL A   1      40.351  34.233  31.460  1.00  0.00    -0.200 F 
ATOM     81  C   UNL A   1      39.225  32.239  32.037  1.00  0.00     0.200 A 
ATOM     82  F   UNL A   1      38.140  30.213  32.569  1.00  0.00    -0.200 F 
ATOM     83  F   UNL A   1      38.058  32.895  32.083  1.00  0.00    -0.200 F 
ENDBRANCH  49  73
BRANCH  61  84
ATOM     84  C   UNL A   1      45.328  24.707  32.828  1.00  0.00     0.064 A 
ATOM     85  C   UNL A   1      46.589  24.779  33.439  1.00  0.00     0.173 A 
ATOM     86  C   UNL A   1      44.503  23.640  33.271  1.00  0.00     0.173 A 
ATOM     87  F   UNL A   1      47.421  25.803  33.207  1.00  0.00    -0.203 F 
ATOM     88  C   UNL A   1      47.020  23.825  34.368  1.00  0.00     0.198 A 
ATOM     89  C   UNL A   1      44.914  22.725  34.241  1.00  0.00     0.198 A 
ATOM     90  F   UNL A   1      43.262  23.465  32.795  1.00  0.00    -0.203 F 
ATOM     91  F   UNL A   1      48.252  23.917  34.889  1.00  0.00    -0.200 F 
ATOM     92  C   UNL A   1      46.179  22.808  34.778  1.00  0.00     0.200 A 
ATOM     93  F   UNL A   1      44.065  21.778  34.664  1.00  0.00    -0.200 F 
ATOM     94  F   UNL A   1      46.579  21.925  35.702  1.00  0.00    -0.200 F 
ENDBRANCH  61  84
ENDBRANCH  35  36
ENDBRANCH  27  30
ENDBRANCH  25  26
ENDBRANCH  24  25
ENDBRANCH  23  24
ENDBRANCH  22  23
ENDBRANCH   1  22
TORSDOF 18
ENDMDL
MODEL 3
REMARK VINA RESULT:     -11.9      4.490      6.907
REMARK SMILES Cc1ccccc1OCC(=O)NCCC(=O)NCCCCCCNC(=O)c1ccc(-c2c3nc(c(-c4c(F)c(F)c(F)c(F)c4F)c4ccc([nH]4)c(-c4c(F)c(F)c(F)c(F)c4F)c4nc(c(-c5c(F)c(F)c(F)c(F)c5F)c5ccc2[nH]5)C=C4)C=C3)cc1
REMARK SMILES IDX 19 1 18 2 17 3 15 4 16 5 14 7 13 8 12 9 10 10 11 11 9 13
REMARK SMILES IDX 8 14 7 15 1 16 2 17 3 18 4 19 6 20 5 21 20 22 21 23 22 24
REMARK SMILES IDX 23 25 24 26 25 27 26 29 27 30 28 31 89 32 29 33 88 34 30 35
REMARK SMILES IDX 31 36 32 37 82 38 33 39 87 40 81 41 83 42 34 43 86 44 80 45
REMARK SMILES IDX 79 46 35 48 67 49 47 50 66 51 48 52 51 53 65 54 84 55 49 56
REMARK SMILES IDX 50 57 64 59 85 60 52 61 36 62 37 63 45 64 38 65 39 66 43 67
REMARK SMILES IDX 46 68 40 69 41 70 44 71 42 72 68 73 69 74 77 75 70 76 71 77
REMARK SMILES IDX 75 78 78 79 72 80 73 81 76 82 74 83 53 84 54 85 62 86 55 87
REMARK SMILES IDX 56 88 60 89 63 90 57 91 58 92 61 93 59 94
REMARK H PARENT 17 6 12 12 24 28 83 47 51 58
REMARK Flexibility Score: inf
ROOT
ATOM      1  C   UNL A   1      33.498  35.909  28.692  1.00  0.00     0.021 C 
ENDROOT
BRANCH   1   2
ATOM      2  C   UNL A   1      33.017  36.631  29.952  1.00  0.00     0.116 C 
BRANCH   2   3
ATOM      3  N   UNL A   1      32.322  35.735  30.858  1.00  0.00    -0.356 N 
ATOM      4  C   UNL A   1      32.144  35.832  32.206  1.00  0.00     0.221 C 
ATOM      5  O   UNL A   1      31.517  34.945  32.786  1.00  0.00    -0.275 OA
ATOM      6  H   UNL A   1      31.921  34.940  30.438  1.00  0.00     0.163 HD
BRANCH   4   7
ATOM      7  C   UNL A   1      32.730  36.996  32.974  1.00  0.00     0.121 C 
BRANCH   7   8
ATOM      8  C   UNL A   1      34.187  36.747  33.342  1.00  0.00     0.126 C 
BRANCH   8   9
ATOM      9  N   UNL A   1      34.395  35.497  34.055  1.00  0.00    -0.353 N 
ATOM     10  C   UNL A   1      35.161  34.420  33.702  1.00  0.00     0.257 C 
ATOM     11  O   UNL A   1      35.138  33.422  34.424  1.00  0.00    -0.271 OA
ATOM     12  H   UNL A   1      33.919  35.414  34.912  1.00  0.00     0.163 HD
BRANCH  10  13
ATOM     13  C   UNL A   1      36.066  34.505  32.471  1.00  0.00     0.329 C 
BRANCH  13  14
ATOM     14  O   UNL A   1      37.427  34.210  32.662  1.00  0.00    -0.484 OA
BRANCH  14  15
ATOM     15  C   UNL A   1      38.381  34.297  31.692  1.00  0.00     0.122 A 
ATOM     16  C   UNL A   1      40.596  34.547  33.023  1.00  0.00     0.048 C 
ATOM     17  C   UNL A   1      39.774  34.438  31.771  1.00  0.00    -0.009 A 
ATOM     18  C   UNL A   1      40.515  34.420  30.563  1.00  0.00     0.007 A 
ATOM     19  C   UNL A   1      39.903  34.294  29.317  1.00  0.00     0.001 A 
ATOM     20  C   UNL A   1      37.781  34.180  30.422  1.00  0.00     0.047 A 
ATOM     21  C   UNL A   1      38.526  34.180  29.245  1.00  0.00     0.004 A 
ENDBRANCH  14  15
ENDBRANCH  13  14
ENDBRANCH  10  13
ENDBRANCH   8   9
ENDBRANCH   7   8
ENDBRANCH   4   7
ENDBRANCH   2   3
ENDBRANCH   1   2
BRANCH   1  22
ATOM     22  C   UNL A   1      34.429  34.712  28.932  1.00  0.00     0.002 C 
BRANCH  22  23
ATOM     23  C   UNL A   1      34.335  33.554  27.926  1.00  0.00     0.002 C 
BRANCH  23  24
ATOM     24  C   UNL A   1      35.495  32.554  27.928  1.00  0.00     0.021 C 
BRANCH  24  25
ATOM     25  C   UNL A   1      35.226  31.272  28.707  1.00  0.00     0.116 C 
BRANCH  25  26
ATOM     26  N   UNL A   1      35.395  31.402  30.149  1.00  0.00    -0.352 N 
ATOM     27  C   UNL A   1      36.336  30.797  30.965  1.00  0.00     0.251 C 
ATOM     28  H   UNL A   1      34.757  31.999  30.602  1.00  0.00     0.163 HD
ATOM     29  O   UNL A   1      36.342  30.993  32.170  1.00  0.00    -0.269 OA
BRANCH  27  30
ATOM     30  C   UNL A   1      37.410  29.996  30.334  1.00  0.00     0.039 A 
ATOM     31  C   UNL A   1      37.659  28.716  30.840  1.00  0.00     0.014 A 
ATOM     32  C   UNL A   1      38.279  30.573  29.409  1.00  0.00     0.014 A 
ATOM     33  C   UNL A   1      38.893  28.117  30.596  1.00  0.00     0.010 A 
ATOM     34  C   UNL A   1      39.533  30.018  29.230  1.00  0.00     0.010 A 
ATOM     35  C   UNL A   1      39.862  28.824  29.879  1.00  0.00    -0.014 A 
BRANCH  35  36
ATOM     36  C   UNL A   1      41.268  28.440  29.882  1.00  0.00     0.031 A 
ATOM     37  C   UNL A   1      41.736  27.252  29.142  1.00  0.00     0.074 A 
ATOM     38  C   UNL A   1      42.161  29.178  30.578  1.00  0.00     0.049 A 
ATOM     39  N   UNL A   1      42.709  26.498  29.535  1.00  0.00    -0.248 NA
ATOM     40  C   UNL A   1      41.120  26.805  27.901  1.00  0.00     0.031 C 
ATOM     41  C   UNL A   1      43.616  29.045  30.561  1.00  0.00     0.029 A 
ATOM     42  N   UNL A   1      41.903  30.081  31.623  1.00  0.00    -0.354 N 
ATOM     43  C   UNL A   1      43.020  25.647  28.501  1.00  0.00     0.074 A 
ATOM     44  C   UNL A   1      41.960  25.831  27.533  1.00  0.00     0.031 C 
ATOM     45  C   UNL A   1      44.107  29.559  31.700  1.00  0.00     0.029 A 
ATOM     46  C   UNL A   1      42.976  29.930  32.530  1.00  0.00     0.049 A 
ATOM     47  H   UNL A   1      41.134  30.691  31.705  1.00  0.00     0.167 HD
ATOM     48  C   UNL A   1      44.212  24.982  28.505  1.00  0.00     0.037 A 
ATOM     49  C   UNL A   1      42.779  29.532  33.818  1.00  0.00     0.037 A 
ATOM     50  C   UNL A   1      45.009  25.314  29.682  1.00  0.00     0.049 A 
ATOM     51  C   UNL A   1      43.535  28.285  34.203  1.00  0.00     0.074 A 
ATOM     52  C   UNL A   1      46.042  26.216  29.876  1.00  0.00     0.029 A 
ATOM     53  N   UNL A   1      44.592  24.913  30.946  1.00  0.00    -0.354 N 
ATOM     54  N   UNL A   1      44.020  27.437  33.341  1.00  0.00    -0.248 NA
ATOM     55  C   UNL A   1      43.758  27.868  35.584  1.00  0.00     0.031 C 
ATOM     56  C   UNL A   1      46.241  26.370  31.266  1.00  0.00     0.029 A 
ATOM     57  C   UNL A   1      45.332  25.558  31.920  1.00  0.00     0.049 A 
ATOM     58  H   UNL A   1      43.875  24.263  31.122  1.00  0.00     0.167 HD
ATOM     59  C   UNL A   1      44.573  26.373  34.008  1.00  0.00     0.074 A 
ATOM     60  C   UNL A   1      44.409  26.704  35.410  1.00  0.00     0.031 C 
ATOM     61  C   UNL A   1      45.102  25.309  33.333  1.00  0.00     0.037 A 
BRANCH  48  62
ATOM     62  C   UNL A   1      44.782  24.285  27.289  1.00  0.00     0.064 A 
ATOM     63  C   UNL A   1      44.368  22.984  26.926  1.00  0.00     0.173 A 
ATOM     64  C   UNL A   1      45.779  24.837  26.465  1.00  0.00     0.173 A 
ATOM     65  F   UNL A   1      43.338  22.378  27.531  1.00  0.00    -0.203 F 
ATOM     66  C   UNL A   1      45.002  22.247  25.924  1.00  0.00     0.198 A 
ATOM     67  C   UNL A   1      46.450  24.082  25.497  1.00  0.00     0.198 A 
ATOM     68  F   UNL A   1      46.103  26.134  26.549  1.00  0.00    -0.203 F 
ATOM     69  F   UNL A   1      44.576  21.008  25.640  1.00  0.00    -0.200 F 
ATOM     70  C   UNL A   1      46.073  22.780  25.238  1.00  0.00     0.200 A 
ATOM     71  F   UNL A   1      47.470  24.626  24.818  1.00  0.00    -0.200 F 
ATOM     72  F   UNL A   1      46.719  22.053  24.318  1.00  0.00    -0.200 F 
ENDBRANCH  48  62
BRANCH  49  73
ATOM     73  C   UNL A   1      41.458  29.925  34.366  1.00  0.00     0.064 A 
ATOM     74  C   UNL A   1      41.341  31.178  34.999  1.00  0.00     0.173 A 
ATOM     75  C   UNL A   1      40.277  29.286  33.970  1.00  0.00     0.173 A 
ATOM     76  F   UNL A   1      42.444  31.834  35.395  1.00  0.00    -0.203 F 
ATOM     77  C   UNL A   1      40.108  31.812  35.129  1.00  0.00     0.198 A 
ATOM     78  C   UNL A   1      39.042  29.918  34.117  1.00  0.00     0.198 A 
ATOM     79  F   UNL A   1      40.325  28.100  33.346  1.00  0.00    -0.203 F 
ATOM     80  F   UNL A   1      40.043  33.050  35.639  1.00  0.00    -0.200 F 
ATOM     81  C   UNL A   1      38.961  31.191  34.664  1.00  0.00     0.200 A 
ATOM     82  F   UNL A   1      37.933  29.327  33.648  1.00  0.00    -0.200 F 
ATOM     83  F   UNL A   1      37.785  31.834  34.710  1.00  0.00    -0.200 F 
ENDBRANCH  49  73
BRANCH  61  84
ATOM     84  C   UNL A   1      45.551  23.990  33.921  1.00  0.00     0.064 A 
ATOM     85  C   UNL A   1      44.727  22.861  34.056  1.00  0.00     0.173 A 
ATOM     86  C   UNL A   1      46.915  23.783  34.251  1.00  0.00     0.173 A 
ATOM     87  F   UNL A   1      43.447  22.880  33.664  1.00  0.00    -0.203 F 
ATOM     88  C   UNL A   1      45.211  21.643  34.545  1.00  0.00     0.198 A 
ATOM     89  C   UNL A   1      47.406  22.550  34.682  1.00  0.00     0.198 A 
ATOM     90  F   UNL A   1      47.823  24.765  34.141  1.00  0.00    -0.203 F 
ATOM     91  F   UNL A   1      44.371  20.609  34.695  1.00  0.00    -0.200 F 
ATOM     92  C   UNL A   1      46.551  21.484  34.845  1.00  0.00     0.200 A 
ATOM     93  F   UNL A   1      48.718  22.402  34.917  1.00  0.00    -0.200 F 
ATOM     94  F   UNL A   1      47.018  20.302  35.267  1.00  0.00    -0.200 F 
ENDBRANCH  61  84
ENDBRANCH  35  36
ENDBRANCH  27  30
ENDBRANCH  25  26
ENDBRANCH  24  25
ENDBRANCH  23  24
ENDBRANCH  22  23
ENDBRANCH   1  22
TORSDOF 18
ENDMDL
