MODEL 1
REMARK VINA RESULT:     -12.8      0.000      0.000
REMARK SMILES O=C(NCCCCCCNC(=O)[C@H]1CC[C@H](CN2C(=O)c3cccnc3C2=O)O1)c1ccc(-c2c3nc(c(-c4c(F)c(F)c(F)c(F)c4F)c4ccc([nH]4)c(-c4c(F)c(F)c(F)c(F)c4F)c4nc(c(-c5c(F)c(F)c(F)c(F)c5F)c5ccc2[nH]5)C=C4)C=C3)cc1
REMARK SMILES IDX 6 1 5 2 4 3 3 4 1 5 2 6 30 8 31 9 92 10 32 11 91 12 33 13
REMARK SMILES IDX 34 14 35 15 85 16 36 17 90 18 84 19 86 20 37 21 89 22 83 23
REMARK SMILES IDX 82 24 38 26 70 27 50 28 69 29 51 30 54 31 68 32 87 33 52 34
REMARK SMILES IDX 53 35 67 37 88 38 55 39 39 40 40 41 48 42 41 43 42 44 46 45
REMARK SMILES IDX 49 46 43 47 44 48 47 49 45 50 71 51 72 52 80 53 73 54 74 55
REMARK SMILES IDX 78 56 81 57 75 58 76 59 79 60 77 61 56 62 57 63 65 64 58 65
REMARK SMILES IDX 59 66 63 67 66 68 60 69 61 70 64 71 62 72 7 73 8 74 9 75
REMARK SMILES IDX 10 76 11 77 12 79 13 80 14 81 29 82 15 83 16 84 17 85 18 86
REMARK SMILES IDX 19 87 27 88 20 89 21 90 26 91 28 92 22 93 25 94 23 95 24 96
REMARK H PARENT 3 7 86 25 54 36 10 78
REMARK Flexibility Score: inf
ROOT
ATOM      1  C   UNL A   1      31.437  30.435  25.828  1.00  0.00     0.002 C 
ENDROOT
BRANCH   1   2
ATOM      2  C   UNL A   1      31.269  31.853  26.365  1.00  0.00     0.021 C 
BRANCH   2   3
ATOM      3  C   UNL A   1      32.518  32.411  27.027  1.00  0.00     0.116 C 
BRANCH   3   4
ATOM      4  N   UNL A   1      32.336  33.776  27.501  1.00  0.00    -0.352 N 
ATOM      5  O   UNL A   1      32.680  35.551  28.864  1.00  0.00    -0.269 OA
ATOM      6  C   UNL A   1      33.058  34.461  28.452  1.00  0.00     0.251 C 
ATOM      7  H   UNL A   1      31.597  34.277  27.086  1.00  0.00     0.163 HD
BRANCH   6   8
ATOM      8  C   UNL A   1      34.288  33.847  28.992  1.00  0.00     0.039 A 
ATOM      9  C   UNL A   1      34.195  32.762  29.864  1.00  0.00     0.014 A 
ATOM     10  C   UNL A   1      35.537  34.381  28.664  1.00  0.00     0.014 A 
ATOM     11  C   UNL A   1      35.320  32.340  30.552  1.00  0.00     0.010 A 
ATOM     12  C   UNL A   1      36.690  33.862  29.261  1.00  0.00     0.010 A 
ATOM     13  C   UNL A   1      36.588  32.858  30.236  1.00  0.00    -0.014 A 
BRANCH  13  14
ATOM     14  C   UNL A   1      37.775  32.247  30.888  1.00  0.00     0.031 A 
ATOM     15  C   UNL A   1      38.198  32.621  32.280  1.00  0.00     0.074 A 
ATOM     16  C   UNL A   1      38.434  31.283  30.215  1.00  0.00     0.049 A 
ATOM     17  N   UNL A   1      39.170  32.121  33.004  1.00  0.00    -0.248 NA
ATOM     18  C   UNL A   1      37.449  33.696  32.947  1.00  0.00     0.031 C 
ATOM     19  C   UNL A   1      38.124  30.856  28.846  1.00  0.00     0.029 A 
ATOM     20  N   UNL A   1      39.466  30.464  30.589  1.00  0.00    -0.354 N 
ATOM     21  C   UNL A   1      39.151  32.818  34.205  1.00  0.00     0.074 A 
ATOM     22  C   UNL A   1      38.098  33.806  34.100  1.00  0.00     0.031 C 
ATOM     23  C   UNL A   1      38.901  29.815  28.522  1.00  0.00     0.029 A 
ATOM     24  C   UNL A   1      39.820  29.555  29.621  1.00  0.00     0.049 A 
ATOM     25  H   UNL A   1      39.911  30.521  31.465  1.00  0.00     0.167 HD
ATOM     26  C   UNL A   1      39.932  32.636  35.298  1.00  0.00     0.037 A 
ATOM     27  C   UNL A   1      40.796  28.631  29.605  1.00  0.00     0.037 A 
ATOM     28  C   UNL A   1      40.984  31.651  35.391  1.00  0.00     0.049 A 
ATOM     29  C   UNL A   1      41.665  28.480  30.818  1.00  0.00     0.074 A 
ATOM     30  C   UNL A   1      41.828  31.385  36.456  1.00  0.00     0.029 A 
ATOM     31  N   UNL A   1      41.339  30.773  34.376  1.00  0.00    -0.354 N 
ATOM     32  N   UNL A   1      41.614  29.125  31.958  1.00  0.00    -0.248 NA
ATOM     33  C   UNL A   1      42.727  27.471  30.743  1.00  0.00     0.031 C 
ATOM     34  C   UNL A   1      42.725  30.387  36.068  1.00  0.00     0.029 A 
ATOM     35  C   UNL A   1      42.402  29.980  34.784  1.00  0.00     0.049 A 
ATOM     36  H   UNL A   1      40.901  30.721  33.496  1.00  0.00     0.167 HD
ATOM     37  C   UNL A   1      42.626  28.590  32.742  1.00  0.00     0.074 A 
ATOM     38  C   UNL A   1      43.248  27.542  31.960  1.00  0.00     0.031 C 
ATOM     39  C   UNL A   1      43.013  28.942  33.992  1.00  0.00     0.037 A 
BRANCH  26  40
ATOM     40  C   UNL A   1      39.690  33.521  36.490  1.00  0.00     0.064 A 
ATOM     41  C   UNL A   1      40.285  34.788  36.599  1.00  0.00     0.173 A 
ATOM     42  C   UNL A   1      38.801  33.129  37.504  1.00  0.00     0.173 A 
ATOM     43  F   UNL A   1      41.149  35.210  35.663  1.00  0.00    -0.203 F 
ATOM     44  C   UNL A   1      40.016  35.618  37.685  1.00  0.00     0.198 A 
ATOM     45  C   UNL A   1      38.510  33.975  38.573  1.00  0.00     0.198 A 
ATOM     46  F   UNL A   1      38.197  31.933  37.449  1.00  0.00    -0.203 F 
ATOM     47  F   UNL A   1      40.628  36.806  37.785  1.00  0.00    -0.200 F 
ATOM     48  C   UNL A   1      39.123  35.215  38.666  1.00  0.00     0.200 A 
ATOM     49  F   UNL A   1      37.633  33.590  39.510  1.00  0.00    -0.200 F 
ATOM     50  F   UNL A   1      38.853  36.022  39.702  1.00  0.00    -0.200 F 
ENDBRANCH  26  40
BRANCH  27  51
ATOM     51  C   UNL A   1      41.017  27.807  28.386  1.00  0.00     0.064 A 
ATOM     52  C   UNL A   1      40.405  26.556  28.230  1.00  0.00     0.173 A 
ATOM     53  C   UNL A   1      41.857  28.256  27.355  1.00  0.00     0.173 A 
ATOM     54  F   UNL A   1      39.604  26.076  29.192  1.00  0.00    -0.203 F 
ATOM     55  C   UNL A   1      40.653  25.771  27.105  1.00  0.00     0.198 A 
ATOM     56  C   UNL A   1      42.070  27.490  26.213  1.00  0.00     0.198 A 
ATOM     57  F   UNL A   1      42.458  29.451  27.448  1.00  0.00    -0.203 F 
ATOM     58  F   UNL A   1      40.107  24.551  27.010  1.00  0.00    -0.200 F 
ATOM     59  C   UNL A   1      41.481  26.240  26.095  1.00  0.00     0.200 A 
ATOM     60  F   UNL A   1      42.850  27.960  25.230  1.00  0.00    -0.200 F 
ATOM     61  F   UNL A   1      41.716  25.487  25.013  1.00  0.00    -0.200 F 
ENDBRANCH  27  51
BRANCH  39  62
ATOM     62  C   UNL A   1      44.145  28.159  34.595  1.00  0.00     0.064 A 
ATOM     63  C   UNL A   1      43.923  26.976  35.317  1.00  0.00     0.173 A 
ATOM     64  C   UNL A   1      45.469  28.603  34.455  1.00  0.00     0.173 A 
ATOM     65  F   UNL A   1      42.675  26.517  35.495  1.00  0.00    -0.203 F 
ATOM     66  C   UNL A   1      44.980  26.294  35.915  1.00  0.00     0.198 A 
ATOM     67  C   UNL A   1      46.526  27.896  35.021  1.00  0.00     0.198 A 
ATOM     68  F   UNL A   1      45.738  29.725  33.769  1.00  0.00    -0.203 F 
ATOM     69  F   UNL A   1      44.735  25.209  36.662  1.00  0.00    -0.200 F 
ATOM     70  C   UNL A   1      46.279  26.751  35.762  1.00  0.00     0.200 A 
ATOM     71  F   UNL A   1      47.783  28.332  34.859  1.00  0.00    -0.200 F 
ATOM     72  F   UNL A   1      47.294  26.094  36.341  1.00  0.00    -0.200 F 
ENDBRANCH  39  62
ENDBRANCH  13  14
ENDBRANCH   6   8
ENDBRANCH   3   4
ENDBRANCH   2   3
ENDBRANCH   1   2
BRANCH   1  73
ATOM     73  C   UNL A   1      32.875  29.906  25.858  1.00  0.00     0.002 C 
BRANCH  73  74
ATOM     74  C   UNL A   1      33.360  29.271  24.546  1.00  0.00     0.021 C 
BRANCH  74  75
ATOM     75  C   UNL A   1      32.253  28.579  23.753  1.00  0.00     0.116 C 
BRANCH  75  76
ATOM     76  N   UNL A   1      32.819  27.794  22.675  1.00  0.00    -0.354 N 
ATOM     77  C   UNL A   1      33.292  26.514  22.706  1.00  0.00     0.249 C 
ATOM     78  H   UNL A   1      32.869  28.245  21.802  1.00  0.00     0.163 HD
ATOM     79  O   UNL A   1      33.884  26.089  21.713  1.00  0.00    -0.272 OA
BRANCH  77  80
ATOM     80  C   UNL A   1      32.995  25.647  23.943  1.00  0.00     0.207 C 
ATOM     81  C   UNL A   1      31.928  24.624  23.579  1.00  0.00     0.045 C 
ATOM     82  O   UNL A   1      34.132  24.909  24.396  1.00  0.00    -0.363 OA
ATOM     83  C   UNL A   1      32.766  23.459  23.109  1.00  0.00     0.037 C 
ATOM     84  C   UNL A   1      33.978  23.526  24.029  1.00  0.00     0.139 C 
BRANCH  84  85
ATOM     85  C   UNL A   1      33.820  22.705  25.321  1.00  0.00     0.161 C 
BRANCH  85  86
ATOM     86  N   UNL A   1      33.741  21.280  25.071  1.00  0.00    -0.270 N 
ATOM     87  C   UNL A   1      34.816  20.480  24.795  1.00  0.00     0.263 C 
ATOM     88  C   UNL A   1      32.575  20.563  25.143  1.00  0.00     0.280 C 
ATOM     89  O   UNL A   1      35.988  20.776  24.684  1.00  0.00    -0.269 OA
ATOM     90  C   UNL A   1      34.304  19.120  24.693  1.00  0.00     0.071 A 
ATOM     91  C   UNL A   1      32.948  19.163  24.912  1.00  0.00     0.141 A 
ATOM     92  O   UNL A   1      31.455  20.981  25.377  1.00  0.00    -0.267 OA
ATOM     93  C   UNL A   1      34.930  17.912  24.477  1.00  0.00     0.018 A 
ATOM     94  N   UNL A   1      32.124  18.102  24.957  1.00  0.00    -0.250 NA
ATOM     95  C   UNL A   1      34.119  16.774  24.509  1.00  0.00     0.021 A 
ATOM     96  C   UNL A   1      32.745  16.916  24.752  1.00  0.00     0.112 A 
ENDBRANCH  85  86
ENDBRANCH  84  85
ENDBRANCH  77  80
ENDBRANCH  75  76
ENDBRANCH  74  75
ENDBRANCH  73  74
ENDBRANCH   1  73
TORSDOF 15
ENDMDL
MODEL 2
REMARK VINA RESULT:     -12.7      2.011      7.784
REMARK SMILES O=C(NCCCCCCNC(=O)[C@H]1CC[C@H](CN2C(=O)c3cccnc3C2=O)O1)c1ccc(-c2c3nc(c(-c4c(F)c(F)c(F)c(F)c4F)c4ccc([nH]4)c(-c4c(F)c(F)c(F)c(F)c4F)c4nc(c(-c5c(F)c(F)c(F)c(F)c5F)c5ccc2[nH]5)C=C4)C=C3)cc1
REMARK SMILES IDX 6 1 5 2 4 3 3 4 1 5 2 6 30 8 31 9 92 10 32 11 91 12 33 13
REMARK SMILES IDX 34 14 35 15 85 16 36 17 90 18 84 19 86 20 37 21 89 22 83 23
REMARK SMILES IDX 82 24 38 26 70 27 50 28 69 29 51 30 54 31 68 32 87 33 52 34
REMARK SMILES IDX 53 35 67 37 88 38 55 39 39 40 40 41 48 42 41 43 42 44 46 45
REMARK SMILES IDX 49 46 43 47 44 48 47 49 45 50 71 51 72 52 80 53 73 54 74 55
REMARK SMILES IDX 78 56 81 57 75 58 76 59 79 60 77 61 56 62 57 63 65 64 58 65
REMARK SMILES IDX 59 66 63 67 66 68 60 69 61 70 64 71 62 72 7 73 8 74 9 75
REMARK SMILES IDX 10 76 11 77 12 79 13 80 14 81 29 82 15 83 16 84 17 85 18 86
REMARK SMILES IDX 19 87 27 88 20 89 21 90 26 91 28 92 22 93 25 94 23 95 24 96
REMARK H PARENT 3 7 86 25 54 36 10 78
REMARK Flexibility Score: inf
ROOT
ATOM      1  C   UNL A   1      34.611  33.810  29.027  1.00  0.00     0.002 C 
ENDROOT
BRANCH   1   2
ATOM      2  C   UNL A   1      33.330  34.637  28.980  1.00  0.00     0.021 C 
BRANCH   2   3
ATOM      3  C   UNL A   1      33.485  36.044  29.533  1.00  0.00     0.116 C 
BRANCH   3   4
ATOM      4  N   UNL A   1      32.520  36.342  30.582  1.00  0.00    -0.352 N 
ATOM      5  O   UNL A   1      31.520  36.094  32.598  1.00  0.00    -0.269 OA
ATOM      6  C   UNL A   1      32.490  35.884  31.879  1.00  0.00     0.251 C 
ATOM      7  H   UNL A   1      31.792  36.954  30.329  1.00  0.00     0.163 HD
BRANCH   6   8
ATOM      8  C   UNL A   1      33.640  35.109  32.389  1.00  0.00     0.039 A 
ATOM      9  C   UNL A   1      34.901  35.700  32.447  1.00  0.00     0.014 A 
ATOM     10  C   UNL A   1      33.469  33.775  32.769  1.00  0.00     0.014 A 
ATOM     11  C   UNL A   1      36.014  34.914  32.695  1.00  0.00     0.010 A 
ATOM     12  C   UNL A   1      34.580  33.017  33.150  1.00  0.00     0.010 A 
ATOM     13  C   UNL A   1      35.867  33.571  33.085  1.00  0.00    -0.014 A 
BRANCH  13  14
ATOM     14  C   UNL A   1      37.085  32.827  33.500  1.00  0.00     0.031 A 
ATOM     15  C   UNL A   1      37.748  31.822  32.602  1.00  0.00     0.074 A 
ATOM     16  C   UNL A   1      37.628  33.131  34.696  1.00  0.00     0.049 A 
ATOM     17  N   UNL A   1      38.855  31.148  32.801  1.00  0.00    -0.248 NA
ATOM     18  C   UNL A   1      37.089  31.522  31.322  1.00  0.00     0.031 C 
ATOM     19  C   UNL A   1      37.054  34.075  35.661  1.00  0.00     0.029 A 
ATOM     20  N   UNL A   1      38.791  32.718  35.292  1.00  0.00    -0.354 N 
ATOM     21  C   UNL A   1      39.024  30.348  31.679  1.00  0.00     0.074 A 
ATOM     22  C   UNL A   1      37.884  30.586  30.819  1.00  0.00     0.031 C 
ATOM     23  C   UNL A   1      37.896  34.218  36.692  1.00  0.00     0.029 A 
ATOM     24  C   UNL A   1      39.024  33.315  36.506  1.00  0.00     0.049 A 
ATOM     25  H   UNL A   1      39.399  32.058  34.889  1.00  0.00     0.167 HD
ATOM     26  C   UNL A   1      40.045  29.504  31.391  1.00  0.00     0.037 A 
ATOM     27  C   UNL A   1      40.020  33.139  37.391  1.00  0.00     0.037 A 
ATOM     28  C   UNL A   1      41.174  29.269  32.259  1.00  0.00     0.049 A 
ATOM     29  C   UNL A   1      41.116  32.170  37.056  1.00  0.00     0.074 A 
ATOM     30  C   UNL A   1      42.263  28.437  32.056  1.00  0.00     0.029 A 
ATOM     31  N   UNL A   1      41.358  29.864  33.500  1.00  0.00    -0.354 N 
ATOM     32  N   UNL A   1      41.278  31.444  35.977  1.00  0.00    -0.248 NA
ATOM     33  C   UNL A   1      42.170  31.999  38.062  1.00  0.00     0.031 C 
ATOM     34  C   UNL A   1      43.074  28.487  33.192  1.00  0.00     0.029 A 
ATOM     35  C   UNL A   1      42.530  29.401  34.080  1.00  0.00     0.049 A 
ATOM     36  H   UNL A   1      40.746  30.517  33.908  1.00  0.00     0.167 HD
ATOM     37  C   UNL A   1      42.459  30.741  36.167  1.00  0.00     0.074 A 
ATOM     38  C   UNL A   1      42.990  31.158  37.448  1.00  0.00     0.031 C 
ATOM     39  C   UNL A   1      43.045  29.823  35.359  1.00  0.00     0.037 A 
BRANCH  26  40
ATOM     40  C   UNL A   1      39.995  28.761  30.084  1.00  0.00     0.064 A 
ATOM     41  C   UNL A   1      40.584  29.280  28.920  1.00  0.00     0.173 A 
ATOM     42  C   UNL A   1      39.411  27.487  30.007  1.00  0.00     0.173 A 
ATOM     43  F   UNL A   1      41.148  30.497  28.934  1.00  0.00    -0.203 F 
ATOM     44  C   UNL A   1      40.571  28.562  27.727  1.00  0.00     0.198 A 
ATOM     45  C   UNL A   1      39.428  26.758  28.820  1.00  0.00     0.198 A 
ATOM     46  F   UNL A   1      38.841  26.937  31.089  1.00  0.00    -0.203 F 
ATOM     47  F   UNL A   1      41.105  29.096  26.620  1.00  0.00    -0.200 F 
ATOM     48  C   UNL A   1      40.002  27.298  27.679  1.00  0.00     0.200 A 
ATOM     49  F   UNL A   1      38.894  25.529  28.781  1.00  0.00    -0.200 F 
ATOM     50  F   UNL A   1      40.006  26.602  26.534  1.00  0.00    -0.200 F 
ENDBRANCH  26  40
BRANCH  27  51
ATOM     51  C   UNL A   1      40.001  33.870  38.686  1.00  0.00     0.064 A 
ATOM     52  C   UNL A   1      40.714  35.064  38.860  1.00  0.00     0.173 A 
ATOM     53  C   UNL A   1      39.274  33.379  39.781  1.00  0.00     0.173 A 
ATOM     54  F   UNL A   1      41.436  35.568  37.849  1.00  0.00    -0.203 F 
ATOM     55  C   UNL A   1      40.727  35.719  40.090  1.00  0.00     0.198 A 
ATOM     56  C   UNL A   1      39.253  34.057  40.997  1.00  0.00     0.198 A 
ATOM     57  F   UNL A   1      38.565  32.246  39.665  1.00  0.00    -0.203 F 
ATOM     58  F   UNL A   1      41.469  36.824  40.249  1.00  0.00    -0.200 F 
ATOM     59  C   UNL A   1      39.993  35.218  41.155  1.00  0.00     0.200 A 
ATOM     60  F   UNL A   1      38.522  33.582  42.013  1.00  0.00    -0.200 F 
ATOM     61  F   UNL A   1      40.003  35.850  42.336  1.00  0.00    -0.200 F 
ENDBRANCH  27  51
BRANCH  39  62
ATOM     62  C   UNL A   1      44.345  29.237  35.833  1.00  0.00     0.064 A 
ATOM     63  C   UNL A   1      45.579  29.824  35.514  1.00  0.00     0.173 A 
ATOM     64  C   UNL A   1      44.355  28.069  36.610  1.00  0.00     0.173 A 
ATOM     65  F   UNL A   1      45.626  30.932  34.760  1.00  0.00    -0.203 F 
ATOM     66  C   UNL A   1      46.776  29.235  35.916  1.00  0.00     0.198 A 
ATOM     67  C   UNL A   1      45.553  27.506  37.043  1.00  0.00     0.198 A 
ATOM     68  F   UNL A   1      43.203  27.471  36.949  1.00  0.00    -0.203 F 
ATOM     69  F   UNL A   1      47.943  29.772  35.536  1.00  0.00    -0.200 F 
ATOM     70  C   UNL A   1      46.761  28.082  36.684  1.00  0.00     0.200 A 
ATOM     71  F   UNL A   1      45.535  26.399  37.798  1.00  0.00    -0.200 F 
ATOM     72  F   UNL A   1      47.914  27.516  37.067  1.00  0.00    -0.200 F 
ENDBRANCH  39  62
ENDBRANCH  13  14
ENDBRANCH   6   8
ENDBRANCH   3   4
ENDBRANCH   2   3
ENDBRANCH   1   2
BRANCH   1  73
ATOM     73  C   UNL A   1      34.399  32.295  28.919  1.00  0.00     0.002 C 
BRANCH  73  74
ATOM     74  C   UNL A   1      35.265  31.593  27.864  1.00  0.00     0.021 C 
BRANCH  74  75
ATOM     75  C   UNL A   1      34.847  30.150  27.588  1.00  0.00     0.116 C 
BRANCH  75  76
ATOM     76  N   UNL A   1      34.112  30.067  26.342  1.00  0.00    -0.354 N 
ATOM     77  C   UNL A   1      33.349  29.039  25.866  1.00  0.00     0.249 C 
ATOM     78  H   UNL A   1      34.172  30.857  25.760  1.00  0.00     0.163 HD
ATOM     79  O   UNL A   1      32.943  29.107  24.705  1.00  0.00    -0.272 OA
BRANCH  77  80
ATOM     80  C   UNL A   1      32.974  27.894  26.824  1.00  0.00     0.207 C 
ATOM     81  C   UNL A   1      31.456  27.808  26.913  1.00  0.00     0.045 C 
ATOM     82  O   UNL A   1      33.430  26.616  26.374  1.00  0.00    -0.363 OA
ATOM     83  C   UNL A   1      31.137  26.831  25.807  1.00  0.00     0.037 C 
ATOM     84  C   UNL A   1      32.313  25.866  25.864  1.00  0.00     0.139 C 
BRANCH  84  85
ATOM     85  C   UNL A   1      32.082  24.663  26.796  1.00  0.00     0.161 C 
BRANCH  85  86
ATOM     86  N   UNL A   1      32.492  23.407  26.201  1.00  0.00    -0.270 N 
ATOM     87  C   UNL A   1      33.791  23.048  25.966  1.00  0.00     0.263 C 
ATOM     88  C   UNL A   1      31.616  22.410  25.859  1.00  0.00     0.280 C 
ATOM     89  O   UNL A   1      34.812  23.673  26.172  1.00  0.00    -0.269 OA
ATOM     90  C   UNL A   1      33.757  21.691  25.438  1.00  0.00     0.071 A 
ATOM     91  C   UNL A   1      32.442  21.296  25.380  1.00  0.00     0.141 A 
ATOM     92  O   UNL A   1      30.402  22.419  25.952  1.00  0.00    -0.267 OA
ATOM     93  C   UNL A   1      34.757  20.818  25.072  1.00  0.00     0.018 A 
ATOM     94  N   UNL A   1      32.001  20.085  24.999  1.00  0.00    -0.250 NA
ATOM     95  C   UNL A   1      34.354  19.544  24.663  1.00  0.00     0.021 A 
ATOM     96  C   UNL A   1      32.987  19.227  24.647  1.00  0.00     0.112 A 
ENDBRANCH  85  86
ENDBRANCH  84  85
ENDBRANCH  77  80
ENDBRANCH  75  76
ENDBRANCH  74  75
ENDBRANCH  73  74
ENDBRANCH   1  73
TORSDOF 15
ENDMDL
MODEL 3
REMARK VINA RESULT:     -12.6      4.957     11.094
REMARK SMILES O=C(NCCCCCCNC(=O)[C@H]1CC[C@H](CN2C(=O)c3cccnc3C2=O)O1)c1ccc(-c2c3nc(c(-c4c(F)c(F)c(F)c(F)c4F)c4ccc([nH]4)c(-c4c(F)c(F)c(F)c(F)c4F)c4nc(c(-c5c(F)c(F)c(F)c(F)c5F)c5ccc2[nH]5)C=C4)C=C3)cc1
REMARK SMILES IDX 6 1 5 2 4 3 3 4 1 5 2 6 30 8 31 9 92 10 32 11 91 12 33 13
REMARK SMILES IDX 34 14 35 15 85 16 36 17 90 18 84 19 86 20 37 21 89 22 83 23
REMARK SMILES IDX 82 24 38 26 70 27 50 28 69 29 51 30 54 31 68 32 87 33 52 34
REMARK SMILES IDX 53 35 67 37 88 38 55 39 39 40 40 41 48 42 41 43 42 44 46 45
REMARK SMILES IDX 49 46 43 47 44 48 47 49 45 50 71 51 72 52 80 53 73 54 74 55
REMARK SMILES IDX 78 56 81 57 75 58 76 59 79 60 77 61 56 62 57 63 65 64 58 65
REMARK SMILES IDX 59 66 63 67 66 68 60 69 61 70 64 71 62 72 7 73 8 74 9 75
REMARK SMILES IDX 10 76 11 77 12 79 13 80 14 81 29 82 15 83 16 84 17 85 18 86
REMARK SMILES IDX 19 87 27 88 20 89 21 90 26 91 28 92 22 93 25 94 23 95 24 96
REMARK H PARENT 3 7 86 25 54 36 10 78
REMARK Flexibility Score: inf
ROOT
ATOM      1  C   UNL A   1      37.336  21.408  24.513  1.00  0.00     0.002 C 
ENDROOT
BRANCH   1   2
ATOM      2  C   UNL A   1      37.966  20.102  24.986  1.00  0.00     0.021 C 
BRANCH   2   3
ATOM      3  C   UNL A   1      39.034  20.283  26.051  1.00  0.00     0.116 C 
BRANCH   3   4
ATOM      4  N   UNL A   1      40.064  19.257  25.991  1.00  0.00    -0.352 N 
ATOM      5  O   UNL A   1      42.176  18.458  25.818  1.00  0.00    -0.269 OA
ATOM      6  C   UNL A   1      41.431  19.404  26.049  1.00  0.00     0.251 C 
ATOM      7  H   UNL A   1      39.739  18.332  25.896  1.00  0.00     0.163 HD
BRANCH   6   8
ATOM      8  C   UNL A   1      41.992  20.732  26.369  1.00  0.00     0.039 A 
ATOM      9  C   UNL A   1      42.267  21.065  27.695  1.00  0.00     0.014 A 
ATOM     10  C   UNL A   1      42.204  21.664  25.350  1.00  0.00     0.014 A 
ATOM     11  C   UNL A   1      42.564  22.378  28.022  1.00  0.00     0.010 A 
ATOM     12  C   UNL A   1      42.637  22.955  25.673  1.00  0.00     0.010 A 
ATOM     13  C   UNL A   1      42.789  23.332  27.015  1.00  0.00    -0.014 A 
BRANCH  13  14
ATOM     14  C   UNL A   1      43.268  24.679  27.422  1.00  0.00     0.031 A 
ATOM     15  C   UNL A   1      44.683  25.125  27.187  1.00  0.00     0.074 A 
ATOM     16  C   UNL A   1      42.368  25.530  27.955  1.00  0.00     0.049 A 
ATOM     17  N   UNL A   1      45.224  26.295  27.425  1.00  0.00    -0.248 NA
ATOM     18  C   UNL A   1      45.616  24.138  26.623  1.00  0.00     0.031 C 
ATOM     19  C   UNL A   1      40.971  25.194  28.251  1.00  0.00     0.029 A 
ATOM     20  N   UNL A   1      42.471  26.849  28.307  1.00  0.00    -0.354 N 
ATOM     21  C   UNL A   1      46.556  26.186  27.043  1.00  0.00     0.074 A 
ATOM     22  C   UNL A   1      46.753  24.823  26.598  1.00  0.00     0.031 C 
ATOM     23  C   UNL A   1      40.334  26.292  28.675  1.00  0.00     0.029 A 
ATOM     24  C   UNL A   1      41.292  27.386  28.765  1.00  0.00     0.049 A 
ATOM     25  H   UNL A   1      43.308  27.363  28.240  1.00  0.00     0.167 HD
ATOM     26  C   UNL A   1      47.516  27.142  27.053  1.00  0.00     0.037 A 
ATOM     27  C   UNL A   1      41.014  28.615  29.232  1.00  0.00     0.037 A 
ATOM     28  C   UNL A   1      47.310  28.497  27.505  1.00  0.00     0.049 A 
ATOM     29  C   UNL A   1      42.110  29.639  29.262  1.00  0.00     0.074 A 
ATOM     30  C   UNL A   1      48.218  29.542  27.550  1.00  0.00     0.029 A 
ATOM     31  N   UNL A   1      46.111  28.995  27.998  1.00  0.00    -0.354 N 
ATOM     32  N   UNL A   1      43.355  29.530  28.869  1.00  0.00    -0.248 NA
ATOM     33  C   UNL A   1      41.760  30.959  29.799  1.00  0.00     0.031 C 
ATOM     34  C   UNL A   1      47.586  30.652  28.117  1.00  0.00     0.029 A 
ATOM     35  C   UNL A   1      46.263  30.324  28.366  1.00  0.00     0.049 A 
ATOM     36  H   UNL A   1      45.276  28.480  28.074  1.00  0.00     0.167 HD
ATOM     37  C   UNL A   1      43.935  30.769  29.096  1.00  0.00     0.074 A 
ATOM     38  C   UNL A   1      42.893  31.625  29.625  1.00  0.00     0.031 C 
ATOM     39  C   UNL A   1      45.217  31.161  28.895  1.00  0.00     0.037 A 
BRANCH  26  40
ATOM     40  C   UNL A   1      48.888  26.764  26.564  1.00  0.00     0.064 A 
ATOM     41  C   UNL A   1      49.271  26.954  25.226  1.00  0.00     0.173 A 
ATOM     42  C   UNL A   1      49.854  26.268  27.454  1.00  0.00     0.173 A 
ATOM     43  F   UNL A   1      48.385  27.417  24.331  1.00  0.00    -0.203 F 
ATOM     44  C   UNL A   1      50.558  26.644  24.797  1.00  0.00     0.198 A 
ATOM     45  C   UNL A   1      51.151  25.989  27.027  1.00  0.00     0.198 A 
ATOM     46  F   UNL A   1      49.547  26.075  28.745  1.00  0.00    -0.203 F 
ATOM     47  F   UNL A   1      50.887  26.797  23.506  1.00  0.00    -0.200 F 
ATOM     48  C   UNL A   1      51.499  26.171  25.698  1.00  0.00     0.200 A 
ATOM     49  F   UNL A   1      52.063  25.549  27.904  1.00  0.00    -0.200 F 
ATOM     50  F   UNL A   1      52.744  25.887  25.285  1.00  0.00    -0.200 F 
ENDBRANCH  26  40
BRANCH  27  51
ATOM     51  C   UNL A   1      39.650  28.924  29.739  1.00  0.00     0.064 A 
ATOM     52  C   UNL A   1      38.670  29.478  28.905  1.00  0.00     0.173 A 
ATOM     53  C   UNL A   1      39.305  28.680  31.078  1.00  0.00     0.173 A 
ATOM     54  F   UNL A   1      38.953  29.744  27.622  1.00  0.00    -0.203 F 
ATOM     55  C   UNL A   1      37.409  29.807  29.399  1.00  0.00     0.198 A 
ATOM     56  C   UNL A   1      38.032  28.969  31.559  1.00  0.00     0.198 A 
ATOM     57  F   UNL A   1      40.202  28.140  31.916  1.00  0.00    -0.203 F 
ATOM     58  F   UNL A   1      36.511  30.396  28.598  1.00  0.00    -0.200 F 
ATOM     59  C   UNL A   1      37.089  29.547  30.724  1.00  0.00     0.200 A 
ATOM     60  F   UNL A   1      37.722  28.692  32.832  1.00  0.00    -0.200 F 
ATOM     61  F   UNL A   1      35.876  29.860  31.197  1.00  0.00    -0.200 F 
ENDBRANCH  27  51
BRANCH  39  62
ATOM     62  C   UNL A   1      45.546  32.590  29.225  1.00  0.00     0.064 A 
ATOM     63  C   UNL A   1      45.396  33.619  28.282  1.00  0.00     0.173 A 
ATOM     64  C   UNL A   1      46.025  32.933  30.498  1.00  0.00     0.173 A 
ATOM     65  F   UNL A   1      44.958  33.343  27.044  1.00  0.00    -0.203 F 
ATOM     66  C   UNL A   1      45.758  34.929  28.588  1.00  0.00     0.198 A 
ATOM     67  C   UNL A   1      46.348  34.250  30.812  1.00  0.00     0.198 A 
ATOM     68  F   UNL A   1      46.181  31.989  31.439  1.00  0.00    -0.203 F 
ATOM     69  F   UNL A   1      45.677  35.880  27.648  1.00  0.00    -0.200 F 
ATOM     70  C   UNL A   1      46.228  35.243  29.853  1.00  0.00     0.200 A 
ATOM     71  F   UNL A   1      46.788  34.554  32.042  1.00  0.00    -0.200 F 
ATOM     72  F   UNL A   1      46.579  36.504  30.144  1.00  0.00    -0.200 F 
ENDBRANCH  39  62
ENDBRANCH  13  14
ENDBRANCH   6   8
ENDBRANCH   3   4
ENDBRANCH   2   3
ENDBRANCH   1   2
BRANCH   1  73
ATOM     73  C   UNL A   1      35.811  21.472  24.659  1.00  0.00     0.002 C 
BRANCH  73  74
ATOM     74  C   UNL A   1      35.302  21.562  26.104  1.00  0.00     0.021 C 
BRANCH  74  75
ATOM     75  C   UNL A   1      34.921  22.977  26.534  1.00  0.00     0.116 C 
BRANCH  75  76
ATOM     76  N   UNL A   1      33.572  22.999  27.063  1.00  0.00    -0.354 N 
ATOM     77  C   UNL A   1      32.511  23.762  26.668  1.00  0.00     0.249 C 
ATOM     78  H   UNL A   1      33.398  22.381  27.808  1.00  0.00     0.163 HD
ATOM     79  O   UNL A   1      31.493  23.744  27.360  1.00  0.00    -0.272 OA
BRANCH  77  80
ATOM     80  C   UNL A   1      32.613  24.539  25.342  1.00  0.00     0.207 C 
ATOM     81  C   UNL A   1      31.208  24.788  24.811  1.00  0.00     0.045 C 
ATOM     82  O   UNL A   1      33.228  25.821  25.492  1.00  0.00    -0.363 OA
ATOM     83  C   UNL A   1      30.876  26.123  25.433  1.00  0.00     0.037 C 
ATOM     84  C   UNL A   1      32.218  26.843  25.416  1.00  0.00     0.139 C 
BRANCH  84  85
ATOM     85  C   UNL A   1      32.464  27.663  24.137  1.00  0.00     0.161 C 
BRANCH  85  86
ATOM     86  N   UNL A   1      31.328  28.486  23.773  1.00  0.00    -0.270 N 
ATOM     87  C   UNL A   1      30.939  29.612  24.445  1.00  0.00     0.263 C 
ATOM     88  C   UNL A   1      30.548  28.252  22.671  1.00  0.00     0.280 C 
ATOM     89  O   UNL A   1      31.417  30.119  25.439  1.00  0.00    -0.269 OA
ATOM     90  C   UNL A   1      29.815  30.169  23.705  1.00  0.00     0.071 A 
ATOM     91  C   UNL A   1      29.580  29.354  22.623  1.00  0.00     0.141 A 
ATOM     92  O   UNL A   1      30.641  27.341  21.870  1.00  0.00    -0.267 OA
ATOM     93  C   UNL A   1      29.062  31.307  23.888  1.00  0.00     0.018 A 
ATOM     94  N   UNL A   1      28.659  29.563  21.667  1.00  0.00    -0.250 NA
ATOM     95  C   UNL A   1      28.084  31.571  22.924  1.00  0.00     0.021 A 
ATOM     96  C   UNL A   1      27.925  30.686  21.846  1.00  0.00     0.112 A 
ENDBRANCH  85  86
ENDBRANCH  84  85
ENDBRANCH  77  80
ENDBRANCH  75  76
ENDBRANCH  74  75
ENDBRANCH  73  74
ENDBRANCH   1  73
TORSDOF 15
ENDMDL
