MODEL 1
REMARK VINA RESULT:     -12.1      0.000      0.000
REMARK SMILES C[C@@H]1CCCN(C(=O)c2ccncc2/C=C/C(=O)NCCCCCCNC(=O)c2ccc(-c3c4nc(c(-c5c(F)c(F)c(F)c(F)c5F)c5ccc([nH]5)c(-c5c(F)c(F)c(F)c(F)c5F)c5nc(c(-c6c(F)c(F)c(F)c(F)c6F)c6ccc3[nH]6)C=C5)C=C4)cc2)[C@@H]1C
REMARK SMILES IDX 22 1 21 2 20 3 19 4 17 5 18 6 16 8 15 9 14 10 9 11 10 12
REMARK SMILES IDX 11 13 13 14 12 15 7 16 8 17 6 18 1 19 2 20 3 21 92 22 4 23
REMARK SMILES IDX 93 24 5 25 23 26 24 27 25 28 26 29 27 30 28 32 29 33 30 34
REMARK SMILES IDX 91 35 31 36 90 37 32 38 33 39 34 40 84 41 35 42 89 43 83 44
REMARK SMILES IDX 85 45 36 46 88 47 82 48 81 49 37 51 69 52 49 53 68 54 50 55
REMARK SMILES IDX 53 56 67 57 86 58 51 59 52 60 66 62 87 63 54 64 38 65 39 66
REMARK SMILES IDX 47 67 40 68 41 69 45 70 48 71 42 72 43 73 46 74 44 75 70 76
REMARK SMILES IDX 71 77 79 78 72 79 73 80 77 81 80 82 74 83 75 84 78 85 76 86
REMARK SMILES IDX 55 87 56 88 64 89 57 90 58 91 62 92 65 93 59 94 60 95 63 96
REMARK SMILES IDX 61 97
REMARK H PARENT 19 7 26 31 85 50 53 61
REMARK Flexibility Score: inf
ROOT
ATOM      1  C   UNL A   1      34.143  21.055  24.685  1.00  0.00     0.002 C 
ENDROOT
BRANCH   1   2
ATOM      2  C   UNL A   1      33.680  20.597  26.073  1.00  0.00     0.021 C 
BRANCH   2   3
ATOM      3  C   UNL A   1      33.836  21.660  27.160  1.00  0.00     0.116 C 
BRANCH   3   4
ATOM      4  N   UNL A   1      32.536  22.144  27.585  1.00  0.00    -0.353 N 
ATOM      5  C   UNL A   1      31.716  23.068  27.022  1.00  0.00     0.244 C 
ATOM      6  O   UNL A   1      30.609  23.286  27.511  1.00  0.00    -0.270 OA
ATOM      7  H   UNL A   1      32.192  21.737  28.414  1.00  0.00     0.163 HD
BRANCH   5   8
ATOM      8  C   UNL A   1      32.092  23.755  25.765  1.00  0.00     0.072 C 
ATOM      9  C   UNL A   1      31.372  23.737  24.632  1.00  0.00     0.016 C 
BRANCH   9  10
ATOM     10  C   UNL A   1      31.796  24.440  23.409  1.00  0.00     0.006 A 
ATOM     11  C   UNL A   1      31.319  25.708  23.043  1.00  0.00     0.050 A 
ATOM     12  C   UNL A   1      31.802  26.349  21.894  1.00  0.00     0.034 A 
ATOM     13  C   UNL A   1      32.698  25.667  21.096  1.00  0.00     0.112 A 
ATOM     14  C   UNL A   1      32.689  23.850  22.516  1.00  0.00     0.119 A 
ATOM     15  N   UNL A   1      33.139  24.425  21.373  1.00  0.00    -0.264 NA
BRANCH  11  16
ATOM     16  C   UNL A   1      30.368  26.452  23.904  1.00  0.00     0.254 C 
ATOM     17  O   UNL A   1      29.181  26.182  23.743  1.00  0.00    -0.269 OA
BRANCH  16  18
ATOM     18  N   UNL A   1      30.862  27.378  24.833  1.00  0.00    -0.336 N 
ATOM     19  C   UNL A   1      33.447  28.847  23.812  1.00  0.00     0.010 C 
ATOM     20  C   UNL A   1      32.416  29.344  24.826  1.00  0.00     0.008 C 
ATOM     21  C   UNL A   1      32.838  28.974  26.255  1.00  0.00     0.007 C 
ATOM     22  C   UNL A   1      30.978  28.830  24.539  1.00  0.00     0.085 C 
ATOM     23  C   UNL A   1      32.675  27.484  26.527  1.00  0.00     0.022 C 
ATOM     24  C   UNL A   1      30.475  29.330  23.179  1.00  0.00     0.031 C 
ATOM     25  C   UNL A   1      31.263  27.010  26.199  1.00  0.00     0.120 C 
ENDBRANCH  16  18
ENDBRANCH  11  16
ENDBRANCH   9  10
ENDBRANCH   5   8
ENDBRANCH   3   4
ENDBRANCH   2   3
ENDBRANCH   1   2
BRANCH   1  26
ATOM     26  C   UNL A   1      35.592  21.558  24.619  1.00  0.00     0.002 C 
BRANCH  26  27
ATOM     27  C   UNL A   1      35.759  23.063  24.388  1.00  0.00     0.021 C 
BRANCH  27  28
ATOM     28  C   UNL A   1      36.960  23.695  25.089  1.00  0.00     0.116 C 
BRANCH  28  29
ATOM     29  N   UNL A   1      37.905  22.698  25.562  1.00  0.00    -0.352 N 
ATOM     30  C   UNL A   1      39.083  22.848  26.247  1.00  0.00     0.251 C 
ATOM     31  H   UNL A   1      37.660  21.768  25.358  1.00  0.00     0.163 HD
ATOM     32  O   UNL A   1      39.831  21.883  26.385  1.00  0.00    -0.269 OA
BRANCH  30  33
ATOM     33  C   UNL A   1      39.479  24.158  26.812  1.00  0.00     0.039 A 
ATOM     34  C   UNL A   1      39.163  24.424  28.148  1.00  0.00     0.014 A 
ATOM     35  C   UNL A   1      40.097  25.142  26.035  1.00  0.00     0.014 A 
ATOM     36  C   UNL A   1      39.509  25.652  28.715  1.00  0.00     0.010 A 
ATOM     37  C   UNL A   1      40.498  26.345  26.619  1.00  0.00     0.010 A 
ATOM     38  C   UNL A   1      40.206  26.613  27.965  1.00  0.00    -0.014 A 
BRANCH  38  39
ATOM     39  C   UNL A   1      40.645  27.884  28.597  1.00  0.00     0.031 A 
ATOM     40  C   UNL A   1      42.083  28.101  28.983  1.00  0.00     0.074 A 
ATOM     41  C   UNL A   1      39.732  28.843  28.846  1.00  0.00     0.049 A 
ATOM     42  N   UNL A   1      42.645  29.155  29.522  1.00  0.00    -0.248 NA
ATOM     43  C   UNL A   1      43.007  26.982  28.751  1.00  0.00     0.031 C 
ATOM     44  C   UNL A   1      38.300  28.733  28.570  1.00  0.00     0.029 A 
ATOM     45  N   UNL A   1      39.872  30.098  29.383  1.00  0.00    -0.354 N 
ATOM     46  C   UNL A   1      43.982  28.826  29.697  1.00  0.00     0.074 A 
ATOM     47  C   UNL A   1      44.139  27.456  29.256  1.00  0.00     0.031 C 
ATOM     48  C   UNL A   1      37.697  29.883  28.908  1.00  0.00     0.029 A 
ATOM     49  C   UNL A   1      38.694  30.801  29.451  1.00  0.00     0.049 A 
ATOM     50  H   UNL A   1      40.735  30.460  29.691  1.00  0.00     0.167 HD
ATOM     51  C   UNL A   1      44.991  29.603  30.160  1.00  0.00     0.037 A 
ATOM     52  C   UNL A   1      38.446  32.047  29.894  1.00  0.00     0.037 A 
ATOM     53  C   UNL A   1      44.838  30.972  30.583  1.00  0.00     0.049 A 
ATOM     54  C   UNL A   1      39.586  32.890  30.395  1.00  0.00     0.074 A 
ATOM     55  C   UNL A   1      45.810  31.858  31.016  1.00  0.00     0.029 A 
ATOM     56  N   UNL A   1      43.630  31.652  30.632  1.00  0.00    -0.354 N 
ATOM     57  N   UNL A   1      40.859  32.592  30.486  1.00  0.00    -0.248 NA
ATOM     58  C   UNL A   1      39.254  34.250  30.842  1.00  0.00     0.031 C 
ATOM     59  C   UNL A   1      45.185  33.059  31.370  1.00  0.00     0.029 A 
ATOM     60  C   UNL A   1      43.829  32.940  31.110  1.00  0.00     0.049 A 
ATOM     61  H   UNL A   1      42.759  31.278  30.367  1.00  0.00     0.167 HD
ATOM     62  C   UNL A   1      41.483  33.729  30.982  1.00  0.00     0.074 A 
ATOM     63  C   UNL A   1      40.450  34.732  31.145  1.00  0.00     0.031 C 
ATOM     64  C   UNL A   1      42.791  33.924  31.278  1.00  0.00     0.037 A 
BRANCH  51  65
ATOM     65  C   UNL A   1      46.362  28.990  30.231  1.00  0.00     0.064 A 
ATOM     66  C   UNL A   1      46.809  28.317  31.378  1.00  0.00     0.173 A 
ATOM     67  C   UNL A   1      47.223  29.040  29.124  1.00  0.00     0.173 A 
ATOM     68  F   UNL A   1      46.028  28.249  32.467  1.00  0.00    -0.203 F 
ATOM     69  C   UNL A   1      48.076  27.742  31.425  1.00  0.00     0.198 A 
ATOM     70  C   UNL A   1      48.479  28.439  29.164  1.00  0.00     0.198 A 
ATOM     71  F   UNL A   1      46.845  29.667  28.000  1.00  0.00    -0.203 F 
ATOM     72  F   UNL A   1      48.499  27.145  32.548  1.00  0.00    -0.200 F 
ATOM     73  C   UNL A   1      48.907  27.796  30.316  1.00  0.00     0.200 A 
ATOM     74  F   UNL A   1      49.275  28.481  28.087  1.00  0.00    -0.200 F 
ATOM     75  F   UNL A   1      50.124  27.236  30.360  1.00  0.00    -0.200 F 
ENDBRANCH  51  65
BRANCH  52  76
ATOM     76  C   UNL A   1      37.062  32.586  29.853  1.00  0.00     0.064 A 
ATOM     77  C   UNL A   1      36.587  33.265  28.721  1.00  0.00     0.173 A 
ATOM     78  C   UNL A   1      36.189  32.439  30.941  1.00  0.00     0.173 A 
ATOM     79  F   UNL A   1      37.392  33.448  27.664  1.00  0.00    -0.203 F 
ATOM     80  C   UNL A   1      35.299  33.793  28.688  1.00  0.00     0.198 A 
ATOM     81  C   UNL A   1      34.892  32.944  30.894  1.00  0.00     0.198 A 
ATOM     82  F   UNL A   1      36.595  31.796  32.045  1.00  0.00    -0.203 F 
ATOM     83  F   UNL A   1      34.886  34.478  27.612  1.00  0.00    -0.200 F 
ATOM     84  C   UNL A   1      34.450  33.628  29.772  1.00  0.00     0.200 A 
ATOM     85  F   UNL A   1      34.071  32.770  31.939  1.00  0.00    -0.200 F 
ATOM     86  F   UNL A   1      33.211  34.134  29.738  1.00  0.00    -0.200 F 
ENDBRANCH  52  76
BRANCH  64  87
ATOM     87  C   UNL A   1      43.175  35.281  31.796  1.00  0.00     0.064 A 
ATOM     88  C   UNL A   1      43.675  36.279  30.945  1.00  0.00     0.173 A 
ATOM     89  C   UNL A   1      43.042  35.588  33.159  1.00  0.00     0.173 A 
ATOM     90  F   UNL A   1      43.838  36.030  29.637  1.00  0.00    -0.203 F 
ATOM     91  C   UNL A   1      44.064  37.519  31.446  1.00  0.00     0.198 A 
ATOM     92  C   UNL A   1      43.401  36.840  33.651  1.00  0.00     0.198 A 
ATOM     93  F   UNL A   1      42.562  34.673  34.015  1.00  0.00    -0.203 F 
ATOM     94  F   UNL A   1      44.599  38.433  30.624  1.00  0.00    -0.200 F 
ATOM     95  C   UNL A   1      43.923  37.800  32.797  1.00  0.00     0.200 A 
ATOM     96  F   UNL A   1      43.253  37.114  34.954  1.00  0.00    -0.200 F 
ATOM     97  F   UNL A   1      44.302  38.991  33.277  1.00  0.00    -0.200 F 
ENDBRANCH  64  87
ENDBRANCH  38  39
ENDBRANCH  30  33
ENDBRANCH  28  29
ENDBRANCH  27  28
ENDBRANCH  26  27
ENDBRANCH   1  26
TORSDOF 16
ENDMDL
MODEL 2
REMARK VINA RESULT:     -11.8      3.905      9.012
REMARK SMILES C[C@@H]1CCCN(C(=O)c2ccncc2/C=C/C(=O)NCCCCCCNC(=O)c2ccc(-c3c4nc(c(-c5c(F)c(F)c(F)c(F)c5F)c5ccc([nH]5)c(-c5c(F)c(F)c(F)c(F)c5F)c5nc(c(-c6c(F)c(F)c(F)c(F)c6F)c6ccc3[nH]6)C=C5)C=C4)cc2)[C@@H]1C
REMARK SMILES IDX 22 1 21 2 20 3 19 4 17 5 18 6 16 8 15 9 14 10 9 11 10 12
REMARK SMILES IDX 11 13 13 14 12 15 7 16 8 17 6 18 1 19 2 20 3 21 92 22 4 23
REMARK SMILES IDX 93 24 5 25 23 26 24 27 25 28 26 29 27 30 28 32 29 33 30 34
REMARK SMILES IDX 91 35 31 36 90 37 32 38 33 39 34 40 84 41 35 42 89 43 83 44
REMARK SMILES IDX 85 45 36 46 88 47 82 48 81 49 37 51 69 52 49 53 68 54 50 55
REMARK SMILES IDX 53 56 67 57 86 58 51 59 52 60 66 62 87 63 54 64 38 65 39 66
REMARK SMILES IDX 47 67 40 68 41 69 45 70 48 71 42 72 43 73 46 74 44 75 70 76
REMARK SMILES IDX 71 77 79 78 72 79 73 80 77 81 80 82 74 83 75 84 78 85 76 86
REMARK SMILES IDX 55 87 56 88 64 89 57 90 58 91 62 92 65 93 59 94 60 95 63 96
REMARK SMILES IDX 61 97
REMARK H PARENT 19 7 26 31 85 50 53 61
REMARK Flexibility Score: inf
ROOT
ATOM      1  C   UNL A   1      32.050  29.787  26.893  1.00  0.00     0.002 C 
ENDROOT
BRANCH   1   2
ATOM      2  C   UNL A   1      33.545  29.931  27.201  1.00  0.00     0.021 C 
BRANCH   2   3
ATOM      3  C   UNL A   1      34.412  28.828  26.596  1.00  0.00     0.116 C 
BRANCH   3   4
ATOM      4  N   UNL A   1      34.176  28.725  25.168  1.00  0.00    -0.353 N 
ATOM      5  C   UNL A   1      33.486  27.797  24.456  1.00  0.00     0.244 C 
ATOM      6  O   UNL A   1      33.346  27.934  23.242  1.00  0.00    -0.270 OA
ATOM      7  H   UNL A   1      34.580  29.443  24.628  1.00  0.00     0.163 HD
BRANCH   5   8
ATOM      8  C   UNL A   1      32.811  26.666  25.132  1.00  0.00     0.072 C 
ATOM      9  C   UNL A   1      32.141  25.684  24.507  1.00  0.00     0.016 C 
BRANCH   9  10
ATOM     10  C   UNL A   1      31.487  24.582  25.234  1.00  0.00     0.006 A 
ATOM     11  C   UNL A   1      31.706  23.226  24.938  1.00  0.00     0.050 A 
ATOM     12  C   UNL A   1      31.096  22.221  25.701  1.00  0.00     0.034 A 
ATOM     13  C   UNL A   1      30.218  22.601  26.695  1.00  0.00     0.112 A 
ATOM     14  C   UNL A   1      30.570  24.836  26.251  1.00  0.00     0.119 A 
ATOM     15  N   UNL A   1      29.929  23.886  26.976  1.00  0.00    -0.264 NA
BRANCH  11  16
ATOM     16  C   UNL A   1      32.660  22.812  23.882  1.00  0.00     0.254 C 
ATOM     17  O   UNL A   1      32.174  22.617  22.771  1.00  0.00    -0.269 OA
BRANCH  16  18
ATOM     18  N   UNL A   1      34.021  22.687  24.195  1.00  0.00    -0.336 N 
ATOM     19  C   UNL A   1      34.494  21.811  27.177  1.00  0.00     0.010 C 
ATOM     20  C   UNL A   1      35.409  21.590  25.971  1.00  0.00     0.008 C 
ATOM     21  C   UNL A   1      36.422  22.737  25.841  1.00  0.00     0.007 C 
ATOM     22  C   UNL A   1      34.630  21.406  24.639  1.00  0.00     0.085 C 
ATOM     23  C   UNL A   1      35.765  24.023  25.354  1.00  0.00     0.022 C 
ATOM     24  C   UNL A   1      33.732  20.164  24.693  1.00  0.00     0.031 C 
ATOM     25  C   UNL A   1      34.981  23.794  24.066  1.00  0.00     0.120 C 
ENDBRANCH  16  18
ENDBRANCH  11  16
ENDBRANCH   9  10
ENDBRANCH   5   8
ENDBRANCH   3   4
ENDBRANCH   2   3
ENDBRANCH   1   2
BRANCH   1  26
ATOM     26  C   UNL A   1      31.445  30.935  26.073  1.00  0.00     0.002 C 
BRANCH  26  27
ATOM     27  C   UNL A   1      31.298  32.270  26.812  1.00  0.00     0.021 C 
BRANCH  27  28
ATOM     28  C   UNL A   1      32.597  33.049  27.002  1.00  0.00     0.116 C 
BRANCH  28  29
ATOM     29  N   UNL A   1      32.376  34.339  27.633  1.00  0.00    -0.352 N 
ATOM     30  C   UNL A   1      32.984  34.911  28.721  1.00  0.00     0.251 C 
ATOM     31  H   UNL A   1      31.677  34.889  27.213  1.00  0.00     0.163 HD
ATOM     32  O   UNL A   1      32.513  35.934  29.210  1.00  0.00    -0.269 OA
BRANCH  30  33
ATOM     33  C   UNL A   1      34.191  34.306  29.328  1.00  0.00     0.039 A 
ATOM     34  C   UNL A   1      34.027  33.470  30.436  1.00  0.00     0.014 A 
ATOM     35  C   UNL A   1      35.477  34.596  28.861  1.00  0.00     0.014 A 
ATOM     36  C   UNL A   1      35.141  32.889  31.044  1.00  0.00     0.010 A 
ATOM     37  C   UNL A   1      36.586  33.966  29.430  1.00  0.00     0.010 A 
ATOM     38  C   UNL A   1      36.430  33.107  30.529  1.00  0.00    -0.014 A 
BRANCH  38  39
ATOM     39  C   UNL A   1      37.603  32.420  31.127  1.00  0.00     0.031 A 
ATOM     40  C   UNL A   1      38.104  32.792  32.495  1.00  0.00     0.074 A 
ATOM     41  C   UNL A   1      38.237  31.466  30.418  1.00  0.00     0.049 A 
ATOM     42  N   UNL A   1      39.098  32.282  33.180  1.00  0.00    -0.248 NA
ATOM     43  C   UNL A   1      37.411  33.895  33.178  1.00  0.00     0.031 C 
ATOM     44  C   UNL A   1      37.883  31.052  29.060  1.00  0.00     0.029 A 
ATOM     45  N   UNL A   1      39.306  30.670  30.740  1.00  0.00    -0.354 N 
ATOM     46  C   UNL A   1      39.152  33.001  34.366  1.00  0.00     0.074 A 
ATOM     47  C   UNL A   1      38.125  34.018  34.288  1.00  0.00     0.031 C 
ATOM     48  C   UNL A   1      38.698  30.057  28.676  1.00  0.00     0.029 A 
ATOM     49  C   UNL A   1      39.649  29.782  29.749  1.00  0.00     0.049 A 
ATOM     50  H   UNL A   1      39.783  30.729  31.599  1.00  0.00     0.167 HD
ATOM     51  C   UNL A   1      39.968  32.814  35.432  1.00  0.00     0.037 A 
ATOM     52  C   UNL A   1      40.616  28.847  29.711  1.00  0.00     0.037 A 
ATOM     53  C   UNL A   1      40.979  31.791  35.516  1.00  0.00     0.049 A 
ATOM     54  C   UNL A   1      41.501  28.656  30.912  1.00  0.00     0.074 A 
ATOM     55  C   UNL A   1      41.818  31.487  36.575  1.00  0.00     0.029 A 
ATOM     56  N   UNL A   1      41.294  30.906  34.494  1.00  0.00    -0.354 N 
ATOM     57  N   UNL A   1      41.493  29.293  32.057  1.00  0.00    -0.248 NA
ATOM     58  C   UNL A   1      42.522  27.603  30.817  1.00  0.00     0.031 C 
ATOM     59  C   UNL A   1      42.669  30.450  36.179  1.00  0.00     0.029 A 
ATOM     60  C   UNL A   1      42.329  30.071  34.890  1.00  0.00     0.049 A 
ATOM     61  H   UNL A   1      40.847  30.874  33.617  1.00  0.00     0.167 HD
ATOM     62  C   UNL A   1      42.491  28.709  32.826  1.00  0.00     0.074 A 
ATOM     63  C   UNL A   1      43.065  27.647  32.025  1.00  0.00     0.031 C 
ATOM     64  C   UNL A   1      42.898  29.026  34.080  1.00  0.00     0.037 A 
BRANCH  51  65
ATOM     65  C   UNL A   1      39.798  33.737  36.606  1.00  0.00     0.064 A 
ATOM     66  C   UNL A   1      40.458  34.974  36.671  1.00  0.00     0.173 A 
ATOM     67  C   UNL A   1      38.933  33.401  37.659  1.00  0.00     0.173 A 
ATOM     68  F   UNL A   1      41.304  35.340  35.695  1.00  0.00    -0.203 F 
ATOM     69  C   UNL A   1      40.281  35.826  37.758  1.00  0.00     0.198 A 
ATOM     70  C   UNL A   1      38.735  34.269  38.730  1.00  0.00     0.198 A 
ATOM     71  F   UNL A   1      38.273  32.233  37.645  1.00  0.00    -0.203 F 
ATOM     72  F   UNL A   1      40.958  36.981  37.820  1.00  0.00    -0.200 F 
ATOM     73  C   UNL A   1      39.414  35.477  38.782  1.00  0.00     0.200 A 
ATOM     74  F   UNL A   1      37.888  33.935  39.713  1.00  0.00    -0.200 F 
ATOM     75  F   UNL A   1      39.238  36.301  39.825  1.00  0.00    -0.200 F 
ENDBRANCH  51  65
BRANCH  52  76
ATOM     76  C   UNL A   1      40.777  27.996  28.504  1.00  0.00     0.064 A 
ATOM     77  C   UNL A   1      41.582  28.409  27.434  1.00  0.00     0.173 A 
ATOM     78  C   UNL A   1      40.127  26.758  28.393  1.00  0.00     0.173 A 
ATOM     79  F   UNL A   1      42.207  29.594  27.485  1.00  0.00    -0.203 F 
ATOM     80  C   UNL A   1      41.716  27.626  26.290  1.00  0.00     0.198 A 
ATOM     81  C   UNL A   1      40.284  25.963  27.261  1.00  0.00     0.198 A 
ATOM     82  F   UNL A   1      39.348  26.316  29.391  1.00  0.00    -0.203 F 
ATOM     83  F   UNL A   1      42.454  28.066  25.262  1.00  0.00    -0.200 F 
ATOM     84  C   UNL A   1      41.071  26.400  26.206  1.00  0.00     0.200 A 
ATOM     85  F   UNL A   1      39.670  24.774  27.190  1.00  0.00    -0.200 F 
ATOM     86  F   UNL A   1      41.202  25.647  25.107  1.00  0.00    -0.200 F 
ENDBRANCH  52  76
BRANCH  64  87
ATOM     87  C   UNL A   1      44.009  28.200  34.662  1.00  0.00     0.064 A 
ATOM     88  C   UNL A   1      43.754  26.997  35.339  1.00  0.00     0.173 A 
ATOM     89  C   UNL A   1      45.344  28.614  34.542  1.00  0.00     0.173 A 
ATOM     90  F   UNL A   1      42.494  26.565  35.496  1.00  0.00    -0.203 F 
ATOM     91  C   UNL A   1      44.792  26.262  35.908  1.00  0.00     0.198 A 
ATOM     92  C   UNL A   1      46.381  27.860  35.084  1.00  0.00     0.198 A 
ATOM     93  F   UNL A   1      45.644  29.753  33.899  1.00  0.00    -0.203 F 
ATOM     94  F   UNL A   1      44.517  25.150  36.605  1.00  0.00    -0.200 F 
ATOM     95  C   UNL A   1      46.103  26.691  35.777  1.00  0.00     0.200 A 
ATOM     96  F   UNL A   1      47.650  28.270  34.946  1.00  0.00    -0.200 F 
ATOM     97  F   UNL A   1      47.099  25.985  36.328  1.00  0.00    -0.200 F 
ENDBRANCH  64  87
ENDBRANCH  38  39
ENDBRANCH  30  33
ENDBRANCH  28  29
ENDBRANCH  27  28
ENDBRANCH  26  27
ENDBRANCH   1  26
TORSDOF 16
ENDMDL
MODEL 3
REMARK VINA RESULT:     -11.8      4.461      9.435
REMARK SMILES C[C@@H]1CCCN(C(=O)c2ccncc2/C=C/C(=O)NCCCCCCNC(=O)c2ccc(-c3c4nc(c(-c5c(F)c(F)c(F)c(F)c5F)c5ccc([nH]5)c(-c5c(F)c(F)c(F)c(F)c5F)c5nc(c(-c6c(F)c(F)c(F)c(F)c6F)c6ccc3[nH]6)C=C5)C=C4)cc2)[C@@H]1C
REMARK SMILES IDX 22 1 21 2 20 3 19 4 17 5 18 6 16 8 15 9 14 10 9 11 10 12
REMARK SMILES IDX 11 13 13 14 12 15 7 16 8 17 6 18 1 19 2 20 3 21 92 22 4 23
REMARK SMILES IDX 93 24 5 25 23 26 24 27 25 28 26 29 27 30 28 32 29 33 30 34
REMARK SMILES IDX 91 35 31 36 90 37 32 38 33 39 34 40 84 41 35 42 89 43 83 44
REMARK SMILES IDX 85 45 36 46 88 47 82 48 81 49 37 51 69 52 49 53 68 54 50 55
REMARK SMILES IDX 53 56 67 57 86 58 51 59 52 60 66 62 87 63 54 64 38 65 39 66
REMARK SMILES IDX 47 67 40 68 41 69 45 70 48 71 42 72 43 73 46 74 44 75 70 76
REMARK SMILES IDX 71 77 79 78 72 79 73 80 77 81 80 82 74 83 75 84 78 85 76 86
REMARK SMILES IDX 55 87 56 88 64 89 57 90 58 91 62 92 65 93 59 94 60 95 63 96
REMARK SMILES IDX 61 97
REMARK H PARENT 19 7 26 31 85 50 53 61
REMARK Flexibility Score: inf
ROOT
ATOM      1  C   UNL A   1      35.270  33.908  28.884  1.00  0.00     0.002 C 
ENDROOT
BRANCH   1   2
ATOM      2  C   UNL A   1      34.377  32.727  29.281  1.00  0.00     0.021 C 
BRANCH   2   3
ATOM      3  C   UNL A   1      34.012  31.807  28.117  1.00  0.00     0.116 C 
BRANCH   3   4
ATOM      4  N   UNL A   1      34.860  30.629  28.118  1.00  0.00    -0.353 N 
ATOM      5  C   UNL A   1      34.791  29.497  27.372  1.00  0.00     0.244 C 
ATOM      6  O   UNL A   1      35.662  28.636  27.482  1.00  0.00    -0.270 OA
ATOM      7  H   UNL A   1      35.605  30.655  28.762  1.00  0.00     0.163 HD
BRANCH   5   8
ATOM      8  C   UNL A   1      33.733  29.320  26.352  1.00  0.00     0.072 C 
ATOM      9  C   UNL A   1      32.720  28.442  26.437  1.00  0.00     0.016 C 
BRANCH   9  10
ATOM     10  C   UNL A   1      31.694  28.309  25.388  1.00  0.00     0.006 A 
ATOM     11  C   UNL A   1      31.072  27.091  25.066  1.00  0.00     0.050 A 
ATOM     12  C   UNL A   1      30.063  27.039  24.096  1.00  0.00     0.034 A 
ATOM     13  C   UNL A   1      29.755  28.199  23.414  1.00  0.00     0.112 A 
ATOM     14  C   UNL A   1      31.305  29.406  24.622  1.00  0.00     0.119 A 
ATOM     15  N   UNL A   1      30.365  29.377  23.644  1.00  0.00    -0.264 NA
BRANCH  11  16
ATOM     16  C   UNL A   1      31.388  25.846  25.806  1.00  0.00     0.254 C 
ATOM     17  O   UNL A   1      31.160  25.870  27.012  1.00  0.00    -0.269 OA
BRANCH  16  18
ATOM     18  N   UNL A   1      31.897  24.742  25.108  1.00  0.00    -0.336 N 
ATOM     19  C   UNL A   1      33.462  25.576  22.512  1.00  0.00     0.010 C 
ATOM     20  C   UNL A   1      33.638  24.314  23.357  1.00  0.00     0.008 C 
ATOM     21  C   UNL A   1      32.766  23.172  22.815  1.00  0.00     0.007 C 
ATOM     22  C   UNL A   1      33.350  24.543  24.867  1.00  0.00     0.085 C 
ATOM     23  C   UNL A   1      31.288  23.398  23.110  1.00  0.00     0.022 C 
ATOM     24  C   UNL A   1      34.325  25.564  25.465  1.00  0.00     0.031 C 
ATOM     25  C   UNL A   1      31.050  23.655  24.594  1.00  0.00     0.120 C 
ENDBRANCH  16  18
ENDBRANCH  11  16
ENDBRANCH   9  10
ENDBRANCH   5   8
ENDBRANCH   3   4
ENDBRANCH   2   3
ENDBRANCH   1   2
BRANCH   1  26
ATOM     26  C   UNL A   1      34.530  35.092  28.245  1.00  0.00     0.002 C 
BRANCH  26  27
ATOM     27  C   UNL A   1      33.203  35.478  28.908  1.00  0.00     0.021 C 
BRANCH  27  28
ATOM     28  C   UNL A   1      33.297  36.607  29.931  1.00  0.00     0.116 C 
BRANCH  28  29
ATOM     29  N   UNL A   1      32.393  36.409  31.051  1.00  0.00    -0.352 N 
ATOM     30  C   UNL A   1      32.490  35.570  32.131  1.00  0.00     0.251 C 
ATOM     31  H   UNL A   1      31.582  36.965  31.031  1.00  0.00     0.163 HD
ATOM     32  O   UNL A   1      31.519  35.417  32.869  1.00  0.00    -0.269 OA
BRANCH  30  33
ATOM     33  C   UNL A   1      33.741  34.831  32.416  1.00  0.00     0.039 A 
ATOM     34  C   UNL A   1      34.957  35.499  32.249  1.00  0.00     0.014 A 
ATOM     35  C   UNL A   1      33.735  33.482  32.786  1.00  0.00     0.014 A 
ATOM     36  C   UNL A   1      36.159  34.835  32.497  1.00  0.00     0.010 A 
ATOM     37  C   UNL A   1      34.933  32.836  33.094  1.00  0.00     0.010 A 
ATOM     38  C   UNL A   1      36.158  33.505  32.950  1.00  0.00    -0.014 A 
BRANCH  38  39
ATOM     39  C   UNL A   1      37.436  32.830  33.293  1.00  0.00     0.031 A 
ATOM     40  C   UNL A   1      38.156  33.139  34.577  1.00  0.00     0.074 A 
ATOM     41  C   UNL A   1      37.963  31.944  32.425  1.00  0.00     0.049 A 
ATOM     42  N   UNL A   1      39.268  32.627  35.046  1.00  0.00    -0.248 NA
ATOM     43  C   UNL A   1      37.562  34.171  35.438  1.00  0.00     0.031 C 
ATOM     44  C   UNL A   1      37.391  31.598  31.124  1.00  0.00     0.029 A 
ATOM     45  N   UNL A   1      39.094  31.171  32.507  1.00  0.00    -0.354 N 
ATOM     46  C   UNL A   1      39.507  33.276  36.250  1.00  0.00     0.074 A 
ATOM     47  C   UNL A   1      38.455  34.256  36.415  1.00  0.00     0.031 C 
ATOM     48  C   UNL A   1      38.154  30.659  30.543  1.00  0.00     0.029 A 
ATOM     49  C   UNL A   1      39.284  30.357  31.417  1.00  0.00     0.049 A 
ATOM     50  H   UNL A   1      39.711  31.197  33.274  1.00  0.00     0.167 HD
ATOM     51  C   UNL A   1      40.500  33.058  37.146  1.00  0.00     0.037 A 
ATOM     52  C   UNL A   1      40.255  29.464  31.153  1.00  0.00     0.037 A 
ATOM     53  C   UNL A   1      41.538  32.070  36.988  1.00  0.00     0.049 A 
ATOM     54  C   UNL A   1      41.340  29.236  32.169  1.00  0.00     0.074 A 
ATOM     55  C   UNL A   1      42.555  31.737  37.866  1.00  0.00     0.029 A 
ATOM     56  N   UNL A   1      41.694  31.260  35.873  1.00  0.00    -0.354 N 
ATOM     57  N   UNL A   1      41.513  29.803  33.338  1.00  0.00    -0.248 NA
ATOM     58  C   UNL A   1      42.357  28.230  31.833  1.00  0.00     0.031 C 
ATOM     59  C   UNL A   1      43.353  30.758  37.264  1.00  0.00     0.029 A 
ATOM     60  C   UNL A   1      42.805  30.444  36.030  1.00  0.00     0.049 A 
ATOM     61  H   UNL A   1      41.104  31.263  35.085  1.00  0.00     0.167 HD
ATOM     62  C   UNL A   1      42.645  29.213  33.885  1.00  0.00     0.074 A 
ATOM     63  C   UNL A   1      43.100  28.223  32.930  1.00  0.00     0.031 C 
ATOM     64  C   UNL A   1      43.254  29.470  35.069  1.00  0.00     0.037 A 
BRANCH  51  65
ATOM     65  C   UNL A   1      40.511  33.902  38.389  1.00  0.00     0.064 A 
ATOM     66  C   UNL A   1      39.781  33.540  39.531  1.00  0.00     0.173 A 
ATOM     67  C   UNL A   1      41.294  35.065  38.454  1.00  0.00     0.173 A 
ATOM     68  F   UNL A   1      39.008  32.443  39.518  1.00  0.00    -0.203 F 
ATOM     69  C   UNL A   1      39.811  34.325  40.681  1.00  0.00     0.198 A 
ATOM     70  C   UNL A   1      41.345  35.832  39.616  1.00  0.00     0.198 A 
ATOM     71  F   UNL A   1      42.016  35.455  37.393  1.00  0.00    -0.203 F 
ATOM     72  F   UNL A   1      39.069  33.984  41.744  1.00  0.00    -0.200 F 
ATOM     73  C   UNL A   1      40.599  35.465  40.726  1.00  0.00     0.200 A 
ATOM     74  F   UNL A   1      42.117  36.926  39.661  1.00  0.00    -0.200 F 
ATOM     75  F   UNL A   1      40.634  36.215  41.836  1.00  0.00    -0.200 F 
ENDBRANCH  51  65
BRANCH  52  76
ATOM     76  C   UNL A   1      40.227  28.692  29.883  1.00  0.00     0.064 A 
ATOM     77  C   UNL A   1      39.558  27.463  29.803  1.00  0.00     0.173 A 
ATOM     78  C   UNL A   1      40.870  29.164  28.730  1.00  0.00     0.173 A 
ATOM     79  F   UNL A   1      38.946  26.962  30.885  1.00  0.00    -0.203 F 
ATOM     80  C   UNL A   1      39.551  26.725  28.622  1.00  0.00     0.198 A 
ATOM     81  C   UNL A   1      40.837  28.438  27.542  1.00  0.00     0.198 A 
ATOM     82  F   UNL A   1      41.521  30.336  28.755  1.00  0.00    -0.203 F 
ATOM     83  F   UNL A   1      38.944  25.531  28.585  1.00  0.00    -0.200 F 
ATOM     84  C   UNL A   1      40.186  27.215  27.490  1.00  0.00     0.200 A 
ATOM     85  F   UNL A   1      41.441  28.922  26.447  1.00  0.00    -0.200 F 
ATOM     86  F   UNL A   1      40.176  26.506  26.354  1.00  0.00    -0.200 F 
ENDBRANCH  52  76
BRANCH  64  87
ATOM     87  C   UNL A   1      44.471  28.654  35.397  1.00  0.00     0.064 A 
ATOM     88  C   UNL A   1      45.761  29.083  35.046  1.00  0.00     0.173 A 
ATOM     89  C   UNL A   1      44.348  27.430  36.072  1.00  0.00     0.173 A 
ATOM     90  F   UNL A   1      45.931  30.238  34.385  1.00  0.00    -0.203 F 
ATOM     91  C   UNL A   1      46.876  28.297  35.322  1.00  0.00     0.198 A 
ATOM     92  C   UNL A   1      45.469  26.662  36.375  1.00  0.00     0.198 A 
ATOM     93  F   UNL A   1      43.139  26.977  36.437  1.00  0.00    -0.203 F 
ATOM     94  F   UNL A   1      48.091  28.697  34.919  1.00  0.00    -0.200 F 
ATOM     95  C   UNL A   1      46.731  27.091  35.990  1.00  0.00     0.200 A 
ATOM     96  F   UNL A   1      45.328  25.503  37.031  1.00  0.00    -0.200 F 
ATOM     97  F   UNL A   1      47.805  26.335  36.251  1.00  0.00    -0.200 F 
ENDBRANCH  64  87
ENDBRANCH  38  39
ENDBRANCH  30  33
ENDBRANCH  28  29
ENDBRANCH  27  28
ENDBRANCH  26  27
ENDBRANCH   1  26
TORSDOF 16
ENDMDL
