MODEL 1
REMARK VINA RESULT:     -12.5      0.000      0.000
REMARK SMILES C[C@@H](c1ccc(F)cc1)N1C[C@H](C(=O)NCCCCCCNC(=O)c2ccc(-c3c4nc(c(-c5c(F)c(F)c(F)c(F)c5F)c5ccc([nH]5)c(-c5c(F)c(F)c(F)c(F)c5F)c5nc(c(-c6c(F)c(F)c(F)c(F)c6F)c6ccc3[nH]6)C=C5)C=C4)cc2)CC1=O
REMARK SMILES IDX 18 1 17 2 16 3 15 4 13 5 14 6 12 8 10 9 11 10 89 11 88 12
REMARK SMILES IDX 90 13 2 14 1 15 3 16 4 17 9 18 5 19 8 20 6 21 7 22 19 23
REMARK SMILES IDX 20 24 21 25 22 26 23 27 24 29 25 30 26 31 87 32 27 33 86 34
REMARK SMILES IDX 28 35 29 36 30 37 80 38 31 39 85 40 79 41 81 42 32 43 84 44
REMARK SMILES IDX 78 45 77 46 33 48 65 49 45 50 64 51 46 52 49 53 63 54 82 55
REMARK SMILES IDX 47 56 48 57 62 59 83 60 50 61 34 62 35 63 43 64 36 65 37 66
REMARK SMILES IDX 41 67 44 68 38 69 39 70 42 71 40 72 66 73 67 74 75 75 68 76
REMARK SMILES IDX 69 77 73 78 76 79 70 80 71 81 74 82 72 83 51 84 52 85 60 86
REMARK SMILES IDX 53 87 54 88 58 89 61 90 55 91 56 92 59 93 57 94
REMARK H PARENT 15 7 22 28 81 47 49 58
REMARK Flexibility Score: inf
ROOT
ATOM      1  C   UNL A   1      32.610  30.192  27.216  1.00  0.00     0.002 C 
ENDROOT
BRANCH   1   2
ATOM      2  C   UNL A   1      32.696  28.678  26.990  1.00  0.00     0.021 C 
BRANCH   2   3
ATOM      3  C   UNL A   1      33.965  28.214  26.275  1.00  0.00     0.116 C 
BRANCH   3   4
ATOM      4  N   UNL A   1      34.061  28.767  24.937  1.00  0.00    -0.356 N 
ATOM      5  C   UNL A   1      33.919  28.148  23.730  1.00  0.00     0.225 C 
ATOM      6  O   UNL A   1      33.983  28.834  22.711  1.00  0.00    -0.275 OA
ATOM      7  H   UNL A   1      34.256  29.731  24.895  1.00  0.00     0.163 HD
BRANCH   5   8
ATOM      8  C   UNL A   1      33.672  26.648  23.703  1.00  0.00     0.107 C 
ATOM      9  N   UNL A   1      31.376  26.219  23.460  1.00  0.00    -0.335 N 
ATOM     10  C   UNL A   1      32.416  26.244  24.463  1.00  0.00     0.134 C 
ATOM     11  C   UNL A   1      31.897  26.335  22.181  1.00  0.00     0.223 C 
ATOM     12  C   UNL A   1      33.389  26.187  22.280  1.00  0.00     0.115 C 
ATOM     13  O   UNL A   1      31.307  26.493  21.125  1.00  0.00    -0.275 OA
BRANCH   9  14
ATOM     14  C   UNL A   1      29.960  26.244  23.836  1.00  0.00     0.112 C 
ATOM     15  C   UNL A   1      29.739  25.659  25.231  1.00  0.00     0.036 C 
BRANCH  14  16
ATOM     16  C   UNL A   1      29.338  27.618  23.618  1.00  0.00    -0.026 A 
ATOM     17  C   UNL A   1      30.116  28.790  23.607  1.00  0.00     0.009 A 
ATOM     18  C   UNL A   1      27.963  27.731  23.347  1.00  0.00     0.009 A 
ATOM     19  C   UNL A   1      29.554  30.025  23.284  1.00  0.00     0.039 A 
ATOM     20  C   UNL A   1      27.394  28.973  23.051  1.00  0.00     0.039 A 
ATOM     21  C   UNL A   1      28.199  30.104  23.006  1.00  0.00     0.123 A 
ATOM     22  F   UNL A   1      27.660  31.287  22.680  1.00  0.00    -0.207 F 
ENDBRANCH  14  16
ENDBRANCH   9  14
ENDBRANCH   5   8
ENDBRANCH   3   4
ENDBRANCH   2   3
ENDBRANCH   1   2
BRANCH   1  23
ATOM     23  C   UNL A   1      31.536  30.912  26.396  1.00  0.00     0.002 C 
BRANCH  23  24
ATOM     24  C   UNL A   1      31.422  32.414  26.658  1.00  0.00     0.021 C 
BRANCH  24  25
ATOM     25  C   UNL A   1      32.679  33.052  27.237  1.00  0.00     0.116 C 
BRANCH  25  26
ATOM     26  N   UNL A   1      32.446  34.414  27.690  1.00  0.00    -0.352 N 
ATOM     27  C   UNL A   1      33.011  35.088  28.743  1.00  0.00     0.251 C 
ATOM     28  H   UNL A   1      31.787  34.925  27.166  1.00  0.00     0.163 HD
ATOM     29  O   UNL A   1      32.558  36.170  29.099  1.00  0.00    -0.269 OA
BRANCH  27  30
ATOM     30  C   UNL A   1      34.160  34.498  29.462  1.00  0.00     0.039 A 
ATOM     31  C   UNL A   1      33.930  33.817  30.660  1.00  0.00     0.014 A 
ATOM     32  C   UNL A   1      35.461  34.624  28.966  1.00  0.00     0.014 A 
ATOM     33  C   UNL A   1      34.998  33.224  31.335  1.00  0.00     0.010 A 
ATOM     34  C   UNL A   1      36.510  33.961  29.593  1.00  0.00     0.010 A 
ATOM     35  C   UNL A   1      36.293  33.267  30.792  1.00  0.00    -0.014 A 
BRANCH  35  36
ATOM     36  C   UNL A   1      37.437  32.614  31.479  1.00  0.00     0.031 A 
ATOM     37  C   UNL A   1      38.172  31.485  30.810  1.00  0.00     0.074 A 
ATOM     38  C   UNL A   1      37.789  33.008  32.718  1.00  0.00     0.049 A 
ATOM     39  N   UNL A   1      39.158  30.754  31.265  1.00  0.00    -0.248 NA
ATOM     40  C   UNL A   1      37.724  31.109  29.459  1.00  0.00     0.031 C 
ATOM     41  C   UNL A   1      37.132  34.068  33.484  1.00  0.00     0.029 A 
ATOM     42  N   UNL A   1      38.784  32.561  33.552  1.00  0.00    -0.354 N 
ATOM     43  C   UNL A   1      39.441  29.836  30.263  1.00  0.00     0.074 A 
ATOM     44  C   UNL A   1      38.482  30.054  29.203  1.00  0.00     0.031 C 
ATOM     45  C   UNL A   1      37.765  34.215  34.659  1.00  0.00     0.029 A 
ATOM     46  C   UNL A   1      38.841  33.232  34.749  1.00  0.00     0.049 A 
ATOM     47  H   UNL A   1      39.399  31.831  33.314  1.00  0.00     0.167 HD
ATOM     48  C   UNL A   1      40.431  28.915  30.217  1.00  0.00     0.037 A 
ATOM     49  C   UNL A   1      39.667  33.071  35.802  1.00  0.00     0.037 A 
ATOM     50  C   UNL A   1      41.398  28.716  31.265  1.00  0.00     0.049 A 
ATOM     51  C   UNL A   1      40.744  32.024  35.738  1.00  0.00     0.074 A 
ATOM     52  C   UNL A   1      42.462  27.832  31.298  1.00  0.00     0.029 A 
ATOM     53  N   UNL A   1      41.420  29.413  32.464  1.00  0.00    -0.354 N 
ATOM     54  N   UNL A   1      41.029  31.188  34.768  1.00  0.00    -0.248 NA
ATOM     55  C   UNL A   1      41.620  31.898  36.911  1.00  0.00     0.031 C 
ATOM     56  C   UNL A   1      43.093  27.954  32.538  1.00  0.00     0.029 A 
ATOM     57  C   UNL A   1      42.469  28.965  33.251  1.00  0.00     0.049 A 
ATOM     58  H   UNL A   1      40.785  30.121  32.718  1.00  0.00     0.167 HD
ATOM     59  C   UNL A   1      42.136  30.466  35.196  1.00  0.00     0.074 A 
ATOM     60  C   UNL A   1      42.475  30.966  36.513  1.00  0.00     0.031 C 
ATOM     61  C   UNL A   1      42.808  29.482  34.552  1.00  0.00     0.037 A 
BRANCH  48  62
ATOM     62  C   UNL A   1      40.537  28.057  28.989  1.00  0.00     0.064 A 
ATOM     63  C   UNL A   1      41.302  28.476  27.889  1.00  0.00     0.173 A 
ATOM     64  C   UNL A   1      39.825  26.853  28.870  1.00  0.00     0.173 A 
ATOM     65  F   UNL A   1      42.000  29.621  27.946  1.00  0.00    -0.203 F 
ATOM     66  C   UNL A   1      41.336  27.731  26.713  1.00  0.00     0.198 A 
ATOM     67  C   UNL A   1      39.888  26.094  27.705  1.00  0.00     0.198 A 
ATOM     68  F   UNL A   1      39.089  26.401  29.897  1.00  0.00    -0.203 F 
ATOM     69  F   UNL A   1      42.041  28.172  25.663  1.00  0.00    -0.200 F 
ATOM     70  C   UNL A   1      40.633  26.540  26.623  1.00  0.00     0.200 A 
ATOM     71  F   UNL A   1      39.231  24.928  27.631  1.00  0.00    -0.200 F 
ATOM     72  F   UNL A   1      40.676  25.818  25.495  1.00  0.00    -0.200 F 
ENDBRANCH  48  62
BRANCH  49  73
ATOM     73  C   UNL A   1      39.529  33.962  36.986  1.00  0.00     0.064 A 
ATOM     74  C   UNL A   1      40.157  35.216  37.036  1.00  0.00     0.173 A 
ATOM     75  C   UNL A   1      38.787  33.560  38.104  1.00  0.00     0.173 A 
ATOM     76  F   UNL A   1      40.884  35.645  35.996  1.00  0.00    -0.203 F 
ATOM     77  C   UNL A   1      40.065  36.022  38.170  1.00  0.00     0.198 A 
ATOM     78  C   UNL A   1      38.670  34.380  39.225  1.00  0.00     0.198 A 
ATOM     79  F   UNL A   1      38.151  32.379  38.097  1.00  0.00    -0.203 F 
ATOM     80  F   UNL A   1      40.708  37.196  38.207  1.00  0.00    -0.200 F 
ATOM     81  C   UNL A   1      39.318  35.605  39.261  1.00  0.00     0.200 A 
ATOM     82  F   UNL A   1      37.926  33.985  40.267  1.00  0.00    -0.200 F 
ATOM     83  F   UNL A   1      39.220  36.386  40.345  1.00  0.00    -0.200 F 
ENDBRANCH  49  73
BRANCH  61  84
ATOM     84  C   UNL A   1      44.016  28.898  35.230  1.00  0.00     0.064 A 
ATOM     85  C   UNL A   1      45.296  29.400  34.943  1.00  0.00     0.173 A 
ATOM     86  C   UNL A   1      43.922  27.795  36.089  1.00  0.00     0.173 A 
ATOM     87  F   UNL A   1      45.443  30.449  34.118  1.00  0.00    -0.203 F 
ATOM     88  C   UNL A   1      46.437  28.806  35.476  1.00  0.00     0.198 A 
ATOM     89  C   UNL A   1      45.063  27.225  36.648  1.00  0.00     0.198 A 
ATOM     90  F   UNL A   1      42.722  27.284  36.404  1.00  0.00    -0.203 F 
ATOM     91  F   UNL A   1      47.649  29.276  35.152  1.00  0.00    -0.200 F 
ATOM     92  C   UNL A   1      46.319  27.723  36.332  1.00  0.00     0.200 A 
ATOM     93  F   UNL A   1      44.947  26.193  37.497  1.00  0.00    -0.200 F 
ATOM     94  F   UNL A   1      47.416  27.158  36.854  1.00  0.00    -0.200 F 
ENDBRANCH  61  84
ENDBRANCH  35  36
ENDBRANCH  27  30
ENDBRANCH  25  26
ENDBRANCH  24  25
ENDBRANCH  23  24
ENDBRANCH   1  23
TORSDOF 15
ENDMDL
MODEL 2
REMARK VINA RESULT:     -12.5      1.500      7.611
REMARK SMILES C[C@@H](c1ccc(F)cc1)N1C[C@H](C(=O)NCCCCCCNC(=O)c2ccc(-c3c4nc(c(-c5c(F)c(F)c(F)c(F)c5F)c5ccc([nH]5)c(-c5c(F)c(F)c(F)c(F)c5F)c5nc(c(-c6c(F)c(F)c(F)c(F)c6F)c6ccc3[nH]6)C=C5)C=C4)cc2)CC1=O
REMARK SMILES IDX 18 1 17 2 16 3 15 4 13 5 14 6 12 8 10 9 11 10 89 11 88 12
REMARK SMILES IDX 90 13 2 14 1 15 3 16 4 17 9 18 5 19 8 20 6 21 7 22 19 23
REMARK SMILES IDX 20 24 21 25 22 26 23 27 24 29 25 30 26 31 87 32 27 33 86 34
REMARK SMILES IDX 28 35 29 36 30 37 80 38 31 39 85 40 79 41 81 42 32 43 84 44
REMARK SMILES IDX 78 45 77 46 33 48 65 49 45 50 64 51 46 52 49 53 63 54 82 55
REMARK SMILES IDX 47 56 48 57 62 59 83 60 50 61 34 62 35 63 43 64 36 65 37 66
REMARK SMILES IDX 41 67 44 68 38 69 39 70 42 71 40 72 66 73 67 74 75 75 68 76
REMARK SMILES IDX 69 77 73 78 76 79 70 80 71 81 74 82 72 83 51 84 52 85 60 86
REMARK SMILES IDX 53 87 54 88 58 89 61 90 55 91 56 92 59 93 57 94
REMARK H PARENT 15 7 22 28 81 47 49 58
REMARK Flexibility Score: inf
ROOT
ATOM      1  C   UNL A   1      34.423  32.354  29.031  1.00  0.00     0.002 C 
ENDROOT
BRANCH   1   2
ATOM      2  C   UNL A   1      35.267  31.580  28.011  1.00  0.00     0.021 C 
BRANCH   2   3
ATOM      3  C   UNL A   1      34.600  30.319  27.463  1.00  0.00     0.116 C 
BRANCH   3   4
ATOM      4  N   UNL A   1      33.465  30.635  26.616  1.00  0.00    -0.356 N 
ATOM      5  C   UNL A   1      32.525  29.806  26.077  1.00  0.00     0.225 C 
ATOM      6  O   UNL A   1      31.607  30.306  25.431  1.00  0.00    -0.275 OA
ATOM      7  H   UNL A   1      33.357  31.589  26.399  1.00  0.00     0.163 HD
BRANCH   5   8
ATOM      8  C   UNL A   1      32.650  28.309  26.316  1.00  0.00     0.107 C 
ATOM      9  N   UNL A   1      31.792  27.132  24.473  1.00  0.00    -0.335 N 
ATOM     10  C   UNL A   1      31.441  27.531  25.817  1.00  0.00     0.134 C 
ATOM     11  C   UNL A   1      33.128  27.379  24.200  1.00  0.00     0.223 C 
ATOM     12  C   UNL A   1      33.800  27.741  25.495  1.00  0.00     0.115 C 
ATOM     13  O   UNL A   1      33.720  27.303  23.136  1.00  0.00    -0.275 OA
BRANCH   9  14
ATOM     14  C   UNL A   1      30.769  26.694  23.521  1.00  0.00     0.112 C 
ATOM     15  C   UNL A   1      29.973  25.505  24.059  1.00  0.00     0.036 C 
BRANCH  14  16
ATOM     16  C   UNL A   1      29.917  27.856  23.027  1.00  0.00    -0.026 A 
ATOM     17  C   UNL A   1      28.529  27.904  23.249  1.00  0.00     0.009 A 
ATOM     18  C   UNL A   1      30.527  28.955  22.394  1.00  0.00     0.009 A 
ATOM     19  C   UNL A   1      27.782  29.030  22.902  1.00  0.00     0.039 A 
ATOM     20  C   UNL A   1      29.773  30.072  22.021  1.00  0.00     0.039 A 
ATOM     21  C   UNL A   1      28.412  30.104  22.295  1.00  0.00     0.123 A 
ATOM     22  F   UNL A   1      27.700  31.193  21.975  1.00  0.00    -0.207 F 
ENDBRANCH  14  16
ENDBRANCH   9  14
ENDBRANCH   5   8
ENDBRANCH   3   4
ENDBRANCH   2   3
ENDBRANCH   1   2
BRANCH   1  23
ATOM     23  C   UNL A   1      34.564  33.877  28.969  1.00  0.00     0.002 C 
BRANCH  23  24
ATOM     24  C   UNL A   1      33.244  34.649  28.986  1.00  0.00     0.021 C 
BRANCH  24  25
ATOM     25  C   UNL A   1      33.339  36.052  29.573  1.00  0.00     0.116 C 
BRANCH  25  26
ATOM     26  N   UNL A   1      32.460  36.230  30.718  1.00  0.00    -0.352 N 
ATOM     27  C   UNL A   1      32.561  35.704  31.981  1.00  0.00     0.251 C 
ATOM     28  H   UNL A   1      31.680  36.811  30.563  1.00  0.00     0.163 HD
ATOM     29  O   UNL A   1      31.627  35.804  32.769  1.00  0.00    -0.269 OA
BRANCH  27  30
ATOM     30  C   UNL A   1      33.795  34.998  32.387  1.00  0.00     0.039 A 
ATOM     31  C   UNL A   1      33.701  33.680  32.841  1.00  0.00     0.014 A 
ATOM     32  C   UNL A   1      35.039  35.634  32.331  1.00  0.00     0.014 A 
ATOM     33  C   UNL A   1      34.859  32.986  33.195  1.00  0.00     0.010 A 
ATOM     34  C   UNL A   1      36.199  34.914  32.602  1.00  0.00     0.010 A 
ATOM     35  C   UNL A   1      36.120  33.588  33.052  1.00  0.00    -0.014 A 
BRANCH  35  36
ATOM     36  C   UNL A   1      37.366  32.855  33.393  1.00  0.00     0.031 A 
ATOM     37  C   UNL A   1      38.088  33.156  34.678  1.00  0.00     0.074 A 
ATOM     38  C   UNL A   1      37.870  31.952  32.531  1.00  0.00     0.049 A 
ATOM     39  N   UNL A   1      39.214  32.663  35.129  1.00  0.00    -0.248 NA
ATOM     40  C   UNL A   1      37.478  34.160  35.565  1.00  0.00     0.031 C 
ATOM     41  C   UNL A   1      37.280  31.599  31.239  1.00  0.00     0.029 A 
ATOM     42  N   UNL A   1      38.994  31.167  32.610  1.00  0.00    -0.354 N 
ATOM     43  C   UNL A   1      39.447  33.300  36.340  1.00  0.00     0.074 A 
ATOM     44  C   UNL A   1      38.383  34.262  36.526  1.00  0.00     0.031 C 
ATOM     45  C   UNL A   1      38.025  30.641  30.664  1.00  0.00     0.029 A 
ATOM     46  C   UNL A   1      39.169  30.345  31.523  1.00  0.00     0.049 A 
ATOM     47  H   UNL A   1      39.614  31.189  33.373  1.00  0.00     0.167 HD
ATOM     48  C   UNL A   1      40.439  33.080  37.234  1.00  0.00     0.037 A 
ATOM     49  C   UNL A   1      40.142  29.455  31.248  1.00  0.00     0.037 A 
ATOM     50  C   UNL A   1      41.484  32.106  37.055  1.00  0.00     0.049 A 
ATOM     51  C   UNL A   1      41.249  29.245  32.245  1.00  0.00     0.074 A 
ATOM     52  C   UNL A   1      42.516  31.783  37.919  1.00  0.00     0.029 A 
ATOM     53  N   UNL A   1      41.628  31.295  35.939  1.00  0.00    -0.354 N 
ATOM     54  N   UNL A   1      41.436  29.823  33.407  1.00  0.00    -0.248 NA
ATOM     55  C   UNL A   1      42.280  28.257  31.897  1.00  0.00     0.031 C 
ATOM     56  C   UNL A   1      43.315  30.819  37.302  1.00  0.00     0.029 A 
ATOM     57  C   UNL A   1      42.743  30.487  36.085  1.00  0.00     0.049 A 
ATOM     58  H   UNL A   1      41.028  31.295  35.159  1.00  0.00     0.167 HD
ATOM     59  C   UNL A   1      42.578  29.244  33.945  1.00  0.00     0.074 A 
ATOM     60  C   UNL A   1      43.040  28.265  32.983  1.00  0.00     0.031 C 
ATOM     61  C   UNL A   1      43.184  29.502  35.129  1.00  0.00     0.037 A 
BRANCH  48  62
ATOM     62  C   UNL A   1      40.442  33.893  38.497  1.00  0.00     0.064 A 
ATOM     63  C   UNL A   1      41.229  35.050  38.599  1.00  0.00     0.173 A 
ATOM     64  C   UNL A   1      39.721  33.489  39.631  1.00  0.00     0.173 A 
ATOM     65  F   UNL A   1      41.943  35.479  37.547  1.00  0.00    -0.203 F 
ATOM     66  C   UNL A   1      41.307  35.761  39.794  1.00  0.00     0.198 A 
ATOM     67  C   UNL A   1      39.774  34.221  40.813  1.00  0.00     0.198 A 
ATOM     68  F   UNL A   1      38.942  32.397  39.582  1.00  0.00    -0.203 F 
ATOM     69  F   UNL A   1      42.097  36.840  39.880  1.00  0.00    -0.200 F 
ATOM     70  C   UNL A   1      40.576  35.349  40.898  1.00  0.00     0.200 A 
ATOM     71  F   UNL A   1      39.044  33.838  41.870  1.00  0.00    -0.200 F 
ATOM     72  F   UNL A   1      40.643  36.041  42.044  1.00  0.00    -0.200 F 
ENDBRANCH  48  62
BRANCH  49  73
ATOM     73  C   UNL A   1      40.079  28.662  29.991  1.00  0.00     0.064 A 
ATOM     74  C   UNL A   1      39.463  27.403  29.948  1.00  0.00     0.173 A 
ATOM     75  C   UNL A   1      40.664  29.141  28.810  1.00  0.00     0.173 A 
ATOM     76  F   UNL A   1      38.894  26.896  31.051  1.00  0.00    -0.203 F 
ATOM     77  C   UNL A   1      39.453  26.645  28.778  1.00  0.00     0.198 A 
ATOM     78  C   UNL A   1      40.627  28.397  27.633  1.00  0.00     0.198 A 
ATOM     79  F   UNL A   1      41.248  30.349  28.795  1.00  0.00    -0.203 F 
ATOM     80  F   UNL A   1      38.893  25.428  28.776  1.00  0.00    -0.200 F 
ATOM     81  C   UNL A   1      40.031  27.145  27.622  1.00  0.00     0.200 A 
ATOM     82  F   UNL A   1      41.164  28.894  26.512  1.00  0.00    -0.200 F 
ATOM     83  F   UNL A   1      40.011  26.420  26.494  1.00  0.00    -0.200 F 
ENDBRANCH  49  73
BRANCH  61  84
ATOM     84  C   UNL A   1      44.392  28.685  35.492  1.00  0.00     0.064 A 
ATOM     85  C   UNL A   1      44.250  27.524  36.269  1.00  0.00     0.173 A 
ATOM     86  C   UNL A   1      45.689  29.091  35.150  1.00  0.00     0.173 A 
ATOM     87  F   UNL A   1      43.030  27.098  36.632  1.00  0.00    -0.203 F 
ATOM     88  C   UNL A   1      45.363  26.811  36.706  1.00  0.00     0.198 A 
ATOM     89  C   UNL A   1      46.799  28.355  35.559  1.00  0.00     0.198 A 
ATOM     90  F   UNL A   1      45.880  30.187  34.400  1.00  0.00    -0.203 F 
ATOM     91  F   UNL A   1      45.203  25.732  37.483  1.00  0.00    -0.200 F 
ATOM     92  C   UNL A   1      46.636  27.224  36.346  1.00  0.00     0.200 A 
ATOM     93  F   UNL A   1      48.029  28.741  35.190  1.00  0.00    -0.200 F 
ATOM     94  F   UNL A   1      47.708  26.532  36.758  1.00  0.00    -0.200 F 
ENDBRANCH  61  84
ENDBRANCH  35  36
ENDBRANCH  27  30
ENDBRANCH  25  26
ENDBRANCH  24  25
ENDBRANCH  23  24
ENDBRANCH   1  23
TORSDOF 15
ENDMDL
MODEL 3
REMARK VINA RESULT:     -12.5      2.157      3.482
REMARK SMILES C[C@@H](c1ccc(F)cc1)N1C[C@H](C(=O)NCCCCCCNC(=O)c2ccc(-c3c4nc(c(-c5c(F)c(F)c(F)c(F)c5F)c5ccc([nH]5)c(-c5c(F)c(F)c(F)c(F)c5F)c5nc(c(-c6c(F)c(F)c(F)c(F)c6F)c6ccc3[nH]6)C=C5)C=C4)cc2)CC1=O
REMARK SMILES IDX 18 1 17 2 16 3 15 4 13 5 14 6 12 8 10 9 11 10 89 11 88 12
REMARK SMILES IDX 90 13 2 14 1 15 3 16 4 17 9 18 5 19 8 20 6 21 7 22 19 23
REMARK SMILES IDX 20 24 21 25 22 26 23 27 24 29 25 30 26 31 87 32 27 33 86 34
REMARK SMILES IDX 28 35 29 36 30 37 80 38 31 39 85 40 79 41 81 42 32 43 84 44
REMARK SMILES IDX 78 45 77 46 33 48 65 49 45 50 64 51 46 52 49 53 63 54 82 55
REMARK SMILES IDX 47 56 48 57 62 59 83 60 50 61 34 62 35 63 43 64 36 65 37 66
REMARK SMILES IDX 41 67 44 68 38 69 39 70 42 71 40 72 66 73 67 74 75 75 68 76
REMARK SMILES IDX 69 77 73 78 76 79 70 80 71 81 74 82 72 83 51 84 52 85 60 86
REMARK SMILES IDX 53 87 54 88 58 89 61 90 55 91 56 92 59 93 57 94
REMARK H PARENT 15 7 22 28 81 47 49 58
REMARK Flexibility Score: inf
ROOT
ATOM      1  C   UNL A   1      32.399  29.766  27.215  1.00  0.00     0.002 C 
ENDROOT
BRANCH   1   2
ATOM      2  C   UNL A   1      31.725  28.396  27.349  1.00  0.00     0.021 C 
BRANCH   2   3
ATOM      3  C   UNL A   1      31.363  27.735  26.019  1.00  0.00     0.116 C 
BRANCH   3   4
ATOM      4  N   UNL A   1      31.333  26.288  26.127  1.00  0.00    -0.356 N 
ATOM      5  C   UNL A   1      32.342  25.384  25.971  1.00  0.00     0.225 C 
ATOM      6  O   UNL A   1      32.099  24.196  26.171  1.00  0.00    -0.275 OA
ATOM      7  H   UNL A   1      30.455  25.902  26.348  1.00  0.00     0.163 HD
BRANCH   5   8
ATOM      8  C   UNL A   1      33.720  25.890  25.573  1.00  0.00     0.107 C 
ATOM      9  N   UNL A   1      34.699  24.416  24.029  1.00  0.00    -0.335 N 
ATOM     10  C   UNL A   1      34.740  24.770  25.430  1.00  0.00     0.134 C 
ATOM     11  C   UNL A   1      33.957  25.326  23.294  1.00  0.00     0.223 C 
ATOM     12  C   UNL A   1      33.672  26.505  24.181  1.00  0.00     0.115 C 
ATOM     13  O   UNL A   1      33.598  25.261  22.130  1.00  0.00    -0.275 OA
BRANCH   9  14
ATOM     14  C   UNL A   1      35.247  23.143  23.552  1.00  0.00     0.112 C 
ATOM     15  C   UNL A   1      36.723  22.994  23.923  1.00  0.00     0.036 C 
BRANCH  14  16
ATOM     16  C   UNL A   1      34.370  21.962  23.949  1.00  0.00    -0.026 A 
ATOM     17  C   UNL A   1      33.030  21.863  23.536  1.00  0.00     0.009 A 
ATOM     18  C   UNL A   1      34.919  20.897  24.686  1.00  0.00     0.009 A 
ATOM     19  C   UNL A   1      32.277  20.718  23.800  1.00  0.00     0.039 A 
ATOM     20  C   UNL A   1      34.156  19.762  24.976  1.00  0.00     0.039 A 
ATOM     21  C   UNL A   1      32.848  19.678  24.515  1.00  0.00     0.123 A 
ATOM     22  F   UNL A   1      32.132  18.572  24.757  1.00  0.00    -0.207 F 
ENDBRANCH  14  16
ENDBRANCH   9  14
ENDBRANCH   5   8
ENDBRANCH   3   4
ENDBRANCH   2   3
ENDBRANCH   1   2
BRANCH   1  23
ATOM     23  C   UNL A   1      31.702  30.744  26.265  1.00  0.00     0.002 C 
BRANCH  23  24
ATOM     24  C   UNL A   1      31.484  32.148  26.830  1.00  0.00     0.021 C 
BRANCH  24  25
ATOM     25  C   UNL A   1      32.765  32.924  27.108  1.00  0.00     0.116 C 
BRANCH  25  26
ATOM     26  N   UNL A   1      32.500  34.267  27.599  1.00  0.00    -0.352 N 
ATOM     27  C   UNL A   1      33.043  34.922  28.675  1.00  0.00     0.251 C 
ATOM     28  H   UNL A   1      31.833  34.779  27.085  1.00  0.00     0.163 HD
ATOM     29  O   UNL A   1      32.564  35.984  29.059  1.00  0.00    -0.269 OA
BRANCH  27  30
ATOM     30  C   UNL A   1      34.200  34.337  29.385  1.00  0.00     0.039 A 
ATOM     31  C   UNL A   1      33.969  33.501  30.480  1.00  0.00     0.014 A 
ATOM     32  C   UNL A   1      35.509  34.619  28.981  1.00  0.00     0.014 A 
ATOM     33  C   UNL A   1      35.049  32.912  31.140  1.00  0.00     0.010 A 
ATOM     34  C   UNL A   1      36.578  33.964  29.585  1.00  0.00     0.010 A 
ATOM     35  C   UNL A   1      36.360  33.116  30.681  1.00  0.00    -0.014 A 
BRANCH  35  36
ATOM     36  C   UNL A   1      37.519  32.472  31.351  1.00  0.00     0.031 A 
ATOM     37  C   UNL A   1      38.259  31.356  30.666  1.00  0.00     0.074 A 
ATOM     38  C   UNL A   1      37.880  32.862  32.588  1.00  0.00     0.049 A 
ATOM     39  N   UNL A   1      39.259  30.634  31.105  1.00  0.00    -0.248 NA
ATOM     40  C   UNL A   1      37.801  30.984  29.317  1.00  0.00     0.031 C 
ATOM     41  C   UNL A   1      37.220  33.909  33.369  1.00  0.00     0.029 A 
ATOM     42  N   UNL A   1      38.889  32.421  33.409  1.00  0.00    -0.354 N 
ATOM     43  C   UNL A   1      39.541  29.725  30.095  1.00  0.00     0.074 A 
ATOM     44  C   UNL A   1      38.568  29.939  29.047  1.00  0.00     0.031 C 
ATOM     45  C   UNL A   1      37.864  34.056  34.538  1.00  0.00     0.029 A 
ATOM     46  C   UNL A   1      38.952  33.085  34.610  1.00  0.00     0.049 A 
ATOM     47  H   UNL A   1      39.510  31.700  33.159  1.00  0.00     0.167 HD
ATOM     48  C   UNL A   1      40.542  28.816  30.032  1.00  0.00     0.037 A 
ATOM     49  C   UNL A   1      39.791  32.927  35.652  1.00  0.00     0.037 A 
ATOM     50  C   UNL A   1      41.522  28.621  31.068  1.00  0.00     0.049 A 
ATOM     51  C   UNL A   1      40.879  31.892  35.570  1.00  0.00     0.074 A 
ATOM     52  C   UNL A   1      42.596  27.750  31.083  1.00  0.00     0.029 A 
ATOM     53  N   UNL A   1      41.550  29.311  32.271  1.00  0.00    -0.354 N 
ATOM     54  N   UNL A   1      41.163  31.066  34.591  1.00  0.00    -0.248 NA
ATOM     55  C   UNL A   1      41.770  31.769  36.732  1.00  0.00     0.031 C 
ATOM     56  C   UNL A   1      43.239  27.871  32.317  1.00  0.00     0.029 A 
ATOM     57  C   UNL A   1      42.611  28.870  33.043  1.00  0.00     0.049 A 
ATOM     58  H   UNL A   1      40.909  30.011  32.537  1.00  0.00     0.167 HD
ATOM     59  C   UNL A   1      42.283  30.355  35.002  1.00  0.00     0.074 A 
ATOM     60  C   UNL A   1      42.630  30.850  36.318  1.00  0.00     0.031 C 
ATOM     61  C   UNL A   1      42.959  29.382  34.344  1.00  0.00     0.037 A 
BRANCH  48  62
ATOM     62  C   UNL A   1      40.644  27.968  28.796  1.00  0.00     0.064 A 
ATOM     63  C   UNL A   1      41.425  28.384  27.708  1.00  0.00     0.173 A 
ATOM     64  C   UNL A   1      39.913  26.778  28.660  1.00  0.00     0.173 A 
ATOM     65  F   UNL A   1      42.142  29.516  27.781  1.00  0.00    -0.203 F 
ATOM     66  C   UNL A   1      41.457  27.649  26.525  1.00  0.00     0.198 A 
ATOM     67  C   UNL A   1      39.973  26.028  27.489  1.00  0.00     0.198 A 
ATOM     68  F   UNL A   1      39.159  26.329  29.676  1.00  0.00    -0.203 F 
ATOM     69  F   UNL A   1      42.179  28.087  25.485  1.00  0.00    -0.200 F 
ATOM     70  C   UNL A   1      40.735  26.470  26.418  1.00  0.00     0.200 A 
ATOM     71  F   UNL A   1      39.297  24.874  27.399  1.00  0.00    -0.200 F 
ATOM     72  F   UNL A   1      40.775  25.758  25.284  1.00  0.00    -0.200 F 
ENDBRANCH  48  62
BRANCH  49  73
ATOM     73  C   UNL A   1      39.656  33.809  36.843  1.00  0.00     0.064 A 
ATOM     74  C   UNL A   1      38.871  33.438  37.945  1.00  0.00     0.173 A 
ATOM     75  C   UNL A   1      40.291  35.057  36.887  1.00  0.00     0.173 A 
ATOM     76  F   UNL A   1      38.237  32.256  37.950  1.00  0.00    -0.203 F 
ATOM     77  C   UNL A   1      38.709  34.292  39.034  1.00  0.00     0.198 A 
ATOM     78  C   UNL A   1      40.154  35.898  37.990  1.00  0.00     0.198 A 
ATOM     79  F   UNL A   1      41.069  35.450  35.867  1.00  0.00    -0.203 F 
ATOM     80  F   UNL A   1      37.921  33.930  40.055  1.00  0.00    -0.200 F 
ATOM     81  C   UNL A   1      39.354  35.519  39.057  1.00  0.00     0.200 A 
ATOM     82  F   UNL A   1      40.800  37.071  38.020  1.00  0.00    -0.200 F 
ATOM     83  F   UNL A   1      39.208  36.334  40.111  1.00  0.00    -0.200 F 
ENDBRANCH  49  73
BRANCH  61  84
ATOM     84  C   UNL A   1      44.181  28.808  35.004  1.00  0.00     0.064 A 
ATOM     85  C   UNL A   1      45.454  29.316  34.696  1.00  0.00     0.173 A 
ATOM     86  C   UNL A   1      44.107  27.707  35.868  1.00  0.00     0.173 A 
ATOM     87  F   UNL A   1      45.581  30.363  33.865  1.00  0.00    -0.203 F 
ATOM     88  C   UNL A   1      46.606  28.732  35.212  1.00  0.00     0.198 A 
ATOM     89  C   UNL A   1      45.260  27.147  36.412  1.00  0.00     0.198 A 
ATOM     90  F   UNL A   1      42.916  27.190  36.204  1.00  0.00    -0.203 F 
ATOM     91  F   UNL A   1      47.810  29.207  34.867  1.00  0.00    -0.200 F 
ATOM     92  C   UNL A   1      46.508  27.651  36.074  1.00  0.00     0.200 A 
ATOM     93  F   UNL A   1      45.164  26.117  37.266  1.00  0.00    -0.200 F 
ATOM     94  F   UNL A   1      47.617  27.094  36.581  1.00  0.00    -0.200 F 
ENDBRANCH  61  84
ENDBRANCH  35  36
ENDBRANCH  27  30
ENDBRANCH  25  26
ENDBRANCH  24  25
ENDBRANCH  23  24
ENDBRANCH   1  23
TORSDOF 15
ENDMDL
