MODEL 1
REMARK VINA RESULT:      -9.3      0.000      0.000
REMARK SMILES CC(C)(C)N(CC(=O)NCCCCCCNC(=O)c1ccc(-c2c3nc(c(-c4c(F)c(F)c(F)c(F)c4F)c4ccc([nH]4)c(-c4c(F)c(F)c(F)c(F)c4F)c4nc(c(-c5c(F)c(F)c(F)c(F)c5F)c5ccc2[nH]5)C=C4)C=C3)cc1)C(=O)NCCc1cnc[nH]1
REMARK SMILES IDX 11 1 10 2 9 3 7 4 8 5 6 7 5 8 2 9 1 10 3 11 4 12 82 13 83 14
REMARK SMILES IDX 84 15 85 17 86 18 87 19 88 20 91 21 89 22 90 23 12 25 13 26
REMARK SMILES IDX 14 27 15 28 16 29 17 30 18 32 19 33 20 34 81 35 21 36 80 37
REMARK SMILES IDX 22 38 23 39 24 40 74 41 25 42 79 43 73 44 75 45 26 46 78 47
REMARK SMILES IDX 72 48 71 49 27 51 59 52 39 53 58 54 40 55 43 56 57 57 76 58
REMARK SMILES IDX 41 59 42 60 56 62 77 63 44 64 28 65 29 66 37 67 30 68 31 69
REMARK SMILES IDX 35 70 38 71 32 72 33 73 36 74 34 75 60 76 61 77 69 78 62 79
REMARK SMILES IDX 63 80 67 81 70 82 64 83 65 84 68 85 66 86 45 87 46 88 54 89
REMARK SMILES IDX 47 90 48 91 52 92 55 93 49 94 50 95 53 96 51 97
REMARK H PARENT 9 6 84 16 91 24 16 31 75 50 43 61
REMARK Flexibility Score: inf
ROOT
ATOM      1  C   UNL A   1      38.552  33.020  29.671  1.00  0.00     0.021 C 
ENDROOT
BRANCH   1   2
ATOM      2  C   UNL A   1      38.165  33.097  31.142  1.00  0.00     0.116 C 
BRANCH   2   3
ATOM      3  N   UNL A   1      37.591  31.874  31.636  1.00  0.00    -0.355 N 
ATOM      4  C   UNL A   1      37.806  31.279  32.842  1.00  0.00     0.239 C 
ATOM      5  O   UNL A   1      36.958  30.465  33.224  1.00  0.00    -0.273 OA
ATOM      6  H   UNL A   1      36.967  31.412  31.030  1.00  0.00     0.163 HD
BRANCH   4   7
ATOM      7  C   UNL A   1      38.951  31.720  33.777  1.00  0.00     0.221 C 
BRANCH   7   8
ATOM      8  N   UNL A   1      38.662  32.726  34.815  1.00  0.00    -0.311 N 
BRANCH   8   9
ATOM      9  C   UNL A   1      39.667  33.858  35.054  1.00  0.00     0.037 C 
ATOM     10  C   UNL A   1      41.114  33.386  35.372  1.00  0.00     0.034 C 
ATOM     11  C   UNL A   1      39.266  34.773  36.243  1.00  0.00     0.034 C 
ATOM     12  C   UNL A   1      39.797  34.729  33.781  1.00  0.00     0.034 C 
ENDBRANCH   8   9
BRANCH   8  13
ATOM     13  C   UNL A   1      37.415  32.857  35.395  1.00  0.00     0.318 C 
ATOM     14  O   UNL A   1      37.116  32.289  36.451  1.00  0.00    -0.249 OA
ATOM     15  N   UNL A   1      36.410  33.600  34.908  1.00  0.00    -0.338 N 
ATOM     16  H   UNL A   1      35.601  33.462  35.452  1.00  0.00     0.165 HD
BRANCH  15  17
ATOM     17  C   UNL A   1      36.123  34.547  33.833  1.00  0.00     0.124 C 
BRANCH  17  18
ATOM     18  C   UNL A   1      34.934  34.092  32.975  1.00  0.00     0.077 C 
BRANCH  18  19
ATOM     19  C   UNL A   1      33.897  35.157  32.830  1.00  0.00     0.036 A 
ATOM     20  C   UNL A   1      33.979  36.528  32.942  1.00  0.00     0.134 A 
ATOM     21  N   UNL A   1      32.587  34.913  32.503  1.00  0.00    -0.348 N 
ATOM     22  N   UNL A   1      32.764  37.111  32.708  1.00  0.00    -0.245 NA
ATOM     23  C   UNL A   1      31.947  36.119  32.442  1.00  0.00     0.196 A 
ATOM     24  H   UNL A   1      32.181  34.029  32.341  1.00  0.00     0.167 HD
ENDBRANCH  18  19
ENDBRANCH  17  18
ENDBRANCH  15  17
ENDBRANCH   8  13
ENDBRANCH   7   8
ENDBRANCH   4   7
ENDBRANCH   2   3
ENDBRANCH   1   2
BRANCH   1  25
ATOM     25  C   UNL A   1      37.809  34.014  28.774  1.00  0.00     0.002 C 
BRANCH  25  26
ATOM     26  C   UNL A   1      36.327  34.218  29.115  1.00  0.00     0.002 C 
BRANCH  26  27
ATOM     27  C   UNL A   1      35.363  33.210  28.483  1.00  0.00     0.021 C 
BRANCH  27  28
ATOM     28  C   UNL A   1      34.902  32.099  29.419  1.00  0.00     0.116 C 
BRANCH  28  29
ATOM     29  N   UNL A   1      34.356  30.965  28.690  1.00  0.00    -0.352 N 
ATOM     30  C   UNL A   1      35.004  29.903  28.117  1.00  0.00     0.251 C 
ATOM     31  H   UNL A   1      33.377  30.961  28.593  1.00  0.00     0.163 HD
ATOM     32  O   UNL A   1      34.403  29.152  27.350  1.00  0.00    -0.269 OA
BRANCH  30  33
ATOM     33  C   UNL A   1      36.432  29.665  28.406  1.00  0.00     0.039 A 
ATOM     34  C   UNL A   1      36.791  29.094  29.629  1.00  0.00     0.014 A 
ATOM     35  C   UNL A   1      37.416  30.013  27.476  1.00  0.00     0.014 A 
ATOM     36  C   UNL A   1      38.133  28.814  29.894  1.00  0.00     0.010 A 
ATOM     37  C   UNL A   1      38.743  29.665  27.709  1.00  0.00     0.010 A 
ATOM     38  C   UNL A   1      39.115  29.064  28.922  1.00  0.00    -0.014 A 
BRANCH  38  39
ATOM     39  C   UNL A   1      40.535  28.696  29.148  1.00  0.00     0.031 A 
ATOM     40  C   UNL A   1      41.459  29.646  29.856  1.00  0.00     0.074 A 
ATOM     41  C   UNL A   1      41.006  27.534  28.658  1.00  0.00     0.049 A 
ATOM     42  N   UNL A   1      42.742  29.535  30.091  1.00  0.00    -0.248 NA
ATOM     43  C   UNL A   1      40.866  30.901  30.344  1.00  0.00     0.031 C 
ATOM     44  C   UNL A   1      40.217  26.544  27.924  1.00  0.00     0.029 A 
ATOM     45  N   UNL A   1      42.267  26.991  28.697  1.00  0.00    -0.354 N 
ATOM     46  C   UNL A   1      43.110  30.706  30.741  1.00  0.00     0.074 A 
ATOM     47  C   UNL A   1      41.929  31.539  30.809  1.00  0.00     0.031 C 
ATOM     48  C   UNL A   1      41.002  25.503  27.608  1.00  0.00     0.029 A 
ATOM     49  C   UNL A   1      42.359  25.769  28.076  1.00  0.00     0.049 A 
ATOM     50  H   UNL A   1      43.032  27.436  29.128  1.00  0.00     0.167 HD
ATOM     51  C   UNL A   1      44.317  31.045  31.255  1.00  0.00     0.037 A 
ATOM     52  C   UNL A   1      43.420  24.961  27.898  1.00  0.00     0.037 A 
ATOM     53  C   UNL A   1      45.486  30.206  31.191  1.00  0.00     0.049 A 
ATOM     54  C   UNL A   1      44.761  25.381  28.437  1.00  0.00     0.074 A 
ATOM     55  C   UNL A   1      46.743  30.433  31.725  1.00  0.00     0.029 A 
ATOM     56  N   UNL A   1      45.544  28.981  30.541  1.00  0.00    -0.354 N 
ATOM     57  N   UNL A   1      45.082  26.458  29.112  1.00  0.00    -0.248 NA
ATOM     58  C   UNL A   1      45.887  24.471  28.188  1.00  0.00     0.031 C 
ATOM     59  C   UNL A   1      47.576  29.375  31.348  1.00  0.00     0.029 A 
ATOM     60  C   UNL A   1      46.824  28.456  30.633  1.00  0.00     0.049 A 
ATOM     61  H   UNL A   1      44.788  28.548  30.083  1.00  0.00     0.167 HD
ATOM     62  C   UNL A   1      46.436  26.339  29.399  1.00  0.00     0.074 A 
ATOM     63  C   UNL A   1      46.872  25.079  28.834  1.00  0.00     0.031 C 
ATOM     64  C   UNL A   1      47.243  27.196  30.072  1.00  0.00     0.037 A 
BRANCH  51  65
ATOM     65  C   UNL A   1      44.432  32.386  31.923  1.00  0.00     0.064 A 
ATOM     66  C   UNL A   1      44.338  32.528  33.317  1.00  0.00     0.173 A 
ATOM     67  C   UNL A   1      44.654  33.544  31.162  1.00  0.00     0.173 A 
ATOM     68  F   UNL A   1      44.118  31.455  34.091  1.00  0.00    -0.203 F 
ATOM     69  C   UNL A   1      44.418  33.781  33.919  1.00  0.00     0.198 A 
ATOM     70  C   UNL A   1      44.770  34.792  31.771  1.00  0.00     0.198 A 
ATOM     71  F   UNL A   1      44.762  33.468  29.827  1.00  0.00    -0.203 F 
ATOM     72  F   UNL A   1      44.258  33.898  35.244  1.00  0.00    -0.200 F 
ATOM     73  C   UNL A   1      44.639  34.911  33.147  1.00  0.00     0.200 A 
ATOM     74  F   UNL A   1      45.000  35.880  31.024  1.00  0.00    -0.200 F 
ATOM     75  F   UNL A   1      44.718  36.116  33.726  1.00  0.00    -0.200 F 
ENDBRANCH  51  65
BRANCH  52  76
ATOM     76  C   UNL A   1      43.254  23.656  27.204  1.00  0.00     0.064 A 
ATOM     77  C   UNL A   1      42.693  22.557  27.871  1.00  0.00     0.173 A 
ATOM     78  C   UNL A   1      43.652  23.476  25.871  1.00  0.00     0.173 A 
ATOM     79  F   UNL A   1      42.315  22.675  29.153  1.00  0.00    -0.203 F 
ATOM     80  C   UNL A   1      42.555  21.324  27.239  1.00  0.00     0.198 A 
ATOM     81  C   UNL A   1      43.486  22.250  25.231  1.00  0.00     0.198 A 
ATOM     82  F   UNL A   1      44.190  24.495  25.186  1.00  0.00    -0.203 F 
ATOM     83  F   UNL A   1      42.059  20.279  27.915  1.00  0.00    -0.200 F 
ATOM     84  C   UNL A   1      42.945  21.172  25.917  1.00  0.00     0.200 A 
ATOM     85  F   UNL A   1      43.849  22.112  23.949  1.00  0.00    -0.200 F 
ATOM     86  F   UNL A   1      42.809  19.987  25.308  1.00  0.00    -0.200 F 
ENDBRANCH  52  76
BRANCH  64  87
ATOM     87  C   UNL A   1      48.674  26.782  30.271  1.00  0.00     0.064 A 
ATOM     88  C   UNL A   1      49.693  27.196  29.401  1.00  0.00     0.173 A 
ATOM     89  C   UNL A   1      49.035  25.992  31.375  1.00  0.00     0.173 A 
ATOM     90  F   UNL A   1      49.399  27.939  28.322  1.00  0.00    -0.203 F 
ATOM     91  C   UNL A   1      51.015  26.814  29.613  1.00  0.00     0.198 A 
ATOM     92  C   UNL A   1      50.362  25.642  31.602  1.00  0.00     0.198 A 
ATOM     93  F   UNL A   1      48.101  25.574  32.241  1.00  0.00    -0.203 F 
ATOM     94  F   UNL A   1      51.964  27.179  28.739  1.00  0.00    -0.200 F 
ATOM     95  C   UNL A   1      51.350  26.045  30.718  1.00  0.00     0.200 A 
ATOM     96  F   UNL A   1      50.686  24.912  32.679  1.00  0.00    -0.200 F 
ATOM     97  F   UNL A   1      52.625  25.688  30.926  1.00  0.00    -0.200 F 
ENDBRANCH  64  87
ENDBRANCH  38  39
ENDBRANCH  30  33
ENDBRANCH  28  29
ENDBRANCH  27  28
ENDBRANCH  26  27
ENDBRANCH  25  26
ENDBRANCH   1  25
TORSDOF 19
ENDMDL
MODEL 2
REMARK VINA RESULT:      -9.2      0.944      2.387
REMARK SMILES CC(C)(C)N(CC(=O)NCCCCCCNC(=O)c1ccc(-c2c3nc(c(-c4c(F)c(F)c(F)c(F)c4F)c4ccc([nH]4)c(-c4c(F)c(F)c(F)c(F)c4F)c4nc(c(-c5c(F)c(F)c(F)c(F)c5F)c5ccc2[nH]5)C=C4)C=C3)cc1)C(=O)NCCc1cnc[nH]1
REMARK SMILES IDX 11 1 10 2 9 3 7 4 8 5 6 7 5 8 2 9 1 10 3 11 4 12 82 13 83 14
REMARK SMILES IDX 84 15 85 17 86 18 87 19 88 20 91 21 89 22 90 23 12 25 13 26
REMARK SMILES IDX 14 27 15 28 16 29 17 30 18 32 19 33 20 34 81 35 21 36 80 37
REMARK SMILES IDX 22 38 23 39 24 40 74 41 25 42 79 43 73 44 75 45 26 46 78 47
REMARK SMILES IDX 72 48 71 49 27 51 59 52 39 53 58 54 40 55 43 56 57 57 76 58
REMARK SMILES IDX 41 59 42 60 56 62 77 63 44 64 28 65 29 66 37 67 30 68 31 69
REMARK SMILES IDX 35 70 38 71 32 72 33 73 36 74 34 75 60 76 61 77 69 78 62 79
REMARK SMILES IDX 63 80 67 81 70 82 64 83 65 84 68 85 66 86 45 87 46 88 54 89
REMARK SMILES IDX 47 90 48 91 52 92 55 93 49 94 50 95 53 96 51 97
REMARK H PARENT 9 6 84 16 91 24 16 31 75 50 43 61
REMARK Flexibility Score: inf
ROOT
ATOM      1  C   UNL A   1      38.501  33.040  31.068  1.00  0.00     0.021 C 
ENDROOT
BRANCH   1   2
ATOM      2  C   UNL A   1      39.531  34.120  31.373  1.00  0.00     0.116 C 
BRANCH   2   3
ATOM      3  N   UNL A   1      39.148  34.966  32.472  1.00  0.00    -0.355 N 
ATOM      4  C   UNL A   1      39.261  34.704  33.804  1.00  0.00     0.239 C 
ATOM      5  O   UNL A   1      39.236  35.674  34.569  1.00  0.00    -0.273 OA
ATOM      6  H   UNL A   1      38.758  35.838  32.233  1.00  0.00     0.163 HD
BRANCH   4   7
ATOM      7  C   UNL A   1      39.585  33.292  34.334  1.00  0.00     0.221 C 
BRANCH   7   8
ATOM      8  N   UNL A   1      38.465  32.401  34.687  1.00  0.00    -0.311 N 
BRANCH   8   9
ATOM      9  C   UNL A   1      38.713  30.890  34.770  1.00  0.00     0.037 C 
ATOM     10  C   UNL A   1      38.278  30.232  36.109  1.00  0.00     0.034 C 
ATOM     11  C   UNL A   1      40.212  30.521  34.602  1.00  0.00     0.034 C 
ATOM     12  C   UNL A   1      37.898  30.159  33.676  1.00  0.00     0.034 C 
ENDBRANCH   8   9
BRANCH   8  13
ATOM     13  C   UNL A   1      37.276  32.874  35.205  1.00  0.00     0.318 C 
ATOM     14  O   UNL A   1      37.123  33.094  36.411  1.00  0.00    -0.249 OA
ATOM     15  N   UNL A   1      36.176  33.155  34.488  1.00  0.00    -0.338 N 
ATOM     16  H   UNL A   1      35.437  33.393  35.093  1.00  0.00     0.165 HD
BRANCH  15  17
ATOM     17  C   UNL A   1      35.719  33.222  33.103  1.00  0.00     0.124 C 
BRANCH  17  18
ATOM     18  C   UNL A   1      35.727  34.661  32.568  1.00  0.00     0.077 C 
BRANCH  18  19
ATOM     19  C   UNL A   1      34.390  35.087  32.061  1.00  0.00     0.036 A 
ATOM     20  C   UNL A   1      33.152  35.107  32.666  1.00  0.00     0.134 A 
ATOM     21  N   UNL A   1      34.172  35.601  30.807  1.00  0.00    -0.348 N 
ATOM     22  N   UNL A   1      32.200  35.600  31.815  1.00  0.00    -0.245 NA
ATOM     23  C   UNL A   1      32.840  35.893  30.709  1.00  0.00     0.196 A 
ATOM     24  H   UNL A   1      34.851  35.735  30.106  1.00  0.00     0.167 HD
ENDBRANCH  18  19
ENDBRANCH  17  18
ENDBRANCH  15  17
ENDBRANCH   8  13
ENDBRANCH   7   8
ENDBRANCH   4   7
ENDBRANCH   2   3
ENDBRANCH   1   2
BRANCH   1  25
ATOM     25  C   UNL A   1      38.117  32.940  29.589  1.00  0.00     0.002 C 
BRANCH  25  26
ATOM     26  C   UNL A   1      36.999  33.890  29.139  1.00  0.00     0.002 C 
BRANCH  26  27
ATOM     27  C   UNL A   1      35.751  33.212  28.566  1.00  0.00     0.021 C 
BRANCH  27  28
ATOM     28  C   UNL A   1      35.064  32.238  29.516  1.00  0.00     0.116 C 
BRANCH  28  29
ATOM     29  N   UNL A   1      34.494  31.102  28.810  1.00  0.00    -0.352 N 
ATOM     30  C   UNL A   1      35.118  30.007  28.273  1.00  0.00     0.251 C 
ATOM     31  H   UNL A   1      33.516  31.122  28.703  1.00  0.00     0.163 HD
ATOM     32  O   UNL A   1      34.504  29.253  27.519  1.00  0.00    -0.269 OA
BRANCH  30  33
ATOM     33  C   UNL A   1      36.536  29.738  28.583  1.00  0.00     0.039 A 
ATOM     34  C   UNL A   1      36.872  29.249  29.848  1.00  0.00     0.014 A 
ATOM     35  C   UNL A   1      37.532  29.975  27.632  1.00  0.00     0.014 A 
ATOM     36  C   UNL A   1      38.203  28.940  30.137  1.00  0.00     0.010 A 
ATOM     37  C   UNL A   1      38.845  29.594  27.895  1.00  0.00     0.010 A 
ATOM     38  C   UNL A   1      39.194  29.075  29.151  1.00  0.00    -0.014 A 
BRANCH  38  39
ATOM     39  C   UNL A   1      40.599  28.672  29.410  1.00  0.00     0.031 A 
ATOM     40  C   UNL A   1      41.513  29.574  30.190  1.00  0.00     0.074 A 
ATOM     41  C   UNL A   1      41.067  27.524  28.885  1.00  0.00     0.049 A 
ATOM     42  N   UNL A   1      42.785  29.428  30.464  1.00  0.00    -0.248 NA
ATOM     43  C   UNL A   1      40.925  30.816  30.713  1.00  0.00     0.031 C 
ATOM     44  C   UNL A   1      40.288  26.582  28.080  1.00  0.00     0.029 A 
ATOM     45  N   UNL A   1      42.316  26.958  28.942  1.00  0.00    -0.354 N 
ATOM     46  C   UNL A   1      43.150  30.563  31.177  1.00  0.00     0.074 A 
ATOM     47  C   UNL A   1      41.981  31.414  31.243  1.00  0.00     0.031 C 
ATOM     48  C   UNL A   1      41.066  25.542  27.746  1.00  0.00     0.029 A 
ATOM     49  C   UNL A   1      42.410  25.763  28.271  1.00  0.00     0.049 A 
ATOM     50  H   UNL A   1      43.073  27.369  29.419  1.00  0.00     0.167 HD
ATOM     51  C   UNL A   1      44.344  30.856  31.748  1.00  0.00     0.037 A 
ATOM     52  C   UNL A   1      43.462  24.943  28.094  1.00  0.00     0.037 A 
ATOM     53  C   UNL A   1      45.500  30.000  31.686  1.00  0.00     0.049 A 
ATOM     54  C   UNL A   1      44.791  25.315  28.697  1.00  0.00     0.074 A 
ATOM     55  C   UNL A   1      46.741  30.181  32.273  1.00  0.00     0.029 A 
ATOM     56  N   UNL A   1      45.560  28.804  30.985  1.00  0.00    -0.354 N 
ATOM     57  N   UNL A   1      45.106  26.355  29.430  1.00  0.00    -0.248 NA
ATOM     58  C   UNL A   1      45.910  24.396  28.446  1.00  0.00     0.031 C 
ATOM     59  C   UNL A   1      47.568  29.125  31.877  1.00  0.00     0.029 A 
ATOM     60  C   UNL A   1      46.827  28.253  31.097  1.00  0.00     0.049 A 
ATOM     61  H   UNL A   1      44.813  28.406  30.482  1.00  0.00     0.167 HD
ATOM     62  C   UNL A   1      46.447  26.199  29.757  1.00  0.00     0.074 A 
ATOM     63  C   UNL A   1      46.881  24.957  29.152  1.00  0.00     0.031 C 
ATOM     64  C   UNL A   1      47.244  27.011  30.495  1.00  0.00     0.037 A 
BRANCH  51  65
ATOM     65  C   UNL A   1      44.458  32.165  32.478  1.00  0.00     0.064 A 
ATOM     66  C   UNL A   1      44.888  33.336  31.832  1.00  0.00     0.173 A 
ATOM     67  C   UNL A   1      44.119  32.256  33.836  1.00  0.00     0.173 A 
ATOM     68  F   UNL A   1      45.233  33.305  30.536  1.00  0.00    -0.203 F 
ATOM     69  C   UNL A   1      45.017  34.535  32.529  1.00  0.00     0.198 A 
ATOM     70  C   UNL A   1      44.214  33.465  34.521  1.00  0.00     0.198 A 
ATOM     71  F   UNL A   1      43.693  31.172  34.502  1.00  0.00    -0.203 F 
ATOM     72  F   UNL A   1      45.493  35.622  31.907  1.00  0.00    -0.200 F 
ATOM     73  C   UNL A   1      44.674  34.600  33.871  1.00  0.00     0.200 A 
ATOM     74  F   UNL A   1      43.867  33.529  35.814  1.00  0.00    -0.200 F 
ATOM     75  F   UNL A   1      44.797  35.754  34.540  1.00  0.00    -0.200 F 
ENDBRANCH  51  65
BRANCH  52  76
ATOM     76  C   UNL A   1      43.299  23.674  27.337  1.00  0.00     0.064 A 
ATOM     77  C   UNL A   1      43.709  23.581  25.999  1.00  0.00     0.173 A 
ATOM     78  C   UNL A   1      42.729  22.535  27.925  1.00  0.00     0.173 A 
ATOM     79  F   UNL A   1      44.240  24.650  25.387  1.00  0.00    -0.203 F 
ATOM     80  C   UNL A   1      43.538  22.404  25.273  1.00  0.00     0.198 A 
ATOM     81  C   UNL A   1      42.587  21.350  27.207  1.00  0.00     0.198 A 
ATOM     82  F   UNL A   1      42.324  22.569  29.203  1.00  0.00    -0.203 F 
ATOM     83  F   UNL A   1      43.896  22.359  23.983  1.00  0.00    -0.200 F 
ATOM     84  C   UNL A   1      42.983  21.287  25.879  1.00  0.00     0.200 A 
ATOM     85  F   UNL A   1      42.065  20.268  27.801  1.00  0.00    -0.200 F 
ATOM     86  F   UNL A   1      42.823  20.155  25.182  1.00  0.00    -0.200 F 
ENDBRANCH  52  76
BRANCH  64  87
ATOM     87  C   UNL A   1      48.660  26.563  30.724  1.00  0.00     0.064 A 
ATOM     88  C   UNL A   1      48.996  25.665  31.748  1.00  0.00     0.173 A 
ATOM     89  C   UNL A   1      49.689  27.008  29.879  1.00  0.00     0.173 A 
ATOM     90  F   UNL A   1      48.053  25.223  32.594  1.00  0.00    -0.203 F 
ATOM     91  C   UNL A   1      50.313  25.250  31.934  1.00  0.00     0.198 A 
ATOM     92  C   UNL A   1      50.997  26.563  30.046  1.00  0.00     0.198 A 
ATOM     93  F   UNL A   1      49.422  27.862  28.880  1.00  0.00    -0.203 F 
ATOM     94  F   UNL A   1      50.618  24.433  32.951  1.00  0.00    -0.200 F 
ATOM     95  C   UNL A   1      51.310  25.693  31.078  1.00  0.00     0.200 A 
ATOM     96  F   UNL A   1      51.957  26.980  29.207  1.00  0.00    -0.200 F 
ATOM     97  F   UNL A   1      52.574  25.283  31.251  1.00  0.00    -0.200 F 
ENDBRANCH  64  87
ENDBRANCH  38  39
ENDBRANCH  30  33
ENDBRANCH  28  29
ENDBRANCH  27  28
ENDBRANCH  26  27
ENDBRANCH  25  26
ENDBRANCH   1  25
TORSDOF 19
ENDMDL
MODEL 3
REMARK VINA RESULT:      -9.1      4.668     11.732
REMARK SMILES CC(C)(C)N(CC(=O)NCCCCCCNC(=O)c1ccc(-c2c3nc(c(-c4c(F)c(F)c(F)c(F)c4F)c4ccc([nH]4)c(-c4c(F)c(F)c(F)c(F)c4F)c4nc(c(-c5c(F)c(F)c(F)c(F)c5F)c5ccc2[nH]5)C=C4)C=C3)cc1)C(=O)NCCc1cnc[nH]1
REMARK SMILES IDX 11 1 10 2 9 3 7 4 8 5 6 7 5 8 2 9 1 10 3 11 4 12 82 13 83 14
REMARK SMILES IDX 84 15 85 17 86 18 87 19 88 20 91 21 89 22 90 23 12 25 13 26
REMARK SMILES IDX 14 27 15 28 16 29 17 30 18 32 19 33 20 34 81 35 21 36 80 37
REMARK SMILES IDX 22 38 23 39 24 40 74 41 25 42 79 43 73 44 75 45 26 46 78 47
REMARK SMILES IDX 72 48 71 49 27 51 59 52 39 53 58 54 40 55 43 56 57 57 76 58
REMARK SMILES IDX 41 59 42 60 56 62 77 63 44 64 28 65 29 66 37 67 30 68 31 69
REMARK SMILES IDX 35 70 38 71 32 72 33 73 36 74 34 75 60 76 61 77 69 78 62 79
REMARK SMILES IDX 63 80 67 81 70 82 64 83 65 84 68 85 66 86 45 87 46 88 54 89
REMARK SMILES IDX 47 90 48 91 52 92 55 93 49 94 50 95 53 96 51 97
REMARK H PARENT 9 6 84 16 91 24 16 31 75 50 43 61
REMARK Flexibility Score: inf
ROOT
ATOM      1  C   UNL A   1      45.615  25.303  32.001  1.00  0.00     0.021 C 
ENDROOT
BRANCH   1   2
ATOM      2  C   UNL A   1      45.621  24.996  30.508  1.00  0.00     0.116 C 
BRANCH   2   3
ATOM      3  N   UNL A   1      44.537  24.139  30.108  1.00  0.00    -0.355 N 
ATOM      4  C   UNL A   1      43.887  24.121  28.911  1.00  0.00     0.239 C 
ATOM      5  O   UNL A   1      43.262  23.092  28.628  1.00  0.00    -0.273 OA
ATOM      6  H   UNL A   1      44.228  23.488  30.779  1.00  0.00     0.163 HD
BRANCH   4   7
ATOM      7  C   UNL A   1      44.058  25.247  27.872  1.00  0.00     0.221 C 
BRANCH   7   8
ATOM      8  N   UNL A   1      45.175  25.155  26.914  1.00  0.00    -0.311 N 
BRANCH   8   9
ATOM      9  C   UNL A   1      45.960  26.424  26.562  1.00  0.00     0.037 C 
ATOM     10  C   UNL A   1      47.445  26.418  27.021  1.00  0.00     0.034 C 
ATOM     11  C   UNL A   1      45.343  27.703  27.191  1.00  0.00     0.034 C 
ATOM     12  C   UNL A   1      46.013  26.604  25.025  1.00  0.00     0.034 C 
ENDBRANCH   8   9
BRANCH   8  13
ATOM     13  C   UNL A   1      45.720  23.948  26.524  1.00  0.00     0.318 C 
ATOM     14  O   UNL A   1      46.762  23.504  27.018  1.00  0.00    -0.249 OA
ATOM     15  N   UNL A   1      45.199  23.127  25.599  1.00  0.00    -0.338 N 
ATOM     16  H   UNL A   1      45.814  22.375  25.438  1.00  0.00     0.165 HD
BRANCH  15  17
ATOM     17  C   UNL A   1      44.018  22.985  24.752  1.00  0.00     0.124 C 
BRANCH  17  18
ATOM     18  C   UNL A   1      42.843  22.353  25.512  1.00  0.00     0.077 C 
BRANCH  18  19
ATOM     19  C   UNL A   1      42.963  20.869  25.612  1.00  0.00     0.036 A 
ATOM     20  C   UNL A   1      42.253  19.946  26.351  1.00  0.00     0.134 A 
ATOM     21  N   UNL A   1      43.863  20.121  24.895  1.00  0.00    -0.348 N 
ATOM     22  N   UNL A   1      42.705  18.677  26.112  1.00  0.00    -0.245 NA
ATOM     23  C   UNL A   1      43.668  18.810  25.231  1.00  0.00     0.196 A 
ATOM     24  H   UNL A   1      44.528  20.466  24.255  1.00  0.00     0.167 HD
ENDBRANCH  18  19
ENDBRANCH  17  18
ENDBRANCH  15  17
ENDBRANCH   8  13
ENDBRANCH   7   8
ENDBRANCH   4   7
ENDBRANCH   2   3
ENDBRANCH   1   2
BRANCH   1  25
ATOM     25  C   UNL A   1      44.570  24.517  32.797  1.00  0.00     0.002 C 
BRANCH  25  26
ATOM     26  C   UNL A   1      45.085  23.233  33.459  1.00  0.00     0.002 C 
BRANCH  26  27
ATOM     27  C   UNL A   1      45.951  23.437  34.706  1.00  0.00     0.021 C 
BRANCH  27  28
ATOM     28  C   UNL A   1      47.092  24.433  34.531  1.00  0.00     0.116 C 
BRANCH  28  29
ATOM     29  N   UNL A   1      47.453  25.072  35.786  1.00  0.00    -0.352 N 
ATOM     30  C   UNL A   1      47.047  26.274  36.302  1.00  0.00     0.251 C 
ATOM     31  H   UNL A   1      48.083  24.565  36.348  1.00  0.00     0.163 HD
ATOM     32  O   UNL A   1      47.625  26.757  37.274  1.00  0.00    -0.269 OA
BRANCH  30  33
ATOM     33  C   UNL A   1      45.924  27.004  35.679  1.00  0.00     0.039 A 
ATOM     34  C   UNL A   1      46.200  28.088  34.844  1.00  0.00     0.014 A 
ATOM     35  C   UNL A   1      44.602  26.623  35.927  1.00  0.00     0.014 A 
ATOM     36  C   UNL A   1      45.150  28.753  34.207  1.00  0.00     0.010 A 
ATOM     37  C   UNL A   1      43.564  27.236  35.232  1.00  0.00     0.010 A 
ATOM     38  C   UNL A   1      43.827  28.310  34.367  1.00  0.00    -0.014 A 
BRANCH  38  39
ATOM     39  C   UNL A   1      42.706  28.948  33.632  1.00  0.00     0.031 A 
ATOM     40  C   UNL A   1      41.840  29.969  34.313  1.00  0.00     0.074 A 
ATOM     41  C   UNL A   1      42.430  28.558  32.374  1.00  0.00     0.049 A 
ATOM     42  N   UNL A   1      40.778  30.588  33.862  1.00  0.00    -0.248 NA
ATOM     43  C   UNL A   1      42.201  30.325  35.694  1.00  0.00     0.031 C 
ATOM     44  C   UNL A   1      43.176  27.551  31.618  1.00  0.00     0.029 A 
ATOM     45  N   UNL A   1      41.441  28.956  31.510  1.00  0.00    -0.354 N 
ATOM     46  C   UNL A   1      40.340  31.394  34.905  1.00  0.00     0.074 A 
ATOM     47  C   UNL A   1      41.214  31.141  36.030  1.00  0.00     0.031 C 
ATOM     48  C   UNL A   1      42.639  27.433  30.394  1.00  0.00     0.029 A 
ATOM     49  C   UNL A   1      41.483  28.320  30.293  1.00  0.00     0.049 A 
ATOM     50  H   UNL A   1      40.765  29.634  31.740  1.00  0.00     0.167 HD
ATOM     51  C   UNL A   1      39.316  32.282  34.916  1.00  0.00     0.037 A 
ATOM     52  C   UNL A   1      40.677  28.433  29.222  1.00  0.00     0.037 A 
ATOM     53  C   UNL A   1      38.456  32.536  33.789  1.00  0.00     0.049 A 
ATOM     54  C   UNL A   1      39.517  29.393  29.275  1.00  0.00     0.074 A 
ATOM     55  C   UNL A   1      37.424  33.452  33.679  1.00  0.00     0.029 A 
ATOM     56  N   UNL A   1      38.521  31.861  32.578  1.00  0.00    -0.354 N 
ATOM     57  N   UNL A   1      39.155  30.202  30.240  1.00  0.00    -0.248 NA
ATOM     58  C   UNL A   1      38.656  29.452  28.086  1.00  0.00     0.031 C 
ATOM     59  C   UNL A   1      36.827  33.289  32.425  1.00  0.00     0.029 A 
ATOM     60  C   UNL A   1      37.526  32.317  31.728  1.00  0.00     0.049 A 
ATOM     61  H   UNL A   1      39.177  31.162  32.356  1.00  0.00     0.167 HD
ATOM     62  C   UNL A   1      38.048  30.891  29.765  1.00  0.00     0.074 A 
ATOM     63  C   UNL A   1      37.805  30.413  28.419  1.00  0.00     0.031 C 
ATOM     64  C   UNL A   1      37.301  31.837  30.387  1.00  0.00     0.037 A 
BRANCH  51  65
ATOM     65  C   UNL A   1      39.068  33.036  36.192  1.00  0.00     0.064 A 
ATOM     66  C   UNL A   1      38.308  32.488  37.238  1.00  0.00     0.173 A 
ATOM     67  C   UNL A   1      39.609  34.317  36.380  1.00  0.00     0.173 A 
ATOM     68  F   UNL A   1      37.760  31.270  37.108  1.00  0.00    -0.203 F 
ATOM     69  C   UNL A   1      38.062  33.210  38.403  1.00  0.00     0.198 A 
ATOM     70  C   UNL A   1      39.392  35.022  37.562  1.00  0.00     0.198 A 
ATOM     71  F   UNL A   1      40.351  34.888  35.420  1.00  0.00    -0.203 F 
ATOM     72  F   UNL A   1      37.278  32.691  39.358  1.00  0.00    -0.200 F 
ATOM     73  C   UNL A   1      38.608  34.473  38.567  1.00  0.00     0.200 A 
ATOM     74  F   UNL A   1      39.934  36.236  37.725  1.00  0.00    -0.200 F 
ATOM     75  F   UNL A   1      38.373  35.167  39.689  1.00  0.00    -0.200 F 
ENDBRANCH  51  65
BRANCH  52  76
ATOM     76  C   UNL A   1      40.953  27.641  27.994  1.00  0.00     0.064 A 
ATOM     77  C   UNL A   1      40.469  26.331  27.865  1.00  0.00     0.173 A 
ATOM     78  C   UNL A   1      41.704  28.166  26.933  1.00  0.00     0.173 A 
ATOM     79  F   UNL A   1      39.763  25.777  28.862  1.00  0.00    -0.203 F 
ATOM     80  C   UNL A   1      40.743  25.570  26.730  1.00  0.00     0.198 A 
ATOM     81  C   UNL A   1      41.951  27.415  25.785  1.00  0.00     0.198 A 
ATOM     82  F   UNL A   1      42.186  29.415  27.003  1.00  0.00    -0.203 F 
ATOM     83  F   UNL A   1      40.307  24.305  26.654  1.00  0.00    -0.200 F 
ATOM     84  C   UNL A   1      41.478  26.114  25.688  1.00  0.00     0.200 A 
ATOM     85  F   UNL A   1      42.648  27.951  24.775  1.00  0.00    -0.200 F 
ATOM     86  F   UNL A   1      41.736  25.385  24.596  1.00  0.00    -0.200 F 
ENDBRANCH  52  76
BRANCH  64  87
ATOM     87  C   UNL A   1      36.173  32.449  29.604  1.00  0.00     0.064 A 
ATOM     88  C   UNL A   1      36.186  33.798  29.220  1.00  0.00     0.173 A 
ATOM     89  C   UNL A   1      35.084  31.662  29.199  1.00  0.00     0.173 A 
ATOM     90  F   UNL A   1      37.196  34.598  29.595  1.00  0.00    -0.203 F 
ATOM     91  C   UNL A   1      35.138  34.342  28.481  1.00  0.00     0.198 A 
ATOM     92  C   UNL A   1      34.056  32.201  28.431  1.00  0.00     0.198 A 
ATOM     93  F   UNL A   1      35.025  30.365  29.535  1.00  0.00    -0.203 F 
ATOM     94  F   UNL A   1      35.147  35.645  28.169  1.00  0.00    -0.200 F 
ATOM     95  C   UNL A   1      34.079  33.541  28.080  1.00  0.00     0.200 A 
ATOM     96  F   UNL A   1      33.041  31.421  28.031  1.00  0.00    -0.200 F 
ATOM     97  F   UNL A   1      33.077  34.064  27.359  1.00  0.00    -0.200 F 
ENDBRANCH  64  87
ENDBRANCH  38  39
ENDBRANCH  30  33
ENDBRANCH  28  29
ENDBRANCH  27  28
ENDBRANCH  26  27
ENDBRANCH  25  26
ENDBRANCH   1  25
TORSDOF 19
ENDMDL
