MODEL 1
REMARK VINA RESULT:     -12.0      0.000      0.000
REMARK SMILES C=Cc1cccc(-c2ccc([C@@H](C)C(=O)NCCCCCCNC(=O)c3ccc(-c4c5nc(c(-c6c(F)c(F)c(F)c(F)c6F)c6ccc([nH]6)c(-c6c(F)c(F)c(F)c(F)c6F)c6nc(c(-c7c(F)c(F)c(F)c(F)c7F)c7ccc4[nH]7)C=C6)C=C5)cc3)cc2)c1
REMARK SMILES IDX 19 1 18 2 17 3 16 4 14 5 15 6 12 8 13 9 11 10 8 11 9 12
REMARK SMILES IDX 90 13 10 14 89 15 7 16 3 17 4 18 91 19 5 20 6 21 2 22 1 23
REMARK SMILES IDX 20 24 21 25 22 26 23 27 24 28 25 30 26 31 27 32 88 33 28 34
REMARK SMILES IDX 87 35 29 36 30 37 31 38 81 39 32 40 86 41 80 42 82 43 33 44
REMARK SMILES IDX 85 45 79 46 78 47 34 49 66 50 46 51 65 52 47 53 50 54 64 55
REMARK SMILES IDX 83 56 48 57 49 58 63 60 84 61 51 62 35 63 36 64 44 65 37 66
REMARK SMILES IDX 38 67 42 68 45 69 39 70 40 71 43 72 41 73 67 74 68 75 76 76
REMARK SMILES IDX 69 77 70 78 74 79 77 80 71 81 72 82 75 83 73 84 52 85 53 86
REMARK SMILES IDX 61 87 54 88 55 89 59 90 62 91 56 92 57 93 60 94 58 95
REMARK H PARENT 16 7 23 29 82 48 50 59
REMARK Flexibility Score: inf
ROOT
ATOM      1  C   UNL A   1      30.956  26.710  26.018  1.00  0.00     0.002 C 
ENDROOT
BRANCH   1   2
ATOM      2  C   UNL A   1      30.797  26.816  24.497  1.00  0.00     0.021 C 
BRANCH   2   3
ATOM      3  C   UNL A   1      30.382  25.509  23.819  1.00  0.00     0.116 C 
BRANCH   3   4
ATOM      4  N   UNL A   1      30.468  24.380  24.721  1.00  0.00    -0.356 N 
ATOM      5  C   UNL A   1      31.200  23.235  24.662  1.00  0.00     0.227 C 
ATOM      6  O   UNL A   1      30.996  22.404  25.556  1.00  0.00    -0.274 OA
ATOM      7  H   UNL A   1      29.895  24.454  25.518  1.00  0.00     0.163 HD
BRANCH   5   8
ATOM      8  C   UNL A   1      32.241  22.945  23.570  1.00  0.00     0.105 C 
ATOM      9  C   UNL A   1      31.852  21.815  22.616  1.00  0.00     0.023 C 
BRANCH   8  10
ATOM     10  C   UNL A   1      33.670  22.929  24.091  1.00  0.00    -0.036 A 
ATOM     11  C   UNL A   1      36.296  22.970  25.229  1.00  0.00    -0.018 A 
ATOM     12  C   UNL A   1      35.781  21.825  24.601  1.00  0.00     0.009 A 
ATOM     13  C   UNL A   1      35.473  24.108  25.243  1.00  0.00     0.009 A 
ATOM     14  C   UNL A   1      34.505  21.811  24.021  1.00  0.00     0.005 A 
ATOM     15  C   UNL A   1      34.180  24.084  24.704  1.00  0.00     0.005 A 
BRANCH  11  16
ATOM     16  C   UNL A   1      37.639  22.973  25.857  1.00  0.00    -0.018 A 
ATOM     17  C   UNL A   1      39.737  21.813  26.418  1.00  0.00    -0.026 A 
ATOM     18  C   UNL A   1      40.202  22.967  27.053  1.00  0.00     0.008 A 
ATOM     19  C   UNL A   1      38.462  21.829  25.829  1.00  0.00     0.016 A 
ATOM     20  C   UNL A   1      39.415  24.117  27.086  1.00  0.00     0.001 A 
ATOM     21  C   UNL A   1      38.147  24.115  26.500  1.00  0.00     0.009 A 
BRANCH  17  22
ATOM     22  C   UNL A   1      40.569  20.603  26.446  1.00  0.00     0.000 C 
ATOM     23  C   UNL A   1      41.509  20.353  27.365  1.00  0.00     0.009 C 
ENDBRANCH  17  22
ENDBRANCH  11  16
ENDBRANCH   8  10
ENDBRANCH   5   8
ENDBRANCH   3   4
ENDBRANCH   2   3
ENDBRANCH   1   2
BRANCH   1  24
ATOM     24  C   UNL A   1      31.991  27.658  26.638  1.00  0.00     0.002 C 
BRANCH  24  25
ATOM     25  C   UNL A   1      33.409  27.569  26.062  1.00  0.00     0.021 C 
BRANCH  25  26
ATOM     26  C   UNL A   1      33.891  28.813  25.317  1.00  0.00     0.116 C 
BRANCH  26  27
ATOM     27  N   UNL A   1      33.267  30.026  25.815  1.00  0.00    -0.352 N 
ATOM     28  C   UNL A   1      33.584  30.817  26.889  1.00  0.00     0.251 C 
ATOM     29  H   UNL A   1      32.488  30.331  25.296  1.00  0.00     0.163 HD
ATOM     30  O   UNL A   1      32.798  31.689  27.250  1.00  0.00    -0.269 OA
BRANCH  28  31
ATOM     31  C   UNL A   1      34.852  30.632  27.632  1.00  0.00     0.039 A 
ATOM     32  C   UNL A   1      35.019  29.458  28.374  1.00  0.00     0.014 A 
ATOM     33  C   UNL A   1      35.839  31.620  27.665  1.00  0.00     0.014 A 
ATOM     34  C   UNL A   1      36.190  29.256  29.109  1.00  0.00     0.010 A 
ATOM     35  C   UNL A   1      37.033  31.394  28.353  1.00  0.00     0.010 A 
ATOM     36  C   UNL A   1      37.217  30.213  29.085  1.00  0.00    -0.014 A 
BRANCH  36  37
ATOM     37  C   UNL A   1      38.487  29.969  29.818  1.00  0.00     0.031 A 
ATOM     38  C   UNL A   1      38.705  30.541  31.191  1.00  0.00     0.074 A 
ATOM     39  C   UNL A   1      39.459  29.249  29.228  1.00  0.00     0.049 A 
ATOM     40  N   UNL A   1      39.740  30.414  31.985  1.00  0.00    -0.248 NA
ATOM     41  C   UNL A   1      37.629  31.382  31.737  1.00  0.00     0.031 C 
ATOM     42  C   UNL A   1      39.392  28.689  27.878  1.00  0.00     0.029 A 
ATOM     43  N   UNL A   1      40.694  28.866  29.687  1.00  0.00    -0.354 N 
ATOM     44  C   UNL A   1      39.444  31.162  33.116  1.00  0.00     0.074 A 
ATOM     45  C   UNL A   1      38.154  31.779  32.889  1.00  0.00     0.031 C 
ATOM     46  C   UNL A   1      40.521  28.009  27.628  1.00  0.00     0.029 A 
ATOM     47  C   UNL A   1      41.400  28.103  28.789  1.00  0.00     0.049 A 
ATOM     48  H   UNL A   1      41.041  29.114  30.575  1.00  0.00     0.167 HD
ATOM     49  C   UNL A   1      40.172  31.303  34.250  1.00  0.00     0.037 A 
ATOM     50  C   UNL A   1      42.617  27.536  28.895  1.00  0.00     0.037 A 
ATOM     51  C   UNL A   1      41.444  30.671  34.486  1.00  0.00     0.049 A 
ATOM     52  C   UNL A   1      43.394  27.690  30.173  1.00  0.00     0.074 A 
ATOM     53  C   UNL A   1      42.225  30.699  35.629  1.00  0.00     0.029 A 
ATOM     54  N   UNL A   1      42.122  29.894  33.559  1.00  0.00    -0.354 N 
ATOM     55  N   UNL A   1      43.068  28.336  31.266  1.00  0.00    -0.248 NA
ATOM     56  C   UNL A   1      44.702  27.025  30.235  1.00  0.00     0.031 C 
ATOM     57  C   UNL A   1      43.393  29.970  35.380  1.00  0.00     0.029 A 
ATOM     58  C   UNL A   1      43.322  29.454  34.096  1.00  0.00     0.049 A 
ATOM     59  H   UNL A   1      41.799  29.684  32.653  1.00  0.00     0.167 HD
ATOM     60  C   UNL A   1      44.120  28.142  32.150  1.00  0.00     0.074 A 
ATOM     61  C   UNL A   1      45.085  27.299  31.474  1.00  0.00     0.031 C 
ATOM     62  C   UNL A   1      44.275  28.623  33.408  1.00  0.00     0.037 A 
BRANCH  49  63
ATOM     63  C   UNL A   1      39.604  32.174  35.333  1.00  0.00     0.064 A 
ATOM     64  C   UNL A   1      39.910  33.541  35.410  1.00  0.00     0.173 A 
ATOM     65  C   UNL A   1      38.712  31.648  36.279  1.00  0.00     0.173 A 
ATOM     66  F   UNL A   1      40.765  34.091  34.534  1.00  0.00    -0.203 F 
ATOM     67  C   UNL A   1      39.364  34.344  36.409  1.00  0.00     0.198 A 
ATOM     68  C   UNL A   1      38.148  32.457  37.261  1.00  0.00     0.198 A 
ATOM     69  F   UNL A   1      38.381  30.347  36.247  1.00  0.00    -0.203 F 
ATOM     70  F   UNL A   1      39.704  35.637  36.486  1.00  0.00    -0.200 F 
ATOM     71  C   UNL A   1      38.479  33.803  37.329  1.00  0.00     0.200 A 
ATOM     72  F   UNL A   1      37.284  31.936  38.144  1.00  0.00    -0.200 F 
ATOM     73  F   UNL A   1      37.950  34.577  38.286  1.00  0.00    -0.200 F 
ENDBRANCH  49  63
BRANCH  50  74
ATOM     74  C   UNL A   1      43.156  26.734  27.769  1.00  0.00     0.064 A 
ATOM     75  C   UNL A   1      42.989  25.343  27.735  1.00  0.00     0.173 A 
ATOM     76  C   UNL A   1      43.841  27.337  26.705  1.00  0.00     0.173 A 
ATOM     77  F   UNL A   1      42.358  24.720  28.742  1.00  0.00    -0.203 F 
ATOM     78  C   UNL A   1      43.500  24.582  26.685  1.00  0.00     0.198 A 
ATOM     79  C   UNL A   1      44.329  26.579  25.643  1.00  0.00     0.198 A 
ATOM     80  F   UNL A   1      44.021  28.666  26.690  1.00  0.00    -0.203 F 
ATOM     81  F   UNL A   1      43.358  23.250  26.696  1.00  0.00    -0.200 F 
ATOM     82  C   UNL A   1      44.165  25.202  25.638  1.00  0.00     0.200 A 
ATOM     83  F   UNL A   1      44.961  27.182  24.627  1.00  0.00    -0.200 F 
ATOM     84  F   UNL A   1      44.651  24.472  24.626  1.00  0.00    -0.200 F 
ENDBRANCH  50  74
BRANCH  62  85
ATOM     85  C   UNL A   1      45.529  28.237  34.134  1.00  0.00     0.064 A 
ATOM     86  C   UNL A   1      46.707  28.990  34.008  1.00  0.00     0.173 A 
ATOM     87  C   UNL A   1      45.551  27.116  34.977  1.00  0.00     0.173 A 
ATOM     88  F   UNL A   1      46.741  30.060  33.200  1.00  0.00    -0.203 F 
ATOM     89  C   UNL A   1      47.868  28.617  34.679  1.00  0.00     0.198 A 
ATOM     90  C   UNL A   1      46.706  26.762  35.666  1.00  0.00     0.198 A 
ATOM     91  F   UNL A   1      44.449  26.367  35.133  1.00  0.00    -0.203 F 
ATOM     92  F   UNL A   1      48.995  29.322  34.506  1.00  0.00    -0.200 F 
ATOM     93  C   UNL A   1      47.866  27.507  35.511  1.00  0.00     0.200 A 
ATOM     94  F   UNL A   1      46.700  25.694  36.477  1.00  0.00    -0.200 F 
ATOM     95  F   UNL A   1      48.985  27.149  36.155  1.00  0.00    -0.200 F 
ENDBRANCH  62  85
ENDBRANCH  36  37
ENDBRANCH  28  31
ENDBRANCH  26  27
ENDBRANCH  25  26
ENDBRANCH  24  25
ENDBRANCH   1  24
TORSDOF 16
ENDMDL
MODEL 2
REMARK VINA RESULT:     -12.0      4.167      9.464
REMARK SMILES C=Cc1cccc(-c2ccc([C@@H](C)C(=O)NCCCCCCNC(=O)c3ccc(-c4c5nc(c(-c6c(F)c(F)c(F)c(F)c6F)c6ccc([nH]6)c(-c6c(F)c(F)c(F)c(F)c6F)c6nc(c(-c7c(F)c(F)c(F)c(F)c7F)c7ccc4[nH]7)C=C6)C=C5)cc3)cc2)c1
REMARK SMILES IDX 19 1 18 2 17 3 16 4 14 5 15 6 12 8 13 9 11 10 8 11 9 12
REMARK SMILES IDX 90 13 10 14 89 15 7 16 3 17 4 18 91 19 5 20 6 21 2 22 1 23
REMARK SMILES IDX 20 24 21 25 22 26 23 27 24 28 25 30 26 31 27 32 88 33 28 34
REMARK SMILES IDX 87 35 29 36 30 37 31 38 81 39 32 40 86 41 80 42 82 43 33 44
REMARK SMILES IDX 85 45 79 46 78 47 34 49 66 50 46 51 65 52 47 53 50 54 64 55
REMARK SMILES IDX 83 56 48 57 49 58 63 60 84 61 51 62 35 63 36 64 44 65 37 66
REMARK SMILES IDX 38 67 42 68 45 69 39 70 40 71 43 72 41 73 67 74 68 75 76 76
REMARK SMILES IDX 69 77 70 78 74 79 77 80 71 81 72 82 75 83 73 84 52 85 53 86
REMARK SMILES IDX 61 87 54 88 55 89 59 90 62 91 56 92 57 93 60 94 58 95
REMARK H PARENT 16 7 23 29 82 48 50 59
REMARK Flexibility Score: inf
ROOT
ATOM      1  C   UNL A   1      35.468  23.680  24.190  1.00  0.00     0.002 C 
ENDROOT
BRANCH   1   2
ATOM      2  C   UNL A   1      34.996  24.460  25.422  1.00  0.00     0.021 C 
BRANCH   2   3
ATOM      3  C   UNL A   1      34.289  25.776  25.096  1.00  0.00     0.116 C 
BRANCH   3   4
ATOM      4  N   UNL A   1      33.291  26.116  26.088  1.00  0.00    -0.356 N 
ATOM      5  C   UNL A   1      31.932  26.062  26.054  1.00  0.00     0.227 C 
ATOM      6  O   UNL A   1      31.337  26.504  27.045  1.00  0.00    -0.274 OA
ATOM      7  H   UNL A   1      33.661  26.445  26.939  1.00  0.00     0.163 HD
BRANCH   5   8
ATOM      8  C   UNL A   1      31.133  25.485  24.875  1.00  0.00     0.105 C 
ATOM      9  C   UNL A   1      29.663  25.905  24.849  1.00  0.00     0.023 C 
BRANCH   8  10
ATOM     10  C   UNL A   1      31.421  24.014  24.616  1.00  0.00    -0.036 A 
ATOM     11  C   UNL A   1      32.114  21.299  24.034  1.00  0.00    -0.018 A 
ATOM     12  C   UNL A   1      31.793  21.717  25.336  1.00  0.00     0.009 A 
ATOM     13  C   UNL A   1      32.046  22.271  23.024  1.00  0.00     0.009 A 
ATOM     14  C   UNL A   1      31.430  23.041  25.618  1.00  0.00     0.005 A 
ATOM     15  C   UNL A   1      31.725  23.604  23.309  1.00  0.00     0.005 A 
BRANCH  11  16
ATOM     16  C   UNL A   1      32.516  19.902  23.745  1.00  0.00    -0.018 A 
ATOM     17  C   UNL A   1      33.655  17.824  24.417  1.00  0.00    -0.026 A 
ATOM     18  C   UNL A   1      33.290  17.236  23.204  1.00  0.00     0.008 A 
ATOM     19  C   UNL A   1      33.265  19.149  24.673  1.00  0.00     0.016 A 
ATOM     20  C   UNL A   1      32.540  17.951  22.272  1.00  0.00     0.001 A 
ATOM     21  C   UNL A   1      32.164  19.270  22.540  1.00  0.00     0.009 A 
BRANCH  17  22
ATOM     22  C   UNL A   1      34.488  17.061  25.354  1.00  0.00     0.000 C 
ATOM     23  C   UNL A   1      34.982  15.840  25.107  1.00  0.00     0.009 C 
ENDBRANCH  17  22
ENDBRANCH  11  16
ENDBRANCH   8  10
ENDBRANCH   5   8
ENDBRANCH   3   4
ENDBRANCH   2   3
ENDBRANCH   1   2
BRANCH   1  24
ATOM     24  C   UNL A   1      35.475  22.153  24.341  1.00  0.00     0.002 C 
BRANCH  24  25
ATOM     25  C   UNL A   1      36.412  21.591  25.417  1.00  0.00     0.021 C 
BRANCH  25  26
ATOM     26  C   UNL A   1      37.896  21.586  25.054  1.00  0.00     0.116 C 
BRANCH  26  27
ATOM     27  N   UNL A   1      38.658  20.661  25.874  1.00  0.00    -0.352 N 
ATOM     28  C   UNL A   1      39.784  20.858  26.632  1.00  0.00     0.251 C 
ATOM     29  H   UNL A   1      38.309  19.740  25.889  1.00  0.00     0.163 HD
ATOM     30  O   UNL A   1      40.383  19.888  27.088  1.00  0.00    -0.269 OA
BRANCH  28  31
ATOM     31  C   UNL A   1      40.299  22.220  26.901  1.00  0.00     0.039 A 
ATOM     32  C   UNL A   1      41.330  22.365  27.836  1.00  0.00     0.014 A 
ATOM     33  C   UNL A   1      39.738  23.353  26.305  1.00  0.00     0.014 A 
ATOM     34  C   UNL A   1      41.827  23.636  28.138  1.00  0.00     0.010 A 
ATOM     35  C   UNL A   1      40.273  24.617  26.563  1.00  0.00     0.010 A 
ATOM     36  C   UNL A   1      41.318  24.770  27.486  1.00  0.00    -0.014 A 
BRANCH  36  37
ATOM     37  C   UNL A   1      41.889  26.114  27.762  1.00  0.00     0.031 A 
ATOM     38  C   UNL A   1      43.251  26.491  27.250  1.00  0.00     0.074 A 
ATOM     39  C   UNL A   1      41.183  26.989  28.503  1.00  0.00     0.049 A 
ATOM     40  N   UNL A   1      43.898  27.624  27.377  1.00  0.00    -0.248 NA
ATOM     41  C   UNL A   1      43.994  25.456  26.517  1.00  0.00     0.031 C 
ATOM     42  C   UNL A   1      39.876  26.723  29.104  1.00  0.00     0.029 A 
ATOM     43  N   UNL A   1      41.466  28.279  28.876  1.00  0.00    -0.354 N 
ATOM     44  C   UNL A   1      45.121  27.435  26.749  1.00  0.00     0.074 A 
ATOM     45  C   UNL A   1      45.148  26.066  26.281  1.00  0.00     0.031 C 
ATOM     46  C   UNL A   1      39.456  27.824  29.746  1.00  0.00     0.029 A 
ATOM     47  C   UNL A   1      40.472  28.865  29.621  1.00  0.00     0.049 A 
ATOM     48  H   UNL A   1      42.302  28.741  28.634  1.00  0.00     0.167 HD
ATOM     49  C   UNL A   1      46.121  28.330  26.559  1.00  0.00     0.037 A 
ATOM     50  C   UNL A   1      40.386  30.105  30.137  1.00  0.00     0.037 A 
ATOM     51  C   UNL A   1      46.085  29.699  27.003  1.00  0.00     0.049 A 
ATOM     52  C   UNL A   1      41.499  31.085  29.892  1.00  0.00     0.074 A 
ATOM     53  C   UNL A   1      47.020  30.699  26.799  1.00  0.00     0.029 A 
ATOM     54  N   UNL A   1      45.055  30.261  27.742  1.00  0.00    -0.354 N 
ATOM     55  N   UNL A   1      42.617  30.918  29.229  1.00  0.00    -0.248 NA
ATOM     56  C   UNL A   1      41.332  32.430  30.459  1.00  0.00     0.031 C 
ATOM     57  C   UNL A   1      46.572  31.857  27.448  1.00  0.00     0.029 A 
ATOM     58  C   UNL A   1      45.341  31.589  28.021  1.00  0.00     0.049 A 
ATOM     59  H   UNL A   1      44.240  29.788  28.027  1.00  0.00     0.167 HD
ATOM     60  C   UNL A   1      43.279  32.136  29.283  1.00  0.00     0.074 A 
ATOM     61  C   UNL A   1      42.426  33.042  30.026  1.00  0.00     0.031 C 
ATOM     62  C   UNL A   1      44.486  32.474  28.768  1.00  0.00     0.037 A 
BRANCH  49  63
ATOM     63  C   UNL A   1      47.344  27.856  25.830  1.00  0.00     0.064 A 
ATOM     64  C   UNL A   1      47.396  27.826  24.427  1.00  0.00     0.173 A 
ATOM     65  C   UNL A   1      48.492  27.468  26.536  1.00  0.00     0.173 A 
ATOM     66  F   UNL A   1      46.321  28.179  23.706  1.00  0.00    -0.203 F 
ATOM     67  C   UNL A   1      48.542  27.401  23.761  1.00  0.00     0.198 A 
ATOM     68  C   UNL A   1      49.646  27.068  25.867  1.00  0.00     0.198 A 
ATOM     69  F   UNL A   1      48.498  27.484  27.878  1.00  0.00    -0.203 F 
ATOM     70  F   UNL A   1      48.553  27.342  22.423  1.00  0.00    -0.200 F 
ATOM     71  C   UNL A   1      49.667  27.029  24.480  1.00  0.00     0.200 A 
ATOM     72  F   UNL A   1      50.736  26.718  26.562  1.00  0.00    -0.200 F 
ATOM     73  F   UNL A   1      50.772  26.626  23.837  1.00  0.00    -0.200 F 
ENDBRANCH  49  63
BRANCH  50  74
ATOM     74  C   UNL A   1      39.178  30.503  30.902  1.00  0.00     0.064 A 
ATOM     75  C   UNL A   1      39.120  30.332  32.292  1.00  0.00     0.173 A 
ATOM     76  C   UNL A   1      38.063  31.066  30.265  1.00  0.00     0.173 A 
ATOM     77  F   UNL A   1      40.155  29.778  32.941  1.00  0.00    -0.203 F 
ATOM     78  C   UNL A   1      37.986  30.695  33.015  1.00  0.00     0.198 A 
ATOM     79  C   UNL A   1      36.940  31.453  30.992  1.00  0.00     0.198 A 
ATOM     80  F   UNL A   1      38.073  31.256  28.937  1.00  0.00    -0.203 F 
ATOM     81  F   UNL A   1      37.943  30.486  34.338  1.00  0.00    -0.200 F 
ATOM     82  C   UNL A   1      36.899  31.260  32.365  1.00  0.00     0.200 A 
ATOM     83  F   UNL A   1      35.895  32.009  30.363  1.00  0.00    -0.200 F 
ATOM     84  F   UNL A   1      35.811  31.614  33.061  1.00  0.00    -0.200 F 
ENDBRANCH  50  74
BRANCH  62  85
ATOM     85  C   UNL A   1      44.946  33.885  28.983  1.00  0.00     0.064 A 
ATOM     86  C   UNL A   1      45.739  34.235  30.087  1.00  0.00     0.173 A 
ATOM     87  C   UNL A   1      44.609  34.894  28.068  1.00  0.00     0.173 A 
ATOM     88  F   UNL A   1      46.072  33.309  30.998  1.00  0.00    -0.203 F 
ATOM     89  C   UNL A   1      46.152  35.550  30.282  1.00  0.00     0.198 A 
ATOM     90  C   UNL A   1      45.046  36.201  28.252  1.00  0.00     0.198 A 
ATOM     91  F   UNL A   1      43.857  34.608  26.995  1.00  0.00    -0.203 F 
ATOM     92  F   UNL A   1      46.867  35.871  31.369  1.00  0.00    -0.200 F 
ATOM     93  C   UNL A   1      45.810  36.531  29.362  1.00  0.00     0.200 A 
ATOM     94  F   UNL A   1      44.722  37.147  27.359  1.00  0.00    -0.200 F 
ATOM     95  F   UNL A   1      46.209  37.796  29.551  1.00  0.00    -0.200 F 
ENDBRANCH  62  85
ENDBRANCH  36  37
ENDBRANCH  28  31
ENDBRANCH  26  27
ENDBRANCH  25  26
ENDBRANCH  24  25
ENDBRANCH   1  24
TORSDOF 16
ENDMDL
MODEL 3
REMARK VINA RESULT:     -11.8      4.143      9.418
REMARK SMILES C=Cc1cccc(-c2ccc([C@@H](C)C(=O)NCCCCCCNC(=O)c3ccc(-c4c5nc(c(-c6c(F)c(F)c(F)c(F)c6F)c6ccc([nH]6)c(-c6c(F)c(F)c(F)c(F)c6F)c6nc(c(-c7c(F)c(F)c(F)c(F)c7F)c7ccc4[nH]7)C=C6)C=C5)cc3)cc2)c1
REMARK SMILES IDX 19 1 18 2 17 3 16 4 14 5 15 6 12 8 13 9 11 10 8 11 9 12
REMARK SMILES IDX 90 13 10 14 89 15 7 16 3 17 4 18 91 19 5 20 6 21 2 22 1 23
REMARK SMILES IDX 20 24 21 25 22 26 23 27 24 28 25 30 26 31 27 32 88 33 28 34
REMARK SMILES IDX 87 35 29 36 30 37 31 38 81 39 32 40 86 41 80 42 82 43 33 44
REMARK SMILES IDX 85 45 79 46 78 47 34 49 66 50 46 51 65 52 47 53 50 54 64 55
REMARK SMILES IDX 83 56 48 57 49 58 63 60 84 61 51 62 35 63 36 64 44 65 37 66
REMARK SMILES IDX 38 67 42 68 45 69 39 70 40 71 43 72 41 73 67 74 68 75 76 76
REMARK SMILES IDX 69 77 70 78 74 79 77 80 71 81 72 82 75 83 73 84 52 85 53 86
REMARK SMILES IDX 61 87 54 88 55 89 59 90 62 91 56 92 57 93 60 94 58 95
REMARK H PARENT 16 7 23 29 82 48 50 59
REMARK Flexibility Score: inf
ROOT
ATOM      1  C   UNL A   1      35.245  24.095  24.173  1.00  0.00     0.002 C 
ENDROOT
BRANCH   1   2
ATOM      2  C   UNL A   1      34.773  24.657  25.519  1.00  0.00     0.021 C 
BRANCH   2   3
ATOM      3  C   UNL A   1      34.087  26.020  25.420  1.00  0.00     0.116 C 
BRANCH   3   4
ATOM      4  N   UNL A   1      32.902  26.091  26.248  1.00  0.00    -0.356 N 
ATOM      5  C   UNL A   1      31.592  25.852  25.967  1.00  0.00     0.227 C 
ATOM      6  O   UNL A   1      30.783  26.079  26.875  1.00  0.00    -0.274 OA
ATOM      7  H   UNL A   1      33.073  26.361  27.179  1.00  0.00     0.163 HD
BRANCH   5   8
ATOM      8  C   UNL A   1      31.096  25.318  24.614  1.00  0.00     0.105 C 
ATOM      9  C   UNL A   1      29.675  25.751  24.253  1.00  0.00     0.023 C 
BRANCH   8  10
ATOM     10  C   UNL A   1      31.436  23.854  24.385  1.00  0.00    -0.036 A 
ATOM     11  C   UNL A   1      32.221  21.153  23.853  1.00  0.00    -0.018 A 
ATOM     12  C   UNL A   1      31.917  21.592  25.152  1.00  0.00     0.009 A 
ATOM     13  C   UNL A   1      32.088  22.095  22.820  1.00  0.00     0.009 A 
ATOM     14  C   UNL A   1      31.508  22.908  25.410  1.00  0.00     0.005 A 
ATOM     15  C   UNL A   1      31.723  23.421  23.081  1.00  0.00     0.005 A 
BRANCH  11  16
ATOM     16  C   UNL A   1      32.671  19.765  23.589  1.00  0.00    -0.018 A 
ATOM     17  C   UNL A   1      34.089  17.835  24.158  1.00  0.00    -0.026 A 
ATOM     18  C   UNL A   1      33.538  17.119  23.093  1.00  0.00     0.008 A 
ATOM     19  C   UNL A   1      33.651  19.148  24.392  1.00  0.00     0.016 A 
ATOM     20  C   UNL A   1      32.558  17.699  22.288  1.00  0.00     0.001 A 
ATOM     21  C   UNL A   1      32.136  19.008  22.532  1.00  0.00     0.009 A 
BRANCH  17  22
ATOM     22  C   UNL A   1      35.156  17.214  24.953  1.00  0.00     0.000 C 
ATOM     23  C   UNL A   1      35.141  15.944  25.378  1.00  0.00     0.009 C 
ENDBRANCH  17  22
ENDBRANCH  11  16
ENDBRANCH   8  10
ENDBRANCH   5   8
ENDBRANCH   3   4
ENDBRANCH   2   3
ENDBRANCH   1   2
BRANCH   1  24
ATOM     24  C   UNL A   1      35.264  22.563  24.071  1.00  0.00     0.002 C 
BRANCH  24  25
ATOM     25  C   UNL A   1      36.081  21.831  25.143  1.00  0.00     0.021 C 
BRANCH  25  26
ATOM     26  C   UNL A   1      37.594  22.028  25.059  1.00  0.00     0.116 C 
BRANCH  26  27
ATOM     27  N   UNL A   1      38.321  20.999  25.783  1.00  0.00    -0.352 N 
ATOM     28  C   UNL A   1      39.493  21.066  26.491  1.00  0.00     0.251 C 
ATOM     29  H   UNL A   1      37.903  20.108  25.762  1.00  0.00     0.163 HD
ATOM     30  O   UNL A   1      40.037  20.027  26.858  1.00  0.00    -0.269 OA
BRANCH  28  31
ATOM     31  C   UNL A   1      40.125  22.366  26.812  1.00  0.00     0.039 A 
ATOM     32  C   UNL A   1      39.712  23.497  26.098  1.00  0.00     0.014 A 
ATOM     33  C   UNL A   1      41.158  22.475  27.747  1.00  0.00     0.014 A 
ATOM     34  C   UNL A   1      40.301  24.738  26.353  1.00  0.00     0.010 A 
ATOM     35  C   UNL A   1      41.706  23.724  28.042  1.00  0.00     0.010 A 
ATOM     36  C   UNL A   1      41.287  24.866  27.344  1.00  0.00    -0.014 A 
BRANCH  36  37
ATOM     37  C   UNL A   1      41.868  26.197  27.656  1.00  0.00     0.031 A 
ATOM     38  C   UNL A   1      43.247  26.565  27.183  1.00  0.00     0.074 A 
ATOM     39  C   UNL A   1      41.157  27.069  28.395  1.00  0.00     0.049 A 
ATOM     40  N   UNL A   1      43.905  27.687  27.345  1.00  0.00    -0.248 NA
ATOM     41  C   UNL A   1      43.994  25.532  26.450  1.00  0.00     0.031 C 
ATOM     42  C   UNL A   1      39.832  26.811  28.960  1.00  0.00     0.029 A 
ATOM     43  N   UNL A   1      41.446  28.349  28.797  1.00  0.00    -0.354 N 
ATOM     44  C   UNL A   1      45.140  27.492  26.743  1.00  0.00     0.074 A 
ATOM     45  C   UNL A   1      45.161  26.131  26.252  1.00  0.00     0.031 C 
ATOM     46  C   UNL A   1      39.411  27.906  29.612  1.00  0.00     0.029 A 
ATOM     47  C   UNL A   1      40.443  28.935  29.528  1.00  0.00     0.049 A 
ATOM     48  H   UNL A   1      42.294  28.803  28.582  1.00  0.00     0.167 HD
ATOM     49  C   UNL A   1      46.156  28.377  26.592  1.00  0.00     0.037 A 
ATOM     50  C   UNL A   1      40.360  30.168  30.063  1.00  0.00     0.037 A 
ATOM     51  C   UNL A   1      46.126  29.738  27.058  1.00  0.00     0.049 A 
ATOM     52  C   UNL A   1      41.492  31.137  29.862  1.00  0.00     0.074 A 
ATOM     53  C   UNL A   1      47.079  30.730  26.893  1.00  0.00     0.029 A 
ATOM     54  N   UNL A   1      45.086  30.301  27.782  1.00  0.00    -0.354 N 
ATOM     55  N   UNL A   1      42.623  30.966  29.222  1.00  0.00    -0.248 NA
ATOM     56  C   UNL A   1      41.329  32.474  30.447  1.00  0.00     0.031 C 
ATOM     57  C   UNL A   1      46.631  31.882  27.551  1.00  0.00     0.029 A 
ATOM     58  C   UNL A   1      45.383  31.621  28.090  1.00  0.00     0.049 A 
ATOM     59  H   UNL A   1      44.259  29.834  28.039  1.00  0.00     0.167 HD
ATOM     60  C   UNL A   1      43.298  32.174  29.313  1.00  0.00     0.074 A 
ATOM     61  C   UNL A   1      42.440  33.079  30.051  1.00  0.00     0.031 C 
ATOM     62  C   UNL A   1      44.522  32.505  28.832  1.00  0.00     0.037 A 
BRANCH  49  63
ATOM     63  C   UNL A   1      47.390  27.899  25.883  1.00  0.00     0.064 A 
ATOM     64  C   UNL A   1      48.516  27.453  26.593  1.00  0.00     0.173 A 
ATOM     65  C   UNL A   1      47.434  27.845  24.482  1.00  0.00     0.173 A 
ATOM     66  F   UNL A   1      48.527  27.493  27.933  1.00  0.00    -0.203 F 
ATOM     67  C   UNL A   1      49.649  26.996  25.925  1.00  0.00     0.198 A 
ATOM     68  C   UNL A   1      48.559  27.364  23.818  1.00  0.00     0.198 A 
ATOM     69  F   UNL A   1      46.382  28.254  23.756  1.00  0.00    -0.203 F 
ATOM     70  F   UNL A   1      50.727  26.615  26.623  1.00  0.00    -0.200 F 
ATOM     71  C   UNL A   1      49.667  26.945  24.540  1.00  0.00     0.200 A 
ATOM     72  F   UNL A   1      48.572  27.306  22.479  1.00  0.00    -0.200 F 
ATOM     73  F   UNL A   1      50.756  26.500  23.899  1.00  0.00    -0.200 F 
ENDBRANCH  49  63
BRANCH  50  74
ATOM     74  C   UNL A   1      39.139  30.568  30.806  1.00  0.00     0.064 A 
ATOM     75  C   UNL A   1      38.046  31.135  30.137  1.00  0.00     0.173 A 
ATOM     76  C   UNL A   1      39.036  30.388  32.192  1.00  0.00     0.173 A 
ATOM     77  F   UNL A   1      38.107  31.345  28.813  1.00  0.00    -0.203 F 
ATOM     78  C   UNL A   1      36.900  31.520  30.829  1.00  0.00     0.198 A 
ATOM     79  C   UNL A   1      37.881  30.751  32.880  1.00  0.00     0.198 A 
ATOM     80  F   UNL A   1      40.054  29.844  32.876  1.00  0.00    -0.203 F 
ATOM     81  F   UNL A   1      35.884  32.094  30.170  1.00  0.00    -0.200 F 
ATOM     82  C   UNL A   1      36.816  31.324  32.199  1.00  0.00     0.200 A 
ATOM     83  F   UNL A   1      37.798  30.548  34.202  1.00  0.00    -0.200 F 
ATOM     84  F   UNL A   1      35.713  31.689  32.864  1.00  0.00    -0.200 F 
ENDBRANCH  50  74
BRANCH  62  85
ATOM     85  C   UNL A   1      44.995  33.905  29.081  1.00  0.00     0.064 A 
ATOM     86  C   UNL A   1      44.700  34.946  28.187  1.00  0.00     0.173 A 
ATOM     87  C   UNL A   1      45.736  34.215  30.232  1.00  0.00     0.173 A 
ATOM     88  F   UNL A   1      44.010  34.696  27.064  1.00  0.00    -0.203 F 
ATOM     89  C   UNL A   1      45.154  36.241  28.424  1.00  0.00     0.198 A 
ATOM     90  C   UNL A   1      46.165  35.516  30.477  1.00  0.00     0.198 A 
ATOM     91  F   UNL A   1      46.040  33.255  31.118  1.00  0.00    -0.203 F 
ATOM     92  F   UNL A   1      44.902  37.210  27.532  1.00  0.00    -0.200 F 
ATOM     93  C   UNL A   1      45.881  36.526  29.570  1.00  0.00     0.200 A 
ATOM     94  F   UNL A   1      46.860  35.792  31.590  1.00  0.00    -0.200 F 
ATOM     95  F   UNL A   1      46.317  37.773  29.796  1.00  0.00    -0.200 F 
ENDBRANCH  62  85
ENDBRANCH  36  37
ENDBRANCH  28  31
ENDBRANCH  26  27
ENDBRANCH  25  26
ENDBRANCH  24  25
ENDBRANCH   1  24
TORSDOF 16
ENDMDL
