MODEL 1
REMARK VINA RESULT:     -12.5      0.000      0.000
REMARK SMILES CCc1ccc(S(=O)(=O)N2CCC3(CC2)NC(=O)C[C@H]3C(=O)NCCCCCCNC(=O)c2ccc(-c3c4nc(c(-c5c(F)c(F)c(F)c(F)c5F)c5ccc([nH]5)c(-c5c(F)c(F)c(F)c(F)c5F)c5nc(c(-c6c(F)c(F)c(F)c(F)c6F)c6ccc3[nH]6)C=C5)C=C4)cc2)s1
REMARK SMILES IDX 26 1 25 2 24 3 23 4 21 5 22 6 20 8 10 9 11 10 15 11 12 12
REMARK SMILES IDX 14 13 13 14 16 15 17 16 19 18 18 19 7 20 8 21 9 22 6 23 3 24
REMARK SMILES IDX 4 25 96 26 5 27 2 28 1 29 27 30 28 31 29 32 30 33 31 34
REMARK SMILES IDX 32 36 33 37 34 38 95 39 35 40 94 41 36 42 37 43 38 44 88 45
REMARK SMILES IDX 39 46 93 47 87 48 89 49 40 50 92 51 86 52 85 53 41 55 73 56
REMARK SMILES IDX 53 57 72 58 54 59 57 60 71 61 90 62 55 63 56 64 70 66 91 67
REMARK SMILES IDX 58 68 42 69 43 70 51 71 44 72 45 73 49 74 52 75 46 76 47 77
REMARK SMILES IDX 50 78 48 79 74 80 75 81 83 82 76 83 77 84 81 85 84 86 78 87
REMARK SMILES IDX 79 88 82 89 80 90 59 91 60 92 68 93 61 94 62 95 66 96 69 97
REMARK SMILES IDX 63 98 64 99 67 100 65 101
REMARK H PARENT 23 7 16 17 30 35 89 54 57 65
REMARK Flexibility Score: inf
ROOT
ATOM      1  C   UNL A   1      34.531  32.296  29.000  1.00  0.00     0.002 C 
ENDROOT
BRANCH   1   2
ATOM      2  C   UNL A   1      34.664  31.592  27.649  1.00  0.00     0.021 C 
BRANCH   2   3
ATOM      3  C   UNL A   1      34.960  30.092  27.737  1.00  0.00     0.116 C 
BRANCH   3   4
ATOM      4  N   UNL A   1      33.772  29.296  27.999  1.00  0.00    -0.356 N 
ATOM      5  C   UNL A   1      32.898  28.607  27.226  1.00  0.00     0.226 C 
ATOM      6  O   UNL A   1      31.951  28.081  27.823  1.00  0.00    -0.275 OA
ATOM      7  H   UNL A   1      33.552  29.248  28.958  1.00  0.00     0.163 HD
BRANCH   5   8
ATOM      8  C   UNL A   1      32.994  28.414  25.709  1.00  0.00     0.113 C 
ATOM      9  N   UNL A   1      33.254  24.424  24.543  1.00  0.00    -0.197 NA
ATOM     10  C   UNL A   1      33.864  25.411  23.661  1.00  0.00     0.105 C 
ATOM     11  C   UNL A   1      33.152  24.863  25.926  1.00  0.00     0.105 C 
ATOM     12  C   UNL A   1      33.182  26.778  23.742  1.00  0.00     0.046 C 
ATOM     13  C   UNL A   1      32.131  25.974  25.999  1.00  0.00     0.046 C 
ATOM     14  C   UNL A   1      32.380  27.156  25.039  1.00  0.00     0.055 C 
ATOM     15  N   UNL A   1      31.105  27.708  24.585  1.00  0.00    -0.350 N 
ATOM     16  C   UNL A   1      31.104  29.076  24.427  1.00  0.00     0.221 C 
ATOM     17  H   UNL A   1      30.314  27.151  24.408  1.00  0.00     0.164 HD
ATOM     18  C   UNL A   1      32.401  29.614  24.953  1.00  0.00     0.116 C 
ATOM     19  O   UNL A   1      30.183  29.717  23.956  1.00  0.00    -0.275 OA
BRANCH   9  20
ATOM     20  S   UNL A   1      32.371  23.097  23.981  1.00  0.00     0.252 S 
ATOM     21  O   UNL A   1      32.291  23.200  22.547  1.00  0.00    -0.206 OA
ATOM     22  O   UNL A   1      31.189  22.967  24.815  1.00  0.00    -0.206 OA
BRANCH  20  23
ATOM     23  C   UNL A   1      33.296  21.601  24.313  1.00  0.00     0.135 A 
ATOM     24  C   UNL A   1      33.874  19.189  24.517  1.00  0.00     0.006 A 
ATOM     25  C   UNL A   1      34.914  20.016  24.891  1.00  0.00     0.017 A 
ATOM     26  S   UNL A   1      32.514  20.105  24.005  1.00  0.00    -0.127 S 
ATOM     27  C   UNL A   1      34.542  21.384  24.860  1.00  0.00     0.034 A 
BRANCH  24  28
ATOM     28  C   UNL A   1      33.870  17.689  24.633  1.00  0.00     0.043 C 
ATOM     29  C   UNL A   1      34.190  16.921  23.365  1.00  0.00     0.010 C 
ENDBRANCH  24  28
ENDBRANCH  20  23
ENDBRANCH   9  20
ENDBRANCH   5   8
ENDBRANCH   3   4
ENDBRANCH   2   3
ENDBRANCH   1   2
BRANCH   1  30
ATOM     30  C   UNL A   1      34.634  33.821  28.940  1.00  0.00     0.002 C 
BRANCH  30  31
ATOM     31  C   UNL A   1      33.295  34.564  28.969  1.00  0.00     0.021 C 
BRANCH  31  32
ATOM     32  C   UNL A   1      33.370  35.999  29.484  1.00  0.00     0.116 C 
BRANCH  32  33
ATOM     33  N   UNL A   1      32.511  36.209  30.636  1.00  0.00    -0.352 N 
ATOM     34  C   UNL A   1      32.607  35.689  31.902  1.00  0.00     0.251 C 
ATOM     35  H   UNL A   1      31.749  36.814  30.488  1.00  0.00     0.163 HD
ATOM     36  O   UNL A   1      31.675  35.805  32.691  1.00  0.00    -0.269 OA
BRANCH  34  37
ATOM     37  C   UNL A   1      33.832  34.973  32.314  1.00  0.00     0.039 A 
ATOM     38  C   UNL A   1      33.725  33.656  32.767  1.00  0.00     0.014 A 
ATOM     39  C   UNL A   1      35.078  35.607  32.281  1.00  0.00     0.014 A 
ATOM     40  C   UNL A   1      34.874  32.957  33.141  1.00  0.00     0.010 A 
ATOM     41  C   UNL A   1      36.230  34.890  32.595  1.00  0.00     0.010 A 
ATOM     42  C   UNL A   1      36.136  33.560  33.035  1.00  0.00    -0.014 A 
BRANCH  42  43
ATOM     43  C   UNL A   1      37.372  32.821  33.392  1.00  0.00     0.031 A 
ATOM     44  C   UNL A   1      38.085  33.123  34.679  1.00  0.00     0.074 A 
ATOM     45  C   UNL A   1      37.883  31.920  32.531  1.00  0.00     0.049 A 
ATOM     46  N   UNL A   1      39.209  32.634  35.140  1.00  0.00    -0.248 NA
ATOM     47  C   UNL A   1      37.464  34.128  35.556  1.00  0.00     0.031 C 
ATOM     48  C   UNL A   1      37.302  31.567  31.235  1.00  0.00     0.029 A 
ATOM     49  N   UNL A   1      39.010  31.142  32.614  1.00  0.00    -0.354 N 
ATOM     50  C   UNL A   1      39.436  33.279  36.347  1.00  0.00     0.074 A 
ATOM     51  C   UNL A   1      38.361  34.233  36.526  1.00  0.00     0.031 C 
ATOM     52  C   UNL A   1      38.063  30.625  30.655  1.00  0.00     0.029 A 
ATOM     53  C   UNL A   1      39.202  30.334  31.521  1.00  0.00     0.049 A 
ATOM     54  H   UNL A   1      39.622  31.162  33.385  1.00  0.00     0.167 HD
ATOM     55  C   UNL A   1      40.436  33.080  37.239  1.00  0.00     0.037 A 
ATOM     56  C   UNL A   1      40.188  29.460  31.249  1.00  0.00     0.037 A 
ATOM     57  C   UNL A   1      41.489  32.113  37.070  1.00  0.00     0.049 A 
ATOM     58  C   UNL A   1      41.295  29.266  32.249  1.00  0.00     0.074 A 
ATOM     59  C   UNL A   1      42.519  31.796  37.939  1.00  0.00     0.029 A 
ATOM     60  N   UNL A   1      41.648  31.308  35.951  1.00  0.00    -0.354 N 
ATOM     61  N   UNL A   1      41.468  29.838  33.414  1.00  0.00    -0.248 NA
ATOM     62  C   UNL A   1      42.344  28.300  31.893  1.00  0.00     0.031 C 
ATOM     63  C   UNL A   1      43.321  30.826  37.330  1.00  0.00     0.029 A 
ATOM     64  C   UNL A   1      42.769  30.507  36.099  1.00  0.00     0.049 A 
ATOM     65  H   UNL A   1      41.051  31.305  35.169  1.00  0.00     0.167 HD
ATOM     66  C   UNL A   1      42.623  29.283  33.946  1.00  0.00     0.074 A 
ATOM     67  C   UNL A   1      43.106  28.320  32.979  1.00  0.00     0.031 C 
ATOM     68  C   UNL A   1      43.229  29.546  35.129  1.00  0.00     0.037 A 
BRANCH  55  69
ATOM     69  C   UNL A   1      40.434  33.925  38.479  1.00  0.00     0.064 A 
ATOM     70  C   UNL A   1      39.724  33.542  39.628  1.00  0.00     0.173 A 
ATOM     71  C   UNL A   1      41.165  35.121  38.529  1.00  0.00     0.173 A 
ATOM     72  F   UNL A   1      38.999  32.413  39.628  1.00  0.00    -0.203 F 
ATOM     73  C   UNL A   1      39.720  34.343  40.768  1.00  0.00     0.198 A 
ATOM     74  C   UNL A   1      41.182  35.903  39.680  1.00  0.00     0.198 A 
ATOM     75  F   UNL A   1      41.866  35.531  37.460  1.00  0.00    -0.203 F 
ATOM     76  F   UNL A   1      38.990  33.983  41.833  1.00  0.00    -0.200 F 
ATOM     77  C   UNL A   1      40.452  35.518  40.795  1.00  0.00     0.200 A 
ATOM     78  F   UNL A   1      41.901  37.035  39.709  1.00  0.00    -0.200 F 
ATOM     79  F   UNL A   1      40.449  36.287  41.894  1.00  0.00    -0.200 F 
ENDBRANCH  55  69
BRANCH  56  80
ATOM     80  C   UNL A   1      40.155  28.674  29.989  1.00  0.00     0.064 A 
ATOM     81  C   UNL A   1      39.530  27.420  29.945  1.00  0.00     0.173 A 
ATOM     82  C   UNL A   1      40.740  29.153  28.809  1.00  0.00     0.173 A 
ATOM     83  F   UNL A   1      38.975  26.911  31.055  1.00  0.00    -0.203 F 
ATOM     84  C   UNL A   1      39.506  26.668  28.774  1.00  0.00     0.198 A 
ATOM     85  C   UNL A   1      40.695  28.411  27.630  1.00  0.00     0.198 A 
ATOM     86  F   UNL A   1      41.348  30.350  28.798  1.00  0.00    -0.203 F 
ATOM     87  F   UNL A   1      38.938  25.454  28.770  1.00  0.00    -0.200 F 
ATOM     88  C   UNL A   1      40.083  27.167  27.615  1.00  0.00     0.200 A 
ATOM     89  F   UNL A   1      41.243  28.902  26.511  1.00  0.00    -0.200 F 
ATOM     90  F   UNL A   1      40.058  26.445  26.487  1.00  0.00    -0.200 F 
ENDBRANCH  56  80
BRANCH  68  91
ATOM     91  C   UNL A   1      44.461  28.755  35.460  1.00  0.00     0.064 A 
ATOM     92  C   UNL A   1      45.741  29.210  35.114  1.00  0.00     0.173 A 
ATOM     93  C   UNL A   1      44.358  27.546  36.163  1.00  0.00     0.173 A 
ATOM     94  F   UNL A   1      45.889  30.353  34.427  1.00  0.00    -0.203 F 
ATOM     95  C   UNL A   1      46.874  28.470  35.440  1.00  0.00     0.198 A 
ATOM     96  C   UNL A   1      45.496  26.822  36.510  1.00  0.00     0.198 A 
ATOM     97  F   UNL A   1      43.156  27.070  36.521  1.00  0.00    -0.203 F 
ATOM     98  F   UNL A   1      48.085  28.900  35.059  1.00  0.00    -0.200 F 
ATOM     99  C   UNL A   1      46.751  27.281  36.143  1.00  0.00     0.200 A 
ATOM    100  F   UNL A   1      45.375  25.679  37.201  1.00  0.00    -0.200 F 
ATOM    101  F   UNL A   1      47.844  26.573  36.460  1.00  0.00    -0.200 F 
ENDBRANCH  68  91
ENDBRANCH  42  43
ENDBRANCH  34  37
ENDBRANCH  32  33
ENDBRANCH  31  32
ENDBRANCH  30  31
ENDBRANCH   1  30
TORSDOF 16
ENDMDL
MODEL 2
REMARK VINA RESULT:     -12.4      1.670      7.411
REMARK SMILES CCc1ccc(S(=O)(=O)N2CCC3(CC2)NC(=O)C[C@H]3C(=O)NCCCCCCNC(=O)c2ccc(-c3c4nc(c(-c5c(F)c(F)c(F)c(F)c5F)c5ccc([nH]5)c(-c5c(F)c(F)c(F)c(F)c5F)c5nc(c(-c6c(F)c(F)c(F)c(F)c6F)c6ccc3[nH]6)C=C5)C=C4)cc2)s1
REMARK SMILES IDX 26 1 25 2 24 3 23 4 21 5 22 6 20 8 10 9 11 10 15 11 12 12
REMARK SMILES IDX 14 13 13 14 16 15 17 16 19 18 18 19 7 20 8 21 9 22 6 23 3 24
REMARK SMILES IDX 4 25 96 26 5 27 2 28 1 29 27 30 28 31 29 32 30 33 31 34
REMARK SMILES IDX 32 36 33 37 34 38 95 39 35 40 94 41 36 42 37 43 38 44 88 45
REMARK SMILES IDX 39 46 93 47 87 48 89 49 40 50 92 51 86 52 85 53 41 55 73 56
REMARK SMILES IDX 53 57 72 58 54 59 57 60 71 61 90 62 55 63 56 64 70 66 91 67
REMARK SMILES IDX 58 68 42 69 43 70 51 71 44 72 45 73 49 74 52 75 46 76 47 77
REMARK SMILES IDX 50 78 48 79 74 80 75 81 83 82 76 83 77 84 81 85 84 86 78 87
REMARK SMILES IDX 79 88 82 89 80 90 59 91 60 92 68 93 61 94 62 95 66 96 69 97
REMARK SMILES IDX 63 98 64 99 67 100 65 101
REMARK H PARENT 23 7 16 17 30 35 89 54 57 65
REMARK Flexibility Score: inf
ROOT
ATOM      1  C   UNL A   1      32.368  30.316  27.120  1.00  0.00     0.002 C 
ENDROOT
BRANCH   1   2
ATOM      2  C   UNL A   1      32.928  29.235  26.195  1.00  0.00     0.021 C 
BRANCH   2   3
ATOM      3  C   UNL A   1      33.151  29.684  24.748  1.00  0.00     0.116 C 
BRANCH   3   4
ATOM      4  N   UNL A   1      32.174  29.129  23.827  1.00  0.00    -0.356 N 
ATOM      5  C   UNL A   1      32.097  27.992  23.092  1.00  0.00     0.226 C 
ATOM      6  O   UNL A   1      31.103  27.890  22.363  1.00  0.00    -0.275 OA
ATOM      7  H   UNL A   1      31.389  29.712  23.707  1.00  0.00     0.163 HD
BRANCH   5   8
ATOM      8  C   UNL A   1      33.107  26.840  23.105  1.00  0.00     0.113 C 
ATOM      9  N   UNL A   1      32.680  24.276  26.359  1.00  0.00    -0.197 NA
ATOM     10  C   UNL A   1      34.012  24.389  25.779  1.00  0.00     0.105 C 
ATOM     11  C   UNL A   1      31.840  25.439  26.124  1.00  0.00     0.105 C 
ATOM     12  C   UNL A   1      33.980  24.739  24.289  1.00  0.00     0.046 C 
ATOM     13  C   UNL A   1      31.502  25.495  24.653  1.00  0.00     0.046 C 
ATOM     14  C   UNL A   1      32.715  25.461  23.701  1.00  0.00     0.055 C 
ATOM     15  N   UNL A   1      32.369  24.745  22.474  1.00  0.00    -0.350 N 
ATOM     16  C   UNL A   1      32.946  25.260  21.335  1.00  0.00     0.221 C 
ATOM     17  H   UNL A   1      31.773  23.962  22.463  1.00  0.00     0.164 HD
ATOM     18  C   UNL A   1      33.635  26.543  21.692  1.00  0.00     0.116 C 
ATOM     19  O   UNL A   1      32.875  24.749  20.233  1.00  0.00    -0.275 OA
BRANCH   9  20
ATOM     20  S   UNL A   1      32.015  22.809  26.874  1.00  0.00     0.252 S 
ATOM     21  O   UNL A   1      30.582  22.953  26.869  1.00  0.00    -0.206 OA
ATOM     22  O   UNL A   1      32.747  22.381  28.054  1.00  0.00    -0.206 OA
BRANCH  20  23
ATOM     23  C   UNL A   1      32.384  21.547  25.660  1.00  0.00     0.135 A 
ATOM     24  C   UNL A   1      33.323  19.495  24.611  1.00  0.00     0.006 A 
ATOM     25  C   UNL A   1      32.531  20.219  23.742  1.00  0.00     0.017 A 
ATOM     26  S   UNL A   1      33.382  20.242  26.155  1.00  0.00    -0.127 S 
ATOM     27  C   UNL A   1      32.080  21.432  24.321  1.00  0.00     0.034 A 
BRANCH  24  28
ATOM     28  C   UNL A   1      34.120  18.272  24.248  1.00  0.00     0.043 C 
ATOM     29  C   UNL A   1      33.399  17.228  23.416  1.00  0.00     0.010 C 
ENDBRANCH  24  28
ENDBRANCH  20  23
ENDBRANCH   9  20
ENDBRANCH   5   8
ENDBRANCH   3   4
ENDBRANCH   2   3
ENDBRANCH   1   2
BRANCH   1  30
ATOM     30  C   UNL A   1      31.203  31.117  26.537  1.00  0.00     0.002 C 
BRANCH  30  31
ATOM     31  C   UNL A   1      31.388  32.637  26.551  1.00  0.00     0.021 C 
BRANCH  31  32
ATOM     32  C   UNL A   1      32.588  33.128  27.356  1.00  0.00     0.116 C 
BRANCH  32  33
ATOM     33  N   UNL A   1      32.432  34.510  27.777  1.00  0.00    -0.352 N 
ATOM     34  C   UNL A   1      33.051  35.186  28.797  1.00  0.00     0.251 C 
ATOM     35  H   UNL A   1      31.788  35.039  27.253  1.00  0.00     0.163 HD
ATOM     36  O   UNL A   1      32.643  36.289  29.145  1.00  0.00    -0.269 OA
BRANCH  34  37
ATOM     37  C   UNL A   1      34.207  34.579  29.490  1.00  0.00     0.039 A 
ATOM     38  C   UNL A   1      34.006  33.968  30.729  1.00  0.00     0.014 A 
ATOM     39  C   UNL A   1      35.487  34.637  28.932  1.00  0.00     0.014 A 
ATOM     40  C   UNL A   1      35.082  33.371  31.389  1.00  0.00     0.010 A 
ATOM     41  C   UNL A   1      36.547  33.988  29.560  1.00  0.00     0.010 A 
ATOM     42  C   UNL A   1      36.354  33.355  30.798  1.00  0.00    -0.014 A 
BRANCH  42  43
ATOM     43  C   UNL A   1      37.502  32.693  31.466  1.00  0.00     0.031 A 
ATOM     44  C   UNL A   1      38.214  31.555  30.790  1.00  0.00     0.074 A 
ATOM     45  C   UNL A   1      37.865  33.077  32.704  1.00  0.00     0.049 A 
ATOM     46  N   UNL A   1      39.193  30.808  31.234  1.00  0.00    -0.248 NA
ATOM     47  C   UNL A   1      37.745  31.193  29.443  1.00  0.00     0.031 C 
ATOM     48  C   UNL A   1      37.228  34.144  33.478  1.00  0.00     0.029 A 
ATOM     49  N   UNL A   1      38.854  32.610  33.532  1.00  0.00    -0.354 N 
ATOM     50  C   UNL A   1      39.447  29.883  30.231  1.00  0.00     0.074 A 
ATOM     51  C   UNL A   1      38.486  30.127  29.176  1.00  0.00     0.031 C 
ATOM     52  C   UNL A   1      37.858  34.266  34.657  1.00  0.00     0.029 A 
ATOM     53  C   UNL A   1      38.918  33.265  34.737  1.00  0.00     0.049 A 
ATOM     54  H   UNL A   1      39.461  31.875  33.285  1.00  0.00     0.167 HD
ATOM     55  C   UNL A   1      40.409  28.930  30.183  1.00  0.00     0.037 A 
ATOM     56  C   UNL A   1      39.738  33.076  35.787  1.00  0.00     0.037 A 
ATOM     57  C   UNL A   1      41.379  28.706  31.224  1.00  0.00     0.049 A 
ATOM     58  C   UNL A   1      40.789  32.003  35.715  1.00  0.00     0.074 A 
ATOM     59  C   UNL A   1      42.427  27.803  31.248  1.00  0.00     0.029 A 
ATOM     60  N   UNL A   1      41.416  29.394  32.428  1.00  0.00    -0.354 N 
ATOM     61  N   UNL A   1      41.059  31.173  34.738  1.00  0.00    -0.248 NA
ATOM     62  C   UNL A   1      41.652  31.843  36.894  1.00  0.00     0.031 C 
ATOM     63  C   UNL A   1      43.075  27.919  32.482  1.00  0.00     0.029 A 
ATOM     64  C   UNL A   1      42.457  28.923  33.210  1.00  0.00     0.049 A 
ATOM     65  H   UNL A   1      40.794  30.112  32.687  1.00  0.00     0.167 HD
ATOM     66  C   UNL A   1      42.139  30.415  35.167  1.00  0.00     0.074 A 
ATOM     67  C   UNL A   1      42.482  30.890  36.492  1.00  0.00     0.031 C 
ATOM     68  C   UNL A   1      42.790  29.415  34.523  1.00  0.00     0.037 A 
BRANCH  55  69
ATOM     69  C   UNL A   1      40.459  28.060  28.961  1.00  0.00     0.064 A 
ATOM     70  C   UNL A   1      39.738  26.858  28.886  1.00  0.00     0.173 A 
ATOM     71  C   UNL A   1      41.218  28.440  27.845  1.00  0.00     0.173 A 
ATOM     72  F   UNL A   1      39.006  26.443  29.931  1.00  0.00    -0.203 F 
ATOM     73  C   UNL A   1      39.804  26.053  27.751  1.00  0.00     0.198 A 
ATOM     74  C   UNL A   1      41.258  27.648  26.701  1.00  0.00     0.198 A 
ATOM     75  F   UNL A   1      41.922  29.583  27.862  1.00  0.00    -0.203 F 
ATOM     76  F   UNL A   1      39.150  24.883  27.723  1.00  0.00    -0.200 F 
ATOM     77  C   UNL A   1      40.558  26.451  26.659  1.00  0.00     0.200 A 
ATOM     78  F   UNL A   1      41.979  28.039  25.641  1.00  0.00    -0.200 F 
ATOM     79  F   UNL A   1      40.619  25.676  25.566  1.00  0.00    -0.200 F 
ENDBRANCH  55  69
BRANCH  56  80
ATOM     80  C   UNL A   1      39.621  33.947  36.985  1.00  0.00     0.064 A 
ATOM     81  C   UNL A   1      38.859  33.544  38.090  1.00  0.00     0.173 A 
ATOM     82  C   UNL A   1      40.263  35.192  37.053  1.00  0.00     0.173 A 
ATOM     83  F   UNL A   1      38.211  32.370  38.062  1.00  0.00    -0.203 F 
ATOM     84  C   UNL A   1      38.730  34.359  39.211  1.00  0.00     0.198 A 
ATOM     85  C   UNL A   1      40.153  35.996  38.185  1.00  0.00     0.198 A 
ATOM     86  F   UNL A   1      41.007  35.622  36.022  1.00  0.00    -0.203 F 
ATOM     87  F   UNL A   1      37.963  33.967  40.238  1.00  0.00    -0.200 F 
ATOM     88  C   UNL A   1      39.382  35.582  39.260  1.00  0.00     0.200 A 
ATOM     89  F   UNL A   1      40.794  37.172  38.234  1.00  0.00    -0.200 F 
ATOM     90  F   UNL A   1      39.261  36.366  40.342  1.00  0.00    -0.200 F 
ENDBRANCH  56  80
BRANCH  68  91
ATOM     91  C   UNL A   1      43.961  28.794  35.227  1.00  0.00     0.064 A 
ATOM     92  C   UNL A   1      43.807  27.684  36.069  1.00  0.00     0.173 A 
ATOM     93  C   UNL A   1      45.255  29.295  35.025  1.00  0.00     0.173 A 
ATOM     94  F   UNL A   1      42.586  27.179  36.305  1.00  0.00    -0.203 F 
ATOM     95  C   UNL A   1      44.906  27.112  36.703  1.00  0.00     0.198 A 
ATOM     96  C   UNL A   1      46.355  28.703  35.640  1.00  0.00     0.198 A 
ATOM     97  F   UNL A   1      45.455  30.352  34.224  1.00  0.00    -0.203 F 
ATOM     98  F   UNL A   1      44.731  26.079  37.540  1.00  0.00    -0.200 F 
ATOM     99  C   UNL A   1      46.179  27.617  36.484  1.00  0.00     0.200 A 
ATOM    100  F   UNL A   1      47.586  29.185  35.416  1.00  0.00    -0.200 F 
ATOM    101  F   UNL A   1      47.236  27.061  37.091  1.00  0.00    -0.200 F 
ENDBRANCH  68  91
ENDBRANCH  42  43
ENDBRANCH  34  37
ENDBRANCH  32  33
ENDBRANCH  31  32
ENDBRANCH  30  31
ENDBRANCH   1  30
TORSDOF 16
ENDMDL
MODEL 3
REMARK VINA RESULT:     -12.3      1.689      7.501
REMARK SMILES CCc1ccc(S(=O)(=O)N2CCC3(CC2)NC(=O)C[C@H]3C(=O)NCCCCCCNC(=O)c2ccc(-c3c4nc(c(-c5c(F)c(F)c(F)c(F)c5F)c5ccc([nH]5)c(-c5c(F)c(F)c(F)c(F)c5F)c5nc(c(-c6c(F)c(F)c(F)c(F)c6F)c6ccc3[nH]6)C=C5)C=C4)cc2)s1
REMARK SMILES IDX 26 1 25 2 24 3 23 4 21 5 22 6 20 8 10 9 11 10 15 11 12 12
REMARK SMILES IDX 14 13 13 14 16 15 17 16 19 18 18 19 7 20 8 21 9 22 6 23 3 24
REMARK SMILES IDX 4 25 96 26 5 27 2 28 1 29 27 30 28 31 29 32 30 33 31 34
REMARK SMILES IDX 32 36 33 37 34 38 95 39 35 40 94 41 36 42 37 43 38 44 88 45
REMARK SMILES IDX 39 46 93 47 87 48 89 49 40 50 92 51 86 52 85 53 41 55 73 56
REMARK SMILES IDX 53 57 72 58 54 59 57 60 71 61 90 62 55 63 56 64 70 66 91 67
REMARK SMILES IDX 58 68 42 69 43 70 51 71 44 72 45 73 49 74 52 75 46 76 47 77
REMARK SMILES IDX 50 78 48 79 74 80 75 81 83 82 76 83 77 84 81 85 84 86 78 87
REMARK SMILES IDX 79 88 82 89 80 90 59 91 60 92 68 93 61 94 62 95 66 96 69 97
REMARK SMILES IDX 63 98 64 99 67 100 65 101
REMARK H PARENT 23 7 16 17 30 35 89 54 57 65
REMARK Flexibility Score: inf
ROOT
ATOM      1  C   UNL A   1      31.927  30.564  27.076  1.00  0.00     0.002 C 
ENDROOT
BRANCH   1   2
ATOM      2  C   UNL A   1      32.296  29.345  26.230  1.00  0.00     0.021 C 
BRANCH   2   3
ATOM      3  C   UNL A   1      32.738  29.669  24.800  1.00  0.00     0.116 C 
BRANCH   3   4
ATOM      4  N   UNL A   1      31.873  29.076  23.794  1.00  0.00    -0.356 N 
ATOM      5  C   UNL A   1      31.927  27.954  23.034  1.00  0.00     0.226 C 
ATOM      6  O   UNL A   1      31.002  27.807  22.226  1.00  0.00    -0.275 OA
ATOM      7  H   UNL A   1      31.064  29.611  23.624  1.00  0.00     0.163 HD
BRANCH   5   8
ATOM      8  C   UNL A   1      33.006  26.868  23.104  1.00  0.00     0.113 C 
ATOM      9  N   UNL A   1      32.681  24.401  26.444  1.00  0.00    -0.197 NA
ATOM     10  C   UNL A   1      34.013  24.576  25.880  1.00  0.00     0.105 C 
ATOM     11  C   UNL A   1      31.775  25.501  26.153  1.00  0.00     0.105 C 
ATOM     12  C   UNL A   1      33.986  24.869  24.378  1.00  0.00     0.046 C 
ATOM     13  C   UNL A   1      31.460  25.483  24.676  1.00  0.00     0.046 C 
ATOM     14  C   UNL A   1      32.689  25.490  23.744  1.00  0.00     0.055 C 
ATOM     15  N   UNL A   1      32.409  24.711  22.540  1.00  0.00    -0.350 N 
ATOM     16  C   UNL A   1      32.973  25.219  21.392  1.00  0.00     0.221 C 
ATOM     17  H   UNL A   1      31.863  23.892  22.548  1.00  0.00     0.164 HD
ATOM     18  C   UNL A   1      33.575  26.554  21.712  1.00  0.00     0.116 C 
ATOM     19  O   UNL A   1      32.953  24.666  20.308  1.00  0.00    -0.275 OA
BRANCH   9  20
ATOM     20  S   UNL A   1      32.098  22.915  27.002  1.00  0.00     0.252 S 
ATOM     21  O   UNL A   1      30.668  23.025  27.128  1.00  0.00    -0.206 OA
ATOM     22  O   UNL A   1      32.943  22.496  28.107  1.00  0.00    -0.206 OA
BRANCH  20  23
ATOM     23  C   UNL A   1      32.384  21.671  25.747  1.00  0.00     0.135 A 
ATOM     24  C   UNL A   1      33.224  19.619  24.618  1.00  0.00     0.006 A 
ATOM     25  C   UNL A   1      32.421  20.383  23.797  1.00  0.00     0.017 A 
ATOM     26  S   UNL A   1      33.364  20.329  26.175  1.00  0.00    -0.127 S 
ATOM     27  C   UNL A   1      32.026  21.595  24.419  1.00  0.00     0.034 A 
BRANCH  24  28
ATOM     28  C   UNL A   1      33.972  18.383  24.198  1.00  0.00     0.043 C 
ATOM     29  C   UNL A   1      33.229  17.435  23.276  1.00  0.00     0.010 C 
ENDBRANCH  24  28
ENDBRANCH  20  23
ENDBRANCH   9  20
ENDBRANCH   5   8
ENDBRANCH   3   4
ENDBRANCH   2   3
ENDBRANCH   1   2
BRANCH   1  30
ATOM     30  C   UNL A   1      31.004  31.568  26.384  1.00  0.00     0.002 C 
BRANCH  30  31
ATOM     31  C   UNL A   1      31.478  33.023  26.428  1.00  0.00     0.021 C 
BRANCH  31  32
ATOM     32  C   UNL A   1      32.564  33.312  27.461  1.00  0.00     0.116 C 
BRANCH  32  33
ATOM     33  N   UNL A   1      32.530  34.691  27.914  1.00  0.00    -0.352 N 
ATOM     34  C   UNL A   1      33.229  35.292  28.930  1.00  0.00     0.251 C 
ATOM     35  H   UNL A   1      31.917  35.282  27.420  1.00  0.00     0.163 HD
ATOM     36  O   UNL A   1      32.921  36.416  29.312  1.00  0.00    -0.269 OA
BRANCH  34  37
ATOM     37  C   UNL A   1      34.351  34.580  29.577  1.00  0.00     0.039 A 
ATOM     38  C   UNL A   1      35.614  34.630  28.983  1.00  0.00     0.014 A 
ATOM     39  C   UNL A   1      34.151  33.843  30.748  1.00  0.00     0.014 A 
ATOM     40  C   UNL A   1      36.691  33.980  29.590  1.00  0.00     0.010 A 
ATOM     41  C   UNL A   1      35.237  33.248  31.386  1.00  0.00     0.010 A 
ATOM     42  C   UNL A   1      36.515  33.306  30.808  1.00  0.00    -0.014 A 
BRANCH  42  43
ATOM     43  C   UNL A   1      37.654  32.642  31.488  1.00  0.00     0.031 A 
ATOM     44  C   UNL A   1      38.342  31.474  30.840  1.00  0.00     0.074 A 
ATOM     45  C   UNL A   1      38.030  33.053  32.714  1.00  0.00     0.049 A 
ATOM     46  N   UNL A   1      39.310  30.722  31.299  1.00  0.00    -0.248 NA
ATOM     47  C   UNL A   1      37.860  31.084  29.505  1.00  0.00     0.031 C 
ATOM     48  C   UNL A   1      37.416  34.151  33.462  1.00  0.00     0.029 A 
ATOM     49  N   UNL A   1      39.016  32.590  33.549  1.00  0.00    -0.354 N 
ATOM     50  C   UNL A   1      39.542  29.766  30.320  1.00  0.00     0.074 A 
ATOM     51  C   UNL A   1      38.580  29.999  29.264  1.00  0.00     0.031 C 
ATOM     52  C   UNL A   1      38.054  34.293  34.635  1.00  0.00     0.029 A 
ATOM     53  C   UNL A   1      39.097  33.276  34.736  1.00  0.00     0.049 A 
ATOM     54  H   UNL A   1      39.608  31.838  33.319  1.00  0.00     0.167 HD
ATOM     55  C   UNL A   1      40.487  28.795  30.293  1.00  0.00     0.037 A 
ATOM     56  C   UNL A   1      39.920  33.100  35.787  1.00  0.00     0.037 A 
ATOM     57  C   UNL A   1      41.457  28.581  31.334  1.00  0.00     0.049 A 
ATOM     58  C   UNL A   1      40.951  32.006  35.738  1.00  0.00     0.074 A 
ATOM     59  C   UNL A   1      42.490  27.661  31.377  1.00  0.00     0.029 A 
ATOM     60  N   UNL A   1      41.513  29.300  32.519  1.00  0.00    -0.354 N 
ATOM     61  N   UNL A   1      41.201  31.146  34.782  1.00  0.00    -0.248 NA
ATOM     62  C   UNL A   1      41.817  31.863  36.917  1.00  0.00     0.031 C 
ATOM     63  C   UNL A   1      43.146  27.797  32.605  1.00  0.00     0.029 A 
ATOM     64  C   UNL A   1      42.551  28.831  33.309  1.00  0.00     0.049 A 
ATOM     65  H   UNL A   1      40.906  30.035  32.762  1.00  0.00     0.167 HD
ATOM     66  C   UNL A   1      42.269  30.380  35.227  1.00  0.00     0.074 A 
ATOM     67  C   UNL A   1      42.627  30.885  36.536  1.00  0.00     0.031 C 
ATOM     68  C   UNL A   1      42.898  29.353  34.606  1.00  0.00     0.037 A 
BRANCH  55  69
ATOM     69  C   UNL A   1      40.514  27.892  29.094  1.00  0.00     0.064 A 
ATOM     70  C   UNL A   1      41.347  28.155  27.995  1.00  0.00     0.173 A 
ATOM     71  C   UNL A   1      39.714  26.740  29.050  1.00  0.00     0.173 A 
ATOM     72  F   UNL A   1      42.121  29.250  27.982  1.00  0.00    -0.203 F 
ATOM     73  C   UNL A   1      41.352  27.316  26.883  1.00  0.00     0.198 A 
ATOM     74  C   UNL A   1      39.745  25.888  27.950  1.00  0.00     0.198 A 
ATOM     75  F   UNL A   1      38.904  26.439  30.077  1.00  0.00    -0.203 F 
ATOM     76  F   UNL A   1      42.115  27.617  25.823  1.00  0.00    -0.200 F 
ATOM     77  C   UNL A   1      40.556  26.181  26.864  1.00  0.00     0.200 A 
ATOM     78  F   UNL A   1      38.983  24.785  27.937  1.00  0.00    -0.200 F 
ATOM     79  F   UNL A   1      40.564  25.374  25.793  1.00  0.00    -0.200 F 
ENDBRANCH  55  69
BRANCH  56  80
ATOM     80  C   UNL A   1      39.825  34.005  36.961  1.00  0.00     0.064 A 
ATOM     81  C   UNL A   1      40.570  35.191  37.011  1.00  0.00     0.173 A 
ATOM     82  C   UNL A   1      38.994  33.709  38.050  1.00  0.00     0.173 A 
ATOM     83  F   UNL A   1      41.394  35.505  36.001  1.00  0.00    -0.203 F 
ATOM     84  C   UNL A   1      40.501  36.039  38.113  1.00  0.00     0.198 A 
ATOM     85  C   UNL A   1      38.906  34.570  39.143  1.00  0.00     0.198 A 
ATOM     86  F   UNL A   1      38.258  32.587  38.049  1.00  0.00    -0.203 F 
ATOM     87  F   UNL A   1      41.254  37.146  38.154  1.00  0.00    -0.200 F 
ATOM     88  C   UNL A   1      39.664  35.730  39.176  1.00  0.00     0.200 A 
ATOM     89  F   UNL A   1      38.088  34.275  40.162  1.00  0.00    -0.200 F 
ATOM     90  F   UNL A   1      39.595  36.548  40.236  1.00  0.00    -0.200 F 
ENDBRANCH  56  80
BRANCH  68  91
ATOM     91  C   UNL A   1      44.062  28.729  35.321  1.00  0.00     0.064 A 
ATOM     92  C   UNL A   1      45.367  29.215  35.163  1.00  0.00     0.173 A 
ATOM     93  C   UNL A   1      43.859  27.657  36.202  1.00  0.00     0.173 A 
ATOM     94  F   UNL A   1      45.613  30.230  34.319  1.00  0.00    -0.203 F 
ATOM     95  C   UNL A   1      46.433  28.634  35.844  1.00  0.00     0.198 A 
ATOM     96  C   UNL A   1      44.924  27.095  36.901  1.00  0.00     0.198 A 
ATOM     97  F   UNL A   1      42.629  27.159  36.391  1.00  0.00    -0.203 F 
ATOM     98  F   UNL A   1      47.679  29.084  35.643  1.00  0.00    -0.200 F 
ATOM     99  C   UNL A   1      46.210  27.579  36.716  1.00  0.00     0.200 A 
ATOM    100  F   UNL A   1      44.705  26.084  37.754  1.00  0.00    -0.200 F 
ATOM    101  F   UNL A   1      47.237  27.025  37.375  1.00  0.00    -0.200 F 
ENDBRANCH  68  91
ENDBRANCH  42  43
ENDBRANCH  34  37
ENDBRANCH  32  33
ENDBRANCH  31  32
ENDBRANCH  30  31
ENDBRANCH   1  30
TORSDOF 16
ENDMDL
