MODEL 1
REMARK VINA RESULT:      -9.6      0.000      0.000
REMARK SMILES CC(=O)c1cccc(-c2ccc(C(=O)NCCCCCCNC(=O)c3ccc(-c4c5nc(c(-c6c(F)c(F)c(F)c(F)c6F)c6ccc([nH]6)c(-c6c(F)c(F)c(F)c(F)c6F)c6nc(c(-c7c(F)c(F)c(F)c(F)c7F)c7ccc4[nH]7)C=C6)C=C5)cc3)cc2F)c1
REMARK SMILES IDX 18 1 17 2 16 3 15 4 13 5 14 6 12 8 9 9 10 10 89 11 11 12
REMARK SMILES IDX 88 13 90 14 8 15 4 16 5 17 91 18 6 19 7 20 2 21 1 22 3 23
REMARK SMILES IDX 19 24 20 25 21 26 22 27 23 28 24 30 25 31 26 32 87 33 27 34
REMARK SMILES IDX 86 35 28 36 29 37 30 38 80 39 31 40 85 41 79 42 81 43 32 44
REMARK SMILES IDX 84 45 78 46 77 47 33 49 65 50 45 51 64 52 46 53 49 54 63 55
REMARK SMILES IDX 82 56 47 57 48 58 62 60 83 61 50 62 34 63 35 64 43 65 36 66
REMARK SMILES IDX 37 67 41 68 44 69 38 70 39 71 42 72 40 73 66 74 67 75 75 76
REMARK SMILES IDX 68 77 69 78 73 79 76 80 70 81 71 82 74 83 72 84 51 85 52 86
REMARK SMILES IDX 60 87 53 88 54 89 58 90 61 91 55 92 56 93 59 94 57 95
REMARK H PARENT 15 7 22 29 81 48 49 59
REMARK Flexibility Score: inf
ROOT
ATOM      1  C   UNL A   1      37.593  33.058  30.268  1.00  0.00     0.002 C 
ENDROOT
BRANCH   1   2
ATOM      2  C   UNL A   1      38.130  34.230  31.099  1.00  0.00     0.021 C 
BRANCH   2   3
ATOM      3  C   UNL A   1      38.905  33.785  32.341  1.00  0.00     0.116 C 
BRANCH   3   4
ATOM      4  N   UNL A   1      37.983  33.444  33.408  1.00  0.00    -0.352 N 
ATOM      5  C   UNL A   1      37.866  32.340  34.211  1.00  0.00     0.251 C 
ATOM      6  O   UNL A   1      36.966  32.328  35.051  1.00  0.00    -0.269 OA
ATOM      7  H   UNL A   1      37.310  34.139  33.589  1.00  0.00     0.163 HD
BRANCH   5   8
ATOM      8  C   UNL A   1      38.813  31.195  34.158  1.00  0.00     0.042 A 
ATOM      9  C   UNL A   1      40.774  29.157  34.115  1.00  0.00     0.018 A 
ATOM     10  C   UNL A   1      40.842  30.183  35.065  1.00  0.00     0.012 A 
ATOM     11  C   UNL A   1      39.682  29.145  33.238  1.00  0.00     0.131 A 
ATOM     12  C   UNL A   1      39.873  31.194  35.079  1.00  0.00     0.014 A 
ATOM     13  C   UNL A   1      38.693  30.125  33.276  1.00  0.00     0.053 A 
ATOM     14  F   UNL A   1      39.568  28.171  32.322  1.00  0.00    -0.206 F 
BRANCH   9  15
ATOM     15  C   UNL A   1      41.800  28.114  34.037  1.00  0.00    -0.015 A 
ATOM     16  C   UNL A   1      42.667  25.953  34.751  1.00  0.00     0.018 A 
ATOM     17  C   UNL A   1      43.863  26.209  34.071  1.00  0.00     0.012 A 
ATOM     18  C   UNL A   1      41.638  26.902  34.731  1.00  0.00     0.020 A 
ATOM     19  C   UNL A   1      44.018  27.391  33.350  1.00  0.00     0.001 A 
ATOM     20  C   UNL A   1      42.991  28.336  33.330  1.00  0.00     0.009 A 
BRANCH  16  21
ATOM     21  C   UNL A   1      42.543  24.680  35.507  1.00  0.00     0.159 C 
ATOM     22  C   UNL A   1      42.656  23.380  34.754  1.00  0.00     0.093 C 
ATOM     23  O   UNL A   1      42.392  24.709  36.726  1.00  0.00    -0.295 OA
ENDBRANCH  16  21
ENDBRANCH   9  15
ENDBRANCH   5   8
ENDBRANCH   3   4
ENDBRANCH   2   3
ENDBRANCH   1   2
BRANCH   1  24
ATOM     24  C   UNL A   1      37.265  33.402  28.809  1.00  0.00     0.002 C 
BRANCH  24  25
ATOM     25  C   UNL A   1      35.775  33.378  28.461  1.00  0.00     0.021 C 
BRANCH  25  26
ATOM     26  C   UNL A   1      34.930  32.504  29.383  1.00  0.00     0.116 C 
BRANCH  26  27
ATOM     27  N   UNL A   1      34.211  31.481  28.641  1.00  0.00    -0.352 N 
ATOM     28  C   UNL A   1      34.698  30.360  28.016  1.00  0.00     0.251 C 
ATOM     29  H   UNL A   1      33.237  31.609  28.579  1.00  0.00     0.163 HD
ATOM     30  O   UNL A   1      33.992  29.725  27.242  1.00  0.00    -0.269 OA
BRANCH  28  31
ATOM     31  C   UNL A   1      36.088  29.926  28.273  1.00  0.00     0.039 A 
ATOM     32  C   UNL A   1      37.043  30.078  27.267  1.00  0.00     0.014 A 
ATOM     33  C   UNL A   1      36.437  29.351  29.498  1.00  0.00     0.014 A 
ATOM     34  C   UNL A   1      38.365  29.697  27.505  1.00  0.00     0.010 A 
ATOM     35  C   UNL A   1      37.766  29.035  29.758  1.00  0.00     0.010 A 
ATOM     36  C   UNL A   1      38.741  29.195  28.762  1.00  0.00    -0.014 A 
BRANCH  36  37
ATOM     37  C   UNL A   1      40.144  28.807  29.050  1.00  0.00     0.031 A 
ATOM     38  C   UNL A   1      41.056  29.772  29.756  1.00  0.00     0.074 A 
ATOM     39  C   UNL A   1      40.614  27.622  28.616  1.00  0.00     0.049 A 
ATOM     40  N   UNL A   1      42.335  29.666  30.015  1.00  0.00    -0.248 NA
ATOM     41  C   UNL A   1      40.456  31.038  30.207  1.00  0.00     0.031 C 
ATOM     42  C   UNL A   1      39.836  26.620  27.886  1.00  0.00     0.029 A 
ATOM     43  N   UNL A   1      41.865  27.066  28.713  1.00  0.00    -0.354 N 
ATOM     44  C   UNL A   1      42.694  30.854  30.637  1.00  0.00     0.074 A 
ATOM     45  C   UNL A   1      41.512  31.687  30.676  1.00  0.00     0.031 C 
ATOM     46  C   UNL A   1      40.623  25.567  27.614  1.00  0.00     0.029 A 
ATOM     47  C   UNL A   1      41.968  25.834  28.116  1.00  0.00     0.049 A 
ATOM     48  H   UNL A   1      42.617  27.508  29.169  1.00  0.00     0.167 HD
ATOM     49  C   UNL A   1      43.896  31.207  31.152  1.00  0.00     0.037 A 
ATOM     50  C   UNL A   1      43.030  25.018  27.979  1.00  0.00     0.037 A 
ATOM     51  C   UNL A   1      45.060  30.361  31.140  1.00  0.00     0.049 A 
ATOM     52  C   UNL A   1      44.355  25.437  28.559  1.00  0.00     0.074 A 
ATOM     53  C   UNL A   1      46.307  30.604  31.686  1.00  0.00     0.029 A 
ATOM     54  N   UNL A   1      45.117  29.106  30.552  1.00  0.00    -0.354 N 
ATOM     55  N   UNL A   1      44.666  26.536  29.203  1.00  0.00    -0.248 NA
ATOM     56  C   UNL A   1      45.475  24.499  28.400  1.00  0.00     0.031 C 
ATOM     57  C   UNL A   1      47.133  29.514  31.391  1.00  0.00     0.029 A 
ATOM     58  C   UNL A   1      46.385  28.570  30.706  1.00  0.00     0.049 A 
ATOM     59  H   UNL A   1      44.367  28.664  30.092  1.00  0.00     0.167 HD
ATOM     60  C   UNL A   1      46.003  26.406  29.556  1.00  0.00     0.074 A 
ATOM     61  C   UNL A   1      46.442  25.117  29.063  1.00  0.00     0.031 C 
ATOM     62  C   UNL A   1      46.796  27.276  30.227  1.00  0.00     0.037 A 
BRANCH  49  63
ATOM     63  C   UNL A   1      44.014  32.567  31.777  1.00  0.00     0.064 A 
ATOM     64  C   UNL A   1      43.796  32.768  33.149  1.00  0.00     0.173 A 
ATOM     65  C   UNL A   1      44.395  33.675  31.005  1.00  0.00     0.173 A 
ATOM     66  F   UNL A   1      43.419  31.744  33.929  1.00  0.00    -0.203 F 
ATOM     67  C   UNL A   1      43.930  34.031  33.719  1.00  0.00     0.198 A 
ATOM     68  C   UNL A   1      44.558  34.931  31.584  1.00  0.00     0.198 A 
ATOM     69  F   UNL A   1      44.620  33.538  29.690  1.00  0.00    -0.203 F 
ATOM     70  F   UNL A   1      43.672  34.206  35.022  1.00  0.00    -0.200 F 
ATOM     71  C   UNL A   1      44.319  35.110  32.938  1.00  0.00     0.200 A 
ATOM     72  F   UNL A   1      44.947  35.969  30.832  1.00  0.00    -0.200 F 
ATOM     73  F   UNL A   1      44.458  36.322  33.490  1.00  0.00    -0.200 F 
ENDBRANCH  49  63
BRANCH  50  74
ATOM     74  C   UNL A   1      42.885  23.714  27.281  1.00  0.00     0.064 A 
ATOM     75  C   UNL A   1      42.367  22.595  27.949  1.00  0.00     0.173 A 
ATOM     76  C   UNL A   1      43.275  23.552  25.945  1.00  0.00     0.173 A 
ATOM     77  F   UNL A   1      41.998  22.695  29.235  1.00  0.00    -0.203 F 
ATOM     78  C   UNL A   1      42.268  21.359  27.314  1.00  0.00     0.198 A 
ATOM     79  C   UNL A   1      43.149  22.323  25.301  1.00  0.00     0.198 A 
ATOM     80  F   UNL A   1      43.771  24.592  25.258  1.00  0.00    -0.203 F 
ATOM     81  F   UNL A   1      41.816  20.295  27.991  1.00  0.00    -0.200 F 
ATOM     82  C   UNL A   1      42.655  21.225  25.989  1.00  0.00     0.200 A 
ATOM     83  F   UNL A   1      43.509  22.201  24.016  1.00  0.00    -0.200 F 
ATOM     84  F   UNL A   1      42.559  20.036  25.378  1.00  0.00    -0.200 F 
ENDBRANCH  50  74
BRANCH  62  85
ATOM     85  C   UNL A   1      48.205  26.845  30.515  1.00  0.00     0.064 A 
ATOM     86  C   UNL A   1      48.527  26.080  31.645  1.00  0.00     0.173 A 
ATOM     87  C   UNL A   1      49.238  27.166  29.621  1.00  0.00     0.173 A 
ATOM     88  F   UNL A   1      47.578  25.761  32.537  1.00  0.00    -0.203 F 
ATOM     89  C   UNL A   1      49.836  25.670  31.880  1.00  0.00     0.198 A 
ATOM     90  C   UNL A   1      50.540  26.729  29.844  1.00  0.00     0.198 A 
ATOM     91  F   UNL A   1      48.980  27.890  28.521  1.00  0.00    -0.203 F 
ATOM     92  F   UNL A   1      50.130  24.977  32.990  1.00  0.00    -0.200 F 
ATOM     93  C   UNL A   1      50.839  25.987  30.977  1.00  0.00     0.200 A 
ATOM     94  F   UNL A   1      51.505  27.024  28.962  1.00  0.00    -0.200 F 
ATOM     95  F   UNL A   1      52.097  25.583  31.200  1.00  0.00    -0.200 F 
ENDBRANCH  62  85
ENDBRANCH  36  37
ENDBRANCH  28  31
ENDBRANCH  26  27
ENDBRANCH  25  26
ENDBRANCH  24  25
ENDBRANCH   1  24
TORSDOF 15
ENDMDL
MODEL 2
REMARK VINA RESULT:      -9.6      4.763     11.120
REMARK SMILES CC(=O)c1cccc(-c2ccc(C(=O)NCCCCCCNC(=O)c3ccc(-c4c5nc(c(-c6c(F)c(F)c(F)c(F)c6F)c6ccc([nH]6)c(-c6c(F)c(F)c(F)c(F)c6F)c6nc(c(-c7c(F)c(F)c(F)c(F)c7F)c7ccc4[nH]7)C=C6)C=C5)cc3)cc2F)c1
REMARK SMILES IDX 18 1 17 2 16 3 15 4 13 5 14 6 12 8 9 9 10 10 89 11 11 12
REMARK SMILES IDX 88 13 90 14 8 15 4 16 5 17 91 18 6 19 7 20 2 21 1 22 3 23
REMARK SMILES IDX 19 24 20 25 21 26 22 27 23 28 24 30 25 31 26 32 87 33 27 34
REMARK SMILES IDX 86 35 28 36 29 37 30 38 80 39 31 40 85 41 79 42 81 43 32 44
REMARK SMILES IDX 84 45 78 46 77 47 33 49 65 50 45 51 64 52 46 53 49 54 63 55
REMARK SMILES IDX 82 56 47 57 48 58 62 60 83 61 50 62 34 63 35 64 43 65 36 66
REMARK SMILES IDX 37 67 41 68 44 69 38 70 39 71 42 72 40 73 66 74 67 75 75 76
REMARK SMILES IDX 68 77 69 78 73 79 76 80 70 81 71 82 74 83 72 84 51 85 52 86
REMARK SMILES IDX 60 87 53 88 54 89 58 90 61 91 55 92 56 93 59 94 57 95
REMARK H PARENT 15 7 22 29 81 48 49 59
REMARK Flexibility Score: inf
ROOT
ATOM      1  C   UNL A   1      34.037  25.818  24.698  1.00  0.00     0.002 C 
ENDROOT
BRANCH   1   2
ATOM      2  C   UNL A   1      34.865  24.581  25.069  1.00  0.00     0.021 C 
BRANCH   2   3
ATOM      3  C   UNL A   1      34.288  23.800  26.252  1.00  0.00     0.116 C 
BRANCH   3   4
ATOM      4  N   UNL A   1      33.635  22.593  25.780  1.00  0.00    -0.352 N 
ATOM      5  C   UNL A   1      32.407  22.365  25.219  1.00  0.00     0.251 C 
ATOM      6  O   UNL A   1      32.116  21.210  24.910  1.00  0.00    -0.269 OA
ATOM      7  H   UNL A   1      34.180  21.780  25.885  1.00  0.00     0.163 HD
BRANCH   5   8
ATOM      8  C   UNL A   1      31.443  23.455  24.908  1.00  0.00     0.042 A 
ATOM      9  C   UNL A   1      29.728  25.567  24.133  1.00  0.00     0.018 A 
ATOM     10  C   UNL A   1      30.302  24.732  23.167  1.00  0.00     0.012 A 
ATOM     11  C   UNL A   1      29.984  25.284  25.481  1.00  0.00     0.131 A 
ATOM     12  C   UNL A   1      31.156  23.691  23.553  1.00  0.00     0.014 A 
ATOM     13  C   UNL A   1      30.799  24.225  25.872  1.00  0.00     0.053 A 
ATOM     14  F   UNL A   1      29.442  26.048  26.441  1.00  0.00    -0.206 F 
BRANCH   9  15
ATOM     15  C   UNL A   1      28.874  26.697  23.762  1.00  0.00    -0.015 A 
ATOM     16  C   UNL A   1      28.630  28.954  22.878  1.00  0.00     0.018 A 
ATOM     17  C   UNL A   1      27.283  28.955  23.254  1.00  0.00     0.012 A 
ATOM     18  C   UNL A   1      29.422  27.828  23.129  1.00  0.00     0.020 A 
ATOM     19  C   UNL A   1      26.722  27.827  23.849  1.00  0.00     0.001 A 
ATOM     20  C   UNL A   1      27.512  26.703  24.097  1.00  0.00     0.009 A 
BRANCH  16  21
ATOM     21  C   UNL A   1      29.189  30.178  22.246  1.00  0.00     0.159 C 
ATOM     22  C   UNL A   1      28.900  31.513  22.882  1.00  0.00     0.093 C 
ATOM     23  O   UNL A   1      29.903  30.078  21.251  1.00  0.00    -0.295 OA
ENDBRANCH  16  21
ENDBRANCH   9  15
ENDBRANCH   5   8
ENDBRANCH   3   4
ENDBRANCH   2   3
ENDBRANCH   1   2
BRANCH   1  24
ATOM     24  C   UNL A   1      33.508  26.619  25.894  1.00  0.00     0.002 C 
BRANCH  24  25
ATOM     25  C   UNL A   1      32.741  27.892  25.528  1.00  0.00     0.021 C 
BRANCH  25  26
ATOM     26  C   UNL A   1      33.629  29.103  25.262  1.00  0.00     0.116 C 
BRANCH  26  27
ATOM     27  N   UNL A   1      33.021  30.332  25.747  1.00  0.00    -0.352 N 
ATOM     28  C   UNL A   1      33.323  31.065  26.867  1.00  0.00     0.251 C 
ATOM     29  H   UNL A   1      32.289  30.689  25.193  1.00  0.00     0.163 HD
ATOM     30  O   UNL A   1      32.566  31.947  27.255  1.00  0.00    -0.269 OA
BRANCH  28  31
ATOM     31  C   UNL A   1      34.566  30.778  27.614  1.00  0.00     0.039 A 
ATOM     32  C   UNL A   1      35.560  31.756  27.676  1.00  0.00     0.014 A 
ATOM     33  C   UNL A   1      34.755  29.539  28.231  1.00  0.00     0.014 A 
ATOM     34  C   UNL A   1      36.729  31.509  28.400  1.00  0.00     0.010 A 
ATOM     35  C   UNL A   1      35.887  29.319  29.007  1.00  0.00     0.010 A 
ATOM     36  C   UNL A   1      36.890  30.297  29.091  1.00  0.00    -0.014 A 
BRANCH  36  37
ATOM     37  C   UNL A   1      38.109  30.020  29.889  1.00  0.00     0.031 A 
ATOM     38  C   UNL A   1      39.165  29.096  29.348  1.00  0.00     0.074 A 
ATOM     39  C   UNL A   1      38.234  30.543  31.124  1.00  0.00     0.049 A 
ATOM     40  N   UNL A   1      40.252  28.650  29.924  1.00  0.00    -0.248 NA
ATOM     41  C   UNL A   1      38.954  28.581  27.985  1.00  0.00     0.031 C 
ATOM     42  C   UNL A   1      37.259  31.422  31.773  1.00  0.00     0.029 A 
ATOM     43  N   UNL A   1      39.226  30.399  32.061  1.00  0.00    -0.354 N 
ATOM     44  C   UNL A   1      40.841  27.792  29.006  1.00  0.00     0.074 A 
ATOM     45  C   UNL A   1      39.969  27.739  27.854  1.00  0.00     0.031 C 
ATOM     46  C   UNL A   1      37.708  31.749  32.996  1.00  0.00     0.029 A 
ATOM     47  C   UNL A   1      38.982  31.075  33.232  1.00  0.00     0.049 A 
ATOM     48  H   UNL A   1      40.037  29.862  31.909  1.00  0.00     0.167 HD
ATOM     49  C   UNL A   1      42.016  27.125  29.107  1.00  0.00     0.037 A 
ATOM     50  C   UNL A   1      39.699  31.133  34.370  1.00  0.00     0.037 A 
ATOM     51  C   UNL A   1      42.896  27.207  30.243  1.00  0.00     0.049 A 
ATOM     52  C   UNL A   1      41.001  30.382  34.455  1.00  0.00     0.074 A 
ATOM     53  C   UNL A   1      44.134  26.617  30.418  1.00  0.00     0.029 A 
ATOM     54  N   UNL A   1      42.627  27.927  31.398  1.00  0.00    -0.354 N 
ATOM     55  N   UNL A   1      41.580  29.624  33.555  1.00  0.00    -0.248 NA
ATOM     56  C   UNL A   1      41.753  30.499  35.711  1.00  0.00     0.031 C 
ATOM     57  C   UNL A   1      44.597  26.944  31.697  1.00  0.00     0.029 A 
ATOM     58  C   UNL A   1      43.670  27.780  32.298  1.00  0.00     0.049 A 
ATOM     59  H   UNL A   1      41.815  28.461  31.555  1.00  0.00     0.167 HD
ATOM     60  C   UNL A   1      42.776  29.205  34.121  1.00  0.00     0.074 A 
ATOM     61  C   UNL A   1      42.846  29.801  35.439  1.00  0.00     0.031 C 
ATOM     62  C   UNL A   1      43.732  28.399  33.597  1.00  0.00     0.037 A 
BRANCH  49  63
ATOM     63  C   UNL A   1      42.423  26.252  27.956  1.00  0.00     0.064 A 
ATOM     64  C   UNL A   1      41.925  24.948  27.811  1.00  0.00     0.173 A 
ATOM     65  C   UNL A   1      43.284  26.739  26.961  1.00  0.00     0.173 A 
ATOM     66  F   UNL A   1      41.107  24.430  28.741  1.00  0.00    -0.203 F 
ATOM     67  C   UNL A   1      42.294  24.156  26.727  1.00  0.00     0.198 A 
ATOM     68  C   UNL A   1      43.627  25.955  25.862  1.00  0.00     0.198 A 
ATOM     69  F   UNL A   1      43.785  27.980  27.049  1.00  0.00    -0.203 F 
ATOM     70  F   UNL A   1      41.842  22.897  26.635  1.00  0.00    -0.200 F 
ATOM     71  C   UNL A   1      43.138  24.662  25.750  1.00  0.00     0.200 A 
ATOM     72  F   UNL A   1      44.431  26.451  24.913  1.00  0.00    -0.200 F 
ATOM     73  F   UNL A   1      43.484  23.903  24.702  1.00  0.00    -0.200 F 
ENDBRANCH  49  63
BRANCH  50  74
ATOM     74  C   UNL A   1      39.217  31.949  35.515  1.00  0.00     0.064 A 
ATOM     75  C   UNL A   1      38.425  31.377  36.522  1.00  0.00     0.173 A 
ATOM     76  C   UNL A   1      39.520  33.313  35.620  1.00  0.00     0.173 A 
ATOM     77  F   UNL A   1      38.091  30.079  36.455  1.00  0.00    -0.203 F 
ATOM     78  C   UNL A   1      37.934  32.145  37.575  1.00  0.00     0.198 A 
ATOM     79  C   UNL A   1      39.053  34.074  36.690  1.00  0.00     0.198 A 
ATOM     80  F   UNL A   1      40.279  33.907  34.688  1.00  0.00    -0.203 F 
ATOM     81  F   UNL A   1      37.138  31.585  38.495  1.00  0.00    -0.200 F 
ATOM     82  C   UNL A   1      38.251  33.492  37.660  1.00  0.00     0.200 A 
ATOM     83  F   UNL A   1      39.375  35.372  36.777  1.00  0.00    -0.200 F 
ATOM     84  F   UNL A   1      37.780  34.231  38.674  1.00  0.00    -0.200 F 
ENDBRANCH  50  74
BRANCH  62  85
ATOM     85  C   UNL A   1      44.959  28.153  34.426  1.00  0.00     0.064 A 
ATOM     86  C   UNL A   1      46.055  29.027  34.399  1.00  0.00     0.173 A 
ATOM     87  C   UNL A   1      45.016  27.052  35.293  1.00  0.00     0.173 A 
ATOM     88  F   UNL A   1      46.054  30.086  33.575  1.00  0.00    -0.203 F 
ATOM     89  C   UNL A   1      47.174  28.794  35.193  1.00  0.00     0.198 A 
ATOM     90  C   UNL A   1      46.124  26.839  36.108  1.00  0.00     0.198 A 
ATOM     91  F   UNL A   1      43.990  26.190  35.360  1.00  0.00    -0.203 F 
ATOM     92  F   UNL A   1      48.230  29.617  35.119  1.00  0.00    -0.200 F 
ATOM     93  C   UNL A   1      47.204  27.707  36.053  1.00  0.00     0.200 A 
ATOM     94  F   UNL A   1      46.145  25.795  36.948  1.00  0.00    -0.200 F 
ATOM     95  F   UNL A   1      48.278  27.489  36.824  1.00  0.00    -0.200 F 
ENDBRANCH  62  85
ENDBRANCH  36  37
ENDBRANCH  28  31
ENDBRANCH  26  27
ENDBRANCH  25  26
ENDBRANCH  24  25
ENDBRANCH   1  24
TORSDOF 15
ENDMDL
MODEL 3
REMARK VINA RESULT:      -9.5      3.826     12.371
REMARK SMILES CC(=O)c1cccc(-c2ccc(C(=O)NCCCCCCNC(=O)c3ccc(-c4c5nc(c(-c6c(F)c(F)c(F)c(F)c6F)c6ccc([nH]6)c(-c6c(F)c(F)c(F)c(F)c6F)c6nc(c(-c7c(F)c(F)c(F)c(F)c7F)c7ccc4[nH]7)C=C6)C=C5)cc3)cc2F)c1
REMARK SMILES IDX 18 1 17 2 16 3 15 4 13 5 14 6 12 8 9 9 10 10 89 11 11 12
REMARK SMILES IDX 88 13 90 14 8 15 4 16 5 17 91 18 6 19 7 20 2 21 1 22 3 23
REMARK SMILES IDX 19 24 20 25 21 26 22 27 23 28 24 30 25 31 26 32 87 33 27 34
REMARK SMILES IDX 86 35 28 36 29 37 30 38 80 39 31 40 85 41 79 42 81 43 32 44
REMARK SMILES IDX 84 45 78 46 77 47 33 49 65 50 45 51 64 52 46 53 49 54 63 55
REMARK SMILES IDX 82 56 47 57 48 58 62 60 83 61 50 62 34 63 35 64 43 65 36 66
REMARK SMILES IDX 37 67 41 68 44 69 38 70 39 71 42 72 40 73 66 74 67 75 75 76
REMARK SMILES IDX 68 77 69 78 73 79 76 80 70 81 71 82 74 83 72 84 51 85 52 86
REMARK SMILES IDX 60 87 53 88 54 89 58 90 61 91 55 92 56 93 59 94 57 95
REMARK H PARENT 15 7 22 29 81 48 49 59
REMARK Flexibility Score: inf
ROOT
ATOM      1  C   UNL A   1      48.920  25.583  30.976  1.00  0.00     0.002 C 
ENDROOT
BRANCH   1   2
ATOM      2  C   UNL A   1      49.960  25.947  29.907  1.00  0.00     0.021 C 
BRANCH   2   3
ATOM      3  C   UNL A   1      49.454  25.738  28.478  1.00  0.00     0.116 C 
BRANCH   3   4
ATOM      4  N   UNL A   1      48.433  26.719  28.162  1.00  0.00    -0.352 N 
ATOM      5  C   UNL A   1      47.265  26.643  27.451  1.00  0.00     0.251 C 
ATOM      6  O   UNL A   1      46.582  27.661  27.346  1.00  0.00    -0.269 OA
ATOM      7  H   UNL A   1      48.615  27.614  28.530  1.00  0.00     0.163 HD
BRANCH   5   8
ATOM      8  C   UNL A   1      46.757  25.375  26.860  1.00  0.00     0.042 A 
ATOM      9  C   UNL A   1      45.822  22.871  25.935  1.00  0.00     0.018 A 
ATOM     10  C   UNL A   1      45.545  23.290  27.242  1.00  0.00     0.012 A 
ATOM     11  C   UNL A   1      46.519  23.751  25.097  1.00  0.00     0.131 A 
ATOM     12  C   UNL A   1      46.015  24.528  27.699  1.00  0.00     0.014 A 
ATOM     13  C   UNL A   1      46.952  25.001  25.534  1.00  0.00     0.053 A 
ATOM     14  F   UNL A   1      46.791  23.398  23.832  1.00  0.00    -0.206 F 
BRANCH   9  15
ATOM     15  C   UNL A   1      45.392  21.561  25.442  1.00  0.00    -0.015 A 
ATOM     16  C   UNL A   1      43.773  19.741  25.426  1.00  0.00     0.018 A 
ATOM     17  C   UNL A   1      44.661  18.957  24.683  1.00  0.00     0.012 A 
ATOM     18  C   UNL A   1      44.137  21.040  25.802  1.00  0.00     0.020 A 
ATOM     19  C   UNL A   1      45.893  19.478  24.290  1.00  0.00     0.001 A 
ATOM     20  C   UNL A   1      46.254  20.773  24.664  1.00  0.00     0.009 A 
BRANCH  16  21
ATOM     21  C   UNL A   1      42.470  19.148  25.825  1.00  0.00     0.159 C 
ATOM     22  C   UNL A   1      41.372  20.067  26.294  1.00  0.00     0.093 C 
ATOM     23  O   UNL A   1      42.299  17.935  25.727  1.00  0.00    -0.295 OA
ENDBRANCH  16  21
ENDBRANCH   9  15
ENDBRANCH   5   8
ENDBRANCH   3   4
ENDBRANCH   2   3
ENDBRANCH   1   2
BRANCH   1  24
ATOM     24  C   UNL A   1      49.246  26.091  32.386  1.00  0.00     0.002 C 
BRANCH  24  25
ATOM     25  C   UNL A   1      49.766  25.022  33.351  1.00  0.00     0.021 C 
BRANCH  25  26
ATOM     26  C   UNL A   1      48.678  24.334  34.169  1.00  0.00     0.116 C 
BRANCH  26  27
ATOM     27  N   UNL A   1      48.665  24.803  35.545  1.00  0.00    -0.352 N 
ATOM     28  C   UNL A   1      47.895  25.785  36.118  1.00  0.00     0.251 C 
ATOM     29  H   UNL A   1      49.296  24.353  36.152  1.00  0.00     0.163 HD
ATOM     30  O   UNL A   1      48.167  26.215  37.233  1.00  0.00    -0.269 OA
BRANCH  28  31
ATOM     31  C   UNL A   1      46.738  26.331  35.379  1.00  0.00     0.039 A 
ATOM     32  C   UNL A   1      45.520  25.651  35.429  1.00  0.00     0.014 A 
ATOM     33  C   UNL A   1      46.864  27.498  34.621  1.00  0.00     0.014 A 
ATOM     34  C   UNL A   1      44.411  26.168  34.756  1.00  0.00     0.010 A 
ATOM     35  C   UNL A   1      45.744  28.049  34.008  1.00  0.00     0.010 A 
ATOM     36  C   UNL A   1      44.509  27.385  34.061  1.00  0.00    -0.014 A 
BRANCH  36  37
ATOM     37  C   UNL A   1      43.340  27.971  33.361  1.00  0.00     0.031 A 
ATOM     38  C   UNL A   1      43.083  27.629  31.919  1.00  0.00     0.074 A 
ATOM     39  C   UNL A   1      42.553  28.859  33.999  1.00  0.00     0.049 A 
ATOM     40  N   UNL A   1      42.178  28.107  31.102  1.00  0.00    -0.248 NA
ATOM     41  C   UNL A   1      43.983  26.640  31.304  1.00  0.00     0.031 C 
ATOM     42  C   UNL A   1      42.726  29.299  35.384  1.00  0.00     0.029 A 
ATOM     43  N   UNL A   1      41.460  29.564  33.560  1.00  0.00    -0.354 N 
ATOM     44  C   UNL A   1      42.411  27.492  29.880  1.00  0.00     0.074 A 
ATOM     45  C   UNL A   1      43.572  26.645  30.045  1.00  0.00     0.031 C 
ATOM     46  C   UNL A   1      41.765  30.187  35.685  1.00  0.00     0.029 A 
ATOM     47  C   UNL A   1      40.932  30.407  34.506  1.00  0.00     0.049 A 
ATOM     48  H   UNL A   1      41.089  29.472  32.653  1.00  0.00     0.167 HD
ATOM     49  C   UNL A   1      41.706  27.607  28.729  1.00  0.00     0.037 A 
ATOM     50  C   UNL A   1      39.901  31.270  34.426  1.00  0.00     0.037 A 
ATOM     51  C   UNL A   1      40.533  28.427  28.579  1.00  0.00     0.049 A 
ATOM     52  C   UNL A   1      39.136  31.378  33.134  1.00  0.00     0.074 A 
ATOM     53  C   UNL A   1      39.715  28.567  27.473  1.00  0.00     0.029 A 
ATOM     54  N   UNL A   1      40.011  29.245  29.571  1.00  0.00    -0.354 N 
ATOM     55  N   UNL A   1      39.327  30.744  32.003  1.00  0.00    -0.248 NA
ATOM     56  C   UNL A   1      38.007  32.318  33.110  1.00  0.00     0.031 C 
ATOM     57  C   UNL A   1      38.722  29.503  27.779  1.00  0.00     0.029 A 
ATOM     58  C   UNL A   1      38.890  29.907  29.094  1.00  0.00     0.049 A 
ATOM     59  H   UNL A   1      40.382  29.341  30.477  1.00  0.00     0.167 HD
ATOM     60  C   UNL A   1      38.324  31.180  31.146  1.00  0.00     0.074 A 
ATOM     61  C   UNL A   1      37.520  32.125  31.892  1.00  0.00     0.031 C 
ATOM     62  C   UNL A   1      38.090  30.829  29.859  1.00  0.00     0.037 A 
BRANCH  49  63
ATOM     63  C   UNL A   1      42.181  26.825  27.539  1.00  0.00     0.064 A 
ATOM     64  C   UNL A   1      43.135  27.345  26.651  1.00  0.00     0.173 A 
ATOM     65  C   UNL A   1      41.713  25.523  27.309  1.00  0.00     0.173 A 
ATOM     66  F   UNL A   1      43.607  28.589  26.820  1.00  0.00    -0.203 F 
ATOM     67  C   UNL A   1      43.583  26.600  25.563  1.00  0.00     0.198 A 
ATOM     68  C   UNL A   1      42.185  24.769  26.238  1.00  0.00     0.198 A 
ATOM     69  F   UNL A   1      40.803  24.976  28.130  1.00  0.00    -0.203 F 
ATOM     70  F   UNL A   1      44.461  27.135  24.703  1.00  0.00    -0.200 F 
ATOM     71  C   UNL A   1      43.114  25.310  25.362  1.00  0.00     0.200 A 
ATOM     72  F   UNL A   1      41.741  23.519  26.053  1.00  0.00    -0.200 F 
ATOM     73  F   UNL A   1      43.554  24.591  24.321  1.00  0.00    -0.200 F 
ENDBRANCH  49  63
BRANCH  50  74
ATOM     74  C   UNL A   1      39.516  32.084  35.608  1.00  0.00     0.064 A 
ATOM     75  C   UNL A   1      40.140  33.313  35.869  1.00  0.00     0.173 A 
ATOM     76  C   UNL A   1      38.533  31.648  36.507  1.00  0.00     0.173 A 
ATOM     77  F   UNL A   1      41.101  33.763  35.048  1.00  0.00    -0.203 F 
ATOM     78  C   UNL A   1      39.814  34.060  36.998  1.00  0.00     0.198 A 
ATOM     79  C   UNL A   1      38.186  32.411  37.620  1.00  0.00     0.198 A 
ATOM     80  F   UNL A   1      37.901  30.484  36.300  1.00  0.00    -0.203 F 
ATOM     81  F   UNL A   1      40.462  35.205  37.250  1.00  0.00    -0.200 F 
ATOM     82  C   UNL A   1      38.835  33.611  37.871  1.00  0.00     0.200 A 
ATOM     83  F   UNL A   1      37.228  31.981  38.453  1.00  0.00    -0.200 F 
ATOM     84  F   UNL A   1      38.520  34.331  38.956  1.00  0.00    -0.200 F 
ENDBRANCH  50  74
BRANCH  62  85
ATOM     85  C   UNL A   1      36.889  31.428  29.186  1.00  0.00     0.064 A 
ATOM     86  C   UNL A   1      35.746  30.668  28.904  1.00  0.00     0.173 A 
ATOM     87  C   UNL A   1      36.870  32.794  28.865  1.00  0.00     0.173 A 
ATOM     88  F   UNL A   1      35.722  29.356  29.179  1.00  0.00    -0.203 F 
ATOM     89  C   UNL A   1      34.633  31.250  28.302  1.00  0.00     0.198 A 
ATOM     90  C   UNL A   1      35.744  33.378  28.291  1.00  0.00     0.198 A 
ATOM     91  F   UNL A   1      37.937  33.565  29.121  1.00  0.00    -0.203 F 
ATOM     92  F   UNL A   1      33.567  30.496  27.999  1.00  0.00    -0.200 F 
ATOM     93  C   UNL A   1      34.630  32.604  28.004  1.00  0.00     0.200 A 
ATOM     94  F   UNL A   1      35.738  34.690  28.017  1.00  0.00    -0.200 F 
ATOM     95  F   UNL A   1      33.554  33.164  27.433  1.00  0.00    -0.200 F 
ENDBRANCH  62  85
ENDBRANCH  36  37
ENDBRANCH  28  31
ENDBRANCH  26  27
ENDBRANCH  25  26
ENDBRANCH  24  25
ENDBRANCH   1  24
TORSDOF 15
ENDMDL
