MODEL 1
REMARK VINA RESULT:     -12.3      0.000      0.000
REMARK SMILES O=C(NCCCCCCNC(=O)[C@H]1CCCN(C(=O)c2cc(Br)ccc2Cl)C1)c1ccc(-c2c3nc(c(-c4c(F)c(F)c(F)c(F)c4F)c4ccc([nH]4)c(-c4c(F)c(F)c(F)c(F)c4F)c4nc(c(-c5c(F)c(F)c(F)c(F)c5F)c5ccc2[nH]5)C=C4)C=C3)cc1
REMARK SMILES IDX 6 1 5 2 4 3 3 4 1 5 2 6 29 8 30 9 91 10 31 11 90 12 32 13
REMARK SMILES IDX 33 14 34 15 84 16 35 17 89 18 83 19 85 20 36 21 88 22 82 23
REMARK SMILES IDX 81 24 37 26 69 27 49 28 68 29 50 30 53 31 67 32 86 33 51 34
REMARK SMILES IDX 52 35 66 37 87 38 54 39 38 40 39 41 47 42 40 43 41 44 45 45
REMARK SMILES IDX 48 46 42 47 43 48 46 49 44 50 70 51 71 52 79 53 72 54 73 55
REMARK SMILES IDX 77 56 80 57 74 58 75 59 78 60 76 61 55 62 56 63 64 64 57 65
REMARK SMILES IDX 58 66 62 67 65 68 59 69 60 70 63 71 61 72 7 73 8 74 9 75
REMARK SMILES IDX 10 76 11 77 12 79 13 80 14 81 28 82 15 83 17 84 16 85 18 86
REMARK SMILES IDX 19 87 20 88 21 89 26 90 22 91 25 92 27 93 23 94 24 95
REMARK H PARENT 3 7 85 25 53 36 10 78
REMARK Flexibility Score: inf
ROOT
ATOM      1  C   UNL A   1      31.390  30.774  26.404  1.00  0.00     0.002 C 
ENDROOT
BRANCH   1   2
ATOM      2  C   UNL A   1      31.375  32.297  26.525  1.00  0.00     0.021 C 
BRANCH   2   3
ATOM      3  C   UNL A   1      32.617  32.879  27.184  1.00  0.00     0.116 C 
BRANCH   3   4
ATOM      4  N   UNL A   1      32.391  34.228  27.679  1.00  0.00    -0.352 N 
ATOM      5  O   UNL A   1      32.586  35.938  29.144  1.00  0.00    -0.269 OA
ATOM      6  C   UNL A   1      33.018  34.877  28.717  1.00  0.00     0.251 C 
ATOM      7  H   UNL A   1      31.698  34.744  27.208  1.00  0.00     0.163 HD
BRANCH   6   8
ATOM      8  C   UNL A   1      34.222  34.268  29.323  1.00  0.00     0.039 A 
ATOM      9  C   UNL A   1      34.095  33.371  30.386  1.00  0.00     0.014 A 
ATOM     10  C   UNL A   1      35.486  34.592  28.821  1.00  0.00     0.014 A 
ATOM     11  C   UNL A   1      35.231  32.898  31.027  1.00  0.00     0.010 A 
ATOM     12  C   UNL A   1      36.628  34.043  29.410  1.00  0.00     0.010 A 
ATOM     13  C   UNL A   1      36.509  33.205  30.530  1.00  0.00    -0.014 A 
BRANCH  13  14
ATOM     14  C   UNL A   1      37.687  32.546  31.147  1.00  0.00     0.031 A 
ATOM     15  C   UNL A   1      38.152  32.896  32.530  1.00  0.00     0.074 A 
ATOM     16  C   UNL A   1      38.304  31.575  30.445  1.00  0.00     0.049 A 
ATOM     17  N   UNL A   1      39.130  32.370  33.225  1.00  0.00    -0.248 NA
ATOM     18  C   UNL A   1      37.439  33.980  33.223  1.00  0.00     0.031 C 
ATOM     19  C   UNL A   1      37.946  31.169  29.082  1.00  0.00     0.029 A 
ATOM     20  N   UNL A   1      39.332  30.733  30.781  1.00  0.00    -0.354 N 
ATOM     21  C   UNL A   1      39.156  33.059  34.430  1.00  0.00     0.074 A 
ATOM     22  C   UNL A   1      38.113  34.062  34.363  1.00  0.00     0.031 C 
ATOM     23  C   UNL A   1      38.700  30.123  28.721  1.00  0.00     0.029 A 
ATOM     24  C   UNL A   1      39.636  29.823  29.797  1.00  0.00     0.049 A 
ATOM     25  H   UNL A   1      39.805  30.776  31.642  1.00  0.00     0.167 HD
ATOM     26  C   UNL A   1      39.970  32.861  35.495  1.00  0.00     0.037 A 
ATOM     27  C   UNL A   1      40.575  28.861  29.760  1.00  0.00     0.037 A 
ATOM     28  C   UNL A   1      40.998  31.852  35.554  1.00  0.00     0.049 A 
ATOM     29  C   UNL A   1      41.465  28.674  30.954  1.00  0.00     0.074 A 
ATOM     30  C   UNL A   1      41.868  31.563  36.594  1.00  0.00     0.029 A 
ATOM     31  N   UNL A   1      41.297  30.965  34.529  1.00  0.00    -0.354 N 
ATOM     32  N   UNL A   1      41.462  29.317  32.096  1.00  0.00    -0.248 NA
ATOM     33  C   UNL A   1      42.491  27.630  30.852  1.00  0.00     0.031 C 
ATOM     34  C   UNL A   1      42.715  30.528  36.183  1.00  0.00     0.029 A 
ATOM     35  C   UNL A   1      42.346  30.140  34.905  1.00  0.00     0.049 A 
ATOM     36  H   UNL A   1      40.833  30.927  33.663  1.00  0.00     0.167 HD
ATOM     37  C   UNL A   1      42.479  28.754  32.851  1.00  0.00     0.074 A 
ATOM     38  C   UNL A   1      43.052  27.691  32.051  1.00  0.00     0.031 C 
ATOM     39  C   UNL A   1      42.908  29.093  34.091  1.00  0.00     0.037 A 
BRANCH  26  40
ATOM     40  C   UNL A   1      39.793  33.752  36.690  1.00  0.00     0.064 A 
ATOM     41  C   UNL A   1      40.402  35.013  36.762  1.00  0.00     0.173 A 
ATOM     42  C   UNL A   1      38.942  33.373  37.740  1.00  0.00     0.173 A 
ATOM     43  F   UNL A   1      41.232  35.418  35.789  1.00  0.00    -0.203 F 
ATOM     44  C   UNL A   1      40.176  35.858  37.847  1.00  0.00     0.198 A 
ATOM     45  C   UNL A   1      38.699  34.229  38.811  1.00  0.00     0.198 A 
ATOM     46  F   UNL A   1      38.329  32.180  37.718  1.00  0.00    -0.203 F 
ATOM     47  F   UNL A   1      40.789  37.047  37.907  1.00  0.00    -0.200 F 
ATOM     48  C   UNL A   1      39.317  35.469  38.865  1.00  0.00     0.200 A 
ATOM     49  F   UNL A   1      37.859  33.859  39.788  1.00  0.00    -0.200 F 
ATOM     50  F   UNL A   1      39.088  36.290  39.899  1.00  0.00    -0.200 F 
ENDBRANCH  26  40
BRANCH  27  51
ATOM     51  C   UNL A   1      40.725  28.019  28.546  1.00  0.00     0.064 A 
ATOM     52  C   UNL A   1      40.083  26.778  28.440  1.00  0.00     0.173 A 
ATOM     53  C   UNL A   1      41.517  28.439  27.466  1.00  0.00     0.173 A 
ATOM     54  F   UNL A   1      39.329  26.324  29.453  1.00  0.00    -0.203 F 
ATOM     55  C   UNL A   1      40.243  25.980  27.309  1.00  0.00     0.198 A 
ATOM     56  C   UNL A   1      41.649  27.656  26.323  1.00  0.00     0.198 A 
ATOM     57  F   UNL A   1      42.148  29.621  27.515  1.00  0.00    -0.203 F 
ATOM     58  F   UNL A   1      39.658  24.776  27.254  1.00  0.00    -0.200 F 
ATOM     59  C   UNL A   1      41.021  26.423  26.249  1.00  0.00     0.200 A 
ATOM     60  F   UNL A   1      42.386  28.096  25.294  1.00  0.00    -0.200 F 
ATOM     61  F   UNL A   1      41.172  25.657  25.160  1.00  0.00    -0.200 F 
ENDBRANCH  27  51
BRANCH  39  62
ATOM     62  C   UNL A   1      44.047  28.294  34.650  1.00  0.00     0.064 A 
ATOM     63  C   UNL A   1      45.379  28.698  34.471  1.00  0.00     0.173 A 
ATOM     64  C   UNL A   1      43.806  27.115  35.369  1.00  0.00     0.173 A 
ATOM     65  F   UNL A   1      45.661  29.808  33.773  1.00  0.00    -0.203 F 
ATOM     66  C   UNL A   1      46.431  27.928  34.960  1.00  0.00     0.198 A 
ATOM     67  C   UNL A   1      44.859  26.364  35.883  1.00  0.00     0.198 A 
ATOM     68  F   UNL A   1      42.551  26.691  35.570  1.00  0.00    -0.203 F 
ATOM     69  F   UNL A   1      47.697  28.299  34.725  1.00  0.00    -0.200 F 
ATOM     70  C   UNL A   1      46.169  26.764  35.669  1.00  0.00     0.200 A 
ATOM     71  F   UNL A   1      44.606  25.246  36.576  1.00  0.00    -0.200 F 
ATOM     72  F   UNL A   1      47.183  26.023  36.136  1.00  0.00    -0.200 F 
ENDBRANCH  39  62
ENDBRANCH  13  14
ENDBRANCH   6   8
ENDBRANCH   3   4
ENDBRANCH   2   3
ENDBRANCH   1   2
BRANCH   1  73
ATOM     73  C   UNL A   1      32.788  30.143  26.409  1.00  0.00     0.002 C 
BRANCH  73  74
ATOM     74  C   UNL A   1      32.944  28.895  25.526  1.00  0.00     0.021 C 
BRANCH  74  75
ATOM     75  C   UNL A   1      33.240  29.213  24.057  1.00  0.00     0.116 C 
BRANCH  75  76
ATOM     76  N   UNL A   1      32.003  29.227  23.304  1.00  0.00    -0.356 N 
ATOM     77  C   UNL A   1      31.256  28.200  22.820  1.00  0.00     0.224 C 
ATOM     78  H   UNL A   1      31.645  30.124  23.113  1.00  0.00     0.163 HD
ATOM     79  O   UNL A   1      30.356  28.491  22.028  1.00  0.00    -0.275 OA
BRANCH  77  80
ATOM     80  C   UNL A   1      31.472  26.770  23.309  1.00  0.00     0.098 C 
ATOM     81  C   UNL A   1      30.318  26.371  24.258  1.00  0.00     0.017 C 
ATOM     82  C   UNL A   1      31.549  25.730  22.191  1.00  0.00     0.133 C 
ATOM     83  C   UNL A   1      30.456  24.935  24.770  1.00  0.00     0.022 C 
ATOM     84  N   UNL A   1      31.748  24.398  22.766  1.00  0.00    -0.338 N 
ATOM     85  C   UNL A   1      30.661  23.941  23.627  1.00  0.00     0.120 C 
BRANCH  84  86
ATOM     86  C   UNL A   1      32.982  23.771  22.619  1.00  0.00     0.255 C 
ATOM     87  O   UNL A   1      33.671  23.859  21.604  1.00  0.00    -0.269 OA
BRANCH  86  88
ATOM     88  C   UNL A   1      33.527  22.978  23.738  1.00  0.00     0.059 A 
ATOM     89  C   UNL A   1      33.337  21.588  23.706  1.00  0.00     0.031 A 
ATOM     90  C   UNL A   1      34.154  23.579  24.837  1.00  0.00     0.053 A 
ATOM     91  C   UNL A   1      33.817  20.806  24.755  1.00  0.00     0.018 A 
ATOM     92  C   UNL A   1      34.640  22.781  25.877  1.00  0.00     0.022 A 
ATOM     93  Cl  UNL A   1      34.337  25.290  24.986  1.00  0.00    -0.083 Cl
ATOM     94  Br  UNL A   1      33.569  18.932  24.723  1.00  0.00    -0.051 Br
ATOM     95  C   UNL A   1      34.476  21.393  25.835  1.00  0.00     0.017 A 
ENDBRANCH  86  88
ENDBRANCH  84  86
ENDBRANCH  77  80
ENDBRANCH  75  76
ENDBRANCH  74  75
ENDBRANCH  73  74
ENDBRANCH   1  73
TORSDOF 15
ENDMDL
MODEL 2
REMARK VINA RESULT:     -12.3      0.113      1.120
REMARK SMILES O=C(NCCCCCCNC(=O)[C@H]1CCCN(C(=O)c2cc(Br)ccc2Cl)C1)c1ccc(-c2c3nc(c(-c4c(F)c(F)c(F)c(F)c4F)c4ccc([nH]4)c(-c4c(F)c(F)c(F)c(F)c4F)c4nc(c(-c5c(F)c(F)c(F)c(F)c5F)c5ccc2[nH]5)C=C4)C=C3)cc1
REMARK SMILES IDX 6 1 5 2 4 3 3 4 1 5 2 6 29 8 30 9 91 10 31 11 90 12 32 13
REMARK SMILES IDX 33 14 34 15 84 16 35 17 89 18 83 19 85 20 36 21 88 22 82 23
REMARK SMILES IDX 81 24 37 26 69 27 49 28 68 29 50 30 53 31 67 32 86 33 51 34
REMARK SMILES IDX 52 35 66 37 87 38 54 39 38 40 39 41 47 42 40 43 41 44 45 45
REMARK SMILES IDX 48 46 42 47 43 48 46 49 44 50 70 51 71 52 79 53 72 54 73 55
REMARK SMILES IDX 77 56 80 57 74 58 75 59 78 60 76 61 55 62 56 63 64 64 57 65
REMARK SMILES IDX 58 66 62 67 65 68 59 69 60 70 63 71 61 72 7 73 8 74 9 75
REMARK SMILES IDX 10 76 11 77 12 79 13 80 14 81 28 82 15 83 17 84 16 85 18 86
REMARK SMILES IDX 19 87 20 88 21 89 26 90 22 91 25 92 27 93 23 94 24 95
REMARK H PARENT 3 7 85 25 53 36 10 78
REMARK Flexibility Score: inf
ROOT
ATOM      1  C   UNL A   1      31.484  30.628  26.350  1.00  0.00     0.002 C 
ENDROOT
BRANCH   1   2
ATOM      2  C   UNL A   1      31.369  32.132  26.597  1.00  0.00     0.021 C 
BRANCH   2   3
ATOM      3  C   UNL A   1      32.641  32.771  27.132  1.00  0.00     0.116 C 
BRANCH   3   4
ATOM      4  N   UNL A   1      32.412  34.125  27.611  1.00  0.00    -0.352 N 
ATOM      5  O   UNL A   1      32.604  35.854  29.055  1.00  0.00    -0.269 OA
ATOM      6  C   UNL A   1      33.038  34.789  28.640  1.00  0.00     0.251 C 
ATOM      7  H   UNL A   1      31.718  34.634  27.134  1.00  0.00     0.163 HD
BRANCH   6   8
ATOM      8  C   UNL A   1      34.244  34.191  29.253  1.00  0.00     0.039 A 
ATOM      9  C   UNL A   1      34.117  33.182  30.211  1.00  0.00     0.014 A 
ATOM     10  C   UNL A   1      35.510  34.637  28.863  1.00  0.00     0.014 A 
ATOM     11  C   UNL A   1      35.244  32.712  30.869  1.00  0.00     0.010 A 
ATOM     12  C   UNL A   1      36.651  34.095  29.461  1.00  0.00     0.010 A 
ATOM     13  C   UNL A   1      36.525  33.141  30.482  1.00  0.00    -0.014 A 
BRANCH  13  14
ATOM     14  C   UNL A   1      37.707  32.490  31.100  1.00  0.00     0.031 A 
ATOM     15  C   UNL A   1      38.169  32.842  32.484  1.00  0.00     0.074 A 
ATOM     16  C   UNL A   1      38.332  31.524  30.397  1.00  0.00     0.049 A 
ATOM     17  N   UNL A   1      39.150  32.323  33.179  1.00  0.00    -0.248 NA
ATOM     18  C   UNL A   1      37.447  33.920  33.178  1.00  0.00     0.031 C 
ATOM     19  C   UNL A   1      37.979  31.117  29.034  1.00  0.00     0.029 A 
ATOM     20  N   UNL A   1      39.366  30.690  30.733  1.00  0.00    -0.354 N 
ATOM     21  C   UNL A   1      39.170  33.011  34.385  1.00  0.00     0.074 A 
ATOM     22  C   UNL A   1      38.120  34.006  34.318  1.00  0.00     0.031 C 
ATOM     23  C   UNL A   1      38.741  30.077  28.673  1.00  0.00     0.029 A 
ATOM     24  C   UNL A   1      39.678  29.783  29.750  1.00  0.00     0.049 A 
ATOM     25  H   UNL A   1      39.838  30.735  31.596  1.00  0.00     0.167 HD
ATOM     26  C   UNL A   1      39.984  32.818  35.450  1.00  0.00     0.037 A 
ATOM     27  C   UNL A   1      40.624  28.828  29.712  1.00  0.00     0.037 A 
ATOM     28  C   UNL A   1      41.020  31.816  35.509  1.00  0.00     0.049 A 
ATOM     29  C   UNL A   1      41.514  28.647  30.906  1.00  0.00     0.074 A 
ATOM     30  C   UNL A   1      41.891  31.532  36.549  1.00  0.00     0.029 A 
ATOM     31  N   UNL A   1      41.326  30.933  34.484  1.00  0.00    -0.354 N 
ATOM     32  N   UNL A   1      41.505  29.289  32.049  1.00  0.00    -0.248 NA
ATOM     33  C   UNL A   1      42.548  27.610  30.805  1.00  0.00     0.031 C 
ATOM     34  C   UNL A   1      42.746  30.505  36.139  1.00  0.00     0.029 A 
ATOM     35  C   UNL A   1      42.381  30.115  34.860  1.00  0.00     0.049 A 
ATOM     36  H   UNL A   1      40.863  30.892  33.617  1.00  0.00     0.167 HD
ATOM     37  C   UNL A   1      42.526  28.732  32.805  1.00  0.00     0.074 A 
ATOM     38  C   UNL A   1      43.108  27.675  32.005  1.00  0.00     0.031 C 
ATOM     39  C   UNL A   1      42.951  29.074  34.045  1.00  0.00     0.037 A 
BRANCH  26  40
ATOM     40  C   UNL A   1      39.800  33.706  36.646  1.00  0.00     0.064 A 
ATOM     41  C   UNL A   1      40.417  34.962  36.730  1.00  0.00     0.173 A 
ATOM     42  C   UNL A   1      38.933  33.330  37.685  1.00  0.00     0.173 A 
ATOM     43  F   UNL A   1      41.261  35.364  35.768  1.00  0.00    -0.203 F 
ATOM     44  C   UNL A   1      40.184  35.805  37.814  1.00  0.00     0.198 A 
ATOM     45  C   UNL A   1      38.684  34.185  38.756  1.00  0.00     0.198 A 
ATOM     46  F   UNL A   1      38.312  32.142  37.651  1.00  0.00    -0.203 F 
ATOM     47  F   UNL A   1      40.806  36.990  37.886  1.00  0.00    -0.200 F 
ATOM     48  C   UNL A   1      39.310  35.420  38.821  1.00  0.00     0.200 A 
ATOM     49  F   UNL A   1      37.829  33.818  39.721  1.00  0.00    -0.200 F 
ATOM     50  F   UNL A   1      39.075  36.240  39.855  1.00  0.00    -0.200 F 
ENDBRANCH  26  40
BRANCH  27  51
ATOM     51  C   UNL A   1      40.781  27.988  28.497  1.00  0.00     0.064 A 
ATOM     52  C   UNL A   1      40.155  26.740  28.393  1.00  0.00     0.173 A 
ATOM     53  C   UNL A   1      41.565  28.419  27.415  1.00  0.00     0.173 A 
ATOM     54  F   UNL A   1      39.410  26.276  29.408  1.00  0.00    -0.203 F 
ATOM     55  C   UNL A   1      40.322  25.944  27.261  1.00  0.00     0.198 A 
ATOM     56  C   UNL A   1      41.703  27.638  26.271  1.00  0.00     0.198 A 
ATOM     57  F   UNL A   1      42.180  29.609  27.463  1.00  0.00    -0.203 F 
ATOM     58  F   UNL A   1      39.753  24.732  27.207  1.00  0.00    -0.200 F 
ATOM     59  C   UNL A   1      41.091  26.397  26.199  1.00  0.00     0.200 A 
ATOM     60  F   UNL A   1      42.432  28.088  25.241  1.00  0.00    -0.200 F 
ATOM     61  F   UNL A   1      41.249  25.633  25.110  1.00  0.00    -0.200 F 
ENDBRANCH  27  51
BRANCH  39  62
ATOM     62  C   UNL A   1      44.096  28.283  34.604  1.00  0.00     0.064 A 
ATOM     63  C   UNL A   1      43.883  27.101  35.330  1.00  0.00     0.173 A 
ATOM     64  C   UNL A   1      45.418  28.711  34.416  1.00  0.00     0.173 A 
ATOM     65  F   UNL A   1      42.634  26.662  35.554  1.00  0.00    -0.203 F 
ATOM     66  C   UNL A   1      44.950  26.396  35.878  1.00  0.00     0.198 A 
ATOM     67  C   UNL A   1      46.485  27.986  34.939  1.00  0.00     0.198 A 
ATOM     68  F   UNL A   1      45.674  29.832  33.726  1.00  0.00    -0.203 F 
ATOM     69  F   UNL A   1      44.720  25.303  36.619  1.00  0.00    -0.200 F 
ATOM     70  C   UNL A   1      46.250  26.837  35.679  1.00  0.00     0.200 A 
ATOM     71  F   UNL A   1      47.741  28.408  34.739  1.00  0.00    -0.200 F 
ATOM     72  F   UNL A   1      47.276  26.160  36.210  1.00  0.00    -0.200 F 
ENDBRANCH  39  62
ENDBRANCH  13  14
ENDBRANCH   6   8
ENDBRANCH   3   4
ENDBRANCH   2   3
ENDBRANCH   1   2
BRANCH   1  73
ATOM     73  C   UNL A   1      32.920  30.099  26.261  1.00  0.00     0.002 C 
BRANCH  73  74
ATOM     74  C   UNL A   1      33.102  28.848  25.388  1.00  0.00     0.021 C 
BRANCH  74  75
ATOM     75  C   UNL A   1      33.371  29.160  23.913  1.00  0.00     0.116 C 
BRANCH  75  76
ATOM     76  N   UNL A   1      32.116  29.213  23.191  1.00  0.00    -0.356 N 
ATOM     77  C   UNL A   1      31.317  28.209  22.741  1.00  0.00     0.224 C 
ATOM     78  H   UNL A   1      31.790  30.121  22.995  1.00  0.00     0.163 HD
ATOM     79  O   UNL A   1      30.410  28.525  21.967  1.00  0.00    -0.275 OA
BRANCH  77  80
ATOM     80  C   UNL A   1      31.490  26.779  23.246  1.00  0.00     0.098 C 
ATOM     81  C   UNL A   1      30.308  26.416  24.176  1.00  0.00     0.017 C 
ATOM     82  C   UNL A   1      31.563  25.728  22.137  1.00  0.00     0.133 C 
ATOM     83  C   UNL A   1      30.402  24.981  24.701  1.00  0.00     0.022 C 
ATOM     84  N   UNL A   1      31.718  24.397  22.727  1.00  0.00    -0.338 N 
ATOM     85  C   UNL A   1      30.604  23.973  23.571  1.00  0.00     0.120 C 
BRANCH  84  86
ATOM     86  C   UNL A   1      32.939  23.738  22.609  1.00  0.00     0.255 C 
ATOM     87  O   UNL A   1      33.661  23.822  21.617  1.00  0.00    -0.269 OA
BRANCH  86  88
ATOM     88  C   UNL A   1      33.428  22.916  23.732  1.00  0.00     0.059 A 
ATOM     89  C   UNL A   1      33.207  21.532  23.672  1.00  0.00     0.031 A 
ATOM     90  C   UNL A   1      34.032  23.486  24.861  1.00  0.00     0.053 A 
ATOM     91  C   UNL A   1      33.635  20.723  24.724  1.00  0.00     0.018 A 
ATOM     92  C   UNL A   1      34.465  22.661  25.903  1.00  0.00     0.022 A 
ATOM     93  Cl  UNL A   1      34.249  25.189  25.043  1.00  0.00    -0.083 Cl
ATOM     94  Br  UNL A   1      33.345  18.856  24.653  1.00  0.00    -0.051 Br
ATOM     95  C   UNL A   1      34.271  21.278  25.834  1.00  0.00     0.017 A 
ENDBRANCH  86  88
ENDBRANCH  84  86
ENDBRANCH  77  80
ENDBRANCH  75  76
ENDBRANCH  74  75
ENDBRANCH  73  74
ENDBRANCH   1  73
TORSDOF 15
ENDMDL
MODEL 3
REMARK VINA RESULT:     -12.3      1.119      1.654
REMARK SMILES O=C(NCCCCCCNC(=O)[C@H]1CCCN(C(=O)c2cc(Br)ccc2Cl)C1)c1ccc(-c2c3nc(c(-c4c(F)c(F)c(F)c(F)c4F)c4ccc([nH]4)c(-c4c(F)c(F)c(F)c(F)c4F)c4nc(c(-c5c(F)c(F)c(F)c(F)c5F)c5ccc2[nH]5)C=C4)C=C3)cc1
REMARK SMILES IDX 6 1 5 2 4 3 3 4 1 5 2 6 29 8 30 9 91 10 31 11 90 12 32 13
REMARK SMILES IDX 33 14 34 15 84 16 35 17 89 18 83 19 85 20 36 21 88 22 82 23
REMARK SMILES IDX 81 24 37 26 69 27 49 28 68 29 50 30 53 31 67 32 86 33 51 34
REMARK SMILES IDX 52 35 66 37 87 38 54 39 38 40 39 41 47 42 40 43 41 44 45 45
REMARK SMILES IDX 48 46 42 47 43 48 46 49 44 50 70 51 71 52 79 53 72 54 73 55
REMARK SMILES IDX 77 56 80 57 74 58 75 59 78 60 76 61 55 62 56 63 64 64 57 65
REMARK SMILES IDX 58 66 62 67 65 68 59 69 60 70 63 71 61 72 7 73 8 74 9 75
REMARK SMILES IDX 10 76 11 77 12 79 13 80 14 81 28 82 15 83 17 84 16 85 18 86
REMARK SMILES IDX 19 87 20 88 21 89 26 90 22 91 25 92 27 93 23 94 24 95
REMARK H PARENT 3 7 85 25 53 36 10 78
REMARK Flexibility Score: inf
ROOT
ATOM      1  C   UNL A   1      31.560  30.767  26.154  1.00  0.00     0.002 C 
ENDROOT
BRANCH   1   2
ATOM      2  C   UNL A   1      31.380  32.218  26.595  1.00  0.00     0.021 C 
BRANCH   2   3
ATOM      3  C   UNL A   1      32.646  32.861  27.142  1.00  0.00     0.116 C 
BRANCH   3   4
ATOM      4  N   UNL A   1      32.403  34.203  27.648  1.00  0.00    -0.352 N 
ATOM      5  O   UNL A   1      32.567  35.901  29.131  1.00  0.00    -0.269 OA
ATOM      6  C   UNL A   1      33.013  34.849  28.698  1.00  0.00     0.251 C 
ATOM      7  H   UNL A   1      31.709  34.718  27.175  1.00  0.00     0.163 HD
BRANCH   6   8
ATOM      8  C   UNL A   1      34.217  34.245  29.309  1.00  0.00     0.039 A 
ATOM      9  C   UNL A   1      34.088  33.315  30.344  1.00  0.00     0.014 A 
ATOM     10  C   UNL A   1      35.483  34.608  28.842  1.00  0.00     0.014 A 
ATOM     11  C   UNL A   1      35.221  32.846  30.993  1.00  0.00     0.010 A 
ATOM     12  C   UNL A   1      36.625  34.063  29.437  1.00  0.00     0.010 A 
ATOM     13  C   UNL A   1      36.502  33.191  30.530  1.00  0.00    -0.014 A 
BRANCH  13  14
ATOM     14  C   UNL A   1      37.680  32.538  31.151  1.00  0.00     0.031 A 
ATOM     15  C   UNL A   1      38.140  32.890  32.535  1.00  0.00     0.074 A 
ATOM     16  C   UNL A   1      38.303  31.568  30.451  1.00  0.00     0.049 A 
ATOM     17  N   UNL A   1      39.118  32.368  33.233  1.00  0.00    -0.248 NA
ATOM     18  C   UNL A   1      37.421  33.971  33.226  1.00  0.00     0.031 C 
ATOM     19  C   UNL A   1      37.951  31.160  29.087  1.00  0.00     0.029 A 
ATOM     20  N   UNL A   1      39.333  30.730  30.790  1.00  0.00    -0.354 N 
ATOM     21  C   UNL A   1      39.138  33.058  34.438  1.00  0.00     0.074 A 
ATOM     22  C   UNL A   1      38.092  34.057  34.367  1.00  0.00     0.031 C 
ATOM     23  C   UNL A   1      38.709  30.117  28.730  1.00  0.00     0.029 A 
ATOM     24  C   UNL A   1      39.644  29.821  29.808  1.00  0.00     0.049 A 
ATOM     25  H   UNL A   1      39.804  30.776  31.653  1.00  0.00     0.167 HD
ATOM     26  C   UNL A   1      39.950  32.864  35.505  1.00  0.00     0.037 A 
ATOM     27  C   UNL A   1      40.586  28.863  29.774  1.00  0.00     0.037 A 
ATOM     28  C   UNL A   1      40.982  31.859  35.567  1.00  0.00     0.049 A 
ATOM     29  C   UNL A   1      41.473  28.680  30.971  1.00  0.00     0.074 A 
ATOM     30  C   UNL A   1      41.850  31.574  36.610  1.00  0.00     0.029 A 
ATOM     31  N   UNL A   1      41.287  30.973  34.544  1.00  0.00    -0.354 N 
ATOM     32  N   UNL A   1      41.465  29.324  32.113  1.00  0.00    -0.248 NA
ATOM     33  C   UNL A   1      42.504  27.640  30.873  1.00  0.00     0.031 C 
ATOM     34  C   UNL A   1      42.702  30.543  36.202  1.00  0.00     0.029 A 
ATOM     35  C   UNL A   1      42.338  30.152  34.924  1.00  0.00     0.049 A 
ATOM     36  H   UNL A   1      40.825  30.932  33.676  1.00  0.00     0.167 HD
ATOM     37  C   UNL A   1      42.482  28.765  32.871  1.00  0.00     0.074 A 
ATOM     38  C   UNL A   1      43.061  27.704  32.073  1.00  0.00     0.031 C 
ATOM     39  C   UNL A   1      42.906  29.107  34.111  1.00  0.00     0.037 A 
BRANCH  26  40
ATOM     40  C   UNL A   1      39.766  33.755  36.699  1.00  0.00     0.064 A 
ATOM     41  C   UNL A   1      40.370  35.018  36.772  1.00  0.00     0.173 A 
ATOM     42  C   UNL A   1      38.914  33.373  37.747  1.00  0.00     0.173 A 
ATOM     43  F   UNL A   1      41.201  35.426  35.801  1.00  0.00    -0.203 F 
ATOM     44  C   UNL A   1      40.137  35.863  37.855  1.00  0.00     0.198 A 
ATOM     45  C   UNL A   1      38.664  34.229  38.817  1.00  0.00     0.198 A 
ATOM     46  F   UNL A   1      38.305  32.178  37.724  1.00  0.00    -0.203 F 
ATOM     47  F   UNL A   1      40.746  37.054  37.917  1.00  0.00    -0.200 F 
ATOM     48  C   UNL A   1      39.277  35.472  38.872  1.00  0.00     0.200 A 
ATOM     49  F   UNL A   1      37.823  33.856  39.792  1.00  0.00    -0.200 F 
ATOM     50  F   UNL A   1      39.042  36.293  39.904  1.00  0.00    -0.200 F 
ENDBRANCH  26  40
BRANCH  27  51
ATOM     51  C   UNL A   1      40.743  28.020  28.561  1.00  0.00     0.064 A 
ATOM     52  C   UNL A   1      41.527  28.443  27.480  1.00  0.00     0.173 A 
ATOM     53  C   UNL A   1      40.109  26.772  28.459  1.00  0.00     0.173 A 
ATOM     54  F   UNL A   1      42.140  29.636  27.522  1.00  0.00    -0.203 F 
ATOM     55  C   UNL A   1      41.654  27.661  26.335  1.00  0.00     0.198 A 
ATOM     56  C   UNL A   1      40.264  25.976  27.328  1.00  0.00     0.198 A 
ATOM     57  F   UNL A   1      39.352  26.319  29.469  1.00  0.00    -0.203 F 
ATOM     58  F   UNL A   1      42.370  28.111  25.294  1.00  0.00    -0.200 F 
ATOM     59  C   UNL A   1      41.028  26.425  26.262  1.00  0.00     0.200 A 
ATOM     60  F   UNL A   1      39.672  24.776  27.271  1.00  0.00    -0.200 F 
ATOM     61  F   UNL A   1      41.154  25.671  25.162  1.00  0.00    -0.200 F 
ENDBRANCH  27  51
BRANCH  39  62
ATOM     62  C   UNL A   1      44.047  28.313  34.674  1.00  0.00     0.064 A 
ATOM     63  C   UNL A   1      45.378  28.725  34.505  1.00  0.00     0.173 A 
ATOM     64  C   UNL A   1      43.809  27.129  35.386  1.00  0.00     0.173 A 
ATOM     65  F   UNL A   1      45.657  29.841  33.814  1.00  0.00    -0.203 F 
ATOM     66  C   UNL A   1      46.431  27.960  34.998  1.00  0.00     0.198 A 
ATOM     67  C   UNL A   1      44.864  26.382  35.904  1.00  0.00     0.198 A 
ATOM     68  F   UNL A   1      42.555  26.695  35.578  1.00  0.00    -0.203 F 
ATOM     69  F   UNL A   1      47.696  28.340  34.773  1.00  0.00    -0.200 F 
ATOM     70  C   UNL A   1      46.173  26.792  35.700  1.00  0.00     0.200 A 
ATOM     71  F   UNL A   1      44.613  25.259  36.590  1.00  0.00    -0.200 F 
ATOM     72  F   UNL A   1      47.187  26.055  36.170  1.00  0.00    -0.200 F 
ENDBRANCH  39  62
ENDBRANCH  13  14
ENDBRANCH   6   8
ENDBRANCH   3   4
ENDBRANCH   2   3
ENDBRANCH   1   2
BRANCH   1  73
ATOM     73  C   UNL A   1      32.224  29.856  27.194  1.00  0.00     0.002 C 
BRANCH  73  74
ATOM     74  C   UNL A   1      33.748  29.718  27.062  1.00  0.00     0.021 C 
BRANCH  74  75
ATOM     75  C   UNL A   1      34.188  28.531  26.201  1.00  0.00     0.116 C 
BRANCH  75  76
ATOM     76  N   UNL A   1      34.003  28.852  24.800  1.00  0.00    -0.356 N 
ATOM     77  C   UNL A   1      33.413  28.139  23.805  1.00  0.00     0.224 C 
ATOM     78  H   UNL A   1      34.362  29.727  24.526  1.00  0.00     0.163 HD
ATOM     79  O   UNL A   1      33.578  28.549  22.654  1.00  0.00    -0.275 OA
BRANCH  77  80
ATOM     80  C   UNL A   1      32.518  26.942  24.118  1.00  0.00     0.098 C 
ATOM     81  C   UNL A   1      31.102  27.441  24.488  1.00  0.00     0.017 C 
ATOM     82  C   UNL A   1      32.385  25.943  22.968  1.00  0.00     0.133 C 
ATOM     83  C   UNL A   1      30.140  26.290  24.790  1.00  0.00     0.022 C 
ATOM     84  N   UNL A   1      31.502  24.844  23.367  1.00  0.00    -0.338 N 
ATOM     85  C   UNL A   1      30.133  25.247  23.673  1.00  0.00     0.120 C 
BRANCH  84  86
ATOM     86  C   UNL A   1      32.048  23.585  23.604  1.00  0.00     0.255 C 
ATOM     87  O   UNL A   1      31.929  22.637  22.830  1.00  0.00    -0.269 OA
BRANCH  86  88
ATOM     88  C   UNL A   1      32.843  23.362  24.828  1.00  0.00     0.059 A 
ATOM     89  C   UNL A   1      34.235  23.509  24.737  1.00  0.00     0.031 A 
ATOM     90  C   UNL A   1      32.255  22.949  26.030  1.00  0.00     0.053 A 
ATOM     91  C   UNL A   1      35.024  23.286  25.864  1.00  0.00     0.018 A 
ATOM     92  C   UNL A   1      33.057  22.739  27.155  1.00  0.00     0.022 A 
ATOM     93  Cl  UNL A   1      30.560  22.656  26.187  1.00  0.00    -0.083 Cl
ATOM     94  Br  UNL A   1      36.901  23.484  25.755  1.00  0.00    -0.051 Br
ATOM     95  C   UNL A   1      34.441  22.911  27.075  1.00  0.00     0.017 A 
ENDBRANCH  86  88
ENDBRANCH  84  86
ENDBRANCH  77  80
ENDBRANCH  75  76
ENDBRANCH  74  75
ENDBRANCH  73  74
ENDBRANCH   1  73
TORSDOF 15
ENDMDL
