MODEL 1
REMARK VINA RESULT:     -12.1      0.000      0.000
REMARK SMILES Cc1ccsc1C(=O)NNC(=O)[C@@H]1[C@@H](C(=O)NCCCCCCNC(=O)c2ccc(-c3c4nc(c(-c5c(F)c(F)c(F)c(F)c5F)c5ccc([nH]5)c(-c5c(F)c(F)c(F)c(F)c5F)c5nc(c(-c6c(F)c(F)c(F)c(F)c6F)c6ccc3[nH]6)C=C5)C=C4)cc2)[C@H]2C=C[C@@H]1C2
REMARK SMILES IDX 20 1 19 2 18 3 17 4 15 5 16 6 14 8 13 9 93 10 90 11 92 12
REMARK SMILES IDX 94 13 91 14 11 15 10 16 12 18 9 19 7 20 8 21 6 23 1 24 2 25
REMARK SMILES IDX 3 26 4 27 5 28 21 29 22 30 23 31 24 32 25 33 26 35 27 36
REMARK SMILES IDX 28 37 89 38 29 39 88 40 30 41 31 42 32 43 82 44 33 45 87 46
REMARK SMILES IDX 81 47 83 48 34 49 86 50 80 51 79 52 35 54 67 55 47 56 66 57
REMARK SMILES IDX 48 58 51 59 65 60 84 61 49 62 50 63 64 65 85 66 52 67 36 68
REMARK SMILES IDX 37 69 45 70 38 71 39 72 43 73 46 74 40 75 41 76 44 77 42 78
REMARK SMILES IDX 68 79 69 80 77 81 70 82 71 83 75 84 78 85 72 86 73 87 76 88
REMARK SMILES IDX 74 89 53 90 54 91 62 92 55 93 56 94 60 95 63 96 57 97 58 98
REMARK SMILES IDX 61 99 59 100
REMARK H PARENT 17 7 10 17 9 22 24 34 83 53 51 64
REMARK Flexibility Score: inf
ROOT
ATOM      1  C   UNL A   1      32.077  29.294  27.151  1.00  0.00     0.002 C 
ENDROOT
BRANCH   1   2
ATOM      2  C   UNL A   1      33.582  29.023  27.125  1.00  0.00     0.021 C 
BRANCH   2   3
ATOM      3  C   UNL A   1      33.993  27.816  26.290  1.00  0.00     0.116 C 
BRANCH   3   4
ATOM      4  N   UNL A   1      33.094  26.695  26.472  1.00  0.00    -0.356 N 
ATOM      5  C   UNL A   1      32.996  25.477  25.895  1.00  0.00     0.224 C 
ATOM      6  O   UNL A   1      32.081  24.755  26.315  1.00  0.00    -0.275 OA
ATOM      7  H   UNL A   1      32.409  26.854  27.159  1.00  0.00     0.163 HD
BRANCH   5   8
ATOM      8  C   UNL A   1      33.868  24.939  24.767  1.00  0.00     0.098 C 
ATOM      9  C   UNL A   1      33.257  23.977  23.720  1.00  0.00     0.100 C 
ATOM     10  C   UNL A   1      34.403  22.941  23.528  1.00  0.00     0.025 C 
ATOM     11  C   UNL A   1      35.159  24.207  25.225  1.00  0.00     0.025 C 
ATOM     12  C   UNL A   1      34.417  22.078  24.789  1.00  0.00    -0.027 C 
ATOM     13  C   UNL A   1      35.688  23.704  23.876  1.00  0.00     0.017 C 
ATOM     14  C   UNL A   1      34.855  22.848  25.801  1.00  0.00    -0.027 C 
BRANCH   9  15
ATOM     15  C   UNL A   1      32.587  24.689  22.543  1.00  0.00     0.242 C 
ATOM     16  N   UNL A   1      31.259  24.978  22.461  1.00  0.00    -0.267 N 
ATOM     17  H   UNL A   1      30.889  25.169  21.568  1.00  0.00     0.191 HD
ATOM     18  O   UNL A   1      33.278  24.977  21.556  1.00  0.00    -0.273 OA
BRANCH  16  19
ATOM     19  N   UNL A   1      30.399  25.022  23.521  1.00  0.00    -0.263 N 
ATOM     20  C   UNL A   1      29.856  26.155  24.103  1.00  0.00     0.280 C 
ATOM     21  O   UNL A   1      29.218  25.953  25.142  1.00  0.00    -0.266 OA
ATOM     22  H   UNL A   1      30.138  24.158  23.912  1.00  0.00     0.191 HD
BRANCH  20  23
ATOM     23  C   UNL A   1      29.922  27.462  23.446  1.00  0.00     0.096 A 
ATOM     24  C   UNL A   1      32.421  28.148  23.180  1.00  0.00     0.046 C 
ATOM     25  C   UNL A   1      30.945  28.305  23.011  1.00  0.00    -0.027 A 
ATOM     26  C   UNL A   1      30.412  29.465  22.339  1.00  0.00     0.016 A 
ATOM     27  C   UNL A   1      29.041  29.513  22.343  1.00  0.00     0.066 A 
ATOM     28  S   UNL A   1      28.369  28.168  23.126  1.00  0.00    -0.138 S 
ENDBRANCH  20  23
ENDBRANCH  16  19
ENDBRANCH   9  15
ENDBRANCH   5   8
ENDBRANCH   3   4
ENDBRANCH   2   3
ENDBRANCH   1   2
BRANCH   1  29
ATOM     29  C   UNL A   1      31.567  30.292  26.105  1.00  0.00     0.002 C 
BRANCH  29  30
ATOM     30  C   UNL A   1      31.403  31.739  26.582  1.00  0.00     0.021 C 
BRANCH  30  31
ATOM     31  C   UNL A   1      32.703  32.512  26.780  1.00  0.00     0.116 C 
BRANCH  31  32
ATOM     32  N   UNL A   1      32.481  33.828  27.350  1.00  0.00    -0.352 N 
ATOM     33  C   UNL A   1      33.080  34.434  28.425  1.00  0.00     0.251 C 
ATOM     34  H   UNL A   1      31.796  34.369  26.895  1.00  0.00     0.163 HD
ATOM     35  O   UNL A   1      32.630  35.487  28.864  1.00  0.00    -0.269 OA
BRANCH  33  36
ATOM     36  C   UNL A   1      34.258  33.815  29.069  1.00  0.00     0.039 A 
ATOM     37  C   UNL A   1      34.049  32.794  30.000  1.00  0.00     0.014 A 
ATOM     38  C   UNL A   1      35.554  34.260  28.794  1.00  0.00     0.014 A 
ATOM     39  C   UNL A   1      35.142  32.190  30.624  1.00  0.00     0.010 A 
ATOM     40  C   UNL A   1      36.646  33.613  29.366  1.00  0.00     0.010 A 
ATOM     41  C   UNL A   1      36.451  32.580  30.294  1.00  0.00    -0.014 A 
BRANCH  41  42
ATOM     42  C   UNL A   1      37.621  31.922  30.927  1.00  0.00     0.031 A 
ATOM     43  C   UNL A   1      38.072  32.334  32.300  1.00  0.00     0.074 A 
ATOM     44  C   UNL A   1      38.306  30.987  30.242  1.00  0.00     0.049 A 
ATOM     45  N   UNL A   1      39.089  31.902  33.002  1.00  0.00    -0.248 NA
ATOM     46  C   UNL A   1      37.293  33.392  32.961  1.00  0.00     0.031 C 
ATOM     47  C   UNL A   1      38.000  30.543  28.882  1.00  0.00     0.029 A 
ATOM     48  N   UNL A   1      39.410  30.250  30.592  1.00  0.00    -0.354 N 
ATOM     49  C   UNL A   1      39.080  32.644  34.176  1.00  0.00     0.074 A 
ATOM     50  C   UNL A   1      37.989  33.588  34.071  1.00  0.00     0.031 C 
ATOM     51  C   UNL A   1      38.881  29.598  28.520  1.00  0.00     0.029 A 
ATOM     52  C   UNL A   1      39.831  29.391  29.608  1.00  0.00     0.049 A 
ATOM     53  H   UNL A   1      39.856  30.330  31.466  1.00  0.00     0.167 HD
ATOM     54  C   UNL A   1      39.894  32.531  35.253  1.00  0.00     0.037 A 
ATOM     55  C   UNL A   1      40.870  28.534  29.587  1.00  0.00     0.037 A 
ATOM     56  C   UNL A   1      40.961  31.571  35.364  1.00  0.00     0.049 A 
ATOM     57  C   UNL A   1      41.746  28.413  30.803  1.00  0.00     0.074 A 
ATOM     58  C   UNL A   1      41.798  31.329  36.439  1.00  0.00     0.029 A 
ATOM     59  N   UNL A   1      41.340  30.694  34.357  1.00  0.00    -0.354 N 
ATOM     60  N   UNL A   1      41.679  29.063  31.939  1.00  0.00    -0.248 NA
ATOM     61  C   UNL A   1      42.835  27.427  30.738  1.00  0.00     0.031 C 
ATOM     62  C   UNL A   1      42.712  30.336  36.068  1.00  0.00     0.029 A 
ATOM     63  C   UNL A   1      42.413  29.925  34.780  1.00  0.00     0.049 A 
ATOM     64  H   UNL A   1      40.911  30.628  33.474  1.00  0.00     0.167 HD
ATOM     65  C   UNL A   1      42.698  28.553  32.732  1.00  0.00     0.074 A 
ATOM     66  C   UNL A   1      43.356  27.523  31.954  1.00  0.00     0.031 C 
ATOM     67  C   UNL A   1      43.056  28.904  33.992  1.00  0.00     0.037 A 
BRANCH  54  68
ATOM     68  C   UNL A   1      39.660  33.473  36.400  1.00  0.00     0.064 A 
ATOM     69  C   UNL A   1      38.831  33.128  37.478  1.00  0.00     0.173 A 
ATOM     70  C   UNL A   1      40.296  34.722  36.436  1.00  0.00     0.173 A 
ATOM     71  F   UNL A   1      38.191  31.949  37.489  1.00  0.00    -0.203 F 
ATOM     72  C   UNL A   1      38.620  34.014  38.533  1.00  0.00     0.198 A 
ATOM     73  C   UNL A   1      40.107  35.594  37.507  1.00  0.00     0.198 A 
ATOM     74  F   UNL A   1      41.103  35.100  35.434  1.00  0.00    -0.203 F 
ATOM     75  F   UNL A   1      37.782  33.684  39.525  1.00  0.00    -0.200 F 
ATOM     76  C   UNL A   1      39.264  35.242  38.549  1.00  0.00     0.200 A 
ATOM     77  F   UNL A   1      40.739  36.775  37.527  1.00  0.00    -0.200 F 
ATOM     78  F   UNL A   1      39.063  36.091  39.567  1.00  0.00    -0.200 F 
ENDBRANCH  54  68
BRANCH  55  79
ATOM     79  C   UNL A   1      41.117  27.704  28.379  1.00  0.00     0.064 A 
ATOM     80  C   UNL A   1      41.990  28.138  27.372  1.00  0.00     0.173 A 
ATOM     81  C   UNL A   1      40.494  26.458  28.212  1.00  0.00     0.173 A 
ATOM     82  F   UNL A   1      42.594  29.331  27.479  1.00  0.00    -0.203 F 
ATOM     83  C   UNL A   1      42.214  27.368  26.234  1.00  0.00     0.198 A 
ATOM     84  C   UNL A   1      40.741  25.677  27.086  1.00  0.00     0.198 A 
ATOM     85  F   UNL A   1      39.657  25.994  29.151  1.00  0.00    -0.203 F 
ATOM     86  F   UNL A   1      43.020  27.827  25.266  1.00  0.00    -0.200 F 
ATOM     87  C   UNL A   1      41.595  26.135  26.094  1.00  0.00     0.200 A 
ATOM     88  F   UNL A   1      40.153  24.479  26.962  1.00  0.00    -0.200 F 
ATOM     89  F   UNL A   1      41.816  25.392  25.001  1.00  0.00    -0.200 F 
ENDBRANCH  55  79
BRANCH  67  90
ATOM     90  C   UNL A   1      44.195  28.151  34.614  1.00  0.00     0.064 A 
ATOM     91  C   UNL A   1      45.516  28.615  34.532  1.00  0.00     0.173 A 
ATOM     92  C   UNL A   1      43.958  26.965  35.325  1.00  0.00     0.173 A 
ATOM     93  F   UNL A   1      45.797  29.736  33.850  1.00  0.00    -0.203 F 
ATOM     94  C   UNL A   1      46.562  27.904  35.115  1.00  0.00     0.198 A 
ATOM     95  C   UNL A   1      45.001  26.272  35.932  1.00  0.00     0.198 A 
ATOM     96  F   UNL A   1      42.712  26.482  35.438  1.00  0.00    -0.203 F 
ATOM     97  F   UNL A   1      47.822  28.338  34.979  1.00  0.00    -0.200 F 
ATOM     98  C   UNL A   1      46.303  26.737  35.819  1.00  0.00     0.200 A 
ATOM     99  F   UNL A   1      44.748  25.152  36.623  1.00  0.00    -0.200 F 
ATOM    100  F   UNL A   1      47.311  26.055  36.382  1.00  0.00    -0.200 F 
ENDBRANCH  67  90
ENDBRANCH  41  42
ENDBRANCH  33  36
ENDBRANCH  31  32
ENDBRANCH  30  31
ENDBRANCH  29  30
ENDBRANCH   1  29
TORSDOF 16
ENDMDL
MODEL 2
REMARK VINA RESULT:     -12.1      1.455      7.586
REMARK SMILES Cc1ccsc1C(=O)NNC(=O)[C@@H]1[C@@H](C(=O)NCCCCCCNC(=O)c2ccc(-c3c4nc(c(-c5c(F)c(F)c(F)c(F)c5F)c5ccc([nH]5)c(-c5c(F)c(F)c(F)c(F)c5F)c5nc(c(-c6c(F)c(F)c(F)c(F)c6F)c6ccc3[nH]6)C=C5)C=C4)cc2)[C@H]2C=C[C@@H]1C2
REMARK SMILES IDX 20 1 19 2 18 3 17 4 15 5 16 6 14 8 13 9 93 10 90 11 92 12
REMARK SMILES IDX 94 13 91 14 11 15 10 16 12 18 9 19 7 20 8 21 6 23 1 24 2 25
REMARK SMILES IDX 3 26 4 27 5 28 21 29 22 30 23 31 24 32 25 33 26 35 27 36
REMARK SMILES IDX 28 37 89 38 29 39 88 40 30 41 31 42 32 43 82 44 33 45 87 46
REMARK SMILES IDX 81 47 83 48 34 49 86 50 80 51 79 52 35 54 67 55 47 56 66 57
REMARK SMILES IDX 48 58 51 59 65 60 84 61 49 62 50 63 64 65 85 66 52 67 36 68
REMARK SMILES IDX 37 69 45 70 38 71 39 72 43 73 46 74 40 75 41 76 44 77 42 78
REMARK SMILES IDX 68 79 69 80 77 81 70 82 71 83 75 84 78 85 72 86 73 87 76 88
REMARK SMILES IDX 74 89 53 90 54 91 62 92 55 93 56 94 60 95 63 96 57 97 58 98
REMARK SMILES IDX 61 99 59 100
REMARK H PARENT 17 7 10 17 9 22 24 34 83 53 51 64
REMARK Flexibility Score: inf
ROOT
ATOM      1  C   UNL A   1      32.179  29.874  27.251  1.00  0.00     0.002 C 
ENDROOT
BRANCH   1   2
ATOM      2  C   UNL A   1      33.687  29.652  27.132  1.00  0.00     0.021 C 
BRANCH   2   3
ATOM      3  C   UNL A   1      34.082  28.408  26.345  1.00  0.00     0.116 C 
BRANCH   3   4
ATOM      4  N   UNL A   1      34.232  28.681  24.931  1.00  0.00    -0.356 N 
ATOM      5  C   UNL A   1      33.570  28.268  23.827  1.00  0.00     0.224 C 
ATOM      6  O   UNL A   1      33.982  28.723  22.751  1.00  0.00    -0.275 OA
ATOM      7  H   UNL A   1      34.972  29.296  24.731  1.00  0.00     0.163 HD
BRANCH   5   8
ATOM      8  C   UNL A   1      32.412  27.280  23.786  1.00  0.00     0.098 C 
ATOM      9  C   UNL A   1      31.873  26.788  22.422  1.00  0.00     0.100 C 
ATOM     10  C   UNL A   1      30.335  26.787  22.663  1.00  0.00     0.025 C 
ATOM     11  C   UNL A   1      31.132  27.734  24.541  1.00  0.00     0.025 C 
ATOM     12  C   UNL A   1      29.901  28.253  22.671  1.00  0.00    -0.027 C 
ATOM     13  C   UNL A   1      30.173  26.593  24.177  1.00  0.00     0.017 C 
ATOM     14  C   UNL A   1      30.396  28.814  23.789  1.00  0.00    -0.027 C 
BRANCH   9  15
ATOM     15  C   UNL A   1      32.618  25.572  21.865  1.00  0.00     0.242 C 
ATOM     16  N   UNL A   1      32.669  24.350  22.464  1.00  0.00    -0.267 N 
ATOM     17  H   UNL A   1      33.388  23.738  22.186  1.00  0.00     0.191 HD
ATOM     18  O   UNL A   1      33.278  25.708  20.826  1.00  0.00    -0.273 OA
BRANCH  16  19
ATOM     19  N   UNL A   1      31.800  23.907  23.420  1.00  0.00    -0.263 N 
ATOM     20  C   UNL A   1      32.077  23.020  24.446  1.00  0.00     0.280 C 
ATOM     21  O   UNL A   1      31.093  22.657  25.101  1.00  0.00    -0.266 OA
ATOM     22  H   UNL A   1      30.880  24.254  23.373  1.00  0.00     0.191 HD
BRANCH  20  23
ATOM     23  C   UNL A   1      33.452  22.666  24.804  1.00  0.00     0.096 A 
ATOM     24  C   UNL A   1      34.743  24.837  25.441  1.00  0.00     0.046 C 
ATOM     25  C   UNL A   1      34.572  23.365  25.255  1.00  0.00    -0.027 A 
ATOM     26  C   UNL A   1      35.667  22.467  25.530  1.00  0.00     0.016 A 
ATOM     27  C   UNL A   1      35.389  21.159  25.224  1.00  0.00     0.066 A 
ATOM     28  S   UNL A   1      33.813  20.978  24.625  1.00  0.00    -0.138 S 
ENDBRANCH  20  23
ENDBRANCH  16  19
ENDBRANCH   9  15
ENDBRANCH   5   8
ENDBRANCH   3   4
ENDBRANCH   2   3
ENDBRANCH   1   2
BRANCH   1  29
ATOM     29  C   UNL A   1      31.583  30.904  26.285  1.00  0.00     0.002 C 
BRANCH  29  30
ATOM     30  C   UNL A   1      31.406  32.321  26.841  1.00  0.00     0.021 C 
BRANCH  30  31
ATOM     31  C   UNL A   1      32.699  33.091  27.090  1.00  0.00     0.116 C 
BRANCH  31  32
ATOM     32  N   UNL A   1      32.457  34.408  27.651  1.00  0.00    -0.352 N 
ATOM     33  C   UNL A   1      33.018  35.014  28.746  1.00  0.00     0.251 C 
ATOM     34  H   UNL A   1      31.789  34.949  27.172  1.00  0.00     0.163 HD
ATOM     35  O   UNL A   1      32.553  36.067  29.168  1.00  0.00    -0.269 OA
BRANCH  33  36
ATOM     36  C   UNL A   1      34.172  34.396  29.431  1.00  0.00     0.039 A 
ATOM     37  C   UNL A   1      33.935  33.625  30.573  1.00  0.00     0.014 A 
ATOM     38  C   UNL A   1      35.480  34.603  28.984  1.00  0.00     0.014 A 
ATOM     39  C   UNL A   1      35.005  33.027  31.241  1.00  0.00     0.010 A 
ATOM     40  C   UNL A   1      36.539  33.953  29.611  1.00  0.00     0.010 A 
ATOM     41  C   UNL A   1      36.314  33.169  30.752  1.00  0.00    -0.014 A 
BRANCH  41  42
ATOM     42  C   UNL A   1      37.454  32.510  31.436  1.00  0.00     0.031 A 
ATOM     43  C   UNL A   1      38.161  31.353  30.787  1.00  0.00     0.074 A 
ATOM     44  C   UNL A   1      37.820  32.924  32.664  1.00  0.00     0.049 A 
ATOM     45  N   UNL A   1      39.153  30.628  31.241  1.00  0.00    -0.248 NA
ATOM     46  C   UNL A   1      37.672  30.937  29.464  1.00  0.00     0.031 C 
ATOM     47  C   UNL A   1      37.175  33.998  33.419  1.00  0.00     0.029 A 
ATOM     48  N   UNL A   1      38.816  32.482  33.498  1.00  0.00    -0.354 N 
ATOM     49  C   UNL A   1      39.393  29.666  30.270  1.00  0.00     0.074 A 
ATOM     50  C   UNL A   1      38.413  29.865  29.225  1.00  0.00     0.031 C 
ATOM     51  C   UNL A   1      37.803  34.145  34.596  1.00  0.00     0.029 A 
ATOM     52  C   UNL A   1      38.873  33.158  34.691  1.00  0.00     0.049 A 
ATOM     53  H   UNL A   1      39.431  31.751  33.262  1.00  0.00     0.167 HD
ATOM     54  C   UNL A   1      40.359  28.717  30.241  1.00  0.00     0.037 A 
ATOM     55  C   UNL A   1      39.697  32.996  35.745  1.00  0.00     0.037 A 
ATOM     56  C   UNL A   1      41.351  28.540  31.271  1.00  0.00     0.049 A 
ATOM     57  C   UNL A   1      40.774  31.950  35.680  1.00  0.00     0.074 A 
ATOM     58  C   UNL A   1      42.414  27.655  31.304  1.00  0.00     0.029 A 
ATOM     59  N   UNL A   1      41.396  29.265  32.454  1.00  0.00    -0.354 N 
ATOM     60  N   UNL A   1      41.043  31.097  34.721  1.00  0.00    -0.248 NA
ATOM     61  C   UNL A   1      41.672  31.851  36.839  1.00  0.00     0.031 C 
ATOM     62  C   UNL A   1      43.077  27.813  32.526  1.00  0.00     0.029 A 
ATOM     63  C   UNL A   1      42.457  28.831  33.233  1.00  0.00     0.049 A 
ATOM     64  H   UNL A   1      40.769  29.981  32.702  1.00  0.00     0.167 HD
ATOM     65  C   UNL A   1      42.152  30.378  35.148  1.00  0.00     0.074 A 
ATOM     66  C   UNL A   1      42.517  30.909  36.445  1.00  0.00     0.031 C 
ATOM     67  C   UNL A   1      42.808  29.370  34.523  1.00  0.00     0.037 A 
BRANCH  54  68
ATOM     68  C   UNL A   1      40.391  27.795  29.056  1.00  0.00     0.064 A 
ATOM     69  C   UNL A   1      39.643  26.608  29.026  1.00  0.00     0.173 A 
ATOM     70  C   UNL A   1      41.155  28.116  27.924  1.00  0.00     0.173 A 
ATOM     71  F   UNL A   1      38.902  26.249  30.086  1.00  0.00    -0.203 F 
ATOM     72  C   UNL A   1      39.685  25.760  27.922  1.00  0.00     0.198 A 
ATOM     73  C   UNL A   1      41.172  27.281  26.809  1.00  0.00     0.198 A 
ATOM     74  F   UNL A   1      41.885  29.240  27.897  1.00  0.00    -0.203 F 
ATOM     75  F   UNL A   1      39.004  24.606  27.938  1.00  0.00    -0.200 F 
ATOM     76  C   UNL A   1      40.444  26.101  26.812  1.00  0.00     0.200 A 
ATOM     77  F   UNL A   1      41.896  27.617  25.733  1.00  0.00    -0.200 F 
ATOM     78  F   UNL A   1      40.480  25.286  25.748  1.00  0.00    -0.200 F 
ENDBRANCH  54  68
BRANCH  55  79
ATOM     79  C   UNL A   1      39.549  33.869  36.938  1.00  0.00     0.064 A 
ATOM     80  C   UNL A   1      40.161  35.129  36.991  1.00  0.00     0.173 A 
ATOM     81  C   UNL A   1      38.787  33.466  38.045  1.00  0.00     0.173 A 
ATOM     82  F   UNL A   1      40.914  35.549  35.964  1.00  0.00    -0.203 F 
ATOM     83  C   UNL A   1      40.035  35.944  38.112  1.00  0.00     0.198 A 
ATOM     84  C   UNL A   1      38.639  34.294  39.155  1.00  0.00     0.198 A 
ATOM     85  F   UNL A   1      38.175  32.273  38.041  1.00  0.00    -0.203 F 
ATOM     86  F   UNL A   1      40.667  37.125  38.154  1.00  0.00    -0.200 F 
ATOM     87  C   UNL A   1      39.269  35.529  39.192  1.00  0.00     0.200 A 
ATOM     88  F   UNL A   1      37.885  33.896  40.190  1.00  0.00    -0.200 F 
ATOM     89  F   UNL A   1      39.143  36.316  40.269  1.00  0.00    -0.200 F 
ENDBRANCH  55  79
BRANCH  67  90
ATOM     90  C   UNL A   1      44.004  28.794  35.223  1.00  0.00     0.064 A 
ATOM     91  C   UNL A   1      45.299  29.277  34.985  1.00  0.00     0.173 A 
ATOM     92  C   UNL A   1      43.847  27.766  36.165  1.00  0.00     0.173 A 
ATOM     93  F   UNL A   1      45.502  30.247  34.083  1.00  0.00    -0.203 F 
ATOM     94  C   UNL A   1      46.397  28.730  35.643  1.00  0.00     0.198 A 
ATOM     95  C   UNL A   1      44.944  27.243  36.843  1.00  0.00     0.198 A 
ATOM     96  F   UNL A   1      42.628  27.274  36.434  1.00  0.00    -0.203 F 
ATOM     97  F   UNL A   1      47.631  29.170  35.362  1.00  0.00    -0.200 F 
ATOM     98  C   UNL A   1      46.218  27.719  36.575  1.00  0.00     0.200 A 
ATOM     99  F   UNL A   1      44.768  26.275  37.753  1.00  0.00    -0.200 F 
ATOM    100  F   UNL A   1      47.277  27.196  37.211  1.00  0.00    -0.200 F 
ENDBRANCH  67  90
ENDBRANCH  41  42
ENDBRANCH  33  36
ENDBRANCH  31  32
ENDBRANCH  30  31
ENDBRANCH  29  30
ENDBRANCH   1  29
TORSDOF 16
ENDMDL
MODEL 3
REMARK VINA RESULT:     -12.1      5.071      9.227
REMARK SMILES Cc1ccsc1C(=O)NNC(=O)[C@@H]1[C@@H](C(=O)NCCCCCCNC(=O)c2ccc(-c3c4nc(c(-c5c(F)c(F)c(F)c(F)c5F)c5ccc([nH]5)c(-c5c(F)c(F)c(F)c(F)c5F)c5nc(c(-c6c(F)c(F)c(F)c(F)c6F)c6ccc3[nH]6)C=C5)C=C4)cc2)[C@H]2C=C[C@@H]1C2
REMARK SMILES IDX 20 1 19 2 18 3 17 4 15 5 16 6 14 8 13 9 93 10 90 11 92 12
REMARK SMILES IDX 94 13 91 14 11 15 10 16 12 18 9 19 7 20 8 21 6 23 1 24 2 25
REMARK SMILES IDX 3 26 4 27 5 28 21 29 22 30 23 31 24 32 25 33 26 35 27 36
REMARK SMILES IDX 28 37 89 38 29 39 88 40 30 41 31 42 32 43 82 44 33 45 87 46
REMARK SMILES IDX 81 47 83 48 34 49 86 50 80 51 79 52 35 54 67 55 47 56 66 57
REMARK SMILES IDX 48 58 51 59 65 60 84 61 49 62 50 63 64 65 85 66 52 67 36 68
REMARK SMILES IDX 37 69 45 70 38 71 39 72 43 73 46 74 40 75 41 76 44 77 42 78
REMARK SMILES IDX 68 79 69 80 77 81 70 82 71 83 75 84 78 85 72 86 73 87 76 88
REMARK SMILES IDX 74 89 53 90 54 91 62 92 55 93 56 94 60 95 63 96 57 97 58 98
REMARK SMILES IDX 61 99 59 100
REMARK H PARENT 17 7 10 17 9 22 24 34 83 53 51 64
REMARK Flexibility Score: inf
ROOT
ATOM      1  C   UNL A   1      36.483  21.906  24.221  1.00  0.00     0.002 C 
ENDROOT
BRANCH   1   2
ATOM      2  C   UNL A   1      36.971  23.167  24.935  1.00  0.00     0.021 C 
BRANCH   2   3
ATOM      3  C   UNL A   1      35.860  24.087  25.428  1.00  0.00     0.116 C 
BRANCH   3   4
ATOM      4  N   UNL A   1      35.061  24.609  24.339  1.00  0.00    -0.356 N 
ATOM      5  C   UNL A   1      33.901  25.301  24.283  1.00  0.00     0.224 C 
ATOM      6  O   UNL A   1      33.504  25.593  23.147  1.00  0.00    -0.275 OA
ATOM      7  H   UNL A   1      35.443  24.420  23.452  1.00  0.00     0.163 HD
BRANCH   5   8
ATOM      8  C   UNL A   1      33.035  25.707  25.468  1.00  0.00     0.098 C 
ATOM      9  C   UNL A   1      31.493  25.662  25.340  1.00  0.00     0.100 C 
ATOM     10  C   UNL A   1      31.070  26.965  26.079  1.00  0.00     0.025 C 
ATOM     11  C   UNL A   1      33.312  27.129  26.029  1.00  0.00     0.025 C 
ATOM     12  C   UNL A   1      31.437  28.123  25.151  1.00  0.00    -0.027 C 
ATOM     13  C   UNL A   1      32.201  27.237  27.081  1.00  0.00     0.017 C 
ATOM     14  C   UNL A   1      32.779  28.202  25.115  1.00  0.00    -0.027 C 
BRANCH   9  15
ATOM     15  C   UNL A   1      30.886  24.297  25.670  1.00  0.00     0.242 C 
ATOM     16  N   UNL A   1      30.704  23.288  24.772  1.00  0.00    -0.267 N 
ATOM     17  H   UNL A   1      30.061  22.581  25.008  1.00  0.00     0.191 HD
ATOM     18  O   UNL A   1      30.467  24.098  26.818  1.00  0.00    -0.273 OA
BRANCH  16  19
ATOM     19  N   UNL A   1      31.343  23.182  23.570  1.00  0.00    -0.263 N 
ATOM     20  C   UNL A   1      32.297  22.243  23.217  1.00  0.00     0.280 C 
ATOM     21  O   UNL A   1      32.839  22.436  22.123  1.00  0.00    -0.266 OA
ATOM     22  H   UNL A   1      31.101  23.845  22.883  1.00  0.00     0.191 HD
BRANCH  20  23
ATOM     23  C   UNL A   1      32.527  21.043  24.023  1.00  0.00     0.096 A 
ATOM     24  C   UNL A   1      33.365  21.760  26.383  1.00  0.00     0.046 C 
ATOM     25  C   UNL A   1      32.927  20.789  25.335  1.00  0.00    -0.027 A 
ATOM     26  C   UNL A   1      32.904  19.375  25.621  1.00  0.00     0.016 A 
ATOM     27  C   UNL A   1      32.570  18.607  24.535  1.00  0.00     0.066 A 
ATOM     28  S   UNL A   1      32.257  19.557  23.167  1.00  0.00    -0.138 S 
ENDBRANCH  20  23
ENDBRANCH  16  19
ENDBRANCH   9  15
ENDBRANCH   5   8
ENDBRANCH   3   4
ENDBRANCH   2   3
ENDBRANCH   1   2
BRANCH   1  29
ATOM     29  C   UNL A   1      36.665  20.595  24.994  1.00  0.00     0.002 C 
BRANCH  29  30
ATOM     30  C   UNL A   1      38.027  19.911  24.843  1.00  0.00     0.021 C 
BRANCH  30  31
ATOM     31  C   UNL A   1      38.996  20.121  26.003  1.00  0.00     0.116 C 
BRANCH  31  32
ATOM     32  N   UNL A   1      40.099  19.178  25.978  1.00  0.00    -0.352 N 
ATOM     33  C   UNL A   1      41.449  19.401  26.062  1.00  0.00     0.251 C 
ATOM     34  H   UNL A   1      39.838  18.233  25.886  1.00  0.00     0.163 HD
ATOM     35  O   UNL A   1      42.236  18.487  25.843  1.00  0.00    -0.269 OA
BRANCH  33  36
ATOM     36  C   UNL A   1      41.963  20.744  26.403  1.00  0.00     0.039 A 
ATOM     37  C   UNL A   1      42.168  21.662  25.368  1.00  0.00     0.014 A 
ATOM     38  C   UNL A   1      42.281  21.089  27.720  1.00  0.00     0.014 A 
ATOM     39  C   UNL A   1      42.651  22.938  25.659  1.00  0.00     0.010 A 
ATOM     40  C   UNL A   1      42.699  22.384  28.016  1.00  0.00     0.010 A 
ATOM     41  C   UNL A   1      42.899  23.317  26.988  1.00  0.00    -0.014 A 
BRANCH  41  42
ATOM     42  C   UNL A   1      43.381  24.683  27.311  1.00  0.00     0.031 A 
ATOM     43  C   UNL A   1      42.441  25.701  27.894  1.00  0.00     0.074 A 
ATOM     44  C   UNL A   1      44.655  25.020  27.032  1.00  0.00     0.049 A 
ATOM     45  N   UNL A   1      42.666  26.951  28.209  1.00  0.00    -0.248 NA
ATOM     46  C   UNL A   1      41.057  25.263  28.128  1.00  0.00     0.031 C 
ATOM     47  C   UNL A   1      45.645  24.137  26.416  1.00  0.00     0.029 A 
ATOM     48  N   UNL A   1      45.331  26.199  27.221  1.00  0.00    -0.354 N 
ATOM     49  C   UNL A   1      41.452  27.451  28.662  1.00  0.00     0.074 A 
ATOM     50  C   UNL A   1      40.482  26.386  28.534  1.00  0.00     0.031 C 
ATOM     51  C   UNL A   1      46.807  24.799  26.293  1.00  0.00     0.029 A 
ATOM     52  C   UNL A   1      46.635  26.159  26.795  1.00  0.00     0.049 A 
ATOM     53  H   UNL A   1      44.919  26.997  27.624  1.00  0.00     0.167 HD
ATOM     54  C   UNL A   1      41.178  28.680  29.162  1.00  0.00     0.037 A 
ATOM     55  C   UNL A   1      47.585  27.113  26.807  1.00  0.00     0.037 A 
ATOM     56  C   UNL A   1      42.154  29.728  29.313  1.00  0.00     0.049 A 
ATOM     57  C   UNL A   1      47.261  28.463  27.385  1.00  0.00     0.074 A 
ATOM     58  C   UNL A   1      41.994  30.984  29.872  1.00  0.00     0.029 A 
ATOM     59  N   UNL A   1      43.476  29.641  28.898  1.00  0.00    -0.354 N 
ATOM     60  N   UNL A   1      46.130  28.899  27.885  1.00  0.00    -0.248 NA
ATOM     61  C   UNL A   1      48.350  29.449  27.414  1.00  0.00     0.031 C 
ATOM     62  C   UNL A   1      43.206  31.673  29.756  1.00  0.00     0.029 A 
ATOM     63  C   UNL A   1      44.136  30.829  29.170  1.00  0.00     0.049 A 
ATOM     64  H   UNL A   1      43.884  28.852  28.474  1.00  0.00     0.167 HD
ATOM     65  C   UNL A   1      46.376  30.199  28.308  1.00  0.00     0.074 A 
ATOM     66  C   UNL A   1      47.770  30.473  28.024  1.00  0.00     0.031 C 
ATOM     67  C   UNL A   1      45.524  31.085  28.881  1.00  0.00     0.037 A 
BRANCH  54  68
ATOM     68  C   UNL A   1      39.763  28.958  29.582  1.00  0.00     0.064 A 
ATOM     69  C   UNL A   1      38.814  29.465  28.681  1.00  0.00     0.173 A 
ATOM     70  C   UNL A   1      39.343  28.686  30.892  1.00  0.00     0.173 A 
ATOM     71  F   UNL A   1      39.165  29.751  27.418  1.00  0.00    -0.203 F 
ATOM     72  C   UNL A   1      37.506  29.722  29.087  1.00  0.00     0.198 A 
ATOM     73  C   UNL A   1      38.027  28.916  31.286  1.00  0.00     0.198 A 
ATOM     74  F   UNL A   1      40.208  28.196  31.792  1.00  0.00    -0.203 F 
ATOM     75  F   UNL A   1      36.631  30.256  28.223  1.00  0.00    -0.200 F 
ATOM     76  C   UNL A   1      37.113  29.441  30.386  1.00  0.00     0.200 A 
ATOM     77  F   UNL A   1      37.645  28.632  32.539  1.00  0.00    -0.200 F 
ATOM     78  F   UNL A   1      35.852  29.684  30.773  1.00  0.00    -0.200 F 
ENDBRANCH  54  68
BRANCH  55  79
ATOM     79  C   UNL A   1      48.940  26.813  26.277  1.00  0.00     0.064 A 
ATOM     80  C   UNL A   1      49.272  27.097  24.945  1.00  0.00     0.173 A 
ATOM     81  C   UNL A   1      49.931  26.245  27.091  1.00  0.00     0.173 A 
ATOM     82  F   UNL A   1      48.352  27.622  24.123  1.00  0.00    -0.203 F 
ATOM     83  C   UNL A   1      50.537  26.805  24.441  1.00  0.00     0.198 A 
ATOM     84  C   UNL A   1      51.205  25.980  26.594  1.00  0.00     0.198 A 
ATOM     85  F   UNL A   1      49.665  25.963  28.375  1.00  0.00    -0.203 F 
ATOM     86  F   UNL A   1      50.815  27.046  23.152  1.00  0.00    -0.200 F 
ATOM     87  C   UNL A   1      51.505  26.253  25.268  1.00  0.00     0.200 A 
ATOM     88  F   UNL A   1      52.141  25.461  27.399  1.00  0.00    -0.200 F 
ATOM     89  F   UNL A   1      52.724  25.978  24.784  1.00  0.00    -0.200 F 
ENDBRANCH  55  79
BRANCH  67  90
ATOM     90  C   UNL A   1      46.085  32.425  29.261  1.00  0.00     0.064 A 
ATOM     91  C   UNL A   1      46.047  33.515  28.379  1.00  0.00     0.173 A 
ATOM     92  C   UNL A   1      46.640  32.626  30.533  1.00  0.00     0.173 A 
ATOM     93  F   UNL A   1      45.540  33.368  27.146  1.00  0.00    -0.203 F 
ATOM     94  C   UNL A   1      46.572  34.750  28.747  1.00  0.00     0.198 A 
ATOM     95  C   UNL A   1      47.137  33.871  30.909  1.00  0.00     0.198 A 
ATOM     96  F   UNL A   1      46.694  31.618  31.416  1.00  0.00    -0.203 F 
ATOM     97  F   UNL A   1      46.573  35.763  27.871  1.00  0.00    -0.200 F 
ATOM     98  C   UNL A   1      47.111  34.929  30.013  1.00  0.00     0.200 A 
ATOM     99  F   UNL A   1      47.644  34.046  32.136  1.00  0.00    -0.200 F 
ATOM    100  F   UNL A   1      47.613  36.121  30.367  1.00  0.00    -0.200 F 
ENDBRANCH  67  90
ENDBRANCH  41  42
ENDBRANCH  33  36
ENDBRANCH  31  32
ENDBRANCH  30  31
ENDBRANCH  29  30
ENDBRANCH   1  29
TORSDOF 16
ENDMDL
