MODEL 1
REMARK VINA RESULT:     -10.4      0.000      0.000
REMARK SMILES CCCC[C@H](C(=O)OC)[C@H](O)C(=O)NCCCCCCNC(=O)c1ccc(-c2c3nc(c(-c4c(F)c(F)c(F)c(F)c4F)c4ccc([nH]4)c(-c4c(F)c(F)c(F)c(F)c4F)c4nc(c(-c5c(F)c(F)c(F)c(F)c5F)c5ccc2[nH]5)C=C4)C=C3)cc1
REMARK SMILES IDX 16 1 15 2 14 3 12 4 13 5 10 7 5 8 4 9 3 10 2 11 1 12 6 13
REMARK SMILES IDX 7 14 8 15 9 16 11 17 17 19 18 20 19 21 20 22 21 23 22 24
REMARK SMILES IDX 23 26 24 27 25 28 86 29 26 30 85 31 27 32 28 33 29 34 79 35
REMARK SMILES IDX 30 36 84 37 78 38 80 39 31 40 83 41 77 42 76 43 32 45 64 46
REMARK SMILES IDX 44 47 63 48 45 49 48 50 62 51 81 52 46 53 47 54 61 56 82 57
REMARK SMILES IDX 49 58 33 59 34 60 42 61 35 62 36 63 40 64 43 65 37 66 38 67
REMARK SMILES IDX 41 68 39 69 65 70 66 71 74 72 67 73 68 74 72 75 75 76 69 77
REMARK SMILES IDX 70 78 73 79 71 80 50 81 51 82 59 83 52 84 53 85 57 86 60 87
REMARK SMILES IDX 54 88 55 89 58 90 56 91
REMARK H PARENT 14 6 11 18 21 25 80 44 48 55
REMARK Flexibility Score: inf
ROOT
ATOM      1  C   UNL A   1      31.644  28.440  27.455  1.00  0.00     0.021 C 
ENDROOT
BRANCH   1   2
ATOM      2  C   UNL A   1      31.254  27.524  26.304  1.00  0.00     0.116 C 
BRANCH   2   3
ATOM      3  N   UNL A   1      32.374  27.046  25.525  1.00  0.00    -0.354 N 
ATOM      4  C   UNL A   1      32.832  27.494  24.323  1.00  0.00     0.249 C 
ATOM      5  O   UNL A   1      33.939  27.099  23.943  1.00  0.00    -0.272 OA
ATOM      6  H   UNL A   1      32.874  26.294  25.917  1.00  0.00     0.163 HD
BRANCH   4   7
ATOM      7  C   UNL A   1      31.977  28.410  23.418  1.00  0.00     0.217 C 
BRANCH   7   8
ATOM      8  C   UNL A   1      30.888  27.723  22.576  1.00  0.00     0.137 C 
BRANCH   8   9
ATOM      9  C   UNL A   1      29.456  27.967  23.096  1.00  0.00     0.018 C 
BRANCH   9  10
ATOM     10  C   UNL A   1      28.812  29.269  22.584  1.00  0.00     0.001 C 
BRANCH  10  11
ATOM     11  C   UNL A   1      28.940  30.512  23.470  1.00  0.00    -0.003 C 
ATOM     12  C   UNL A   1      27.727  31.427  23.434  1.00  0.00     0.004 C 
ENDBRANCH  10  11
ENDBRANCH   9  10
ENDBRANCH   8   9
BRANCH   8  13
ATOM     13  C   UNL A   1      31.142  26.237  22.439  1.00  0.00     0.311 C 
ATOM     14  O   UNL A   1      31.811  25.724  21.550  1.00  0.00    -0.252 OA
BRANCH  13  15
ATOM     15  O   UNL A   1      30.566  25.543  23.458  1.00  0.00    -0.469 OA
ATOM     16  C   UNL A   1      30.585  24.125  23.288  1.00  0.00     0.282 C 
ENDBRANCH  13  15
ENDBRANCH   8  13
ENDBRANCH   7   8
BRANCH   7  17
ATOM     17  O   UNL A   1      32.738  29.319  22.627  1.00  0.00    -0.382 OA
ATOM     18  H   UNL A   1      33.675  29.254  22.871  1.00  0.00     0.211 HD
ENDBRANCH   7  17
ENDBRANCH   4   7
ENDBRANCH   2   3
ENDBRANCH   1   2
BRANCH   1  19
ATOM     19  C   UNL A   1      32.474  29.665  27.061  1.00  0.00     0.002 C 
BRANCH  19  20
ATOM     20  C   UNL A   1      31.752  30.739  26.240  1.00  0.00     0.002 C 
BRANCH  20  21
ATOM     21  C   UNL A   1      31.497  32.073  26.946  1.00  0.00     0.021 C 
BRANCH  21  22
ATOM     22  C   UNL A   1      32.739  32.911  27.225  1.00  0.00     0.116 C 
BRANCH  22  23
ATOM     23  N   UNL A   1      32.423  34.277  27.604  1.00  0.00    -0.352 N 
ATOM     24  C   UNL A   1      32.976  35.051  28.592  1.00  0.00     0.251 C 
ATOM     25  H   UNL A   1      31.711  34.708  27.078  1.00  0.00     0.163 HD
ATOM     26  O   UNL A   1      32.490  36.143  28.873  1.00  0.00    -0.269 OA
BRANCH  24  27
ATOM     27  C   UNL A   1      34.150  34.554  29.341  1.00  0.00     0.039 A 
ATOM     28  C   UNL A   1      33.953  33.947  30.583  1.00  0.00     0.014 A 
ATOM     29  C   UNL A   1      35.438  34.679  28.815  1.00  0.00     0.014 A 
ATOM     30  C   UNL A   1      35.043  33.406  31.270  1.00  0.00     0.010 A 
ATOM     31  C   UNL A   1      36.512  34.078  29.466  1.00  0.00     0.010 A 
ATOM     32  C   UNL A   1      36.325  33.436  30.700  1.00  0.00    -0.014 A 
BRANCH  32  33
ATOM     33  C   UNL A   1      37.492  32.813  31.378  1.00  0.00     0.031 A 
ATOM     34  C   UNL A   1      38.198  31.651  30.734  1.00  0.00     0.074 A 
ATOM     35  C   UNL A   1      37.862  33.237  32.603  1.00  0.00     0.049 A 
ATOM     36  N   UNL A   1      39.149  30.891  31.213  1.00  0.00    -0.248 NA
ATOM     37  C   UNL A   1      37.754  31.274  29.381  1.00  0.00     0.031 C 
ATOM     38  C   UNL A   1      37.235  34.332  33.346  1.00  0.00     0.029 A 
ATOM     39  N   UNL A   1      38.844  32.783  33.448  1.00  0.00    -0.354 N 
ATOM     40  C   UNL A   1      39.397  29.935  30.236  1.00  0.00     0.074 A 
ATOM     41  C   UNL A   1      38.472  30.184  29.153  1.00  0.00     0.031 C 
ATOM     42  C   UNL A   1      37.854  34.471  34.530  1.00  0.00     0.029 A 
ATOM     43  C   UNL A   1      38.889  33.449  34.650  1.00  0.00     0.049 A 
ATOM     44  H   UNL A   1      39.458  32.050  33.216  1.00  0.00     0.167 HD
ATOM     45  C   UNL A   1      40.324  28.949  30.240  1.00  0.00     0.037 A 
ATOM     46  C   UNL A   1      39.665  33.244  35.733  1.00  0.00     0.037 A 
ATOM     47  C   UNL A   1      41.274  28.735  31.299  1.00  0.00     0.049 A 
ATOM     48  C   UNL A   1      40.682  32.132  35.706  1.00  0.00     0.074 A 
ATOM     49  C   UNL A   1      42.306  27.815  31.356  1.00  0.00     0.029 A 
ATOM     50  N   UNL A   1      41.306  29.449  32.487  1.00  0.00    -0.354 N 
ATOM     51  N   UNL A   1      40.958  31.284  34.746  1.00  0.00    -0.248 NA
ATOM     52  C   UNL A   1      41.499  31.951  36.915  1.00  0.00     0.031 C 
ATOM     53  C   UNL A   1      42.928  27.934  32.601  1.00  0.00     0.029 A 
ATOM     54  C   UNL A   1      42.324  28.970  33.295  1.00  0.00     0.049 A 
ATOM     55  H   UNL A   1      40.698  30.188  32.720  1.00  0.00     0.167 HD
ATOM     56  C   UNL A   1      42.005  30.503  35.215  1.00  0.00     0.074 A 
ATOM     57  C   UNL A   1      42.322  30.981  36.543  1.00  0.00     0.031 C 
ATOM     58  C   UNL A   1      42.648  29.480  34.601  1.00  0.00     0.037 A 
BRANCH  45  59
ATOM     59  C   UNL A   1      40.372  28.018  29.063  1.00  0.00     0.064 A 
ATOM     60  C   UNL A   1      39.618  26.837  29.025  1.00  0.00     0.173 A 
ATOM     61  C   UNL A   1      41.119  28.358  27.925  1.00  0.00     0.173 A 
ATOM     62  F   UNL A   1      38.895  26.462  30.091  1.00  0.00    -0.203 F 
ATOM     63  C   UNL A   1      39.618  26.024  27.894  1.00  0.00     0.198 A 
ATOM     64  C   UNL A   1      41.094  27.559  26.785  1.00  0.00     0.198 A 
ATOM     65  F   UNL A   1      41.854  29.481  27.908  1.00  0.00    -0.203 F 
ATOM     66  F   UNL A   1      38.914  24.884  27.890  1.00  0.00    -0.200 F 
ATOM     67  C   UNL A   1      40.347  26.391  26.772  1.00  0.00     0.200 A 
ATOM     68  F   UNL A   1      41.786  27.924  25.697  1.00  0.00    -0.200 F 
ATOM     69  F   UNL A   1      40.328  25.619  25.677  1.00  0.00    -0.200 F 
ENDBRANCH  45  59
BRANCH  46  70
ATOM     70  C   UNL A   1      39.521  34.101  36.941  1.00  0.00     0.064 A 
ATOM     71  C   UNL A   1      40.207  35.320  37.045  1.00  0.00     0.173 A 
ATOM     72  C   UNL A   1      38.742  33.700  38.036  1.00  0.00     0.173 A 
ATOM     73  F   UNL A   1      40.983  35.738  36.034  1.00  0.00    -0.203 F 
ATOM     74  C   UNL A   1      40.154  36.082  38.210  1.00  0.00     0.198 A 
ATOM     75  C   UNL A   1      38.661  34.479  39.188  1.00  0.00     0.198 A 
ATOM     76  F   UNL A   1      38.061  32.544  37.990  1.00  0.00    -0.203 F 
ATOM     77  F   UNL A   1      40.877  37.205  38.307  1.00  0.00    -0.200 F 
ATOM     78  C   UNL A   1      39.380  35.662  39.280  1.00  0.00     0.200 A 
ATOM     79  F   UNL A   1      37.901  34.076  40.215  1.00  0.00    -0.200 F 
ATOM     80  F   UNL A   1      39.336  36.389  40.405  1.00  0.00    -0.200 F 
ENDBRANCH  46  70
BRANCH  58  81
ATOM     81  C   UNL A   1      43.801  28.847  35.326  1.00  0.00     0.064 A 
ATOM     82  C   UNL A   1      45.120  29.286  35.143  1.00  0.00     0.173 A 
ATOM     83  C   UNL A   1      43.571  27.828  36.262  1.00  0.00     0.173 A 
ATOM     84  F   UNL A   1      45.394  30.248  34.249  1.00  0.00    -0.203 F 
ATOM     85  C   UNL A   1      46.169  28.711  35.855  1.00  0.00     0.198 A 
ATOM     86  C   UNL A   1      44.616  27.278  36.996  1.00  0.00     0.198 A 
ATOM     87  F   UNL A   1      42.325  27.379  36.480  1.00  0.00    -0.203 F 
ATOM     88  F   UNL A   1      47.427  29.115  35.634  1.00  0.00    -0.200 F 
ATOM     89  C   UNL A   1      45.916  27.716  36.789  1.00  0.00     0.200 A 
ATOM     90  F   UNL A   1      44.367  26.330  37.909  1.00  0.00    -0.200 F 
ATOM     91  F   UNL A   1      46.925  27.175  37.484  1.00  0.00    -0.200 F 
ENDBRANCH  58  81
ENDBRANCH  32  33
ENDBRANCH  24  27
ENDBRANCH  22  23
ENDBRANCH  21  22
ENDBRANCH  20  21
ENDBRANCH  19  20
ENDBRANCH   1  19
TORSDOF 20
ENDMDL
MODEL 2
REMARK VINA RESULT:     -10.0      5.776     10.954
REMARK SMILES CCCC[C@H](C(=O)OC)[C@H](O)C(=O)NCCCCCCNC(=O)c1ccc(-c2c3nc(c(-c4c(F)c(F)c(F)c(F)c4F)c4ccc([nH]4)c(-c4c(F)c(F)c(F)c(F)c4F)c4nc(c(-c5c(F)c(F)c(F)c(F)c5F)c5ccc2[nH]5)C=C4)C=C3)cc1
REMARK SMILES IDX 16 1 15 2 14 3 12 4 13 5 10 7 5 8 4 9 3 10 2 11 1 12 6 13
REMARK SMILES IDX 7 14 8 15 9 16 11 17 17 19 18 20 19 21 20 22 21 23 22 24
REMARK SMILES IDX 23 26 24 27 25 28 86 29 26 30 85 31 27 32 28 33 29 34 79 35
REMARK SMILES IDX 30 36 84 37 78 38 80 39 31 40 83 41 77 42 76 43 32 45 64 46
REMARK SMILES IDX 44 47 63 48 45 49 48 50 62 51 81 52 46 53 47 54 61 56 82 57
REMARK SMILES IDX 49 58 33 59 34 60 42 61 35 62 36 63 40 64 43 65 37 66 38 67
REMARK SMILES IDX 41 68 39 69 65 70 66 71 74 72 67 73 68 74 72 75 75 76 69 77
REMARK SMILES IDX 70 78 73 79 71 80 50 81 51 82 59 83 52 84 53 85 57 86 60 87
REMARK SMILES IDX 54 88 55 89 58 90 56 91
REMARK H PARENT 14 6 11 18 21 25 80 44 48 55
REMARK Flexibility Score: inf
ROOT
ATOM      1  C   UNL A   1      36.960  23.092  25.699  1.00  0.00     0.021 C 
ENDROOT
BRANCH   1   2
ATOM      2  C   UNL A   1      35.793  24.067  25.751  1.00  0.00     0.116 C 
BRANCH   2   3
ATOM      3  N   UNL A   1      34.500  23.450  25.560  1.00  0.00    -0.354 N 
ATOM      4  C   UNL A   1      33.731  23.406  24.437  1.00  0.00     0.249 C 
ATOM      5  O   UNL A   1      32.769  22.633  24.426  1.00  0.00    -0.272 OA
ATOM      6  H   UNL A   1      34.123  23.001  26.352  1.00  0.00     0.163 HD
BRANCH   4   7
ATOM      7  C   UNL A   1      33.997  24.340  23.234  1.00  0.00     0.217 C 
BRANCH   7   8
ATOM      8  C   UNL A   1      33.444  25.772  23.338  1.00  0.00     0.137 C 
BRANCH   8   9
ATOM      9  C   UNL A   1      32.265  25.911  24.323  1.00  0.00     0.018 C 
BRANCH   9  10
ATOM     10  C   UNL A   1      32.425  27.057  25.340  1.00  0.00     0.001 C 
BRANCH  10  11
ATOM     11  C   UNL A   1      31.443  27.097  26.514  1.00  0.00    -0.003 C 
ATOM     12  C   UNL A   1      31.734  28.189  27.531  1.00  0.00     0.004 C 
ENDBRANCH  10  11
ENDBRANCH   9  10
ENDBRANCH   8   9
BRANCH   8  13
ATOM     13  C   UNL A   1      33.054  26.321  21.983  1.00  0.00     0.311 C 
ATOM     14  O   UNL A   1      32.036  26.015  21.373  1.00  0.00    -0.252 OA
BRANCH  13  15
ATOM     15  O   UNL A   1      33.960  27.237  21.543  1.00  0.00    -0.469 OA
ATOM     16  C   UNL A   1      34.007  28.436  22.318  1.00  0.00     0.282 C 
ENDBRANCH  13  15
ENDBRANCH   8  13
ENDBRANCH   7   8
BRANCH   7  17
ATOM     17  O   UNL A   1      33.684  23.761  21.970  1.00  0.00    -0.382 OA
ATOM     18  H   UNL A   1      32.737  23.555  21.934  1.00  0.00     0.211 HD
ENDBRANCH   7  17
ENDBRANCH   4   7
ENDBRANCH   2   3
ENDBRANCH   1   2
BRANCH   1  19
ATOM     19  C   UNL A   1      36.573  21.622  25.524  1.00  0.00     0.002 C 
BRANCH  19  20
ATOM     20  C   UNL A   1      37.362  20.832  24.474  1.00  0.00     0.002 C 
BRANCH  20  21
ATOM     21  C   UNL A   1      38.189  19.653  24.992  1.00  0.00     0.021 C 
BRANCH  21  22
ATOM     22  C   UNL A   1      39.396  20.027  25.843  1.00  0.00     0.116 C 
BRANCH  22  23
ATOM     23  N   UNL A   1      40.428  19.005  25.836  1.00  0.00    -0.352 N 
ATOM     24  C   UNL A   1      41.778  19.136  26.041  1.00  0.00     0.251 C 
ATOM     25  H   UNL A   1      40.114  18.088  25.659  1.00  0.00     0.163 HD
ATOM     26  O   UNL A   1      42.532  18.184  25.858  1.00  0.00    -0.269 OA
BRANCH  24  27
ATOM     27  C   UNL A   1      42.331  20.441  26.461  1.00  0.00     0.039 A 
ATOM     28  C   UNL A   1      42.925  21.263  25.501  1.00  0.00     0.014 A 
ATOM     29  C   UNL A   1      42.255  20.854  27.793  1.00  0.00     0.014 A 
ATOM     30  C   UNL A   1      43.387  22.531  25.866  1.00  0.00     0.010 A 
ATOM     31  C   UNL A   1      42.650  22.143  28.140  1.00  0.00     0.010 A 
ATOM     32  C   UNL A   1      43.221  22.994  27.181  1.00  0.00    -0.014 A 
BRANCH  32  33
ATOM     33  C   UNL A   1      43.645  24.360  27.584  1.00  0.00     0.031 A 
ATOM     34  C   UNL A   1      42.608  25.384  27.959  1.00  0.00     0.074 A 
ATOM     35  C   UNL A   1      44.947  24.702  27.531  1.00  0.00     0.049 A 
ATOM     36  N   UNL A   1      42.758  26.658  28.217  1.00  0.00    -0.248 NA
ATOM     37  C   UNL A   1      41.212  24.919  28.025  1.00  0.00     0.031 C 
ATOM     38  C   UNL A   1      46.043  23.809  27.150  1.00  0.00     0.029 A 
ATOM     39  N   UNL A   1      45.569  25.901  27.781  1.00  0.00    -0.354 N 
ATOM     40  C   UNL A   1      41.479  27.149  28.447  1.00  0.00     0.074 A 
ATOM     41  C   UNL A   1      40.560  26.048  28.262  1.00  0.00     0.031 C 
ATOM     42  C   UNL A   1      47.202  24.487  27.201  1.00  0.00     0.029 A 
ATOM     43  C   UNL A   1      46.928  25.871  27.574  1.00  0.00     0.049 A 
ATOM     44  H   UNL A   1      45.088  26.705  28.080  1.00  0.00     0.167 HD
ATOM     45  C   UNL A   1      41.109  28.404  28.796  1.00  0.00     0.037 A 
ATOM     46  C   UNL A   1      47.845  26.856  27.656  1.00  0.00     0.037 A 
ATOM     47  C   UNL A   1      42.031  29.484  29.026  1.00  0.00     0.049 A 
ATOM     48  C   UNL A   1      47.397  28.243  28.040  1.00  0.00     0.074 A 
ATOM     49  C   UNL A   1      41.759  30.769  29.464  1.00  0.00     0.029 A 
ATOM     50  N   UNL A   1      43.402  29.408  28.834  1.00  0.00    -0.354 N 
ATOM     51  N   UNL A   1      46.195  28.677  28.330  1.00  0.00    -0.248 NA
ATOM     52  C   UNL A   1      48.439  29.280  28.111  1.00  0.00     0.031 C 
ATOM     53  C   UNL A   1      42.958  31.486  29.484  1.00  0.00     0.029 A 
ATOM     54  C   UNL A   1      43.985  30.631  29.118  1.00  0.00     0.049 A 
ATOM     55  H   UNL A   1      43.888  28.603  28.541  1.00  0.00     0.167 HD
ATOM     56  C   UNL A   1      46.342  30.017  28.660  1.00  0.00     0.074 A 
ATOM     57  C   UNL A   1      47.750  30.326  28.543  1.00  0.00     0.031 C 
ATOM     58  C   UNL A   1      45.394  30.913  29.029  1.00  0.00     0.037 A 
BRANCH  45  59
ATOM     59  C   UNL A   1      39.645  28.691  28.960  1.00  0.00     0.064 A 
ATOM     60  C   UNL A   1      38.995  28.533  30.191  1.00  0.00     0.173 A 
ATOM     61  C   UNL A   1      38.905  29.212  27.888  1.00  0.00     0.173 A 
ATOM     62  F   UNL A   1      39.656  28.029  31.245  1.00  0.00    -0.203 F 
ATOM     63  C   UNL A   1      37.653  28.875  30.342  1.00  0.00     0.198 A 
ATOM     64  C   UNL A   1      37.572  29.580  28.048  1.00  0.00     0.198 A 
ATOM     65  F   UNL A   1      39.482  29.388  26.689  1.00  0.00    -0.203 F 
ATOM     66  F   UNL A   1      37.043  28.687  31.520  1.00  0.00    -0.200 F 
ATOM     67  C   UNL A   1      36.947  29.409  29.274  1.00  0.00     0.200 A 
ATOM     68  F   UNL A   1      36.896  30.111  27.020  1.00  0.00    -0.200 F 
ATOM     69  F   UNL A   1      35.662  29.758  29.426  1.00  0.00    -0.200 F 
ENDBRANCH  45  59
BRANCH  46  70
ATOM     70  C   UNL A   1      49.279  26.581  27.371  1.00  0.00     0.064 A 
ATOM     71  C   UNL A   1      50.179  26.304  28.410  1.00  0.00     0.173 A 
ATOM     72  C   UNL A   1      49.792  26.642  26.067  1.00  0.00     0.173 A 
ATOM     73  F   UNL A   1      49.743  26.256  29.677  1.00  0.00    -0.203 F 
ATOM     74  C   UNL A   1      51.540  26.140  28.161  1.00  0.00     0.198 A 
ATOM     75  C   UNL A   1      51.148  26.444  25.815  1.00  0.00     0.198 A 
ATOM     76  F   UNL A   1      48.975  26.901  25.034  1.00  0.00    -0.203 F 
ATOM     77  F   UNL A   1      52.387  25.948  29.182  1.00  0.00    -0.200 F 
ATOM     78  C   UNL A   1      52.024  26.209  26.864  1.00  0.00     0.200 A 
ATOM     79  F   UNL A   1      51.608  26.497  24.558  1.00  0.00    -0.200 F 
ATOM     80  F   UNL A   1      53.334  26.062  26.626  1.00  0.00    -0.200 F 
ENDBRANCH  46  70
BRANCH  58  81
ATOM     81  C   UNL A   1      45.849  32.296  29.396  1.00  0.00     0.064 A 
ATOM     82  C   UNL A   1      45.902  33.333  28.453  1.00  0.00     0.173 A 
ATOM     83  C   UNL A   1      46.178  32.599  30.726  1.00  0.00     0.173 A 
ATOM     84  F   UNL A   1      45.611  33.091  27.166  1.00  0.00    -0.203 F 
ATOM     85  C   UNL A   1      46.289  34.617  28.826  1.00  0.00     0.198 A 
ATOM     86  C   UNL A   1      46.532  33.890  31.101  1.00  0.00     0.198 A 
ATOM     87  F   UNL A   1      46.133  31.644  31.668  1.00  0.00    -0.203 F 
ATOM     88  F   UNL A   1      46.376  35.583  27.901  1.00  0.00    -0.200 F 
ATOM     89  C   UNL A   1      46.594  34.898  30.151  1.00  0.00     0.200 A 
ATOM     90  F   UNL A   1      46.808  34.162  32.384  1.00  0.00    -0.200 F 
ATOM     91  F   UNL A   1      46.952  36.138  30.509  1.00  0.00    -0.200 F 
ENDBRANCH  58  81
ENDBRANCH  32  33
ENDBRANCH  24  27
ENDBRANCH  22  23
ENDBRANCH  21  22
ENDBRANCH  20  21
ENDBRANCH  19  20
ENDBRANCH   1  19
TORSDOF 20
ENDMDL
MODEL 3
REMARK VINA RESULT:      -9.9      1.641      7.844
REMARK SMILES CCCC[C@H](C(=O)OC)[C@H](O)C(=O)NCCCCCCNC(=O)c1ccc(-c2c3nc(c(-c4c(F)c(F)c(F)c(F)c4F)c4ccc([nH]4)c(-c4c(F)c(F)c(F)c(F)c4F)c4nc(c(-c5c(F)c(F)c(F)c(F)c5F)c5ccc2[nH]5)C=C4)C=C3)cc1
REMARK SMILES IDX 16 1 15 2 14 3 12 4 13 5 10 7 5 8 4 9 3 10 2 11 1 12 6 13
REMARK SMILES IDX 7 14 8 15 9 16 11 17 17 19 18 20 19 21 20 22 21 23 22 24
REMARK SMILES IDX 23 26 24 27 25 28 86 29 26 30 85 31 27 32 28 33 29 34 79 35
REMARK SMILES IDX 30 36 84 37 78 38 80 39 31 40 83 41 77 42 76 43 32 45 64 46
REMARK SMILES IDX 44 47 63 48 45 49 48 50 62 51 81 52 46 53 47 54 61 56 82 57
REMARK SMILES IDX 49 58 33 59 34 60 42 61 35 62 36 63 40 64 43 65 37 66 38 67
REMARK SMILES IDX 41 68 39 69 65 70 66 71 74 72 67 73 68 74 72 75 75 76 69 77
REMARK SMILES IDX 70 78 73 79 71 80 50 81 51 82 59 83 52 84 53 85 57 86 60 87
REMARK SMILES IDX 54 88 55 89 58 90 56 91
REMARK H PARENT 14 6 11 18 21 25 80 44 48 55
REMARK Flexibility Score: inf
ROOT
ATOM      1  C   UNL A   1      33.866  31.741  27.637  1.00  0.00     0.021 C 
ENDROOT
BRANCH   1   2
ATOM      2  C   UNL A   1      34.172  30.287  27.311  1.00  0.00     0.116 C 
BRANCH   2   3
ATOM      3  N   UNL A   1      33.036  29.401  27.445  1.00  0.00    -0.354 N 
ATOM      4  C   UNL A   1      32.163  28.981  26.488  1.00  0.00     0.249 C 
ATOM      5  O   UNL A   1      31.406  28.047  26.768  1.00  0.00    -0.272 OA
ATOM      6  H   UNL A   1      32.873  29.055  28.352  1.00  0.00     0.163 HD
BRANCH   4   7
ATOM      7  C   UNL A   1      32.059  29.687  25.116  1.00  0.00     0.217 C 
BRANCH   7   8
ATOM      8  C   UNL A   1      30.876  29.282  24.221  1.00  0.00     0.137 C 
BRANCH   8   9
ATOM      9  C   UNL A   1      31.301  28.703  22.855  1.00  0.00     0.018 C 
BRANCH   9  10
ATOM     10  C   UNL A   1      30.818  27.263  22.603  1.00  0.00     0.001 C 
BRANCH  10  11
ATOM     11  C   UNL A   1      30.968  26.260  23.750  1.00  0.00    -0.003 C 
ATOM     12  C   UNL A   1      30.670  24.821  23.361  1.00  0.00     0.004 C 
ENDBRANCH  10  11
ENDBRANCH   9  10
ENDBRANCH   8   9
BRANCH   8  13
ATOM     13  C   UNL A   1      29.908  30.428  24.019  1.00  0.00     0.311 C 
ATOM     14  O   UNL A   1      29.950  31.491  24.627  1.00  0.00    -0.252 OA
BRANCH  13  15
ATOM     15  O   UNL A   1      29.007  30.144  23.039  1.00  0.00    -0.469 OA
ATOM     16  C   UNL A   1      28.033  31.166  22.823  1.00  0.00     0.282 C 
ENDBRANCH  13  15
ENDBRANCH   8  13
ENDBRANCH   7   8
BRANCH   7  17
ATOM     17  O   UNL A   1      33.279  29.703  24.379  1.00  0.00    -0.382 OA
ATOM     18  H   UNL A   1      33.861  30.395  24.731  1.00  0.00     0.211 HD
ENDBRANCH   7  17
ENDBRANCH   4   7
ENDBRANCH   2   3
ENDBRANCH   1   2
BRANCH   1  19
ATOM     19  C   UNL A   1      34.900  32.443  28.521  1.00  0.00     0.002 C 
BRANCH  19  20
ATOM     20  C   UNL A   1      34.805  33.971  28.594  1.00  0.00     0.002 C 
BRANCH  20  21
ATOM     21  C   UNL A   1      33.448  34.547  29.004  1.00  0.00     0.021 C 
BRANCH  21  22
ATOM     22  C   UNL A   1      33.454  36.020  29.394  1.00  0.00     0.116 C 
BRANCH  22  23
ATOM     23  N   UNL A   1      32.525  36.322  30.468  1.00  0.00    -0.352 N 
ATOM     24  C   UNL A   1      32.549  35.908  31.775  1.00  0.00     0.251 C 
ATOM     25  H   UNL A   1      31.772  36.908  30.224  1.00  0.00     0.163 HD
ATOM     26  O   UNL A   1      31.602  36.143  32.521  1.00  0.00    -0.269 OA
BRANCH  24  27
ATOM     27  C   UNL A   1      33.713  35.150  32.283  1.00  0.00     0.039 A 
ATOM     28  C   UNL A   1      33.513  33.866  32.793  1.00  0.00     0.014 A 
ATOM     29  C   UNL A   1      34.996  35.702  32.246  1.00  0.00     0.014 A 
ATOM     30  C   UNL A   1      34.610  33.107  33.208  1.00  0.00     0.010 A 
ATOM     31  C   UNL A   1      36.094  34.920  32.592  1.00  0.00     0.010 A 
ATOM     32  C   UNL A   1      35.912  33.615  33.078  1.00  0.00    -0.014 A 
BRANCH  32  33
ATOM     33  C   UNL A   1      37.103  32.808  33.452  1.00  0.00     0.031 A 
ATOM     34  C   UNL A   1      37.830  33.099  34.736  1.00  0.00     0.074 A 
ATOM     35  C   UNL A   1      37.577  31.877  32.600  1.00  0.00     0.049 A 
ATOM     36  N   UNL A   1      38.954  32.601  35.183  1.00  0.00    -0.248 NA
ATOM     37  C   UNL A   1      37.226  34.107  35.624  1.00  0.00     0.031 C 
ATOM     38  C   UNL A   1      36.981  31.526  31.310  1.00  0.00     0.029 A 
ATOM     39  N   UNL A   1      38.683  31.067  32.685  1.00  0.00    -0.354 N 
ATOM     40  C   UNL A   1      39.205  33.252  36.384  1.00  0.00     0.074 A 
ATOM     41  C   UNL A   1      38.138  34.208  36.581  1.00  0.00     0.031 C 
ATOM     42  C   UNL A   1      37.721  30.567  30.729  1.00  0.00     0.029 A 
ATOM     43  C   UNL A   1      38.866  30.266  31.583  1.00  0.00     0.049 A 
ATOM     44  H   UNL A   1      39.287  31.059  33.461  1.00  0.00     0.167 HD
ATOM     45  C   UNL A   1      40.226  33.056  37.251  1.00  0.00     0.037 A 
ATOM     46  C   UNL A   1      39.858  29.402  31.286  1.00  0.00     0.037 A 
ATOM     47  C   UNL A   1      41.259  32.070  37.074  1.00  0.00     0.049 A 
ATOM     48  C   UNL A   1      40.984  29.214  32.271  1.00  0.00     0.074 A 
ATOM     49  C   UNL A   1      42.289  31.739  37.938  1.00  0.00     0.029 A 
ATOM     50  N   UNL A   1      41.394  31.258  35.959  1.00  0.00    -0.354 N 
ATOM     51  N   UNL A   1      41.168  29.780  33.438  1.00  0.00    -0.248 NA
ATOM     52  C   UNL A   1      42.040  28.263  31.895  1.00  0.00     0.031 C 
ATOM     53  C   UNL A   1      43.079  30.767  37.320  1.00  0.00     0.029 A 
ATOM     54  C   UNL A   1      42.507  30.447  36.100  1.00  0.00     0.049 A 
ATOM     55  H   UNL A   1      40.787  31.258  35.183  1.00  0.00     0.167 HD
ATOM     56  C   UNL A   1      42.330  29.222  33.954  1.00  0.00     0.074 A 
ATOM     57  C   UNL A   1      42.806  28.267  32.977  1.00  0.00     0.031 C 
ATOM     58  C   UNL A   1      42.949  29.478  35.132  1.00  0.00     0.037 A 
BRANCH  45  59
ATOM     59  C   UNL A   1      40.288  33.917  38.479  1.00  0.00     0.064 A 
ATOM     60  C   UNL A   1      39.658  33.545  39.674  1.00  0.00     0.173 A 
ATOM     61  C   UNL A   1      41.060  35.089  38.480  1.00  0.00     0.173 A 
ATOM     62  F   UNL A   1      38.899  32.438  39.723  1.00  0.00    -0.203 F 
ATOM     63  C   UNL A   1      39.788  34.320  40.824  1.00  0.00     0.198 A 
ATOM     64  C   UNL A   1      41.212  35.846  39.638  1.00  0.00     0.198 A 
ATOM     65  F   UNL A   1      41.689  35.486  37.363  1.00  0.00    -0.203 F 
ATOM     66  F   UNL A   1      39.152  33.963  41.948  1.00  0.00    -0.200 F 
ATOM     67  C   UNL A   1      40.574  35.463  40.808  1.00  0.00     0.200 A 
ATOM     68  F   UNL A   1      41.986  36.941  39.624  1.00  0.00    -0.200 F 
ATOM     69  F   UNL A   1      40.716  36.196  41.920  1.00  0.00    -0.200 F 
ENDBRANCH  45  59
BRANCH  46  70
ATOM     70  C   UNL A   1      39.844  28.645  30.006  1.00  0.00     0.064 A 
ATOM     71  C   UNL A   1      39.299  27.354  29.938  1.00  0.00     0.173 A 
ATOM     72  C   UNL A   1      40.422  29.167  28.839  1.00  0.00     0.173 A 
ATOM     73  F   UNL A   1      38.755  26.801  31.032  1.00  0.00    -0.203 F 
ATOM     74  C   UNL A   1      39.369  26.601  28.769  1.00  0.00     0.198 A 
ATOM     75  C   UNL A   1      40.460  28.427  27.659  1.00  0.00     0.198 A 
ATOM     76  F   UNL A   1      40.955  30.398  28.845  1.00  0.00    -0.203 F 
ATOM     77  F   UNL A   1      38.904  25.345  28.755  1.00  0.00    -0.200 F 
ATOM     78  C   UNL A   1      39.948  27.138  27.629  1.00  0.00     0.200 A 
ATOM     79  F   UNL A   1      41.008  28.955  26.557  1.00  0.00    -0.200 F 
ATOM     80  F   UNL A   1      40.024  26.410  26.507  1.00  0.00    -0.200 F 
ENDBRANCH  46  70
BRANCH  58  81
ATOM     81  C   UNL A   1      44.170  28.671  35.466  1.00  0.00     0.064 A 
ATOM     82  C   UNL A   1      45.460  29.106  35.127  1.00  0.00     0.173 A 
ATOM     83  C   UNL A   1      44.048  27.475  36.190  1.00  0.00     0.173 A 
ATOM     84  F   UNL A   1      45.628  30.235  34.423  1.00  0.00    -0.203 F 
ATOM     85  C   UNL A   1      46.580  28.360  35.482  1.00  0.00     0.198 A 
ATOM     86  C   UNL A   1      45.172  26.750  36.572  1.00  0.00     0.198 A 
ATOM     87  F   UNL A   1      42.837  27.021  36.547  1.00  0.00    -0.203 F 
ATOM     88  F   UNL A   1      47.801  28.771  35.110  1.00  0.00    -0.200 F 
ATOM     89  C   UNL A   1      46.437  27.189  36.213  1.00  0.00     0.200 A 
ATOM     90  F   UNL A   1      45.032  25.629  37.293  1.00  0.00    -0.200 F 
ATOM     91  F   UNL A   1      47.519  26.482  36.565  1.00  0.00    -0.200 F 
ENDBRANCH  58  81
ENDBRANCH  32  33
ENDBRANCH  24  27
ENDBRANCH  22  23
ENDBRANCH  21  22
ENDBRANCH  20  21
ENDBRANCH  19  20
ENDBRANCH   1  19
TORSDOF 20
ENDMDL
