MODEL 1
REMARK VINA RESULT:     -12.3      0.000      0.000
REMARK SMILES C[C@H](C(=O)NC1(C(=O)NCCCCCCNC(=O)c2ccc(-c3c4nc(c(-c5c(F)c(F)c(F)c(F)c5F)c5ccc([nH]5)c(-c5c(F)c(F)c(F)c(F)c5F)c5nc(c(-c6c(F)c(F)c(F)c(F)c6F)c6ccc3[nH]6)C=C5)C=C4)cc2)CCCC1)c1cccs1
REMARK SMILES IDX 12 1 11 2 10 3 9 4 7 5 8 6 6 8 82 9 85 10 83 11 84 12 5 13
REMARK SMILES IDX 3 14 4 15 2 17 1 18 86 19 87 20 90 21 88 22 89 23 13 24
REMARK SMILES IDX 14 25 15 26 16 27 17 28 18 30 19 31 20 32 81 33 21 34 80 35
REMARK SMILES IDX 22 36 23 37 24 38 74 39 25 40 79 41 73 42 75 43 26 44 78 45
REMARK SMILES IDX 72 46 71 47 27 49 59 50 39 51 58 52 40 53 43 54 57 55 76 56
REMARK SMILES IDX 41 57 42 58 56 60 77 61 44 62 28 63 29 64 37 65 30 66 31 67
REMARK SMILES IDX 35 68 38 69 32 70 33 71 36 72 34 73 60 74 61 75 69 76 62 77
REMARK SMILES IDX 63 78 67 79 70 80 64 81 65 82 68 83 66 84 45 85 46 86 54 87
REMARK SMILES IDX 47 88 48 89 52 90 55 91 49 92 50 93 53 94 51 95
REMARK H PARENT 9 7 5 16 16 29 75 48 43 59
REMARK Flexibility Score: inf
ROOT
ATOM      1  C   UNL A   1      32.447  29.719  27.194  1.00  0.00     0.002 C 
ENDROOT
BRANCH   1   2
ATOM      2  C   UNL A   1      31.862  28.353  27.562  1.00  0.00     0.021 C 
BRANCH   2   3
ATOM      3  C   UNL A   1      31.678  27.413  26.380  1.00  0.00     0.116 C 
BRANCH   3   4
ATOM      4  N   UNL A   1      31.166  26.146  26.810  1.00  0.00    -0.354 N 
ATOM      5  C   UNL A   1      31.583  24.877  26.645  1.00  0.00     0.245 C 
ATOM      6  O   UNL A   1      30.749  24.053  27.059  1.00  0.00    -0.272 OA
ATOM      7  H   UNL A   1      30.337  26.219  27.336  1.00  0.00     0.163 HD
BRANCH   5   8
ATOM      8  C   UNL A   1      32.905  24.398  25.918  1.00  0.00     0.119 C 
ATOM      9  C   UNL A   1      34.199  25.149  25.570  1.00  0.00     0.038 C 
ATOM     10  C   UNL A   1      32.500  23.891  24.506  1.00  0.00     0.038 C 
ATOM     11  C   UNL A   1      34.007  25.815  24.226  1.00  0.00     0.003 C 
ATOM     12  C   UNL A   1      33.052  24.895  23.480  1.00  0.00     0.003 C 
BRANCH   8  13
ATOM     13  N   UNL A   1      33.311  23.287  26.792  1.00  0.00    -0.341 N 
ATOM     14  C   UNL A   1      33.943  22.112  26.592  1.00  0.00     0.228 C 
ATOM     15  O   UNL A   1      34.092  21.492  27.665  1.00  0.00    -0.274 OA
ATOM     16  H   UNL A   1      33.067  23.433  27.735  1.00  0.00     0.164 HD
BRANCH  14  17
ATOM     17  C   UNL A   1      34.427  21.399  25.316  1.00  0.00     0.115 C 
ATOM     18  C   UNL A   1      35.902  21.789  25.111  1.00  0.00     0.024 C 
BRANCH  17  19
ATOM     19  C   UNL A   1      34.214  19.944  24.880  1.00  0.00     0.017 A 
ATOM     20  C   UNL A   1      35.002  18.831  24.649  1.00  0.00     0.016 A 
ATOM     21  S   UNL A   1      32.576  19.540  24.388  1.00  0.00    -0.148 S 
ATOM     22  C   UNL A   1      34.328  17.717  24.066  1.00  0.00     0.012 A 
ATOM     23  C   UNL A   1      33.009  17.991  23.830  1.00  0.00     0.065 A 
ENDBRANCH  17  19
ENDBRANCH  14  17
ENDBRANCH   8  13
ENDBRANCH   5   8
ENDBRANCH   3   4
ENDBRANCH   2   3
ENDBRANCH   1   2
BRANCH   1  24
ATOM     24  C   UNL A   1      31.622  30.523  26.185  1.00  0.00     0.002 C 
BRANCH  24  25
ATOM     25  C   UNL A   1      31.433  32.001  26.535  1.00  0.00     0.021 C 
BRANCH  25  26
ATOM     26  C   UNL A   1      32.603  32.636  27.279  1.00  0.00     0.116 C 
BRANCH  26  27
ATOM     27  N   UNL A   1      32.370  34.038  27.576  1.00  0.00    -0.352 N 
ATOM     28  C   UNL A   1      32.969  34.839  28.514  1.00  0.00     0.251 C 
ATOM     29  H   UNL A   1      31.684  34.477  27.022  1.00  0.00     0.163 HD
ATOM     30  O   UNL A   1      32.521  35.952  28.757  1.00  0.00    -0.269 OA
BRANCH  28  31
ATOM     31  C   UNL A   1      34.145  34.338  29.253  1.00  0.00     0.039 A 
ATOM     32  C   UNL A   1      33.946  33.695  30.476  1.00  0.00     0.014 A 
ATOM     33  C   UNL A   1      35.436  34.500  28.740  1.00  0.00     0.014 A 
ATOM     34  C   UNL A   1      35.038  33.160  31.158  1.00  0.00     0.010 A 
ATOM     35  C   UNL A   1      36.514  33.900  29.383  1.00  0.00     0.010 A 
ATOM     36  C   UNL A   1      36.326  33.226  30.599  1.00  0.00    -0.014 A 
BRANCH  36  37
ATOM     37  C   UNL A   1      37.481  32.579  31.268  1.00  0.00     0.031 A 
ATOM     38  C   UNL A   1      38.198  31.437  30.605  1.00  0.00     0.074 A 
ATOM     39  C   UNL A   1      37.841  32.981  32.502  1.00  0.00     0.049 A 
ATOM     40  N   UNL A   1      39.190  30.711  31.056  1.00  0.00    -0.248 NA
ATOM     41  C   UNL A   1      37.721  31.040  29.272  1.00  0.00     0.031 C 
ATOM     42  C   UNL A   1      37.185  34.045  33.266  1.00  0.00     0.029 A 
ATOM     43  N   UNL A   1      38.836  32.539  33.335  1.00  0.00    -0.354 N 
ATOM     44  C   UNL A   1      39.447  29.769  30.069  1.00  0.00     0.074 A 
ATOM     45  C   UNL A   1      38.472  29.977  29.021  1.00  0.00     0.031 C 
ATOM     46  C   UNL A   1      37.809  34.187  34.445  1.00  0.00     0.029 A 
ATOM     47  C   UNL A   1      38.879  33.198  34.539  1.00  0.00     0.049 A 
ATOM     48  H   UNL A   1      39.460  31.817  33.094  1.00  0.00     0.167 HD
ATOM     49  C   UNL A   1      40.422  28.830  30.033  1.00  0.00     0.037 A 
ATOM     50  C   UNL A   1      39.684  33.018  35.604  1.00  0.00     0.037 A 
ATOM     51  C   UNL A   1      41.400  28.641  31.073  1.00  0.00     0.049 A 
ATOM     52  C   UNL A   1      40.751  31.959  35.543  1.00  0.00     0.074 A 
ATOM     53  C   UNL A   1      42.471  27.765  31.100  1.00  0.00     0.029 A 
ATOM     54  N   UNL A   1      41.420  29.334  32.275  1.00  0.00    -0.354 N 
ATOM     55  N   UNL A   1      41.037  31.128  34.570  1.00  0.00    -0.248 NA
ATOM     56  C   UNL A   1      41.610  31.816  36.726  1.00  0.00     0.031 C 
ATOM     57  C   UNL A   1      43.102  27.885  32.343  1.00  0.00     0.029 A 
ATOM     58  C   UNL A   1      42.463  28.879  33.066  1.00  0.00     0.049 A 
ATOM     59  H   UNL A   1      40.785  30.044  32.528  1.00  0.00     0.167 HD
ATOM     60  C   UNL A   1      42.121  30.381  35.012  1.00  0.00     0.074 A 
ATOM     61  C   UNL A   1      42.454  30.873  36.332  1.00  0.00     0.031 C 
ATOM     62  C   UNL A   1      42.779  29.378  34.381  1.00  0.00     0.037 A 
BRANCH  49  63
ATOM     63  C   UNL A   1      40.477  27.928  28.832  1.00  0.00     0.064 A 
ATOM     64  C   UNL A   1      39.764  26.720  28.781  1.00  0.00     0.173 A 
ATOM     65  C   UNL A   1      41.222  28.295  27.701  1.00  0.00     0.173 A 
ATOM     66  F   UNL A   1      39.044  26.316  29.838  1.00  0.00    -0.203 F 
ATOM     67  C   UNL A   1      39.823  25.899  27.657  1.00  0.00     0.198 A 
ATOM     68  C   UNL A   1      41.251  27.488  26.567  1.00  0.00     0.198 A 
ATOM     69  F   UNL A   1      41.918  29.441  27.693  1.00  0.00    -0.203 F 
ATOM     70  F   UNL A   1      39.176  24.725  27.654  1.00  0.00    -0.200 F 
ATOM     71  C   UNL A   1      40.559  26.287  26.549  1.00  0.00     0.200 A 
ATOM     72  F   UNL A   1      41.951  27.873  25.491  1.00  0.00    -0.200 F 
ATOM     73  F   UNL A   1      40.606  25.501  25.465  1.00  0.00    -0.200 F 
ENDBRANCH  49  63
BRANCH  50  74
ATOM     74  C   UNL A   1      39.517  33.869  36.812  1.00  0.00     0.064 A 
ATOM     75  C   UNL A   1      40.125  35.129  36.897  1.00  0.00     0.173 A 
ATOM     76  C   UNL A   1      38.748  33.441  37.903  1.00  0.00     0.173 A 
ATOM     77  F   UNL A   1      40.885  35.575  35.887  1.00  0.00    -0.203 F 
ATOM     78  C   UNL A   1      39.988  35.919  38.037  1.00  0.00     0.198 A 
ATOM     79  C   UNL A   1      38.585  34.245  39.029  1.00  0.00     0.198 A 
ATOM     80  F   UNL A   1      38.139  32.247  37.870  1.00  0.00    -0.203 F 
ATOM     81  F   UNL A   1      40.618  37.099  38.111  1.00  0.00    -0.200 F 
ATOM     82  C   UNL A   1      39.212  35.479  39.099  1.00  0.00     0.200 A 
ATOM     83  F   UNL A   1      37.820  33.823  40.046  1.00  0.00    -0.200 F 
ATOM     84  F   UNL A   1      39.076  36.242  40.193  1.00  0.00    -0.200 F 
ENDBRANCH  50  74
BRANCH  62  85
ATOM     85  C   UNL A   1      43.943  28.759  35.103  1.00  0.00     0.064 A 
ATOM     86  C   UNL A   1      43.788  27.628  35.917  1.00  0.00     0.173 A 
ATOM     87  C   UNL A   1      45.236  29.281  34.946  1.00  0.00     0.173 A 
ATOM     88  F   UNL A   1      42.571  27.098  36.113  1.00  0.00    -0.203 F 
ATOM     89  C   UNL A   1      44.880  27.059  36.568  1.00  0.00     0.198 A 
ATOM     90  C   UNL A   1      46.330  28.690  35.571  1.00  0.00     0.198 A 
ATOM     91  F   UNL A   1      45.441  30.358  34.172  1.00  0.00    -0.203 F 
ATOM     92  F   UNL A   1      44.699  26.011  37.383  1.00  0.00    -0.200 F 
ATOM     93  C   UNL A   1      46.149  27.586  36.388  1.00  0.00     0.200 A 
ATOM     94  F   UNL A   1      47.559  29.191  35.381  1.00  0.00    -0.200 F 
ATOM     95  F   UNL A   1      47.200  27.031  37.009  1.00  0.00    -0.200 F 
ENDBRANCH  62  85
ENDBRANCH  36  37
ENDBRANCH  28  31
ENDBRANCH  26  27
ENDBRANCH  25  26
ENDBRANCH  24  25
ENDBRANCH   1  24
TORSDOF 16
ENDMDL
MODEL 2
REMARK VINA RESULT:     -12.3      5.428     11.160
REMARK SMILES C[C@H](C(=O)NC1(C(=O)NCCCCCCNC(=O)c2ccc(-c3c4nc(c(-c5c(F)c(F)c(F)c(F)c5F)c5ccc([nH]5)c(-c5c(F)c(F)c(F)c(F)c5F)c5nc(c(-c6c(F)c(F)c(F)c(F)c6F)c6ccc3[nH]6)C=C5)C=C4)cc2)CCCC1)c1cccs1
REMARK SMILES IDX 12 1 11 2 10 3 9 4 7 5 8 6 6 8 82 9 85 10 83 11 84 12 5 13
REMARK SMILES IDX 3 14 4 15 2 17 1 18 86 19 87 20 90 21 88 22 89 23 13 24
REMARK SMILES IDX 14 25 15 26 16 27 17 28 18 30 19 31 20 32 81 33 21 34 80 35
REMARK SMILES IDX 22 36 23 37 24 38 74 39 25 40 79 41 73 42 75 43 26 44 78 45
REMARK SMILES IDX 72 46 71 47 27 49 59 50 39 51 58 52 40 53 43 54 57 55 76 56
REMARK SMILES IDX 41 57 42 58 56 60 77 61 44 62 28 63 29 64 37 65 30 66 31 67
REMARK SMILES IDX 35 68 38 69 32 70 33 71 36 72 34 73 60 74 61 75 69 76 62 77
REMARK SMILES IDX 63 78 67 79 70 80 64 81 65 82 68 83 66 84 45 85 46 86 54 87
REMARK SMILES IDX 47 88 48 89 52 90 55 91 49 92 50 93 53 94 51 95
REMARK H PARENT 9 7 5 16 16 29 75 48 43 59
REMARK Flexibility Score: inf
ROOT
ATOM      1  C   UNL A   1      35.886  21.111  25.379  1.00  0.00     0.002 C 
ENDROOT
BRANCH   1   2
ATOM      2  C   UNL A   1      34.888  20.003  25.033  1.00  0.00     0.021 C 
BRANCH   2   3
ATOM      3  C   UNL A   1      33.428  20.427  25.120  1.00  0.00     0.116 C 
BRANCH   3   4
ATOM      4  N   UNL A   1      33.152  21.047  26.382  1.00  0.00    -0.354 N 
ATOM      5  C   UNL A   1      32.847  22.307  26.745  1.00  0.00     0.245 C 
ATOM      6  O   UNL A   1      32.834  22.446  27.981  1.00  0.00    -0.272 OA
ATOM      7  H   UNL A   1      33.193  20.421  27.141  1.00  0.00     0.163 HD
BRANCH   5   8
ATOM      8  C   UNL A   1      32.630  23.546  25.786  1.00  0.00     0.119 C 
ATOM      9  C   UNL A   1      32.577  23.645  24.253  1.00  0.00     0.038 C 
ATOM     10  C   UNL A   1      33.765  24.566  26.082  1.00  0.00     0.038 C 
ATOM     11  C   UNL A   1      33.990  23.826  23.747  1.00  0.00     0.003 C 
ATOM     12  C   UNL A   1      34.697  24.585  24.860  1.00  0.00     0.003 C 
BRANCH   8  13
ATOM     13  N   UNL A   1      31.327  24.037  26.262  1.00  0.00    -0.341 N 
ATOM     14  C   UNL A   1      30.619  25.169  26.071  1.00  0.00     0.228 C 
ATOM     15  O   UNL A   1      29.528  25.125  26.676  1.00  0.00    -0.274 OA
ATOM     16  H   UNL A   1      30.871  23.397  26.854  1.00  0.00     0.164 HD
BRANCH  14  17
ATOM     17  C   UNL A   1      30.937  26.478  25.326  1.00  0.00     0.115 C 
ATOM     18  C   UNL A   1      29.774  26.739  24.352  1.00  0.00     0.024 C 
BRANCH  17  19
ATOM     19  C   UNL A   1      31.448  27.811  25.886  1.00  0.00     0.017 A 
ATOM     20  C   UNL A   1      31.698  28.356  27.133  1.00  0.00     0.016 A 
ATOM     21  S   UNL A   1      31.667  29.090  24.701  1.00  0.00    -0.148 S 
ATOM     22  C   UNL A   1      32.011  29.748  27.139  1.00  0.00     0.012 A 
ATOM     23  C   UNL A   1      31.982  30.278  25.879  1.00  0.00     0.065 A 
ENDBRANCH  17  19
ENDBRANCH  14  17
ENDBRANCH   8  13
ENDBRANCH   5   8
ENDBRANCH   3   4
ENDBRANCH   2   3
ENDBRANCH   1   2
BRANCH   1  24
ATOM     24  C   UNL A   1      37.208  21.052  24.608  1.00  0.00     0.002 C 
BRANCH  24  25
ATOM     25  C   UNL A   1      38.110  19.866  24.960  1.00  0.00     0.021 C 
BRANCH  25  26
ATOM     26  C   UNL A   1      39.240  20.190  25.932  1.00  0.00     0.116 C 
BRANCH  26  27
ATOM     27  N   UNL A   1      40.253  19.150  25.964  1.00  0.00    -0.352 N 
ATOM     28  C   UNL A   1      41.614  19.266  26.082  1.00  0.00     0.251 C 
ATOM     29  H   UNL A   1      39.913  18.229  25.890  1.00  0.00     0.163 HD
ATOM     30  O   UNL A   1      42.338  18.295  25.903  1.00  0.00    -0.269 OA
BRANCH  28  31
ATOM     31  C   UNL A   1      42.206  20.581  26.401  1.00  0.00     0.039 A 
ATOM     32  C   UNL A   1      42.583  21.419  25.351  1.00  0.00     0.014 A 
ATOM     33  C   UNL A   1      42.385  20.984  27.728  1.00  0.00     0.014 A 
ATOM     34  C   UNL A   1      43.086  22.690  25.631  1.00  0.00     0.010 A 
ATOM     35  C   UNL A   1      42.815  22.278  28.005  1.00  0.00     0.010 A 
ATOM     36  C   UNL A   1      43.171  23.142  26.959  1.00  0.00    -0.014 A 
BRANCH  36  37
ATOM     37  C   UNL A   1      43.614  24.525  27.265  1.00  0.00     0.031 A 
ATOM     38  C   UNL A   1      42.633  25.539  27.781  1.00  0.00     0.074 A 
ATOM     39  C   UNL A   1      44.889  24.880  27.018  1.00  0.00     0.049 A 
ATOM     40  N   UNL A   1      42.820  26.805  28.053  1.00  0.00    -0.248 NA
ATOM     41  C   UNL A   1      41.253  25.075  27.994  1.00  0.00     0.031 C 
ATOM     42  C   UNL A   1      45.919  23.995  26.468  1.00  0.00     0.029 A 
ATOM     43  N   UNL A   1      45.535  26.078  27.184  1.00  0.00    -0.354 N 
ATOM     44  C   UNL A   1      41.583  27.291  28.457  1.00  0.00     0.074 A 
ATOM     45  C   UNL A   1      40.641  26.199  28.342  1.00  0.00     0.031 C 
ATOM     46  C   UNL A   1      47.071  24.675  26.363  1.00  0.00     0.029 A 
ATOM     47  C   UNL A   1      46.853  26.051  26.796  1.00  0.00     0.049 A 
ATOM     48  H   UNL A   1      45.097  26.882  27.546  1.00  0.00     0.167 HD
ATOM     49  C   UNL A   1      41.268  28.530  28.904  1.00  0.00     0.037 A 
ATOM     50  C   UNL A   1      47.778  27.030  26.781  1.00  0.00     0.037 A 
ATOM     51  C   UNL A   1      42.216  29.607  29.033  1.00  0.00     0.049 A 
ATOM     52  C   UNL A   1      47.399  28.402  27.271  1.00  0.00     0.074 A 
ATOM     53  C   UNL A   1      42.014  30.877  29.542  1.00  0.00     0.029 A 
ATOM     54  N   UNL A   1      43.546  29.541  28.640  1.00  0.00    -0.354 N 
ATOM     55  N   UNL A   1      46.246  28.827  27.728  1.00  0.00    -0.248 NA
ATOM     56  C   UNL A   1      48.450  29.427  27.247  1.00  0.00     0.031 C 
ATOM     57  C   UNL A   1      43.203  31.600  29.399  1.00  0.00     0.029 A 
ATOM     58  C   UNL A   1      44.165  30.761  28.861  1.00  0.00     0.049 A 
ATOM     59  H   UNL A   1      43.984  28.745  28.260  1.00  0.00     0.167 HD
ATOM     60  C   UNL A   1      46.439  30.160  28.068  1.00  0.00     0.074 A 
ATOM     61  C   UNL A   1      47.825  30.466  27.784  1.00  0.00     0.031 C 
ATOM     62  C   UNL A   1      45.547  31.050  28.569  1.00  0.00     0.037 A 
BRANCH  49  63
ATOM     63  C   UNL A   1      39.838  28.793  29.281  1.00  0.00     0.064 A 
ATOM     64  C   UNL A   1      38.902  29.268  28.350  1.00  0.00     0.173 A 
ATOM     65  C   UNL A   1      39.387  28.528  30.584  1.00  0.00     0.173 A 
ATOM     66  F   UNL A   1      39.282  29.547  27.093  1.00  0.00    -0.203 F 
ATOM     67  C   UNL A   1      37.578  29.501  28.716  1.00  0.00     0.198 A 
ATOM     68  C   UNL A   1      38.056  28.730  30.938  1.00  0.00     0.198 A 
ATOM     69  F   UNL A   1      40.237  28.067  31.513  1.00  0.00    -0.203 F 
ATOM     70  F   UNL A   1      36.717  30.006  27.822  1.00  0.00    -0.200 F 
ATOM     71  C   UNL A   1      37.155  29.223  30.007  1.00  0.00     0.200 A 
ATOM     72  F   UNL A   1      37.644  28.447  32.181  1.00  0.00    -0.200 F 
ATOM     73  F   UNL A   1      35.879  29.438  30.355  1.00  0.00    -0.200 F 
ENDBRANCH  49  63
BRANCH  50  74
ATOM     74  C   UNL A   1      49.153  26.743  26.296  1.00  0.00     0.064 A 
ATOM     75  C   UNL A   1      49.509  26.972  24.959  1.00  0.00     0.173 A 
ATOM     76  C   UNL A   1      50.138  26.234  27.155  1.00  0.00     0.173 A 
ATOM     77  F   UNL A   1      48.599  27.440  24.095  1.00  0.00    -0.203 F 
ATOM     78  C   UNL A   1      50.792  26.683  24.497  1.00  0.00     0.198 A 
ATOM     79  C   UNL A   1      51.428  25.976  26.699  1.00  0.00     0.198 A 
ATOM     80  F   UNL A   1      49.851  26.004  28.445  1.00  0.00    -0.203 F 
ATOM     81  F   UNL A   1      51.093  26.867  23.204  1.00  0.00    -0.200 F 
ATOM     82  C   UNL A   1      51.753  26.192  25.369  1.00  0.00     0.200 A 
ATOM     83  F   UNL A   1      52.358  25.518  27.550  1.00  0.00    -0.200 F 
ATOM     84  F   UNL A   1      52.987  25.920  24.925  1.00  0.00    -0.200 F 
ENDBRANCH  50  74
BRANCH  62  85
ATOM     85  C   UNL A   1      46.050  32.435  28.864  1.00  0.00     0.064 A 
ATOM     86  C   UNL A   1      45.972  33.464  27.915  1.00  0.00     0.173 A 
ATOM     87  C   UNL A   1      46.579  32.745  30.126  1.00  0.00     0.173 A 
ATOM     88  F   UNL A   1      45.488  33.217  26.688  1.00  0.00    -0.203 F 
ATOM     89  C   UNL A   1      46.431  34.746  28.210  1.00  0.00     0.198 A 
ATOM     90  C   UNL A   1      47.005  34.035  30.428  1.00  0.00     0.198 A 
ATOM     91  F   UNL A   1      46.670  31.799  31.073  1.00  0.00    -0.203 F 
ATOM     92  F   UNL A   1      46.395  35.700  27.269  1.00  0.00    -0.200 F 
ATOM     93  C   UNL A   1      46.939  35.031  29.467  1.00  0.00     0.200 A 
ATOM     94  F   UNL A   1      47.480  34.312  31.651  1.00  0.00    -0.200 F 
ATOM     95  F   UNL A   1      47.372  36.268  29.752  1.00  0.00    -0.200 F 
ENDBRANCH  62  85
ENDBRANCH  36  37
ENDBRANCH  28  31
ENDBRANCH  26  27
ENDBRANCH  25  26
ENDBRANCH  24  25
ENDBRANCH   1  24
TORSDOF 16
ENDMDL
MODEL 3
REMARK VINA RESULT:     -12.2      1.407      7.578
REMARK SMILES C[C@H](C(=O)NC1(C(=O)NCCCCCCNC(=O)c2ccc(-c3c4nc(c(-c5c(F)c(F)c(F)c(F)c5F)c5ccc([nH]5)c(-c5c(F)c(F)c(F)c(F)c5F)c5nc(c(-c6c(F)c(F)c(F)c(F)c6F)c6ccc3[nH]6)C=C5)C=C4)cc2)CCCC1)c1cccs1
REMARK SMILES IDX 12 1 11 2 10 3 9 4 7 5 8 6 6 8 82 9 85 10 83 11 84 12 5 13
REMARK SMILES IDX 3 14 4 15 2 17 1 18 86 19 87 20 90 21 88 22 89 23 13 24
REMARK SMILES IDX 14 25 15 26 16 27 17 28 18 30 19 31 20 32 81 33 21 34 80 35
REMARK SMILES IDX 22 36 23 37 24 38 74 39 25 40 79 41 73 42 75 43 26 44 78 45
REMARK SMILES IDX 72 46 71 47 27 49 59 50 39 51 58 52 40 53 43 54 57 55 76 56
REMARK SMILES IDX 41 57 42 58 56 60 77 61 44 62 28 63 29 64 37 65 30 66 31 67
REMARK SMILES IDX 35 68 38 69 32 70 33 71 36 72 34 73 60 74 61 75 69 76 62 77
REMARK SMILES IDX 63 78 67 79 70 80 64 81 65 82 68 83 66 84 45 85 46 86 54 87
REMARK SMILES IDX 47 88 48 89 52 90 55 91 49 92 50 93 53 94 51 95
REMARK H PARENT 9 7 5 16 16 29 75 48 43 59
REMARK Flexibility Score: inf
ROOT
ATOM      1  C   UNL A   1      32.397  29.959  27.024  1.00  0.00     0.002 C 
ENDROOT
BRANCH   1   2
ATOM      2  C   UNL A   1      31.728  28.694  27.566  1.00  0.00     0.021 C 
BRANCH   2   3
ATOM      3  C   UNL A   1      32.048  27.431  26.778  1.00  0.00     0.116 C 
BRANCH   3   4
ATOM      4  N   UNL A   1      31.001  26.464  26.917  1.00  0.00    -0.354 N 
ATOM      5  C   UNL A   1      30.238  25.795  26.032  1.00  0.00     0.245 C 
ATOM      6  O   UNL A   1      29.330  25.154  26.589  1.00  0.00    -0.272 OA
ATOM      7  H   UNL A   1      30.797  26.242  27.854  1.00  0.00     0.163 HD
BRANCH   5   8
ATOM      8  C   UNL A   1      30.341  25.854  24.454  1.00  0.00     0.119 C 
ATOM      9  C   UNL A   1      31.265  26.659  23.527  1.00  0.00     0.038 C 
ATOM     10  C   UNL A   1      28.956  26.309  23.915  1.00  0.00     0.038 C 
ATOM     11  C   UNL A   1      30.621  28.004  23.278  1.00  0.00     0.003 C 
ATOM     12  C   UNL A   1      29.127  27.728  23.348  1.00  0.00     0.003 C 
BRANCH   8  13
ATOM     13  N   UNL A   1      30.600  24.439  24.144  1.00  0.00    -0.341 N 
ATOM     14  C   UNL A   1      31.610  23.585  24.409  1.00  0.00     0.228 C 
ATOM     15  O   UNL A   1      31.370  22.448  23.952  1.00  0.00    -0.274 OA
ATOM     16  H   UNL A   1      29.873  24.022  23.627  1.00  0.00     0.164 HD
BRANCH  14  17
ATOM     17  C   UNL A   1      32.979  23.775  25.085  1.00  0.00     0.115 C 
ATOM     18  C   UNL A   1      32.831  23.320  26.548  1.00  0.00     0.024 C 
BRANCH  17  19
ATOM     19  C   UNL A   1      34.375  23.402  24.569  1.00  0.00     0.017 A 
ATOM     20  C   UNL A   1      35.125  23.625  23.429  1.00  0.00     0.016 A 
ATOM     21  S   UNL A   1      35.272  22.275  25.576  1.00  0.00    -0.148 S 
ATOM     22  C   UNL A   1      36.347  22.893  23.350  1.00  0.00     0.012 A 
ATOM     23  C   UNL A   1      36.523  22.083  24.438  1.00  0.00     0.065 A 
ENDBRANCH  17  19
ENDBRANCH  14  17
ENDBRANCH   8  13
ENDBRANCH   5   8
ENDBRANCH   3   4
ENDBRANCH   2   3
ENDBRANCH   1   2
BRANCH   1  24
ATOM     24  C   UNL A   1      31.509  30.822  26.122  1.00  0.00     0.002 C 
BRANCH  24  25
ATOM     25  C   UNL A   1      31.369  32.283  26.557  1.00  0.00     0.021 C 
BRANCH  25  26
ATOM     26  C   UNL A   1      32.606  32.870  27.229  1.00  0.00     0.116 C 
BRANCH  26  27
ATOM     27  N   UNL A   1      32.398  34.239  27.663  1.00  0.00    -0.352 N 
ATOM     28  C   UNL A   1      33.007  34.932  28.678  1.00  0.00     0.251 C 
ATOM     29  H   UNL A   1      31.722  34.744  27.154  1.00  0.00     0.163 HD
ATOM     30  O   UNL A   1      32.579  36.023  29.029  1.00  0.00    -0.269 OA
BRANCH  28  31
ATOM     31  C   UNL A   1      34.171  34.338  29.366  1.00  0.00     0.039 A 
ATOM     32  C   UNL A   1      33.954  33.570  30.511  1.00  0.00     0.014 A 
ATOM     33  C   UNL A   1      35.468  34.535  28.881  1.00  0.00     0.014 A 
ATOM     34  C   UNL A   1      35.034  32.949  31.139  1.00  0.00     0.010 A 
ATOM     35  C   UNL A   1      36.533  33.855  29.463  1.00  0.00     0.010 A 
ATOM     36  C   UNL A   1      36.326  33.056  30.598  1.00  0.00    -0.014 A 
BRANCH  36  37
ATOM     37  C   UNL A   1      37.468  32.325  31.200  1.00  0.00     0.031 A 
ATOM     38  C   UNL A   1      37.981  32.707  32.559  1.00  0.00     0.074 A 
ATOM     39  C   UNL A   1      38.080  31.357  30.491  1.00  0.00     0.049 A 
ATOM     40  N   UNL A   1      38.999  32.223  33.224  1.00  0.00    -0.248 NA
ATOM     41  C   UNL A   1      37.274  33.796  33.251  1.00  0.00     0.031 C 
ATOM     42  C   UNL A   1      37.702  30.934  29.141  1.00  0.00     0.029 A 
ATOM     43  N   UNL A   1      39.153  30.561  30.801  1.00  0.00    -0.354 N 
ATOM     44  C   UNL A   1      39.061  32.953  34.404  1.00  0.00     0.074 A 
ATOM     45  C   UNL A   1      38.014  33.949  34.340  1.00  0.00     0.031 C 
ATOM     46  C   UNL A   1      38.517  29.943  28.748  1.00  0.00     0.029 A 
ATOM     47  C   UNL A   1      39.499  29.689  29.797  1.00  0.00     0.049 A 
ATOM     48  H   UNL A   1      39.631  30.610  31.660  1.00  0.00     0.167 HD
ATOM     49  C   UNL A   1      39.901  32.791  35.453  1.00  0.00     0.037 A 
ATOM     50  C   UNL A   1      40.502  28.794  29.727  1.00  0.00     0.037 A 
ATOM     51  C   UNL A   1      40.929  31.783  35.517  1.00  0.00     0.049 A 
ATOM     52  C   UNL A   1      41.431  28.642  30.902  1.00  0.00     0.074 A 
ATOM     53  C   UNL A   1      41.786  31.490  36.563  1.00  0.00     0.029 A 
ATOM     54  N   UNL A   1      41.245  30.911  34.485  1.00  0.00    -0.354 N 
ATOM     55  N   UNL A   1      41.428  29.283  32.046  1.00  0.00    -0.248 NA
ATOM     56  C   UNL A   1      42.498  27.640  30.778  1.00  0.00     0.031 C 
ATOM     57  C   UNL A   1      42.661  30.483  36.142  1.00  0.00     0.029 A 
ATOM     58  C   UNL A   1      42.308  30.103  34.857  1.00  0.00     0.049 A 
ATOM     59  H   UNL A   1      40.782  30.871  33.616  1.00  0.00     0.167 HD
ATOM     60  C   UNL A   1      42.474  28.747  32.785  1.00  0.00     0.074 A 
ATOM     61  C   UNL A   1      43.075  27.714  31.968  1.00  0.00     0.031 C 
ATOM     62  C   UNL A   1      42.898  29.081  34.029  1.00  0.00     0.037 A 
BRANCH  49  63
ATOM     63  C   UNL A   1      39.751  33.727  36.619  1.00  0.00     0.064 A 
ATOM     64  C   UNL A   1      40.393  34.974  36.653  1.00  0.00     0.173 A 
ATOM     65  C   UNL A   1      38.922  33.389  37.699  1.00  0.00     0.173 A 
ATOM     66  F   UNL A   1      41.205  35.343  35.651  1.00  0.00    -0.203 F 
ATOM     67  C   UNL A   1      40.238  35.832  37.740  1.00  0.00     0.198 A 
ATOM     68  C   UNL A   1      38.742  34.263  38.768  1.00  0.00     0.198 A 
ATOM     69  F   UNL A   1      38.279  32.212  37.716  1.00  0.00    -0.203 F 
ATOM     70  F   UNL A   1      40.904  36.995  37.773  1.00  0.00    -0.200 F 
ATOM     71  C   UNL A   1      39.405  35.480  38.791  1.00  0.00     0.200 A 
ATOM     72  F   UNL A   1      37.926  33.927  39.776  1.00  0.00    -0.200 F 
ATOM     73  F   UNL A   1      39.249  36.310  39.831  1.00  0.00    -0.200 F 
ENDBRANCH  49  63
BRANCH  50  74
ATOM     74  C   UNL A   1      40.672  27.965  28.504  1.00  0.00     0.064 A 
ATOM     75  C   UNL A   1      40.064  26.707  28.395  1.00  0.00     0.173 A 
ATOM     76  C   UNL A   1      41.444  28.412  27.423  1.00  0.00     0.173 A 
ATOM     77  F   UNL A   1      39.331  26.227  29.409  1.00  0.00    -0.203 F 
ATOM     78  C   UNL A   1      40.239  25.918  27.259  1.00  0.00     0.198 A 
ATOM     79  C   UNL A   1      41.593  27.637  26.275  1.00  0.00     0.198 A 
ATOM     80  F   UNL A   1      42.042  29.611  27.474  1.00  0.00    -0.203 F 
ATOM     81  F   UNL A   1      39.685  24.700  27.199  1.00  0.00    -0.200 F 
ATOM     82  C   UNL A   1      40.998  26.388  26.197  1.00  0.00     0.200 A 
ATOM     83  F   UNL A   1      42.313  28.102  25.244  1.00  0.00    -0.200 F 
ATOM     84  F   UNL A   1      41.162  25.632  25.103  1.00  0.00    -0.200 F 
ENDBRANCH  50  74
BRANCH  62  85
ATOM     85  C   UNL A   1      44.056  28.306  34.592  1.00  0.00     0.064 A 
ATOM     86  C   UNL A   1      43.868  27.100  35.284  1.00  0.00     0.173 A 
ATOM     87  C   UNL A   1      45.371  28.755  34.402  1.00  0.00     0.173 A 
ATOM     88  F   UNL A   1      42.629  26.635  35.506  1.00  0.00    -0.203 F 
ATOM     89  C   UNL A   1      44.953  26.388  35.788  1.00  0.00     0.198 A 
ATOM     90  C   UNL A   1      46.455  28.022  34.877  1.00  0.00     0.198 A 
ATOM     91  F   UNL A   1      45.607  29.898  33.741  1.00  0.00    -0.203 F 
ATOM     92  F   UNL A   1      44.746  25.266  36.491  1.00  0.00    -0.200 F 
ATOM     93  C   UNL A   1      46.245  26.845  35.577  1.00  0.00     0.200 A 
ATOM     94  F   UNL A   1      47.704  28.458  34.658  1.00  0.00    -0.200 F 
ATOM     95  F   UNL A   1      47.288  26.152  36.055  1.00  0.00    -0.200 F 
ENDBRANCH  62  85
ENDBRANCH  36  37
ENDBRANCH  28  31
ENDBRANCH  26  27
ENDBRANCH  25  26
ENDBRANCH  24  25
ENDBRANCH   1  24
TORSDOF 16
ENDMDL
