MODEL 1
REMARK VINA RESULT:     -10.4      0.000      0.000
REMARK SMILES CCCc1n[nH]c(C(=O)N[C@H](C)CC(=O)NCCCCCCNC(=O)c2ccc(-c3c4nc(c(-c5c(F)c(F)c(F)c(F)c5F)c5ccc([nH]5)c(-c5c(F)c(F)c(F)c(F)c5F)c5nc(c(-c6c(F)c(F)c(F)c(F)c6F)c6ccc3[nH]6)C=C5)C=C4)cc2)n1
REMARK SMILES IDX 18 1 17 2 16 3 14 4 15 5 13 7 11 8 12 9 10 10 8 11 9 12 7 14
REMARK SMILES IDX 4 15 5 16 89 17 6 18 3 20 2 21 1 22 19 23 20 24 21 25 22 26
REMARK SMILES IDX 23 27 24 28 25 30 26 31 27 32 88 33 28 34 87 35 29 36 30 37
REMARK SMILES IDX 31 38 81 39 32 40 86 41 80 42 82 43 33 44 85 45 79 46 78 47
REMARK SMILES IDX 34 49 66 50 46 51 65 52 47 53 50 54 64 55 83 56 48 57 49 58
REMARK SMILES IDX 63 60 84 61 51 62 35 63 36 64 44 65 37 66 38 67 42 68 45 69
REMARK SMILES IDX 39 70 40 71 43 72 41 73 67 74 68 75 76 76 69 77 70 78 74 79
REMARK SMILES IDX 77 80 71 81 72 82 75 83 73 84 52 85 53 86 61 87 54 88 55 89
REMARK SMILES IDX 59 90 62 91 56 92 57 93 60 94 58 95
REMARK H PARENT 16 6 10 13 6 19 23 29 82 48 50 59
REMARK Flexibility Score: inf
ROOT
ATOM      1  C   UNL A   1      40.335  22.318  26.884  1.00  0.00     0.021 C 
ENDROOT
BRANCH   1   2
ATOM      2  C   UNL A   1      39.165  21.532  26.294  1.00  0.00     0.116 C 
BRANCH   2   3
ATOM      3  N   UNL A   1      38.548  22.270  25.208  1.00  0.00    -0.356 N 
ATOM      4  C   UNL A   1      37.308  22.126  24.665  1.00  0.00     0.222 C 
ATOM      5  O   UNL A   1      37.035  22.751  23.639  1.00  0.00    -0.275 OA
ATOM      6  H   UNL A   1      39.105  22.976  24.808  1.00  0.00     0.163 HD
BRANCH   4   7
ATOM      7  C   UNL A   1      36.288  21.215  25.314  1.00  0.00     0.124 C 
BRANCH   7   8
ATOM      8  C   UNL A   1      35.021  21.966  25.724  1.00  0.00     0.088 C 
ATOM      9  C   UNL A   1      35.240  23.301  26.434  1.00  0.00     0.031 C 
BRANCH   8  10
ATOM     10  N   UNL A   1      34.058  22.038  24.618  1.00  0.00    -0.346 N 
ATOM     11  C   UNL A   1      33.164  21.154  24.065  1.00  0.00     0.288 C 
ATOM     12  O   UNL A   1      32.490  21.576  23.126  1.00  0.00    -0.266 OA
ATOM     13  H   UNL A   1      34.052  22.916  24.173  1.00  0.00     0.164 HD
BRANCH  11  14
ATOM     14  C   UNL A   1      33.029  19.787  24.511  1.00  0.00     0.214 A 
ATOM     15  C   UNL A   1      32.898  17.687  24.782  1.00  0.00     0.151 A 
ATOM     16  N   UNL A   1      32.496  18.160  25.965  1.00  0.00    -0.158 NA
ATOM     17  N   UNL A   1      33.264  18.656  23.875  1.00  0.00    -0.207 NA
ATOM     18  N   UNL A   1      32.603  19.485  25.776  1.00  0.00    -0.255 N 
ATOM     19  H   UNL A   1      32.399  20.158  26.464  1.00  0.00     0.192 HD
BRANCH  15  20
ATOM     20  C   UNL A   1      32.962  16.244  24.427  1.00  0.00     0.079 C 
BRANCH  20  21
ATOM     21  C   UNL A   1      33.893  15.361  25.258  1.00  0.00     0.005 C 
ATOM     22  C   UNL A   1      35.317  15.897  25.321  1.00  0.00     0.004 C 
ENDBRANCH  20  21
ENDBRANCH  15  20
ENDBRANCH  11  14
ENDBRANCH   8  10
ENDBRANCH   7   8
ENDBRANCH   4   7
ENDBRANCH   2   3
ENDBRANCH   1   2
BRANCH   1  23
ATOM     23  C   UNL A   1      41.716  21.729  26.587  1.00  0.00     0.002 C 
BRANCH  23  24
ATOM     24  C   UNL A   1      42.164  20.587  27.507  1.00  0.00     0.002 C 
BRANCH  24  25
ATOM     25  C   UNL A   1      42.636  19.302  26.817  1.00  0.00     0.021 C 
BRANCH  25  26
ATOM     26  C   UNL A   1      42.510  19.277  25.295  1.00  0.00     0.116 C 
BRANCH  26  27
ATOM     27  N   UNL A   1      43.746  18.884  24.646  1.00  0.00    -0.352 N 
ATOM     28  C   UNL A   1      44.841  19.630  24.290  1.00  0.00     0.251 C 
ATOM     29  H   UNL A   1      43.810  17.927  24.424  1.00  0.00     0.163 HD
ATOM     30  O   UNL A   1      45.703  19.126  23.575  1.00  0.00    -0.269 OA
BRANCH  28  31
ATOM     31  C   UNL A   1      45.001  21.035  24.736  1.00  0.00     0.039 A 
ATOM     32  C   UNL A   1      45.508  21.264  26.020  1.00  0.00     0.014 A 
ATOM     33  C   UNL A   1      44.588  22.119  23.955  1.00  0.00     0.014 A 
ATOM     34  C   UNL A   1      45.636  22.568  26.504  1.00  0.00     0.010 A 
ATOM     35  C   UNL A   1      44.767  23.428  24.419  1.00  0.00     0.010 A 
ATOM     36  C   UNL A   1      45.284  23.666  25.701  1.00  0.00    -0.014 A 
BRANCH  36  37
ATOM     37  C   UNL A   1      45.465  25.052  26.210  1.00  0.00     0.031 A 
ATOM     38  C   UNL A   1      46.807  25.731  26.154  1.00  0.00     0.074 A 
ATOM     39  C   UNL A   1      44.413  25.708  26.736  1.00  0.00     0.049 A 
ATOM     40  N   UNL A   1      47.134  26.949  26.509  1.00  0.00    -0.248 NA
ATOM     41  C   UNL A   1      47.934  24.931  25.650  1.00  0.00     0.031 C 
ATOM     42  C   UNL A   1      43.070  25.150  26.901  1.00  0.00     0.029 A 
ATOM     43  N   UNL A   1      44.305  26.986  27.225  1.00  0.00    -0.354 N 
ATOM     44  C   UNL A   1      48.499  27.062  26.274  1.00  0.00     0.074 A 
ATOM     45  C   UNL A   1      48.949  25.772  25.794  1.00  0.00     0.031 C 
ATOM     46  C   UNL A   1      42.267  26.089  27.427  1.00  0.00     0.029 A 
ATOM     47  C   UNL A   1      43.041  27.306  27.654  1.00  0.00     0.049 A 
ATOM     48  H   UNL A   1      45.062  27.615  27.262  1.00  0.00     0.167 HD
ATOM     49  C   UNL A   1      49.299  28.146  26.422  1.00  0.00     0.037 A 
ATOM     50  C   UNL A   1      42.554  28.453  28.166  1.00  0.00     0.037 A 
ATOM     51  C   UNL A   1      48.854  29.435  26.885  1.00  0.00     0.049 A 
ATOM     52  C   UNL A   1      43.458  29.647  28.302  1.00  0.00     0.074 A 
ATOM     53  C   UNL A   1      49.582  30.607  27.016  1.00  0.00     0.029 A 
ATOM     54  N   UNL A   1      47.562  29.725  27.298  1.00  0.00    -0.354 N 
ATOM     55  N   UNL A   1      44.730  29.761  28.003  1.00  0.00    -0.248 NA
ATOM     56  C   UNL A   1      42.853  30.877  28.831  1.00  0.00     0.031 C 
ATOM     57  C   UNL A   1      48.741  31.592  27.544  1.00  0.00     0.029 A 
ATOM     58  C   UNL A   1      47.477  31.049  27.701  1.00  0.00     0.049 A 
ATOM     59  H   UNL A   1      46.815  29.084  27.305  1.00  0.00     0.167 HD
ATOM     60  C   UNL A   1      45.072  31.076  28.291  1.00  0.00     0.074 A 
ATOM     61  C   UNL A   1      43.868  31.727  28.763  1.00  0.00     0.031 C 
ATOM     62  C   UNL A   1      46.276  31.686  28.177  1.00  0.00     0.037 A 
BRANCH  49  63
ATOM     63  C   UNL A   1      50.751  27.987  26.069  1.00  0.00     0.064 A 
ATOM     64  C   UNL A   1      51.196  28.090  24.742  1.00  0.00     0.173 A 
ATOM     65  C   UNL A   1      51.710  27.774  27.069  1.00  0.00     0.173 A 
ATOM     66  F   UNL A   1      50.317  28.284  23.747  1.00  0.00    -0.203 F 
ATOM     67  C   UNL A   1      52.546  27.958  24.428  1.00  0.00     0.198 A 
ATOM     68  C   UNL A   1      53.063  27.671  26.754  1.00  0.00     0.198 A 
ATOM     69  F   UNL A   1      51.339  27.677  28.354  1.00  0.00    -0.203 F 
ATOM     70  F   UNL A   1      52.943  28.015  23.149  1.00  0.00    -0.200 F 
ATOM     71  C   UNL A   1      53.479  27.755  25.434  1.00  0.00     0.200 A 
ATOM     72  F   UNL A   1      53.965  27.487  27.728  1.00  0.00    -0.200 F 
ATOM     73  F   UNL A   1      54.779  27.635  25.130  1.00  0.00    -0.200 F 
ENDBRANCH  49  63
BRANCH  50  74
ATOM     74  C   UNL A   1      41.124  28.537  28.558  1.00  0.00     0.064 A 
ATOM     75  C   UNL A   1      40.703  28.145  29.835  1.00  0.00     0.173 A 
ATOM     76  C   UNL A   1      40.153  29.010  27.664  1.00  0.00     0.173 A 
ATOM     77  F   UNL A   1      41.594  27.665  30.716  1.00  0.00    -0.203 F 
ATOM     78  C   UNL A   1      39.360  28.203  30.199  1.00  0.00     0.198 A 
ATOM     79  C   UNL A   1      38.813  29.093  28.038  1.00  0.00     0.198 A 
ATOM     80  F   UNL A   1      40.507  29.401  26.432  1.00  0.00    -0.203 F 
ATOM     81  F   UNL A   1      38.978  27.782  31.412  1.00  0.00    -0.200 F 
ATOM     82  C   UNL A   1      38.417  28.684  29.302  1.00  0.00     0.200 A 
ATOM     83  F   UNL A   1      37.907  29.570  27.174  1.00  0.00    -0.200 F 
ATOM     84  F   UNL A   1      37.126  28.744  29.654  1.00  0.00    -0.200 F 
ENDBRANCH  50  74
BRANCH  62  85
ATOM     85  C   UNL A   1      46.345  33.137  28.559  1.00  0.00     0.064 A 
ATOM     86  C   UNL A   1      46.654  33.538  29.867  1.00  0.00     0.173 A 
ATOM     87  C   UNL A   1      46.103  34.137  27.605  1.00  0.00     0.173 A 
ATOM     88  F   UNL A   1      46.878  32.621  30.820  1.00  0.00    -0.203 F 
ATOM     89  C   UNL A   1      46.685  34.887  30.215  1.00  0.00     0.198 A 
ATOM     90  C   UNL A   1      46.163  35.486  27.949  1.00  0.00     0.198 A 
ATOM     91  F   UNL A   1      45.809  33.808  26.339  1.00  0.00    -0.203 F 
ATOM     92  F   UNL A   1      46.926  35.245  31.483  1.00  0.00    -0.200 F 
ATOM     93  C   UNL A   1      46.443  35.859  29.254  1.00  0.00     0.200 A 
ATOM     94  F   UNL A   1      45.940  36.423  27.019  1.00  0.00    -0.200 F 
ATOM     95  F   UNL A   1      46.469  37.155  29.592  1.00  0.00    -0.200 F 
ENDBRANCH  62  85
ENDBRANCH  36  37
ENDBRANCH  28  31
ENDBRANCH  26  27
ENDBRANCH  25  26
ENDBRANCH  24  25
ENDBRANCH  23  24
ENDBRANCH   1  23
TORSDOF 18
ENDMDL
MODEL 2
REMARK VINA RESULT:     -10.2      5.706      9.898
REMARK SMILES CCCc1n[nH]c(C(=O)N[C@H](C)CC(=O)NCCCCCCNC(=O)c2ccc(-c3c4nc(c(-c5c(F)c(F)c(F)c(F)c5F)c5ccc([nH]5)c(-c5c(F)c(F)c(F)c(F)c5F)c5nc(c(-c6c(F)c(F)c(F)c(F)c6F)c6ccc3[nH]6)C=C5)C=C4)cc2)n1
REMARK SMILES IDX 18 1 17 2 16 3 14 4 15 5 13 7 11 8 12 9 10 10 8 11 9 12 7 14
REMARK SMILES IDX 4 15 5 16 89 17 6 18 3 20 2 21 1 22 19 23 20 24 21 25 22 26
REMARK SMILES IDX 23 27 24 28 25 30 26 31 27 32 88 33 28 34 87 35 29 36 30 37
REMARK SMILES IDX 31 38 81 39 32 40 86 41 80 42 82 43 33 44 85 45 79 46 78 47
REMARK SMILES IDX 34 49 66 50 46 51 65 52 47 53 50 54 64 55 83 56 48 57 49 58
REMARK SMILES IDX 63 60 84 61 51 62 35 63 36 64 44 65 37 66 38 67 42 68 45 69
REMARK SMILES IDX 39 70 40 71 43 72 41 73 67 74 68 75 76 76 69 77 70 78 74 79
REMARK SMILES IDX 77 80 71 81 72 82 75 83 73 84 52 85 53 86 61 87 54 88 55 89
REMARK SMILES IDX 59 90 62 91 56 92 57 93 60 94 58 95
REMARK H PARENT 16 6 10 13 6 19 23 29 82 48 50 59
REMARK Flexibility Score: inf
ROOT
ATOM      1  C   UNL A   1      43.802  23.357  32.625  1.00  0.00     0.021 C 
ENDROOT
BRANCH   1   2
ATOM      2  C   UNL A   1      44.178  23.441  31.146  1.00  0.00     0.116 C 
BRANCH   2   3
ATOM      3  N   UNL A   1      43.039  23.117  30.309  1.00  0.00    -0.356 N 
ATOM      4  C   UNL A   1      43.013  22.721  29.006  1.00  0.00     0.222 C 
ATOM      5  O   UNL A   1      41.926  22.649  28.432  1.00  0.00    -0.275 OA
ATOM      6  H   UNL A   1      42.159  23.195  30.744  1.00  0.00     0.163 HD
BRANCH   4   7
ATOM      7  C   UNL A   1      44.298  22.376  28.284  1.00  0.00     0.124 C 
BRANCH   7   8
ATOM      8  C   UNL A   1      44.727  23.474  27.312  1.00  0.00     0.088 C 
ATOM      9  C   UNL A   1      45.650  24.547  27.887  1.00  0.00     0.031 C 
BRANCH   8  10
ATOM     10  N   UNL A   1      45.199  22.911  26.041  1.00  0.00    -0.346 N 
ATOM     11  C   UNL A   1      44.765  21.899  25.219  1.00  0.00     0.288 C 
ATOM     12  O   UNL A   1      45.420  21.710  24.196  1.00  0.00    -0.266 OA
ATOM     13  H   UNL A   1      46.007  23.359  25.701  1.00  0.00     0.164 HD
BRANCH  11  14
ATOM     14  C   UNL A   1      43.631  21.062  25.533  1.00  0.00     0.214 A 
ATOM     15  C   UNL A   1      41.762  20.179  26.011  1.00  0.00     0.151 A 
ATOM     16  N   UNL A   1      42.607  19.149  26.113  1.00  0.00    -0.158 NA
ATOM     17  N   UNL A   1      42.350  21.362  25.625  1.00  0.00    -0.207 NA
ATOM     18  N   UNL A   1      43.776  19.726  25.792  1.00  0.00    -0.255 N 
ATOM     19  H   UNL A   1      44.634  19.247  25.748  1.00  0.00     0.192 HD
BRANCH  15  20
ATOM     20  C   UNL A   1      40.301  20.102  26.280  1.00  0.00     0.079 C 
BRANCH  20  21
ATOM     21  C   UNL A   1      39.474  21.358  26.012  1.00  0.00     0.005 C 
ATOM     22  C   UNL A   1      38.184  21.069  25.255  1.00  0.00     0.004 C 
ENDBRANCH  20  21
ENDBRANCH  15  20
ENDBRANCH  11  14
ENDBRANCH   8  10
ENDBRANCH   7   8
ENDBRANCH   4   7
ENDBRANCH   2   3
ENDBRANCH   1   2
BRANCH   1  23
ATOM     23  C   UNL A   1      44.988  23.424  33.590  1.00  0.00     0.002 C 
BRANCH  23  24
ATOM     24  C   UNL A   1      45.087  22.275  34.601  1.00  0.00     0.002 C 
BRANCH  24  25
ATOM     25  C   UNL A   1      46.326  22.267  35.503  1.00  0.00     0.021 C 
BRANCH  25  26
ATOM     26  C   UNL A   1      47.330  23.394  35.267  1.00  0.00     0.116 C 
BRANCH  26  27
ATOM     27  N   UNL A   1      47.562  24.185  36.460  1.00  0.00    -0.352 N 
ATOM     28  C   UNL A   1      47.076  25.415  36.822  1.00  0.00     0.251 C 
ATOM     29  H   UNL A   1      48.166  23.771  37.119  1.00  0.00     0.163 HD
ATOM     30  O   UNL A   1      47.554  25.987  37.798  1.00  0.00    -0.269 OA
BRANCH  28  31
ATOM     31  C   UNL A   1      45.997  26.080  36.052  1.00  0.00     0.039 A 
ATOM     32  C   UNL A   1      46.337  27.180  35.257  1.00  0.00     0.014 A 
ATOM     33  C   UNL A   1      44.656  25.699  36.163  1.00  0.00     0.014 A 
ATOM     34  C   UNL A   1      45.350  27.869  34.549  1.00  0.00     0.010 A 
ATOM     35  C   UNL A   1      43.674  26.355  35.410  1.00  0.00     0.010 A 
ATOM     36  C   UNL A   1      44.009  27.453  34.603  1.00  0.00    -0.014 A 
BRANCH  36  37
ATOM     37  C   UNL A   1      42.972  28.166  33.810  1.00  0.00     0.031 A 
ATOM     38  C   UNL A   1      42.816  27.918  32.334  1.00  0.00     0.074 A 
ATOM     39  C   UNL A   1      42.165  29.054  34.421  1.00  0.00     0.049 A 
ATOM     40  N   UNL A   1      41.937  28.417  31.499  1.00  0.00    -0.248 NA
ATOM     41  C   UNL A   1      43.783  27.004  31.709  1.00  0.00     0.031 C 
ATOM     42  C   UNL A   1      42.244  29.430  35.833  1.00  0.00     0.029 A 
ATOM     43  N   UNL A   1      41.118  29.799  33.936  1.00  0.00    -0.354 N 
ATOM     44  C   UNL A   1      42.245  27.880  30.255  1.00  0.00     0.074 A 
ATOM     45  C   UNL A   1      43.423  27.058  30.434  1.00  0.00     0.031 C 
ATOM     46  C   UNL A   1      41.270  30.314  36.106  1.00  0.00     0.029 A 
ATOM     47  C   UNL A   1      40.512  30.581  34.887  1.00  0.00     0.049 A 
ATOM     48  H   UNL A   1      40.829  29.773  32.995  1.00  0.00     0.167 HD
ATOM     49  C   UNL A   1      41.594  28.040  29.077  1.00  0.00     0.037 A 
ATOM     50  C   UNL A   1      39.458  31.414  34.793  1.00  0.00     0.037 A 
ATOM     51  C   UNL A   1      40.413  28.844  28.896  1.00  0.00     0.049 A 
ATOM     52  C   UNL A   1      38.741  31.558  33.479  1.00  0.00     0.074 A 
ATOM     53  C   UNL A   1      39.654  29.022  27.751  1.00  0.00     0.029 A 
ATOM     54  N   UNL A   1      39.820  29.612  29.887  1.00  0.00    -0.354 N 
ATOM     55  N   UNL A   1      38.998  30.984  32.329  1.00  0.00    -0.248 NA
ATOM     56  C   UNL A   1      37.577  32.454  33.457  1.00  0.00     0.031 C 
ATOM     57  C   UNL A   1      38.626  29.926  28.040  1.00  0.00     0.029 A 
ATOM     58  C   UNL A   1      38.715  30.278  29.376  1.00  0.00     0.049 A 
ATOM     59  H   UNL A   1      40.135  29.674  30.818  1.00  0.00     0.167 HD
ATOM     60  C   UNL A   1      38.019  31.435  31.452  1.00  0.00     0.074 A 
ATOM     61  C   UNL A   1      37.149  32.308  32.211  1.00  0.00     0.031 C 
ATOM     62  C   UNL A   1      37.860  31.152  30.137  1.00  0.00     0.037 A 
BRANCH  49  63
ATOM     63  C   UNL A   1      42.143  27.316  27.880  1.00  0.00     0.064 A 
ATOM     64  C   UNL A   1      41.603  26.092  27.455  1.00  0.00     0.173 A 
ATOM     65  C   UNL A   1      43.188  27.870  27.127  1.00  0.00     0.173 A 
ATOM     66  F   UNL A   1      40.609  25.515  28.146  1.00  0.00    -0.203 F 
ATOM     67  C   UNL A   1      42.109  25.438  26.335  1.00  0.00     0.198 A 
ATOM     68  C   UNL A   1      43.671  27.227  25.990  1.00  0.00     0.198 A 
ATOM     69  F   UNL A   1      43.733  29.043  27.485  1.00  0.00    -0.203 F 
ATOM     70  F   UNL A   1      41.608  24.249  25.972  1.00  0.00    -0.200 F 
ATOM     71  C   UNL A   1      43.137  26.008  25.599  1.00  0.00     0.200 A 
ATOM     72  F   UNL A   1      44.657  27.785  25.273  1.00  0.00    -0.200 F 
ATOM     73  F   UNL A   1      43.617  25.380  24.517  1.00  0.00    -0.200 F 
ENDBRANCH  49  63
BRANCH  50  74
ATOM     74  C   UNL A   1      38.994  32.154  35.994  1.00  0.00     0.064 A 
ATOM     75  C   UNL A   1      38.136  31.552  36.924  1.00  0.00     0.173 A 
ATOM     76  C   UNL A   1      39.399  33.475  36.236  1.00  0.00     0.173 A 
ATOM     77  F   UNL A   1      37.704  30.298  36.722  1.00  0.00    -0.203 F 
ATOM     78  C   UNL A   1      37.682  32.249  38.041  1.00  0.00     0.198 A 
ATOM     79  C   UNL A   1      38.966  34.162  37.368  1.00  0.00     0.198 A 
ATOM     80  F   UNL A   1      40.223  34.092  35.378  1.00  0.00    -0.203 F 
ATOM     81  F   UNL A   1      36.827  31.665  38.891  1.00  0.00    -0.200 F 
ATOM     82  C   UNL A   1      38.102  33.552  38.265  1.00  0.00     0.200 A 
ATOM     83  F   UNL A   1      39.385  35.416  37.588  1.00  0.00    -0.200 F 
ATOM     84  F   UNL A   1      37.670  34.221  39.342  1.00  0.00    -0.200 F 
ENDBRANCH  50  74
BRANCH  62  85
ATOM     85  C   UNL A   1      36.691  31.785  29.439  1.00  0.00     0.064 A 
ATOM     86  C   UNL A   1      36.672  33.155  29.134  1.00  0.00     0.173 A 
ATOM     87  C   UNL A   1      35.579  31.014  29.067  1.00  0.00     0.173 A 
ATOM     88  F   UNL A   1      37.703  33.939  29.483  1.00  0.00    -0.203 F 
ATOM     89  C   UNL A   1      35.567  33.736  28.514  1.00  0.00     0.198 A 
ATOM     90  C   UNL A   1      34.489  31.593  28.421  1.00  0.00     0.198 A 
ATOM     91  F   UNL A   1      35.549  29.700  29.330  1.00  0.00    -0.203 F 
ATOM     92  F   UNL A   1      35.548  35.056  28.285  1.00  0.00    -0.200 F 
ATOM     93  C   UNL A   1      34.479  32.953  28.155  1.00  0.00     0.200 A 
ATOM     94  F   UNL A   1      33.444  30.835  28.065  1.00  0.00    -0.200 F 
ATOM     95  F   UNL A   1      33.418  33.514  27.562  1.00  0.00    -0.200 F 
ENDBRANCH  62  85
ENDBRANCH  36  37
ENDBRANCH  28  31
ENDBRANCH  26  27
ENDBRANCH  25  26
ENDBRANCH  24  25
ENDBRANCH  23  24
ENDBRANCH   1  23
TORSDOF 18
ENDMDL
MODEL 3
REMARK VINA RESULT:     -10.2      5.822     11.253
REMARK SMILES CCCc1n[nH]c(C(=O)N[C@H](C)CC(=O)NCCCCCCNC(=O)c2ccc(-c3c4nc(c(-c5c(F)c(F)c(F)c(F)c5F)c5ccc([nH]5)c(-c5c(F)c(F)c(F)c(F)c5F)c5nc(c(-c6c(F)c(F)c(F)c(F)c6F)c6ccc3[nH]6)C=C5)C=C4)cc2)n1
REMARK SMILES IDX 18 1 17 2 16 3 14 4 15 5 13 7 11 8 12 9 10 10 8 11 9 12 7 14
REMARK SMILES IDX 4 15 5 16 89 17 6 18 3 20 2 21 1 22 19 23 20 24 21 25 22 26
REMARK SMILES IDX 23 27 24 28 25 30 26 31 27 32 88 33 28 34 87 35 29 36 30 37
REMARK SMILES IDX 31 38 81 39 32 40 86 41 80 42 82 43 33 44 85 45 79 46 78 47
REMARK SMILES IDX 34 49 66 50 46 51 65 52 47 53 50 54 64 55 83 56 48 57 49 58
REMARK SMILES IDX 63 60 84 61 51 62 35 63 36 64 44 65 37 66 38 67 42 68 45 69
REMARK SMILES IDX 39 70 40 71 43 72 41 73 67 74 68 75 76 76 69 77 70 78 74 79
REMARK SMILES IDX 77 80 71 81 72 82 75 83 73 84 52 85 53 86 61 87 54 88 55 89
REMARK SMILES IDX 59 90 62 91 56 92 57 93 60 94 58 95
REMARK H PARENT 16 6 10 13 6 19 23 29 82 48 50 59
REMARK Flexibility Score: inf
ROOT
ATOM      1  C   UNL A   1      36.246  31.901  32.762  1.00  0.00     0.021 C 
ENDROOT
BRANCH   1   2
ATOM      2  C   UNL A   1      37.612  31.291  33.072  1.00  0.00     0.116 C 
BRANCH   2   3
ATOM      3  N   UNL A   1      37.732  30.994  34.486  1.00  0.00    -0.356 N 
ATOM      4  C   UNL A   1      38.804  30.518  35.178  1.00  0.00     0.222 C 
ATOM      5  O   UNL A   1      38.648  30.183  36.353  1.00  0.00    -0.275 OA
ATOM      6  H   UNL A   1      36.925  31.162  35.023  1.00  0.00     0.163 HD
BRANCH   4   7
ATOM      7  C   UNL A   1      40.158  30.404  34.511  1.00  0.00     0.124 C 
BRANCH   7   8
ATOM      8  C   UNL A   1      40.764  29.010  34.668  1.00  0.00     0.088 C 
ATOM      9  C   UNL A   1      41.236  28.341  33.379  1.00  0.00     0.031 C 
BRANCH   8  10
ATOM     10  N   UNL A   1      41.759  28.976  35.748  1.00  0.00    -0.346 N 
ATOM     11  C   UNL A   1      42.482  27.978  36.355  1.00  0.00     0.288 C 
ATOM     12  O   UNL A   1      43.257  28.331  37.244  1.00  0.00    -0.266 OA
ATOM     13  H   UNL A   1      41.951  29.867  36.119  1.00  0.00     0.164 HD
BRANCH  11  14
ATOM     14  C   UNL A   1      42.333  26.582  36.020  1.00  0.00     0.214 A 
ATOM     15  C   UNL A   1      42.452  24.584  35.317  1.00  0.00     0.151 A 
ATOM     16  N   UNL A   1      41.245  24.621  35.888  1.00  0.00    -0.158 NA
ATOM     17  N   UNL A   1      43.162  25.760  35.408  1.00  0.00    -0.207 NA
ATOM     18  N   UNL A   1      41.199  25.885  36.338  1.00  0.00    -0.255 N 
ATOM     19  H   UNL A   1      40.441  26.265  36.836  1.00  0.00     0.192 HD
BRANCH  15  20
ATOM     20  C   UNL A   1      43.025  23.394  34.631  1.00  0.00     0.079 C 
BRANCH  20  21
ATOM     21  C   UNL A   1      44.390  23.562  33.965  1.00  0.00     0.005 C 
ATOM     22  C   UNL A   1      44.291  23.894  32.482  1.00  0.00     0.004 C 
ENDBRANCH  20  21
ENDBRANCH  15  20
ENDBRANCH  11  14
ENDBRANCH   8  10
ENDBRANCH   7   8
ENDBRANCH   4   7
ENDBRANCH   2   3
ENDBRANCH   1   2
BRANCH   1  23
ATOM     23  C   UNL A   1      36.094  32.437  31.337  1.00  0.00     0.002 C 
BRANCH  23  24
ATOM     24  C   UNL A   1      34.653  32.593  30.835  1.00  0.00     0.002 C 
BRANCH  24  25
ATOM     25  C   UNL A   1      34.453  33.484  29.604  1.00  0.00     0.021 C 
BRANCH  25  26
ATOM     26  C   UNL A   1      34.794  32.848  28.258  1.00  0.00     0.116 C 
BRANCH  26  27
ATOM     27  N   UNL A   1      34.086  31.602  28.042  1.00  0.00    -0.352 N 
ATOM     28  C   UNL A   1      34.552  30.314  27.962  1.00  0.00     0.251 C 
ATOM     29  H   UNL A   1      33.111  31.694  27.935  1.00  0.00     0.163 HD
ATOM     30  O   UNL A   1      33.796  29.424  27.583  1.00  0.00    -0.269 OA
BRANCH  28  31
ATOM     31  C   UNL A   1      35.953  29.973  28.309  1.00  0.00     0.039 A 
ATOM     32  C   UNL A   1      36.931  30.127  27.320  1.00  0.00     0.014 A 
ATOM     33  C   UNL A   1      36.306  29.431  29.548  1.00  0.00     0.014 A 
ATOM     34  C   UNL A   1      38.258  29.776  27.582  1.00  0.00     0.010 A 
ATOM     35  C   UNL A   1      37.645  29.131  29.829  1.00  0.00     0.010 A 
ATOM     36  C   UNL A   1      38.633  29.292  28.846  1.00  0.00    -0.014 A 
BRANCH  36  37
ATOM     37  C   UNL A   1      40.056  28.963  29.129  1.00  0.00     0.031 A 
ATOM     38  C   UNL A   1      40.927  29.900  29.922  1.00  0.00     0.074 A 
ATOM     39  C   UNL A   1      40.576  27.812  28.661  1.00  0.00     0.049 A 
ATOM     40  N   UNL A   1      42.173  29.752  30.299  1.00  0.00    -0.248 NA
ATOM     41  C   UNL A   1      40.326  31.179  30.328  1.00  0.00     0.031 C 
ATOM     42  C   UNL A   1      39.860  26.840  27.834  1.00  0.00     0.029 A 
ATOM     43  N   UNL A   1      41.824  27.262  28.817  1.00  0.00    -0.354 N 
ATOM     44  C   UNL A   1      42.505  30.914  30.985  1.00  0.00     0.074 A 
ATOM     45  C   UNL A   1      41.346  31.779  30.926  1.00  0.00     0.031 C 
ATOM     46  C   UNL A   1      40.671  25.801  27.578  1.00  0.00     0.029 A 
ATOM     47  C   UNL A   1      41.968  26.042  28.204  1.00  0.00     0.049 A 
ATOM     48  H   UNL A   1      42.547  27.700  29.322  1.00  0.00     0.167 HD
ATOM     49  C   UNL A   1      43.660  31.222  31.623  1.00  0.00     0.037 A 
ATOM     50  C   UNL A   1      43.022  25.204  28.158  1.00  0.00     0.037 A 
ATOM     51  C   UNL A   1      44.811  30.359  31.698  1.00  0.00     0.049 A 
ATOM     52  C   UNL A   1      44.285  25.561  28.892  1.00  0.00     0.074 A 
ATOM     53  C   UNL A   1      46.006  30.565  32.368  1.00  0.00     0.029 A 
ATOM     54  N   UNL A   1      44.914  29.123  31.076  1.00  0.00    -0.354 N 
ATOM     55  N   UNL A   1      44.558  26.630  29.601  1.00  0.00    -0.248 NA
ATOM     56  C   UNL A   1      45.382  24.585  28.832  1.00  0.00     0.031 C 
ATOM     57  C   UNL A   1      46.845  29.473  32.119  1.00  0.00     0.029 A 
ATOM     58  C   UNL A   1      46.157  28.564  31.331  1.00  0.00     0.049 A 
ATOM     59  H   UNL A   1      44.208  28.704  30.532  1.00  0.00     0.167 HD
ATOM     60  C   UNL A   1      45.847  26.448  30.083  1.00  0.00     0.074 A 
ATOM     61  C   UNL A   1      46.292  25.154  29.610  1.00  0.00     0.031 C 
ATOM     62  C   UNL A   1      46.595  27.280  30.848  1.00  0.00     0.037 A 
BRANCH  49  63
ATOM     63  C   UNL A   1      43.737  32.557  32.308  1.00  0.00     0.064 A 
ATOM     64  C   UNL A   1      43.499  32.688  33.684  1.00  0.00     0.173 A 
ATOM     65  C   UNL A   1      44.093  33.709  31.590  1.00  0.00     0.173 A 
ATOM     66  F   UNL A   1      43.146  31.619  34.414  1.00  0.00    -0.203 F 
ATOM     67  C   UNL A   1      43.589  33.928  34.312  1.00  0.00     0.198 A 
ATOM     68  C   UNL A   1      44.209  34.942  32.227  1.00  0.00     0.198 A 
ATOM     69  F   UNL A   1      44.339  33.637  30.274  1.00  0.00    -0.203 F 
ATOM     70  F   UNL A   1      43.314  34.037  35.619  1.00  0.00    -0.200 F 
ATOM     71  C   UNL A   1      43.950  35.052  33.585  1.00  0.00     0.200 A 
ATOM     72  F   UNL A   1      44.571  36.025  31.526  1.00  0.00    -0.200 F 
ATOM     73  F   UNL A   1      44.043  36.243  34.192  1.00  0.00    -0.200 F 
ENDBRANCH  49  63
BRANCH  50  74
ATOM     74  C   UNL A   1      42.913  23.923  27.415  1.00  0.00     0.064 A 
ATOM     75  C   UNL A   1      43.217  23.856  26.048  1.00  0.00     0.173 A 
ATOM     76  C   UNL A   1      42.505  22.744  28.054  1.00  0.00     0.173 A 
ATOM     77  F   UNL A   1      43.589  24.964  25.390  1.00  0.00    -0.203 F 
ATOM     78  C   UNL A   1      43.097  22.661  25.343  1.00  0.00     0.198 A 
ATOM     79  C   UNL A   1      42.412  21.543  27.354  1.00  0.00     0.198 A 
ATOM     80  F   UNL A   1      42.208  22.757  29.361  1.00  0.00    -0.203 F 
ATOM     81  F   UNL A   1      43.351  22.634  24.028  1.00  0.00    -0.200 F 
ATOM     82  C   UNL A   1      42.700  21.504  25.998  1.00  0.00     0.200 A 
ATOM     83  F   UNL A   1      42.041  20.425  27.993  1.00  0.00    -0.200 F 
ATOM     84  F   UNL A   1      42.590  20.354  25.320  1.00  0.00    -0.200 F 
ENDBRANCH  50  74
BRANCH  62  85
ATOM     85  C   UNL A   1      47.968  26.807  31.229  1.00  0.00     0.064 A 
ATOM     86  C   UNL A   1      48.183  26.027  32.376  1.00  0.00     0.173 A 
ATOM     87  C   UNL A   1      49.080  27.131  30.438  1.00  0.00     0.173 A 
ATOM     88  F   UNL A   1      47.155  25.703  33.175  1.00  0.00    -0.203 F 
ATOM     89  C   UNL A   1      49.467  25.620  32.735  1.00  0.00     0.198 A 
ATOM     90  C   UNL A   1      50.357  26.698  30.784  1.00  0.00     0.198 A 
ATOM     91  F   UNL A   1      48.928  27.869  29.328  1.00  0.00    -0.203 F 
ATOM     92  F   UNL A   1      49.655  24.926  33.865  1.00  0.00    -0.200 F 
ATOM     93  C   UNL A   1      50.551  25.953  31.937  1.00  0.00     0.200 A 
ATOM     94  F   UNL A   1      51.403  27.011  30.007  1.00  0.00    -0.200 F 
ATOM     95  F   UNL A   1      51.784  25.563  32.286  1.00  0.00    -0.200 F 
ENDBRANCH  62  85
ENDBRANCH  36  37
ENDBRANCH  28  31
ENDBRANCH  26  27
ENDBRANCH  25  26
ENDBRANCH  24  25
ENDBRANCH  23  24
ENDBRANCH   1  23
TORSDOF 18
ENDMDL
