MODEL 1
REMARK VINA RESULT:     -12.7      0.000      0.000
REMARK SMILES CS(=O)(=O)c1ccc(/C=C(/C(=O)NCCCCCCNC(=O)c2ccc(-c3c4nc(c(-c5c(F)c(F)c(F)c(F)c5F)c5ccc([nH]5)c(-c5c(F)c(F)c(F)c(F)c5F)c5nc(c(-c6c(F)c(F)c(F)c(F)c6F)c6ccc3[nH]6)C=C5)C=C4)cc2)c2ccc(-c3ccc(S(C)(=O)=O)cc3)cc2)cc1
REMARK SMILES IDX 16 1 15 2 14 3 13 4 11 5 12 6 10 8 9 9 8 10 5 11 6 12 103 13
REMARK SMILES IDX 7 14 102 15 2 16 1 17 3 18 4 19 86 20 87 21 101 22 88 23
REMARK SMILES IDX 100 24 89 25 90 26 91 27 99 28 92 29 98 30 93 31 94 32 95 33
REMARK SMILES IDX 96 34 97 35 17 36 18 37 19 38 20 39 21 40 22 42 23 43 24 44
REMARK SMILES IDX 85 45 25 46 84 47 26 48 27 49 28 50 78 51 29 52 83 53 77 54
REMARK SMILES IDX 79 55 30 56 82 57 76 58 75 59 31 61 63 62 43 63 62 64 44 65
REMARK SMILES IDX 47 66 61 67 80 68 45 69 46 70 60 72 81 73 48 74 32 75 33 76
REMARK SMILES IDX 41 77 34 78 35 79 39 80 42 81 36 82 37 83 40 84 38 85 64 86
REMARK SMILES IDX 65 87 73 88 66 89 67 90 71 91 74 92 68 93 69 94 72 95 70 96
REMARK SMILES IDX 49 97 50 98 58 99 51 100 52 101 56 102 59 103 53 104 54 105
REMARK SMILES IDX 57 106 55 107
REMARK H PARENT 13 7 20 41 79 60 47 71
REMARK Flexibility Score: inf
ROOT
ATOM      1  C   UNL A   1      31.093  27.011  26.810  1.00  0.00     0.002 C 
ENDROOT
BRANCH   1   2
ATOM      2  C   UNL A   1      31.488  25.640  26.234  1.00  0.00     0.021 C 
BRANCH   2   3
ATOM      3  C   UNL A   1      30.550  25.158  25.125  1.00  0.00     0.116 C 
BRANCH   3   4
ATOM      4  N   UNL A   1      31.193  25.347  23.843  1.00  0.00    -0.352 N 
ATOM      5  C   UNL A   1      32.153  24.680  23.156  1.00  0.00     0.251 C 
ATOM      6  O   UNL A   1      32.554  25.237  22.130  1.00  0.00    -0.269 OA
ATOM      7  H   UNL A   1      30.859  26.138  23.361  1.00  0.00     0.163 HD
BRANCH   5   8
ATOM      8  C   UNL A   1      32.649  23.298  23.523  1.00  0.00     0.047 C 
ATOM      9  C   UNL A   1      31.838  22.218  23.624  1.00  0.00     0.022 C 
BRANCH   9  10
ATOM     10  C   UNL A   1      32.197  20.790  23.812  1.00  0.00    -0.025 A 
ATOM     11  C   UNL A   1      33.103  18.126  23.922  1.00  0.00     0.067 A 
ATOM     12  C   UNL A   1      33.121  18.924  25.068  1.00  0.00     0.021 A 
ATOM     13  C   UNL A   1      32.567  18.620  22.735  1.00  0.00     0.021 A 
ATOM     14  C   UNL A   1      32.643  20.237  25.016  1.00  0.00     0.009 A 
ATOM     15  C   UNL A   1      32.120  19.948  22.686  1.00  0.00     0.009 A 
BRANCH  11  16
ATOM     16  S   UNL A   1      33.808  16.499  24.047  1.00  0.00     0.175 S 
ATOM     17  C   UNL A   1      35.242  16.613  25.078  1.00  0.00     0.163 C 
ATOM     18  O   UNL A   1      34.266  16.146  22.718  1.00  0.00    -0.224 OA
ATOM     19  O   UNL A   1      32.831  15.687  24.747  1.00  0.00    -0.224 OA
ENDBRANCH  11  16
ENDBRANCH   9  10
BRANCH   8  20
ATOM     20  C   UNL A   1      34.061  23.219  23.971  1.00  0.00    -0.013 A 
ATOM     21  C   UNL A   1      34.310  23.302  25.348  1.00  0.00     0.009 A 
ATOM     22  C   UNL A   1      35.128  22.963  23.106  1.00  0.00     0.009 A 
ATOM     23  C   UNL A   1      35.583  23.065  25.858  1.00  0.00     0.009 A 
ATOM     24  C   UNL A   1      36.404  22.697  23.627  1.00  0.00     0.009 A 
ATOM     25  C   UNL A   1      36.644  22.712  25.013  1.00  0.00    -0.018 A 
BRANCH  25  26
ATOM     26  C   UNL A   1      37.944  22.319  25.587  1.00  0.00    -0.018 A 
ATOM     27  C   UNL A   1      38.409  20.995  25.448  1.00  0.00     0.010 A 
ATOM     28  C   UNL A   1      38.758  23.236  26.271  1.00  0.00     0.010 A 
ATOM     29  C   UNL A   1      39.633  20.593  25.985  1.00  0.00     0.021 A 
ATOM     30  C   UNL A   1      39.987  22.843  26.813  1.00  0.00     0.021 A 
ATOM     31  C   UNL A   1      40.409  21.522  26.676  1.00  0.00     0.067 A 
BRANCH  31  32
ATOM     32  S   UNL A   1      41.961  21.000  27.362  1.00  0.00     0.175 S 
ATOM     33  C   UNL A   1      43.071  21.068  25.980  1.00  0.00     0.163 C 
ATOM     34  O   UNL A   1      42.365  22.009  28.320  1.00  0.00    -0.224 OA
ATOM     35  O   UNL A   1      41.829  19.608  27.751  1.00  0.00    -0.224 OA
ENDBRANCH  31  32
ENDBRANCH  25  26
ENDBRANCH   8  20
ENDBRANCH   5   8
ENDBRANCH   3   4
ENDBRANCH   2   3
ENDBRANCH   1   2
BRANCH   1  36
ATOM     36  C   UNL A   1      31.788  28.209  26.152  1.00  0.00     0.002 C 
BRANCH  36  37
ATOM     37  C   UNL A   1      33.161  27.900  25.550  1.00  0.00     0.021 C 
BRANCH  37  38
ATOM     38  C   UNL A   1      34.153  29.053  25.642  1.00  0.00     0.116 C 
BRANCH  38  39
ATOM     39  N   UNL A   1      33.508  30.284  26.071  1.00  0.00    -0.352 N 
ATOM     40  C   UNL A   1      33.806  31.090  27.140  1.00  0.00     0.251 C 
ATOM     41  H   UNL A   1      32.752  30.581  25.515  1.00  0.00     0.163 HD
ATOM     42  O   UNL A   1      33.024  31.968  27.493  1.00  0.00    -0.269 OA
BRANCH  40  43
ATOM     43  C   UNL A   1      35.071  30.890  27.876  1.00  0.00     0.039 A 
ATOM     44  C   UNL A   1      36.014  31.919  27.892  1.00  0.00     0.014 A 
ATOM     45  C   UNL A   1      35.328  29.685  28.538  1.00  0.00     0.014 A 
ATOM     46  C   UNL A   1      37.197  31.760  28.617  1.00  0.00     0.010 A 
ATOM     47  C   UNL A   1      36.473  29.556  29.318  1.00  0.00     0.010 A 
ATOM     48  C   UNL A   1      37.421  30.589  29.360  1.00  0.00    -0.014 A 
BRANCH  48  49
ATOM     49  C   UNL A   1      38.646  30.425  30.181  1.00  0.00     0.031 A 
ATOM     50  C   UNL A   1      39.842  29.709  29.619  1.00  0.00     0.074 A 
ATOM     51  C   UNL A   1      38.659  30.869  31.452  1.00  0.00     0.049 A 
ATOM     52  N   UNL A   1      40.977  29.411  30.198  1.00  0.00    -0.248 NA
ATOM     53  C   UNL A   1      39.737  29.239  28.228  1.00  0.00     0.031 C 
ATOM     54  C   UNL A   1      37.545  31.539  32.124  1.00  0.00     0.029 A 
ATOM     55  N   UNL A   1      39.640  30.816  32.410  1.00  0.00    -0.354 N 
ATOM     56  C   UNL A   1      41.714  28.714  29.249  1.00  0.00     0.074 A 
ATOM     57  C   UNL A   1      40.876  28.580  28.077  1.00  0.00     0.031 C 
ATOM     58  C   UNL A   1      37.913  31.856  33.375  1.00  0.00     0.029 A 
ATOM     59  C   UNL A   1      39.272  31.378  33.607  1.00  0.00     0.049 A 
ATOM     60  H   UNL A   1      40.526  30.412  32.253  1.00  0.00     0.167 HD
ATOM     61  C   UNL A   1      42.984  28.249  29.339  1.00  0.00     0.037 A 
ATOM     62  C   UNL A   1      39.953  31.488  34.764  1.00  0.00     0.037 A 
ATOM     63  C   UNL A   1      43.819  28.404  30.500  1.00  0.00     0.049 A 
ATOM     64  C   UNL A   1      41.357  30.950  34.842  1.00  0.00     0.074 A 
ATOM     65  C   UNL A   1      45.139  28.021  30.671  1.00  0.00     0.029 A 
ATOM     66  N   UNL A   1      43.415  28.987  31.692  1.00  0.00    -0.354 N 
ATOM     67  N   UNL A   1      42.068  30.353  33.916  1.00  0.00    -0.248 NA
ATOM     68  C   UNL A   1      42.054  31.108  36.126  1.00  0.00     0.031 C 
ATOM     69  C   UNL A   1      45.516  28.326  31.983  1.00  0.00     0.029 A 
ATOM     70  C   UNL A   1      44.451  28.950  32.613  1.00  0.00     0.049 A 
ATOM     71  H   UNL A   1      42.523  29.370  31.860  1.00  0.00     0.167 HD
ATOM     72  C   UNL A   1      43.302  30.088  34.494  1.00  0.00     0.074 A 
ATOM     73  C   UNL A   1      43.249  30.605  35.845  1.00  0.00     0.031 C 
ATOM     74  C   UNL A   1      44.382  29.472  33.954  1.00  0.00     0.037 A 
BRANCH  61  75
ATOM     75  C   UNL A   1      43.545  27.529  28.146  1.00  0.00     0.064 A 
ATOM     76  C   UNL A   1      43.351  26.152  27.958  1.00  0.00     0.173 A 
ATOM     77  C   UNL A   1      44.257  28.231  27.162  1.00  0.00     0.173 A 
ATOM     78  F   UNL A   1      42.688  25.432  28.874  1.00  0.00    -0.203 F 
ATOM     79  C   UNL A   1      43.877  25.499  26.846  1.00  0.00     0.198 A 
ATOM     80  C   UNL A   1      44.753  27.581  26.034  1.00  0.00     0.198 A 
ATOM     81  F   UNL A   1      44.467  29.550  27.288  1.00  0.00    -0.203 F 
ATOM     82  F   UNL A   1      43.725  24.174  26.715  1.00  0.00    -0.200 F 
ATOM     83  C   UNL A   1      44.571  26.215  25.882  1.00  0.00     0.200 A 
ATOM     84  F   UNL A   1      45.413  28.276  25.097  1.00  0.00    -0.200 F 
ATOM     85  F   UNL A   1      45.071  25.586  24.809  1.00  0.00    -0.200 F 
ENDBRANCH  61  75
BRANCH  62  86
ATOM     86  C   UNL A   1      39.325  32.154  35.934  1.00  0.00     0.064 A 
ATOM     87  C   UNL A   1      38.445  31.456  36.772  1.00  0.00     0.173 A 
ATOM     88  C   UNL A   1      39.586  33.499  36.238  1.00  0.00     0.173 A 
ATOM     89  F   UNL A   1      38.148  30.175  36.512  1.00  0.00    -0.203 F 
ATOM     90  C   UNL A   1      37.833  32.083  37.857  1.00  0.00     0.198 A 
ATOM     91  C   UNL A   1      38.999  34.115  37.340  1.00  0.00     0.198 A 
ATOM     92  F   UNL A   1      40.426  34.209  35.471  1.00  0.00    -0.203 F 
ATOM     93  F   UNL A   1      36.960  31.404  38.614  1.00  0.00    -0.200 F 
ATOM     94  C   UNL A   1      38.115  33.409  38.143  1.00  0.00     0.200 A 
ATOM     95  F   UNL A   1      39.286  35.393  37.622  1.00  0.00    -0.200 F 
ATOM     96  F   UNL A   1      37.531  34.010  39.189  1.00  0.00    -0.200 F 
ENDBRANCH  62  86
BRANCH  74  97
ATOM     97  C   UNL A   1      45.605  29.348  34.816  1.00  0.00     0.064 A 
ATOM     98  C   UNL A   1      46.586  30.350  34.849  1.00  0.00     0.173 A 
ATOM     99  C   UNL A   1      45.780  28.230  35.645  1.00  0.00     0.173 A 
ATOM    100  F   UNL A   1      46.473  31.431  34.063  1.00  0.00    -0.203 F 
ATOM    101  C   UNL A   1      47.710  30.225  35.663  1.00  0.00     0.198 A 
ATOM    102  C   UNL A   1      46.889  28.124  36.481  1.00  0.00     0.198 A 
ATOM    103  F   UNL A   1      44.868  27.246  35.655  1.00  0.00    -0.203 F 
ATOM    104  F   UNL A   1      48.658  31.172  35.641  1.00  0.00    -0.200 F 
ATOM    105  C   UNL A   1      47.855  29.117  36.483  1.00  0.00     0.200 A 
ATOM    106  F   UNL A   1      47.021  27.058  37.284  1.00  0.00    -0.200 F 
ATOM    107  F   UNL A   1      48.934  29.002  37.271  1.00  0.00    -0.200 F 
ENDBRANCH  74  97
ENDBRANCH  48  49
ENDBRANCH  40  43
ENDBRANCH  38  39
ENDBRANCH  37  38
ENDBRANCH  36  37
ENDBRANCH   1  36
TORSDOF 18
ENDMDL
MODEL 2
REMARK VINA RESULT:     -12.7      0.613      6.974
REMARK SMILES CS(=O)(=O)c1ccc(/C=C(/C(=O)NCCCCCCNC(=O)c2ccc(-c3c4nc(c(-c5c(F)c(F)c(F)c(F)c5F)c5ccc([nH]5)c(-c5c(F)c(F)c(F)c(F)c5F)c5nc(c(-c6c(F)c(F)c(F)c(F)c6F)c6ccc3[nH]6)C=C5)C=C4)cc2)c2ccc(-c3ccc(S(C)(=O)=O)cc3)cc2)cc1
REMARK SMILES IDX 16 1 15 2 14 3 13 4 11 5 12 6 10 8 9 9 8 10 5 11 6 12 103 13
REMARK SMILES IDX 7 14 102 15 2 16 1 17 3 18 4 19 86 20 87 21 101 22 88 23
REMARK SMILES IDX 100 24 89 25 90 26 91 27 99 28 92 29 98 30 93 31 94 32 95 33
REMARK SMILES IDX 96 34 97 35 17 36 18 37 19 38 20 39 21 40 22 42 23 43 24 44
REMARK SMILES IDX 85 45 25 46 84 47 26 48 27 49 28 50 78 51 29 52 83 53 77 54
REMARK SMILES IDX 79 55 30 56 82 57 76 58 75 59 31 61 63 62 43 63 62 64 44 65
REMARK SMILES IDX 47 66 61 67 80 68 45 69 46 70 60 72 81 73 48 74 32 75 33 76
REMARK SMILES IDX 41 77 34 78 35 79 39 80 42 81 36 82 37 83 40 84 38 85 64 86
REMARK SMILES IDX 65 87 73 88 66 89 67 90 71 91 74 92 68 93 69 94 72 95 70 96
REMARK SMILES IDX 49 97 50 98 58 99 51 100 52 101 56 102 59 103 53 104 54 105
REMARK SMILES IDX 57 106 55 107
REMARK H PARENT 13 7 20 41 79 60 47 71
REMARK Flexibility Score: inf
ROOT
ATOM      1  C   UNL A   1      31.089  26.990  26.839  1.00  0.00     0.002 C 
ENDROOT
BRANCH   1   2
ATOM      2  C   UNL A   1      31.499  25.649  26.208  1.00  0.00     0.021 C 
BRANCH   2   3
ATOM      3  C   UNL A   1      30.543  25.184  25.106  1.00  0.00     0.116 C 
BRANCH   3   4
ATOM      4  N   UNL A   1      31.178  25.365  23.819  1.00  0.00    -0.352 N 
ATOM      5  C   UNL A   1      32.129  24.691  23.127  1.00  0.00     0.251 C 
ATOM      6  O   UNL A   1      32.524  25.243  22.096  1.00  0.00    -0.269 OA
ATOM      7  H   UNL A   1      30.844  26.157  23.337  1.00  0.00     0.163 HD
BRANCH   5   8
ATOM      8  C   UNL A   1      32.620  23.308  23.494  1.00  0.00     0.047 C 
ATOM      9  C   UNL A   1      31.805  22.231  23.601  1.00  0.00     0.022 C 
BRANCH   9  10
ATOM     10  C   UNL A   1      32.158  20.802  23.789  1.00  0.00    -0.025 A 
ATOM     11  C   UNL A   1      33.067  18.140  23.916  1.00  0.00     0.067 A 
ATOM     12  C   UNL A   1      33.013  18.921  25.073  1.00  0.00     0.021 A 
ATOM     13  C   UNL A   1      32.602  18.650  22.707  1.00  0.00     0.021 A 
ATOM     14  C   UNL A   1      32.532  20.234  25.011  1.00  0.00     0.009 A 
ATOM     15  C   UNL A   1      32.153  19.976  22.650  1.00  0.00     0.009 A 
BRANCH  11  16
ATOM     16  S   UNL A   1      33.771  16.514  24.061  1.00  0.00     0.175 S 
ATOM     17  C   UNL A   1      35.152  16.623  25.161  1.00  0.00     0.163 C 
ATOM     18  O   UNL A   1      34.295  16.175  22.752  1.00  0.00    -0.224 OA
ATOM     19  O   UNL A   1      32.764  15.693  24.705  1.00  0.00    -0.224 OA
ENDBRANCH  11  16
ENDBRANCH   9  10
BRANCH   8  20
ATOM     20  C   UNL A   1      34.034  23.222  23.935  1.00  0.00    -0.013 A 
ATOM     21  C   UNL A   1      34.291  23.315  25.310  1.00  0.00     0.009 A 
ATOM     22  C   UNL A   1      35.095  22.954  23.066  1.00  0.00     0.009 A 
ATOM     23  C   UNL A   1      35.565  23.074  25.815  1.00  0.00     0.009 A 
ATOM     24  C   UNL A   1      36.371  22.684  23.583  1.00  0.00     0.009 A 
ATOM     25  C   UNL A   1      36.619  22.708  24.967  1.00  0.00    -0.018 A 
BRANCH  25  26
ATOM     26  C   UNL A   1      37.919  22.311  25.537  1.00  0.00    -0.018 A 
ATOM     27  C   UNL A   1      38.392  20.991  25.376  1.00  0.00     0.010 A 
ATOM     28  C   UNL A   1      38.728  23.219  26.239  1.00  0.00     0.010 A 
ATOM     29  C   UNL A   1      39.616  20.586  25.909  1.00  0.00     0.021 A 
ATOM     30  C   UNL A   1      39.957  22.823  26.777  1.00  0.00     0.021 A 
ATOM     31  C   UNL A   1      40.386  21.506  26.618  1.00  0.00     0.067 A 
BRANCH  31  32
ATOM     32  S   UNL A   1      41.938  20.979  27.299  1.00  0.00     0.175 S 
ATOM     33  C   UNL A   1      43.042  21.035  25.910  1.00  0.00     0.163 C 
ATOM     34  O   UNL A   1      42.353  21.991  28.250  1.00  0.00    -0.224 OA
ATOM     35  O   UNL A   1      41.802  19.590  27.695  1.00  0.00    -0.224 OA
ENDBRANCH  31  32
ENDBRANCH  25  26
ENDBRANCH   8  20
ENDBRANCH   5   8
ENDBRANCH   3   4
ENDBRANCH   2   3
ENDBRANCH   1   2
BRANCH   1  36
ATOM     36  C   UNL A   1      31.753  28.225  26.216  1.00  0.00     0.002 C 
BRANCH  36  37
ATOM     37  C   UNL A   1      33.066  27.941  25.483  1.00  0.00     0.021 C 
BRANCH  37  38
ATOM     38  C   UNL A   1      34.112  29.039  25.634  1.00  0.00     0.116 C 
BRANCH  38  39
ATOM     39  N   UNL A   1      33.530  30.268  26.151  1.00  0.00    -0.352 N 
ATOM     40  C   UNL A   1      33.914  31.019  27.233  1.00  0.00     0.251 C 
ATOM     41  H   UNL A   1      32.751  30.608  25.655  1.00  0.00     0.163 HD
ATOM     42  O   UNL A   1      33.181  31.901  27.668  1.00  0.00    -0.269 OA
BRANCH  40  43
ATOM     43  C   UNL A   1      35.214  30.753  27.883  1.00  0.00     0.039 A 
ATOM     44  C   UNL A   1      36.192  31.749  27.869  1.00  0.00     0.014 A 
ATOM     45  C   UNL A   1      35.469  29.520  28.490  1.00  0.00     0.014 A 
ATOM     46  C   UNL A   1      37.410  31.528  28.515  1.00  0.00     0.010 A 
ATOM     47  C   UNL A   1      36.654  29.328  29.194  1.00  0.00     0.010 A 
ATOM     48  C   UNL A   1      37.639  30.328  29.207  1.00  0.00    -0.014 A 
BRANCH  48  49
ATOM     49  C   UNL A   1      38.906  30.097  29.944  1.00  0.00     0.031 A 
ATOM     50  C   UNL A   1      39.095  30.673  31.319  1.00  0.00     0.074 A 
ATOM     51  C   UNL A   1      39.906  29.420  29.350  1.00  0.00     0.049 A 
ATOM     52  N   UNL A   1      40.148  30.635  32.096  1.00  0.00    -0.248 NA
ATOM     53  C   UNL A   1      37.959  31.416  31.886  1.00  0.00     0.031 C 
ATOM     54  C   UNL A   1      39.858  28.851  28.002  1.00  0.00     0.029 A 
ATOM     55  N   UNL A   1      41.163  29.101  29.800  1.00  0.00    -0.354 N 
ATOM     56  C   UNL A   1      39.805  31.354  33.234  1.00  0.00     0.074 A 
ATOM     57  C   UNL A   1      38.468  31.867  33.022  1.00  0.00     0.031 C 
ATOM     58  C   UNL A   1      41.022  28.234  27.744  1.00  0.00     0.029 A 
ATOM     59  C   UNL A   1      41.911  28.395  28.890  1.00  0.00     0.049 A 
ATOM     60  H   UNL A   1      41.497  29.356  30.692  1.00  0.00     0.167 HD
ATOM     61  C   UNL A   1      40.529  31.547  34.362  1.00  0.00     0.037 A 
ATOM     62  C   UNL A   1      43.175  27.937  28.971  1.00  0.00     0.037 A 
ATOM     63  C   UNL A   1      41.850  31.016  34.574  1.00  0.00     0.049 A 
ATOM     64  C   UNL A   1      43.964  28.178  30.230  1.00  0.00     0.074 A 
ATOM     65  C   UNL A   1      42.644  31.105  35.704  1.00  0.00     0.029 A 
ATOM     66  N   UNL A   1      42.573  30.297  33.633  1.00  0.00    -0.354 N 
ATOM     67  N   UNL A   1      43.604  28.800  31.326  1.00  0.00    -0.248 NA
ATOM     68  C   UNL A   1      45.333  27.646  30.263  1.00  0.00     0.031 C 
ATOM     69  C   UNL A   1      43.868  30.485  35.429  1.00  0.00     0.029 A 
ATOM     70  C   UNL A   1      43.816  29.960  34.147  1.00  0.00     0.049 A 
ATOM     71  H   UNL A   1      42.251  30.062  32.732  1.00  0.00     0.167 HD
ATOM     72  C   UNL A   1      44.688  28.713  32.188  1.00  0.00     0.074 A 
ATOM     73  C   UNL A   1      45.713  27.962  31.494  1.00  0.00     0.031 C 
ATOM     74  C   UNL A   1      44.824  29.210  33.442  1.00  0.00     0.037 A 
BRANCH  61  75
ATOM     75  C   UNL A   1      39.906  32.368  35.455  1.00  0.00     0.064 A 
ATOM     76  C   UNL A   1      40.169  33.739  35.588  1.00  0.00     0.173 A 
ATOM     77  C   UNL A   1      39.007  31.782  36.360  1.00  0.00     0.173 A 
ATOM     78  F   UNL A   1      41.029  34.346  34.757  1.00  0.00    -0.203 F 
ATOM     79  C   UNL A   1      39.583  34.487  36.606  1.00  0.00     0.198 A 
ATOM     80  C   UNL A   1      38.397  32.540  37.357  1.00  0.00     0.198 A 
ATOM     81  F   UNL A   1      38.715  30.475  36.276  1.00  0.00    -0.203 F 
ATOM     82  F   UNL A   1      39.891  35.784  36.746  1.00  0.00    -0.200 F 
ATOM     83  C   UNL A   1      38.692  33.888  37.485  1.00  0.00     0.200 A 
ATOM     84  F   UNL A   1      37.526  31.963  38.197  1.00  0.00    -0.200 F 
ATOM     85  F   UNL A   1      38.123  34.611  38.460  1.00  0.00    -0.200 F 
ENDBRANCH  61  75
BRANCH  62  86
ATOM     86  C   UNL A   1      43.765  27.185  27.833  1.00  0.00     0.064 A 
ATOM     87  C   UNL A   1      44.370  27.858  26.762  1.00  0.00     0.173 A 
ATOM     88  C   UNL A   1      43.734  25.783  27.788  1.00  0.00     0.173 A 
ATOM     89  F   UNL A   1      44.407  29.198  26.750  1.00  0.00    -0.203 F 
ATOM     90  C   UNL A   1      44.903  27.159  25.680  1.00  0.00     0.198 A 
ATOM     91  C   UNL A   1      44.294  25.085  26.721  1.00  0.00     0.198 A 
ATOM     92  F   UNL A   1      43.172  25.092  28.790  1.00  0.00    -0.203 F 
ATOM     93  F   UNL A   1      45.434  27.830  24.649  1.00  0.00    -0.200 F 
ATOM     94  C   UNL A   1      44.870  25.773  25.664  1.00  0.00     0.200 A 
ATOM     95  F   UNL A   1      44.273  23.745  26.716  1.00  0.00    -0.200 F 
ATOM     96  F   UNL A   1      45.386  25.101  24.626  1.00  0.00    -0.200 F 
ENDBRANCH  62  86
BRANCH  74  97
ATOM     97  C   UNL A   1      46.115  28.933  34.156  1.00  0.00     0.064 A 
ATOM     98  C   UNL A   1      46.294  27.777  34.930  1.00  0.00     0.173 A 
ATOM     99  C   UNL A   1      47.198  29.817  34.036  1.00  0.00     0.173 A 
ATOM    100  F   UNL A   1      45.285  26.908  35.090  1.00  0.00    -0.203 F 
ATOM    101  C   UNL A   1      47.503  27.529  35.577  1.00  0.00     0.198 A 
ATOM    102  C   UNL A   1      48.414  29.550  34.658  1.00  0.00     0.198 A 
ATOM    103  F   UNL A   1      47.080  30.935  33.302  1.00  0.00    -0.203 F 
ATOM    104  F   UNL A   1      47.635  26.443  36.351  1.00  0.00    -0.200 F 
ATOM    105  C   UNL A   1      48.563  28.411  35.433  1.00  0.00     0.200 A 
ATOM    106  F   UNL A   1      49.442  30.396  34.506  1.00  0.00    -0.200 F 
ATOM    107  F   UNL A   1      49.728  28.167  36.050  1.00  0.00    -0.200 F 
ENDBRANCH  74  97
ENDBRANCH  48  49
ENDBRANCH  40  43
ENDBRANCH  38  39
ENDBRANCH  37  38
ENDBRANCH  36  37
ENDBRANCH   1  36
TORSDOF 18
ENDMDL
MODEL 3
REMARK VINA RESULT:     -12.3      1.405      6.912
REMARK SMILES CS(=O)(=O)c1ccc(/C=C(/C(=O)NCCCCCCNC(=O)c2ccc(-c3c4nc(c(-c5c(F)c(F)c(F)c(F)c5F)c5ccc([nH]5)c(-c5c(F)c(F)c(F)c(F)c5F)c5nc(c(-c6c(F)c(F)c(F)c(F)c6F)c6ccc3[nH]6)C=C5)C=C4)cc2)c2ccc(-c3ccc(S(C)(=O)=O)cc3)cc2)cc1
REMARK SMILES IDX 16 1 15 2 14 3 13 4 11 5 12 6 10 8 9 9 8 10 5 11 6 12 103 13
REMARK SMILES IDX 7 14 102 15 2 16 1 17 3 18 4 19 86 20 87 21 101 22 88 23
REMARK SMILES IDX 100 24 89 25 90 26 91 27 99 28 92 29 98 30 93 31 94 32 95 33
REMARK SMILES IDX 96 34 97 35 17 36 18 37 19 38 20 39 21 40 22 42 23 43 24 44
REMARK SMILES IDX 85 45 25 46 84 47 26 48 27 49 28 50 78 51 29 52 83 53 77 54
REMARK SMILES IDX 79 55 30 56 82 57 76 58 75 59 31 61 63 62 43 63 62 64 44 65
REMARK SMILES IDX 47 66 61 67 80 68 45 69 46 70 60 72 81 73 48 74 32 75 33 76
REMARK SMILES IDX 41 77 34 78 35 79 39 80 42 81 36 82 37 83 40 84 38 85 64 86
REMARK SMILES IDX 65 87 73 88 66 89 67 90 71 91 74 92 68 93 69 94 72 95 70 96
REMARK SMILES IDX 49 97 50 98 58 99 51 100 52 101 56 102 59 103 53 104 54 105
REMARK SMILES IDX 57 106 55 107
REMARK H PARENT 13 7 20 41 79 60 47 71
REMARK Flexibility Score: inf
ROOT
ATOM      1  C   UNL A   1      31.413  27.524  25.506  1.00  0.00     0.002 C 
ENDROOT
BRANCH   1   2
ATOM      2  C   UNL A   1      30.639  26.196  25.581  1.00  0.00     0.021 C 
BRANCH   2   3
ATOM      3  C   UNL A   1      29.976  25.808  24.257  1.00  0.00     0.116 C 
BRANCH   3   4
ATOM      4  N   UNL A   1      30.906  26.038  23.174  1.00  0.00    -0.352 N 
ATOM      5  C   UNL A   1      32.029  25.415  22.740  1.00  0.00     0.251 C 
ATOM      6  O   UNL A   1      32.648  26.000  21.847  1.00  0.00    -0.269 OA
ATOM      7  H   UNL A   1      30.671  26.824  22.629  1.00  0.00     0.163 HD
BRANCH   5   8
ATOM      8  C   UNL A   1      32.470  24.045  23.208  1.00  0.00     0.047 C 
ATOM      9  C   UNL A   1      31.619  23.005  23.378  1.00  0.00     0.022 C 
BRANCH   9  10
ATOM     10  C   UNL A   1      31.923  21.582  23.670  1.00  0.00    -0.025 A 
ATOM     11  C   UNL A   1      32.776  18.924  24.036  1.00  0.00     0.067 A 
ATOM     12  C   UNL A   1      32.529  19.742  25.140  1.00  0.00     0.021 A 
ATOM     13  C   UNL A   1      32.529  19.394  22.749  1.00  0.00     0.021 A 
ATOM     14  C   UNL A   1      32.077  21.053  24.955  1.00  0.00     0.009 A 
ATOM     15  C   UNL A   1      32.108  20.719  22.573  1.00  0.00     0.009 A 
BRANCH  11  16
ATOM     16  S   UNL A   1      33.431  17.302  24.352  1.00  0.00     0.175 S 
ATOM     17  C   UNL A   1      35.171  17.469  24.624  1.00  0.00     0.163 C 
ATOM     18  O   UNL A   1      33.263  16.545  23.126  1.00  0.00    -0.224 OA
ATOM     19  O   UNL A   1      32.834  16.859  25.597  1.00  0.00    -0.224 OA
ENDBRANCH  11  16
ENDBRANCH   9  10
BRANCH   8  20
ATOM     20  C   UNL A   1      33.875  23.946  23.674  1.00  0.00    -0.013 A 
ATOM     21  C   UNL A   1      34.156  24.367  24.981  1.00  0.00     0.009 A 
ATOM     22  C   UNL A   1      34.896  23.363  22.918  1.00  0.00     0.009 A 
ATOM     23  C   UNL A   1      35.408  24.148  25.549  1.00  0.00     0.009 A 
ATOM     24  C   UNL A   1      36.148  23.119  23.504  1.00  0.00     0.009 A 
ATOM     25  C   UNL A   1      36.413  23.478  24.838  1.00  0.00    -0.018 A 
BRANCH  25  26
ATOM     26  C   UNL A   1      37.677  23.123  25.508  1.00  0.00    -0.018 A 
ATOM     27  C   UNL A   1      38.198  21.817  25.395  1.00  0.00     0.010 A 
ATOM     28  C   UNL A   1      38.404  24.059  26.261  1.00  0.00     0.010 A 
ATOM     29  C   UNL A   1      39.389  21.452  26.022  1.00  0.00     0.021 A 
ATOM     30  C   UNL A   1      39.600  23.703  26.894  1.00  0.00     0.021 A 
ATOM     31  C   UNL A   1      40.077  22.398  26.780  1.00  0.00     0.067 A 
BRANCH  31  32
ATOM     32  S   UNL A   1      41.588  21.922  27.580  1.00  0.00     0.175 S 
ATOM     33  C   UNL A   1      41.493  20.151  27.628  1.00  0.00     0.163 C 
ATOM     34  O   UNL A   1      42.675  22.295  26.697  1.00  0.00    -0.224 OA
ATOM     35  O   UNL A   1      41.536  22.402  28.949  1.00  0.00    -0.224 OA
ENDBRANCH  31  32
ENDBRANCH  25  26
ENDBRANCH   8  20
ENDBRANCH   5   8
ENDBRANCH   3   4
ENDBRANCH   2   3
ENDBRANCH   1   2
BRANCH   1  36
ATOM     36  C   UNL A   1      32.907  27.418  25.834  1.00  0.00     0.002 C 
BRANCH  36  37
ATOM     37  C   UNL A   1      33.351  28.227  27.055  1.00  0.00     0.021 C 
BRANCH  37  38
ATOM     38  C   UNL A   1      34.678  28.954  26.869  1.00  0.00     0.116 C 
BRANCH  38  39
ATOM     39  N   UNL A   1      34.504  30.398  26.873  1.00  0.00    -0.352 N 
ATOM     40  C   UNL A   1      35.099  31.340  27.674  1.00  0.00     0.251 C 
ATOM     41  H   UNL A   1      33.870  30.750  26.206  1.00  0.00     0.163 HD
ATOM     42  O   UNL A   1      34.674  32.490  27.700  1.00  0.00    -0.269 OA
BRANCH  40  43
ATOM     43  C   UNL A   1      36.250  30.959  28.517  1.00  0.00     0.039 A 
ATOM     44  C   UNL A   1      37.389  31.767  28.511  1.00  0.00     0.014 A 
ATOM     45  C   UNL A   1      36.209  29.802  29.300  1.00  0.00     0.014 A 
ATOM     46  C   UNL A   1      38.469  31.443  29.335  1.00  0.00     0.010 A 
ATOM     47  C   UNL A   1      37.256  29.520  30.173  1.00  0.00     0.010 A 
ATOM     48  C   UNL A   1      38.399  30.334  30.193  1.00  0.00    -0.014 A 
BRANCH  48  49
ATOM     49  C   UNL A   1      39.515  30.005  31.114  1.00  0.00     0.031 A 
ATOM     50  C   UNL A   1      39.630  30.702  32.441  1.00  0.00     0.074 A 
ATOM     51  C   UNL A   1      40.457  29.123  30.729  1.00  0.00     0.049 A 
ATOM     52  N   UNL A   1      40.563  30.600  33.353  1.00  0.00    -0.248 NA
ATOM     53  C   UNL A   1      38.569  31.665  32.774  1.00  0.00     0.031 C 
ATOM     54  C   UNL A   1      40.479  28.416  29.448  1.00  0.00     0.029 A 
ATOM     55  N   UNL A   1      41.583  28.677  31.374  1.00  0.00    -0.354 N 
ATOM     56  C   UNL A   1      40.207  31.487  34.360  1.00  0.00     0.074 A 
ATOM     57  C   UNL A   1      39.005  32.164  33.921  1.00  0.00     0.031 C 
ATOM     58  C   UNL A   1      41.550  27.608  29.410  1.00  0.00     0.029 A 
ATOM     59  C   UNL A   1      42.311  27.768  30.646  1.00  0.00     0.049 A 
ATOM     60  H   UNL A   1      41.845  28.981  32.274  1.00  0.00     0.167 HD
ATOM     61  C   UNL A   1      40.813  31.701  35.552  1.00  0.00     0.037 A 
ATOM     62  C   UNL A   1      43.465  27.141  30.940  1.00  0.00     0.037 A 
ATOM     63  C   UNL A   1      41.996  31.009  35.991  1.00  0.00     0.049 A 
ATOM     64  C   UNL A   1      44.127  27.406  32.266  1.00  0.00     0.074 A 
ATOM     65  C   UNL A   1      42.654  31.109  37.205  1.00  0.00     0.029 A 
ATOM     66  N   UNL A   1      42.700  30.087  35.230  1.00  0.00    -0.354 N 
ATOM     67  N   UNL A   1      43.744  28.197  33.238  1.00  0.00    -0.248 NA
ATOM     68  C   UNL A   1      45.379  26.686  32.536  1.00  0.00     0.031 C 
ATOM     69  C   UNL A   1      43.786  30.288  37.158  1.00  0.00     0.029 A 
ATOM     70  C   UNL A   1      43.802  29.632  35.937  1.00  0.00     0.049 A 
ATOM     71  H   UNL A   1      42.454  29.800  34.321  1.00  0.00     0.167 HD
ATOM     72  C   UNL A   1      44.689  28.051  34.244  1.00  0.00     0.074 A 
ATOM     73  C   UNL A   1      45.655  27.082  33.770  1.00  0.00     0.031 C 
ATOM     74  C   UNL A   1      44.753  28.664  35.451  1.00  0.00     0.037 A 
BRANCH  61  75
ATOM     75  C   UNL A   1      40.205  32.725  36.466  1.00  0.00     0.064 A 
ATOM     76  C   UNL A   1      39.068  32.442  37.239  1.00  0.00     0.173 A 
ATOM     77  C   UNL A   1      40.785  33.997  36.597  1.00  0.00     0.173 A 
ATOM     78  F   UNL A   1      38.468  31.246  37.142  1.00  0.00    -0.203 F 
ATOM     79  C   UNL A   1      38.516  33.402  38.082  1.00  0.00     0.198 A 
ATOM     80  C   UNL A   1      40.249  34.944  37.467  1.00  0.00     0.198 A 
ATOM     81  F   UNL A   1      41.876  34.320  35.887  1.00  0.00    -0.203 F 
ATOM     82  F   UNL A   1      37.399  33.126  38.769  1.00  0.00    -0.200 F 
ATOM     83  C   UNL A   1      39.111  34.649  38.201  1.00  0.00     0.200 A 
ATOM     84  F   UNL A   1      40.833  36.144  37.590  1.00  0.00    -0.200 F 
ATOM     85  F   UNL A   1      38.582  35.570  39.018  1.00  0.00    -0.200 F 
ENDBRANCH  61  75
BRANCH  62  86
ATOM     86  C   UNL A   1      44.057  26.183  29.970  1.00  0.00     0.064 A 
ATOM     87  C   UNL A   1      43.993  24.801  30.194  1.00  0.00     0.173 A 
ATOM     88  C   UNL A   1      44.701  26.625  28.805  1.00  0.00     0.173 A 
ATOM     89  F   UNL A   1      43.406  24.329  31.303  1.00  0.00    -0.203 F 
ATOM     90  C   UNL A   1      44.569  23.898  29.301  1.00  0.00     0.198 A 
ATOM     91  C   UNL A   1      45.249  25.722  27.897  1.00  0.00     0.198 A 
ATOM     92  F   UNL A   1      44.784  27.938  28.541  1.00  0.00    -0.203 F 
ATOM     93  F   UNL A   1      44.533  22.585  29.563  1.00  0.00    -0.200 F 
ATOM     94  C   UNL A   1      45.191  24.359  28.151  1.00  0.00     0.200 A 
ATOM     95  F   UNL A   1      45.835  26.171  26.780  1.00  0.00    -0.200 F 
ATOM     96  F   UNL A   1      45.740  23.492  27.290  1.00  0.00    -0.200 F 
ENDBRANCH  62  86
BRANCH  74  97
ATOM     97  C   UNL A   1      45.888  28.284  36.357  1.00  0.00     0.064 A 
ATOM     98  C   UNL A   1      45.779  27.222  37.266  1.00  0.00     0.173 A 
ATOM     99  C   UNL A   1      47.111  28.968  36.289  1.00  0.00     0.173 A 
ATOM    100  F   UNL A   1      44.626  26.547  37.381  1.00  0.00    -0.203 F 
ATOM    101  C   UNL A   1      46.847  26.875  38.092  1.00  0.00     0.198 A 
ATOM    102  C   UNL A   1      48.186  28.597  37.093  1.00  0.00     0.198 A 
ATOM    103  F   UNL A   1      47.269  29.989  35.432  1.00  0.00    -0.203 F 
ATOM    104  F   UNL A   1      46.704  25.888  38.988  1.00  0.00    -0.200 F 
ATOM    105  C   UNL A   1      48.050  27.557  37.998  1.00  0.00     0.200 A 
ATOM    106  F   UNL A   1      49.353  29.249  36.992  1.00  0.00    -0.200 F 
ATOM    107  F   UNL A   1      49.078  27.216  38.788  1.00  0.00    -0.200 F 
ENDBRANCH  74  97
ENDBRANCH  48  49
ENDBRANCH  40  43
ENDBRANCH  38  39
ENDBRANCH  37  38
ENDBRANCH  36  37
ENDBRANCH   1  36
TORSDOF 18
ENDMDL
