MODEL 1
REMARK VINA RESULT:     -12.1      0.000      0.000
REMARK SMILES Cc1cc(C[NH+]2C[C@@H](C)[C@H](C)C2)oc1C(=O)NCCCCCCNC(=O)c1ccc(-c2c3nc(c(-c4c(F)c(F)c(F)c(F)c4F)c4ccc([nH]4)c(-c4c(F)c(F)c(F)c(F)c4F)c4nc(c(-c5c(F)c(F)c(F)c(F)c5F)c5ccc2[nH]5)C=C4)C=C3)cc1
REMARK SMILES IDX 20 1 19 2 18 3 17 4 15 5 16 6 14 8 1 9 2 10 3 11 4 12 13 13
REMARK SMILES IDX 5 14 6 15 7 16 12 17 8 19 10 20 9 21 11 22 21 23 22 24 23 25
REMARK SMILES IDX 24 26 25 27 26 29 27 30 28 31 89 32 29 33 88 34 30 35 31 36
REMARK SMILES IDX 32 37 82 38 33 39 87 40 81 41 83 42 34 43 86 44 80 45 79 46
REMARK SMILES IDX 35 48 67 49 47 50 66 51 48 52 51 53 65 54 84 55 49 56 50 57
REMARK SMILES IDX 64 59 85 60 52 61 36 62 37 63 45 64 38 65 39 66 43 67 46 68
REMARK SMILES IDX 40 69 41 70 44 71 42 72 68 73 69 74 77 75 70 76 71 77 75 78
REMARK SMILES IDX 78 79 72 80 73 81 76 82 74 83 53 84 54 85 62 86 55 87 56 88
REMARK SMILES IDX 60 89 63 90 57 91 58 92 61 93 59 94
REMARK H PARENT 17 7 6 18 24 28 83 47 51 58
REMARK Flexibility Score: inf
ROOT
ATOM      1  C   UNL A   1      32.461  29.835  27.253  1.00  0.00     0.002 C 
ENDROOT
BRANCH   1   2
ATOM      2  C   UNL A   1      33.904  29.514  26.847  1.00  0.00     0.021 C 
BRANCH   2   3
ATOM      3  C   UNL A   1      34.084  28.527  25.700  1.00  0.00     0.116 C 
BRANCH   3   4
ATOM      4  N   UNL A   1      33.371  27.289  25.870  1.00  0.00    -0.349 N 
ATOM      5  C   UNL A   1      32.228  26.843  25.242  1.00  0.00     0.287 C 
ATOM      6  O   UNL A   1      31.777  25.776  25.666  1.00  0.00    -0.266 OA
ATOM      7  H   UNL A   1      33.755  26.670  26.532  1.00  0.00     0.163 HD
BRANCH   5   8
ATOM      8  C   UNL A   1      31.581  27.599  24.175  1.00  0.00     0.194 A 
ATOM      9  C   UNL A   1      33.330  28.596  22.496  1.00  0.00     0.049 C 
ATOM     10  C   UNL A   1      31.980  28.310  23.042  1.00  0.00     0.001 A 
ATOM     11  C   UNL A   1      30.784  28.734  22.395  1.00  0.00     0.056 A 
ATOM     12  C   UNL A   1      29.731  28.316  23.170  1.00  0.00     0.159 A 
ATOM     13  O   UNL A   1      30.204  27.606  24.227  1.00  0.00    -0.450 OA
BRANCH  12  14
ATOM     14  C   UNL A   1      28.250  28.490  23.071  1.00  0.00     0.338 C 
BRANCH  14  15
ATOM     15  N   UNL A   1      27.812  29.848  22.735  1.00  0.00    -0.328 N 
ATOM     16  C   UNL A   1      28.391  30.896  23.574  1.00  0.00     0.266 C 
ATOM     17  C   UNL A   1      27.933  30.234  21.326  1.00  0.00     0.266 C 
ATOM     18  H   UNL A   1      26.815  29.778  22.936  1.00  0.00     0.348 HD
ATOM     19  C   UNL A   1      28.203  32.156  22.733  1.00  0.00     0.049 C 
ATOM     20  C   UNL A   1      28.536  31.642  21.333  1.00  0.00     0.049 C 
ATOM     21  C   UNL A   1      29.090  33.302  23.198  1.00  0.00     0.014 C 
ATOM     22  C   UNL A   1      28.012  32.513  20.201  1.00  0.00     0.014 C 
ENDBRANCH  14  15
ENDBRANCH  12  14
ENDBRANCH   5   8
ENDBRANCH   3   4
ENDBRANCH   2   3
ENDBRANCH   1   2
BRANCH   1  23
ATOM     23  C   UNL A   1      31.623  30.663  26.274  1.00  0.00     0.002 C 
BRANCH  23  24
ATOM     24  C   UNL A   1      31.445  32.150  26.590  1.00  0.00     0.021 C 
BRANCH  24  25
ATOM     25  C   UNL A   1      32.669  32.885  27.123  1.00  0.00     0.116 C 
BRANCH  25  26
ATOM     26  N   UNL A   1      32.373  34.217  27.617  1.00  0.00    -0.352 N 
ATOM     27  C   UNL A   1      32.970  34.936  28.622  1.00  0.00     0.251 C 
ATOM     28  H   UNL A   1      31.629  34.673  27.162  1.00  0.00     0.163 HD
ATOM     29  O   UNL A   1      32.502  36.021  28.957  1.00  0.00    -0.269 OA
BRANCH  27  30
ATOM     30  C   UNL A   1      34.155  34.404  29.334  1.00  0.00     0.039 A 
ATOM     31  C   UNL A   1      33.951  33.658  30.500  1.00  0.00     0.014 A 
ATOM     32  C   UNL A   1      35.456  34.652  28.887  1.00  0.00     0.014 A 
ATOM     33  C   UNL A   1      35.042  33.107  31.177  1.00  0.00     0.010 A 
ATOM     34  C   UNL A   1      36.539  34.048  29.525  1.00  0.00     0.010 A 
ATOM     35  C   UNL A   1      36.343  33.270  30.676  1.00  0.00    -0.014 A 
BRANCH  35  36
ATOM     36  C   UNL A   1      37.508  32.628  31.342  1.00  0.00     0.031 A 
ATOM     37  C   UNL A   1      38.231  31.491  30.676  1.00  0.00     0.074 A 
ATOM     38  C   UNL A   1      37.877  33.031  32.573  1.00  0.00     0.049 A 
ATOM     39  N   UNL A   1      39.217  30.758  31.129  1.00  0.00    -0.248 NA
ATOM     40  C   UNL A   1      37.769  31.110  29.332  1.00  0.00     0.031 C 
ATOM     41  C   UNL A   1      37.232  34.096  33.343  1.00  0.00     0.029 A 
ATOM     42  N   UNL A   1      38.877  32.583  33.402  1.00  0.00    -0.354 N 
ATOM     43  C   UNL A   1      39.482  29.823  30.136  1.00  0.00     0.074 A 
ATOM     44  C   UNL A   1      38.522  30.051  29.076  1.00  0.00     0.031 C 
ATOM     45  C   UNL A   1      37.861  34.231  34.521  1.00  0.00     0.029 A 
ATOM     46  C   UNL A   1      38.930  33.239  34.607  1.00  0.00     0.049 A 
ATOM     47  H   UNL A   1      39.498  31.860  33.154  1.00  0.00     0.167 HD
ATOM     48  C   UNL A   1      40.449  28.875  30.102  1.00  0.00     0.037 A 
ATOM     49  C   UNL A   1      39.741  33.056  35.666  1.00  0.00     0.037 A 
ATOM     50  C   UNL A   1      41.420  28.668  31.145  1.00  0.00     0.049 A 
ATOM     51  C   UNL A   1      40.806  31.995  35.603  1.00  0.00     0.074 A 
ATOM     52  C   UNL A   1      42.474  27.773  31.177  1.00  0.00     0.029 A 
ATOM     53  N   UNL A   1      41.454  29.368  32.342  1.00  0.00    -0.354 N 
ATOM     54  N   UNL A   1      41.085  31.160  34.633  1.00  0.00    -0.248 NA
ATOM     55  C   UNL A   1      41.674  31.855  36.781  1.00  0.00     0.031 C 
ATOM     56  C   UNL A   1      43.122  27.901  32.410  1.00  0.00     0.029 A 
ATOM     57  C   UNL A   1      42.501  28.911  33.127  1.00  0.00     0.049 A 
ATOM     58  H   UNL A   1      40.828  30.084  32.596  1.00  0.00     0.167 HD
ATOM     59  C   UNL A   1      42.175  30.419  35.068  1.00  0.00     0.074 A 
ATOM     60  C   UNL A   1      42.516  30.911  36.386  1.00  0.00     0.031 C 
ATOM     61  C   UNL A   1      42.835  29.420  34.432  1.00  0.00     0.037 A 
BRANCH  48  62
ATOM     62  C   UNL A   1      40.510  27.986  28.893  1.00  0.00     0.064 A 
ATOM     63  C   UNL A   1      41.316  28.301  27.790  1.00  0.00     0.173 A 
ATOM     64  C   UNL A   1      39.791  26.782  28.858  1.00  0.00     0.173 A 
ATOM     65  F   UNL A   1      42.016  29.446  27.769  1.00  0.00    -0.203 F 
ATOM     66  C   UNL A   1      41.379  27.458  26.683  1.00  0.00     0.198 A 
ATOM     67  C   UNL A   1      39.879  25.926  27.763  1.00  0.00     0.198 A 
ATOM     68  F   UNL A   1      39.010  26.430  29.891  1.00  0.00    -0.203 F 
ATOM     69  F   UNL A   1      42.120  27.802  25.622  1.00  0.00    -0.200 F 
ATOM     70  C   UNL A   1      40.667  26.267  26.674  1.00  0.00     0.200 A 
ATOM     71  F   UNL A   1      39.201  24.770  27.762  1.00  0.00    -0.200 F 
ATOM     72  F   UNL A   1      40.736  25.453  25.613  1.00  0.00    -0.200 F 
ENDBRANCH  48  62
BRANCH  49  73
ATOM     73  C   UNL A   1      39.594  33.912  36.872  1.00  0.00     0.064 A 
ATOM     74  C   UNL A   1      40.226  35.161  36.950  1.00  0.00     0.173 A 
ATOM     75  C   UNL A   1      38.828  33.498  37.972  1.00  0.00     0.173 A 
ATOM     76  F   UNL A   1      40.986  35.590  35.931  1.00  0.00    -0.203 F 
ATOM     77  C   UNL A   1      40.117  35.954  38.090  1.00  0.00     0.198 A 
ATOM     78  C   UNL A   1      38.697  34.305  39.100  1.00  0.00     0.198 A 
ATOM     79  F   UNL A   1      38.200  32.314  37.947  1.00  0.00    -0.203 F 
ATOM     80  F   UNL A   1      40.770  37.122  38.155  1.00  0.00    -0.200 F 
ATOM     81  C   UNL A   1      39.347  35.528  39.163  1.00  0.00     0.200 A 
ATOM     82  F   UNL A   1      37.942  33.895  40.129  1.00  0.00    -0.200 F 
ATOM     83  F   UNL A   1      39.241  36.291  40.258  1.00  0.00    -0.200 F 
ENDBRANCH  49  73
BRANCH  61  84
ATOM     84  C   UNL A   1      44.017  28.818  35.135  1.00  0.00     0.064 A 
ATOM     85  C   UNL A   1      45.313  29.324  34.962  1.00  0.00     0.173 A 
ATOM     86  C   UNL A   1      43.841  27.747  36.025  1.00  0.00     0.173 A 
ATOM     87  F   UNL A   1      45.535  30.336  34.110  1.00  0.00    -0.203 F 
ATOM     88  C   UNL A   1      46.395  28.765  35.637  1.00  0.00     0.198 A 
ATOM     89  C   UNL A   1      44.921  27.209  36.720  1.00  0.00     0.198 A 
ATOM     90  F   UNL A   1      42.620  27.232  36.231  1.00  0.00    -0.203 F 
ATOM     91  F   UNL A   1      47.632  29.234  35.421  1.00  0.00    -0.200 F 
ATOM     92  C   UNL A   1      46.197  27.713  36.520  1.00  0.00     0.200 A 
ATOM     93  F   UNL A   1      44.726  26.202  37.583  1.00  0.00    -0.200 F 
ATOM     94  F   UNL A   1      47.239  27.181  37.175  1.00  0.00    -0.200 F 
ENDBRANCH  61  84
ENDBRANCH  35  36
ENDBRANCH  27  30
ENDBRANCH  25  26
ENDBRANCH  24  25
ENDBRANCH  23  24
ENDBRANCH   1  23
TORSDOF 15
ENDMDL
MODEL 2
REMARK VINA RESULT:     -12.1      0.857      2.017
REMARK SMILES Cc1cc(C[NH+]2C[C@@H](C)[C@H](C)C2)oc1C(=O)NCCCCCCNC(=O)c1ccc(-c2c3nc(c(-c4c(F)c(F)c(F)c(F)c4F)c4ccc([nH]4)c(-c4c(F)c(F)c(F)c(F)c4F)c4nc(c(-c5c(F)c(F)c(F)c(F)c5F)c5ccc2[nH]5)C=C4)C=C3)cc1
REMARK SMILES IDX 20 1 19 2 18 3 17 4 15 5 16 6 14 8 1 9 2 10 3 11 4 12 13 13
REMARK SMILES IDX 5 14 6 15 7 16 12 17 8 19 10 20 9 21 11 22 21 23 22 24 23 25
REMARK SMILES IDX 24 26 25 27 26 29 27 30 28 31 89 32 29 33 88 34 30 35 31 36
REMARK SMILES IDX 32 37 82 38 33 39 87 40 81 41 83 42 34 43 86 44 80 45 79 46
REMARK SMILES IDX 35 48 67 49 47 50 66 51 48 52 51 53 65 54 84 55 49 56 50 57
REMARK SMILES IDX 64 59 85 60 52 61 36 62 37 63 45 64 38 65 39 66 43 67 46 68
REMARK SMILES IDX 40 69 41 70 44 71 42 72 68 73 69 74 77 75 70 76 71 77 75 78
REMARK SMILES IDX 78 79 72 80 73 81 76 82 74 83 53 84 54 85 62 86 55 87 56 88
REMARK SMILES IDX 60 89 63 90 57 91 58 92 61 93 59 94
REMARK H PARENT 17 7 6 18 24 28 83 47 51 58
REMARK Flexibility Score: inf
ROOT
ATOM      1  C   UNL A   1      32.205  29.187  26.294  1.00  0.00     0.002 C 
ENDROOT
BRANCH   1   2
ATOM      2  C   UNL A   1      33.336  28.501  25.521  1.00  0.00     0.021 C 
BRANCH   2   3
ATOM      3  C   UNL A   1      33.617  29.023  24.117  1.00  0.00     0.116 C 
BRANCH   3   4
ATOM      4  N   UNL A   1      33.867  27.994  23.144  1.00  0.00    -0.349 N 
ATOM      5  C   UNL A   1      33.040  26.982  22.707  1.00  0.00     0.287 C 
ATOM      6  O   UNL A   1      33.562  26.173  21.935  1.00  0.00    -0.266 OA
ATOM      7  H   UNL A   1      34.761  28.015  22.730  1.00  0.00     0.163 HD
BRANCH   5   8
ATOM      8  C   UNL A   1      31.657  26.859  23.154  1.00  0.00     0.194 A 
ATOM      9  C   UNL A   1      31.317  24.757  24.683  1.00  0.00     0.049 C 
ATOM     10  C   UNL A   1      30.920  25.990  23.960  1.00  0.00     0.001 A 
ATOM     11  C   UNL A   1      29.603  26.530  24.028  1.00  0.00     0.056 A 
ATOM     12  C   UNL A   1      29.581  27.653  23.239  1.00  0.00     0.159 A 
ATOM     13  O   UNL A   1      30.823  27.873  22.734  1.00  0.00    -0.450 OA
BRANCH  12  14
ATOM     14  C   UNL A   1      28.507  28.618  22.854  1.00  0.00     0.338 C 
BRANCH  14  15
ATOM     15  N   UNL A   1      28.989  29.925  22.397  1.00  0.00    -0.328 N 
ATOM     16  C   UNL A   1      28.292  30.449  21.222  1.00  0.00     0.266 C 
ATOM     17  C   UNL A   1      29.074  30.974  23.416  1.00  0.00     0.266 C 
ATOM     18  H   UNL A   1      29.946  29.690  22.135  1.00  0.00     0.348 HD
ATOM     19  C   UNL A   1      28.600  31.943  21.276  1.00  0.00     0.049 C 
ATOM     20  C   UNL A   1      28.476  32.227  22.772  1.00  0.00     0.049 C 
ATOM     21  C   UNL A   1      27.653  32.762  20.410  1.00  0.00     0.014 C 
ATOM     22  C   UNL A   1      29.158  33.508  23.229  1.00  0.00     0.014 C 
ENDBRANCH  14  15
ENDBRANCH  12  14
ENDBRANCH   5   8
ENDBRANCH   3   4
ENDBRANCH   2   3
ENDBRANCH   1   2
BRANCH   1  23
ATOM     23  C   UNL A   1      31.588  30.442  25.669  1.00  0.00     0.002 C 
BRANCH  23  24
ATOM     24  C   UNL A   1      31.383  31.651  26.585  1.00  0.00     0.021 C 
BRANCH  24  25
ATOM     25  C   UNL A   1      32.635  32.425  26.981  1.00  0.00     0.116 C 
BRANCH  25  26
ATOM     26  N   UNL A   1      32.361  33.782  27.416  1.00  0.00    -0.352 N 
ATOM     27  C   UNL A   1      32.980  34.540  28.379  1.00  0.00     0.251 C 
ATOM     28  H   UNL A   1      31.617  34.226  26.948  1.00  0.00     0.163 HD
ATOM     29  O   UNL A   1      32.529  35.645  28.668  1.00  0.00    -0.269 OA
BRANCH  27  30
ATOM     30  C   UNL A   1      34.167  34.027  29.100  1.00  0.00     0.039 A 
ATOM     31  C   UNL A   1      33.967  33.150  30.172  1.00  0.00     0.014 A 
ATOM     32  C   UNL A   1      35.464  34.416  28.755  1.00  0.00     0.014 A 
ATOM     33  C   UNL A   1      35.064  32.615  30.852  1.00  0.00     0.010 A 
ATOM     34  C   UNL A   1      36.559  33.832  29.390  1.00  0.00     0.010 A 
ATOM     35  C   UNL A   1      36.371  32.925  30.445  1.00  0.00    -0.014 A 
BRANCH  35  36
ATOM     36  C   UNL A   1      37.548  32.307  31.109  1.00  0.00     0.031 A 
ATOM     37  C   UNL A   1      38.313  31.207  30.427  1.00  0.00     0.074 A 
ATOM     38  C   UNL A   1      37.894  32.695  32.351  1.00  0.00     0.049 A 
ATOM     39  N   UNL A   1      39.317  30.495  30.874  1.00  0.00    -0.248 NA
ATOM     40  C   UNL A   1      37.875  30.840  29.071  1.00  0.00     0.031 C 
ATOM     41  C   UNL A   1      37.209  33.723  33.137  1.00  0.00     0.029 A 
ATOM     42  N   UNL A   1      38.900  32.262  33.180  1.00  0.00    -0.354 N 
ATOM     43  C   UNL A   1      39.620  29.590  29.864  1.00  0.00     0.074 A 
ATOM     44  C   UNL A   1      38.664  29.810  28.800  1.00  0.00     0.031 C 
ATOM     45  C   UNL A   1      37.823  33.853  34.323  1.00  0.00     0.029 A 
ATOM     46  C   UNL A   1      38.922  32.894  34.399  1.00  0.00     0.049 A 
ATOM     47  H   UNL A   1      39.545  31.564  32.923  1.00  0.00     0.167 HD
ATOM     48  C   UNL A   1      40.617  28.674  29.821  1.00  0.00     0.037 A 
ATOM     49  C   UNL A   1      39.729  32.715  35.462  1.00  0.00     0.037 A 
ATOM     50  C   UNL A   1      41.585  28.476  30.868  1.00  0.00     0.049 A 
ATOM     51  C   UNL A   1      40.827  31.689  35.387  1.00  0.00     0.074 A 
ATOM     52  C   UNL A   1      42.666  27.614  30.892  1.00  0.00     0.029 A 
ATOM     53  N   UNL A   1      41.586  29.152  32.079  1.00  0.00    -0.354 N 
ATOM     54  N   UNL A   1      41.141  30.883  34.403  1.00  0.00    -0.248 NA
ATOM     55  C   UNL A   1      41.688  31.552  36.570  1.00  0.00     0.031 C 
ATOM     56  C   UNL A   1      43.298  27.736  32.134  1.00  0.00     0.029 A 
ATOM     57  C   UNL A   1      42.640  28.711  32.865  1.00  0.00     0.049 A 
ATOM     58  H   UNL A   1      40.936  29.842  32.342  1.00  0.00     0.167 HD
ATOM     59  C   UNL A   1      42.250  30.167  34.834  1.00  0.00     0.074 A 
ATOM     60  C   UNL A   1      42.563  30.643  36.164  1.00  0.00     0.031 C 
ATOM     61  C   UNL A   1      42.946  29.203  34.183  1.00  0.00     0.037 A 
BRANCH  48  62
ATOM     62  C   UNL A   1      40.717  27.813  28.595  1.00  0.00     0.064 A 
ATOM     63  C   UNL A   1      40.017  26.601  28.488  1.00  0.00     0.173 A 
ATOM     64  C   UNL A   1      41.481  28.227  27.494  1.00  0.00     0.173 A 
ATOM     65  F   UNL A   1      39.280  26.155  29.516  1.00  0.00    -0.203 F 
ATOM     66  C   UNL A   1      40.103  25.822  27.337  1.00  0.00     0.198 A 
ATOM     67  C   UNL A   1      41.540  27.461  26.333  1.00  0.00     0.198 A 
ATOM     68  F   UNL A   1      42.164  29.381  27.540  1.00  0.00    -0.203 F 
ATOM     69  F   UNL A   1      39.463  24.647  27.277  1.00  0.00    -0.200 F 
ATOM     70  C   UNL A   1      40.857  26.256  26.257  1.00  0.00     0.200 A 
ATOM     71  F   UNL A   1      42.260  27.888  25.285  1.00  0.00    -0.200 F 
ATOM     72  F   UNL A   1      40.931  25.510  25.147  1.00  0.00    -0.200 F 
ENDBRANCH  48  62
BRANCH  49  73
ATOM     73  C   UNL A   1      39.544  33.540  36.683  1.00  0.00     0.064 A 
ATOM     74  C   UNL A   1      38.721  33.100  37.731  1.00  0.00     0.173 A 
ATOM     75  C   UNL A   1      40.175  34.784  36.828  1.00  0.00     0.173 A 
ATOM     76  F   UNL A   1      38.079  31.927  37.629  1.00  0.00    -0.203 F 
ATOM     77  C   UNL A   1      38.519  33.884  38.865  1.00  0.00     0.198 A 
ATOM     78  C   UNL A   1      39.994  35.553  37.975  1.00  0.00     0.198 A 
ATOM     79  F   UNL A   1      40.976  35.248  35.857  1.00  0.00    -0.203 F 
ATOM     80  F   UNL A   1      37.690  33.460  39.829  1.00  0.00    -0.200 F 
ATOM     81  C   UNL A   1      39.161  35.107  38.989  1.00  0.00     0.200 A 
ATOM     82  F   UNL A   1      40.627  36.729  38.097  1.00  0.00    -0.200 F 
ATOM     83  F   UNL A   1      38.967  35.859  40.081  1.00  0.00    -0.200 F 
ENDBRANCH  49  73
BRANCH  61  84
ATOM     84  C   UNL A   1      44.140  28.624  34.885  1.00  0.00     0.064 A 
ATOM     85  C   UNL A   1      45.415  29.195  34.764  1.00  0.00     0.173 A 
ATOM     86  C   UNL A   1      43.996  27.507  35.723  1.00  0.00     0.173 A 
ATOM     87  F   UNL A   1      45.607  30.253  33.962  1.00  0.00    -0.203 F 
ATOM     88  C   UNL A   1      46.508  28.655  35.437  1.00  0.00     0.198 A 
ATOM     89  C   UNL A   1      45.085  26.987  36.417  1.00  0.00     0.198 A 
ATOM     90  F   UNL A   1      42.796  26.928  35.878  1.00  0.00    -0.203 F 
ATOM     91  F   UNL A   1      47.725  29.188  35.270  1.00  0.00    -0.200 F 
ATOM     92  C   UNL A   1      46.340  27.557  36.268  1.00  0.00     0.200 A 
ATOM     93  F   UNL A   1      44.919  25.935  37.230  1.00  0.00    -0.200 F 
ATOM     94  F   UNL A   1      47.392  27.043  36.922  1.00  0.00    -0.200 F 
ENDBRANCH  61  84
ENDBRANCH  35  36
ENDBRANCH  27  30
ENDBRANCH  25  26
ENDBRANCH  24  25
ENDBRANCH  23  24
ENDBRANCH   1  23
TORSDOF 15
ENDMDL
MODEL 3
REMARK VINA RESULT:     -11.9      6.450     11.782
REMARK SMILES Cc1cc(C[NH+]2C[C@@H](C)[C@H](C)C2)oc1C(=O)NCCCCCCNC(=O)c1ccc(-c2c3nc(c(-c4c(F)c(F)c(F)c(F)c4F)c4ccc([nH]4)c(-c4c(F)c(F)c(F)c(F)c4F)c4nc(c(-c5c(F)c(F)c(F)c(F)c5F)c5ccc2[nH]5)C=C4)C=C3)cc1
REMARK SMILES IDX 20 1 19 2 18 3 17 4 15 5 16 6 14 8 1 9 2 10 3 11 4 12 13 13
REMARK SMILES IDX 5 14 6 15 7 16 12 17 8 19 10 20 9 21 11 22 21 23 22 24 23 25
REMARK SMILES IDX 24 26 25 27 26 29 27 30 28 31 89 32 29 33 88 34 30 35 31 36
REMARK SMILES IDX 32 37 82 38 33 39 87 40 81 41 83 42 34 43 86 44 80 45 79 46
REMARK SMILES IDX 35 48 67 49 47 50 66 51 48 52 51 53 65 54 84 55 49 56 50 57
REMARK SMILES IDX 64 59 85 60 52 61 36 62 37 63 45 64 38 65 39 66 43 67 46 68
REMARK SMILES IDX 40 69 41 70 44 71 42 72 68 73 69 74 77 75 70 76 71 77 75 78
REMARK SMILES IDX 78 79 72 80 73 81 76 82 74 83 53 84 54 85 62 86 55 87 56 88
REMARK SMILES IDX 60 89 63 90 57 91 58 92 61 93 59 94
REMARK H PARENT 17 7 6 18 24 28 83 47 51 58
REMARK Flexibility Score: inf
ROOT
ATOM      1  C   UNL A   1      35.847  21.877  24.729  1.00  0.00     0.002 C 
ENDROOT
BRANCH   1   2
ATOM      2  C   UNL A   1      35.606  22.544  26.087  1.00  0.00     0.021 C 
BRANCH   2   3
ATOM      3  C   UNL A   1      34.750  21.772  27.084  1.00  0.00     0.116 C 
BRANCH   3   4
ATOM      4  N   UNL A   1      33.533  22.441  27.460  1.00  0.00    -0.349 N 
ATOM      5  C   UNL A   1      32.408  22.699  26.708  1.00  0.00     0.287 C 
ATOM      6  O   UNL A   1      31.550  23.390  27.264  1.00  0.00    -0.266 OA
ATOM      7  H   UNL A   1      33.500  22.763  28.390  1.00  0.00     0.163 HD
BRANCH   5   8
ATOM      8  C   UNL A   1      32.258  22.216  25.339  1.00  0.00     0.194 A 
ATOM      9  C   UNL A   1      31.605  24.151  23.696  1.00  0.00     0.049 C 
ATOM     10  C   UNL A   1      31.950  22.764  24.093  1.00  0.00     0.001 A 
ATOM     11  C   UNL A   1      32.063  21.701  23.151  1.00  0.00     0.056 A 
ATOM     12  C   UNL A   1      32.379  20.565  23.853  1.00  0.00     0.159 A 
ATOM     13  O   UNL A   1      32.527  20.875  25.168  1.00  0.00    -0.450 OA
BRANCH  12  14
ATOM     14  C   UNL A   1      32.574  19.136  23.463  1.00  0.00     0.338 C 
BRANCH  14  15
ATOM     15  N   UNL A   1      33.098  18.274  24.526  1.00  0.00    -0.328 N 
ATOM     16  C   UNL A   1      32.221  17.160  24.889  1.00  0.00     0.266 C 
ATOM     17  C   UNL A   1      34.462  17.773  24.337  1.00  0.00     0.266 C 
ATOM     18  H   UNL A   1      33.131  18.933  25.303  1.00  0.00     0.348 HD
ATOM     19  C   UNL A   1      33.168  16.187  25.585  1.00  0.00     0.049 C 
ATOM     20  C   UNL A   1      34.412  16.287  24.703  1.00  0.00     0.049 C 
ATOM     21  C   UNL A   1      32.589  14.783  25.681  1.00  0.00     0.014 C 
ATOM     22  C   UNL A   1      35.693  15.799  25.363  1.00  0.00     0.014 C 
ENDBRANCH  14  15
ENDBRANCH  12  14
ENDBRANCH   5   8
ENDBRANCH   3   4
ENDBRANCH   2   3
ENDBRANCH   1   2
BRANCH   1  23
ATOM     23  C   UNL A   1      37.288  21.492  24.382  1.00  0.00     0.002 C 
BRANCH  23  24
ATOM     24  C   UNL A   1      37.823  20.183  24.967  1.00  0.00     0.021 C 
BRANCH  24  25
ATOM     25  C   UNL A   1      38.900  20.307  26.040  1.00  0.00     0.116 C 
BRANCH  25  26
ATOM     26  N   UNL A   1      39.956  19.320  25.914  1.00  0.00    -0.352 N 
ATOM     27  C   UNL A   1      41.316  19.469  26.015  1.00  0.00     0.251 C 
ATOM     28  H   UNL A   1      39.648  18.404  25.726  1.00  0.00     0.163 HD
ATOM     29  O   UNL A   1      42.054  18.517  25.775  1.00  0.00    -0.269 OA
BRANCH  27  30
ATOM     30  C   UNL A   1      41.911  20.776  26.379  1.00  0.00     0.039 A 
ATOM     31  C   UNL A   1      42.211  21.678  25.352  1.00  0.00     0.014 A 
ATOM     32  C   UNL A   1      42.199  21.111  27.704  1.00  0.00     0.014 A 
ATOM     33  C   UNL A   1      42.737  22.936  25.659  1.00  0.00     0.010 A 
ATOM     34  C   UNL A   1      42.662  22.389  28.015  1.00  0.00     0.010 A 
ATOM     35  C   UNL A   1      42.936  23.315  26.996  1.00  0.00    -0.014 A 
BRANCH  35  36
ATOM     36  C   UNL A   1      43.423  24.675  27.343  1.00  0.00     0.031 A 
ATOM     37  C   UNL A   1      42.479  25.697  27.912  1.00  0.00     0.074 A 
ATOM     38  C   UNL A   1      44.704  25.009  27.092  1.00  0.00     0.049 A 
ATOM     39  N   UNL A   1      42.698  26.955  28.206  1.00  0.00    -0.248 NA
ATOM     40  C   UNL A   1      41.097  25.256  28.158  1.00  0.00     0.031 C 
ATOM     41  C   UNL A   1      45.709  24.121  26.506  1.00  0.00     0.029 A 
ATOM     42  N   UNL A   1      45.377  26.191  27.285  1.00  0.00    -0.354 N 
ATOM     43  C   UNL A   1      41.483  27.456  28.657  1.00  0.00     0.074 A 
ATOM     44  C   UNL A   1      40.519  26.382  28.553  1.00  0.00     0.031 C 
ATOM     45  C   UNL A   1      46.873  24.782  26.402  1.00  0.00     0.029 A 
ATOM     46  C   UNL A   1      46.689  26.150  26.880  1.00  0.00     0.049 A 
ATOM     47  H   UNL A   1      44.959  26.991  27.676  1.00  0.00     0.167 HD
ATOM     48  C   UNL A   1      41.203  28.693  29.133  1.00  0.00     0.037 A 
ATOM     49  C   UNL A   1      47.635  27.109  26.883  1.00  0.00     0.037 A 
ATOM     50  C   UNL A   1      42.170  29.752  29.263  1.00  0.00     0.049 A 
ATOM     51  C   UNL A   1      47.295  28.475  27.416  1.00  0.00     0.074 A 
ATOM     52  C   UNL A   1      41.995  31.020  29.788  1.00  0.00     0.029 A 
ATOM     53  N   UNL A   1      43.495  29.664  28.861  1.00  0.00    -0.354 N 
ATOM     54  N   UNL A   1      46.159  28.917  27.896  1.00  0.00    -0.248 NA
ATOM     55  C   UNL A   1      48.373  29.474  27.412  1.00  0.00     0.031 C 
ATOM     56  C   UNL A   1      43.203  31.716  29.666  1.00  0.00     0.029 A 
ATOM     57  C   UNL A   1      44.144  30.863  29.110  1.00  0.00     0.049 A 
ATOM     58  H   UNL A   1      43.912  28.868  28.460  1.00  0.00     0.167 HD
ATOM     59  C   UNL A   1      46.392  30.231  28.279  1.00  0.00     0.074 A 
ATOM     60  C   UNL A   1      47.782  30.511  27.987  1.00  0.00     0.031 C 
ATOM     61  C   UNL A   1      45.531  31.124  28.825  1.00  0.00     0.037 A 
BRANCH  48  62
ATOM     62  C   UNL A   1      39.789  28.971  29.556  1.00  0.00     0.064 A 
ATOM     63  C   UNL A   1      38.825  29.427  28.644  1.00  0.00     0.173 A 
ATOM     64  C   UNL A   1      39.381  28.733  30.877  1.00  0.00     0.173 A 
ATOM     65  F   UNL A   1      39.166  29.679  27.371  1.00  0.00    -0.203 F 
ATOM     66  C   UNL A   1      37.513  29.662  29.045  1.00  0.00     0.198 A 
ATOM     67  C   UNL A   1      38.060  28.940  31.268  1.00  0.00     0.198 A 
ATOM     68  F   UNL A   1      40.261  28.290  31.788  1.00  0.00    -0.203 F 
ATOM     69  F   UNL A   1      36.621  30.140  28.167  1.00  0.00    -0.200 F 
ATOM     70  C   UNL A   1      37.129  29.410  30.354  1.00  0.00     0.200 A 
ATOM     71  F   UNL A   1      37.689  28.684  32.531  1.00  0.00    -0.200 F 
ATOM     72  F   UNL A   1      35.864  29.628  30.736  1.00  0.00    -0.200 F 
ENDBRANCH  48  62
BRANCH  49  73
ATOM     73  C   UNL A   1      49.001  26.807  26.384  1.00  0.00     0.064 A 
ATOM     74  C   UNL A   1      49.339  27.018  25.039  1.00  0.00     0.173 A 
ATOM     75  C   UNL A   1      49.994  26.297  27.233  1.00  0.00     0.173 A 
ATOM     76  F   UNL A   1      48.417  27.485  24.184  1.00  0.00    -0.203 F 
ATOM     77  C   UNL A   1      50.609  26.708  24.558  1.00  0.00     0.198 A 
ATOM     78  C   UNL A   1      51.272  26.014  26.757  1.00  0.00     0.198 A 
ATOM     79  F   UNL A   1      49.723  26.081  28.529  1.00  0.00    -0.203 F 
ATOM     80  F   UNL A   1      50.889  26.875  23.259  1.00  0.00    -0.200 F 
ATOM     81  C   UNL A   1      51.577  26.211  25.419  1.00  0.00     0.200 A 
ATOM     82  F   UNL A   1      52.208  25.546  27.595  1.00  0.00    -0.200 F 
ATOM     83  F   UNL A   1      52.798  25.915  24.956  1.00  0.00    -0.200 F 
ENDBRANCH  49  73
BRANCH  61  84
ATOM     84  C   UNL A   1      46.075  32.478  29.179  1.00  0.00     0.064 A 
ATOM     85  C   UNL A   1      46.663  32.732  30.426  1.00  0.00     0.173 A 
ATOM     86  C   UNL A   1      46.044  33.520  28.240  1.00  0.00     0.173 A 
ATOM     87  F   UNL A   1      46.703  31.773  31.363  1.00  0.00    -0.203 F 
ATOM     88  C   UNL A   1      47.179  33.989  30.730  1.00  0.00     0.198 A 
ATOM     89  C   UNL A   1      46.586  34.768  28.537  1.00  0.00     0.198 A 
ATOM     90  F   UNL A   1      45.498  33.326  27.031  1.00  0.00    -0.203 F 
ATOM     91  F   UNL A   1      47.694  34.224  31.944  1.00  0.00    -0.200 F 
ATOM     92  C   UNL A   1      47.146  35.003  29.784  1.00  0.00     0.200 A 
ATOM     93  F   UNL A   1      46.566  35.742  27.617  1.00  0.00    -0.200 F 
ATOM     94  F   UNL A   1      47.651  36.210  30.075  1.00  0.00    -0.200 F 
ENDBRANCH  61  84
ENDBRANCH  35  36
ENDBRANCH  27  30
ENDBRANCH  25  26
ENDBRANCH  24  25
ENDBRANCH  23  24
ENDBRANCH   1  23
TORSDOF 15
ENDMDL
