MODEL 1
REMARK VINA RESULT:     -13.3      0.000      0.000
REMARK SMILES CC(C)Oc1ccc([C@@H]2CC(=O)Nc3c(C(=O)NCCCCCCNC(=O)c4ccc(-c5c6nc(c(-c7c(F)c(F)c(F)c(F)c7F)c7ccc([nH]7)c(-c7c(F)c(F)c(F)c(F)c7F)c7nc(c(-c8c(F)c(F)c(F)c(F)c8F)c8ccc5[nH]8)C=C7)C=C6)cc4)nsc32)cc1
REMARK SMILES IDX 21 1 20 2 19 3 18 4 16 5 17 6 15 8 9 9 10 10 93 11 11 12
REMARK SMILES IDX 14 13 92 14 12 15 13 16 91 17 8 19 5 20 6 21 95 22 7 23
REMARK SMILES IDX 94 24 4 25 2 26 1 27 3 28 22 29 23 30 24 31 25 32 26 33
REMARK SMILES IDX 27 35 28 36 29 37 90 38 30 39 89 40 31 41 32 42 33 43 83 44
REMARK SMILES IDX 34 45 88 46 82 47 84 48 35 49 87 50 81 51 80 52 36 54 68 55
REMARK SMILES IDX 48 56 67 57 49 58 52 59 66 60 85 61 50 62 51 63 65 65 86 66
REMARK SMILES IDX 53 67 37 68 38 69 46 70 39 71 40 72 44 73 47 74 41 75 42 76
REMARK SMILES IDX 45 77 43 78 69 79 70 80 78 81 71 82 72 83 76 84 79 85 73 86
REMARK SMILES IDX 74 87 77 88 75 89 54 90 55 91 63 92 56 93 57 94 61 95 64 96
REMARK SMILES IDX 58 97 59 98 62 99 60 100
REMARK H PARENT 18 7 13 18 25 34 84 53 52 64
REMARK Flexibility Score: inf
ROOT
ATOM      1  C   UNL A   1      36.992  22.069  24.491  1.00  0.00     0.002 C 
ENDROOT
BRANCH   1   2
ATOM      2  C   UNL A   1      36.259  20.735  24.634  1.00  0.00     0.021 C 
BRANCH   2   3
ATOM      3  C   UNL A   1      35.144  20.673  25.660  1.00  0.00     0.116 C 
BRANCH   3   4
ATOM      4  N   UNL A   1      33.981  19.871  25.358  1.00  0.00    -0.351 N 
ATOM      5  C   UNL A   1      32.802  20.248  24.726  1.00  0.00     0.273 C 
ATOM      6  O   UNL A   1      31.988  19.352  24.497  1.00  0.00    -0.267 OA
ATOM      7  H   UNL A   1      34.031  18.928  25.636  1.00  0.00     0.163 HD
BRANCH   5   8
ATOM      8  C   UNL A   1      32.517  21.674  24.414  1.00  0.00     0.165 A 
ATOM      9  C   UNL A   1      30.704  24.952  24.873  1.00  0.00     0.073 C 
ATOM     10  C   UNL A   1      29.891  24.627  26.145  1.00  0.00     0.114 C 
ATOM     11  C   UNL A   1      31.523  23.783  24.434  1.00  0.00     0.058 A 
ATOM     12  C   UNL A   1      30.218  23.333  26.867  1.00  0.00     0.225 C 
ATOM     13  C   UNL A   1      31.793  22.665  25.182  1.00  0.00     0.089 A 
ATOM     14  S   UNL A   1      32.327  23.653  22.949  1.00  0.00    -0.038 S 
ATOM     15  O   UNL A   1      29.527  22.927  27.804  1.00  0.00    -0.275 OA
ATOM     16  N   UNL A   1      31.290  22.591  26.462  1.00  0.00    -0.323 N 
ATOM     17  N   UNL A   1      32.929  22.136  23.220  1.00  0.00    -0.185 NA
ATOM     18  H   UNL A   1      31.718  21.983  27.107  1.00  0.00     0.170 HD
BRANCH   9  19
ATOM     19  C   UNL A   1      31.557  26.184  25.121  1.00  0.00    -0.039 A 
ATOM     20  C   UNL A   1      33.146  28.439  25.613  1.00  0.00     0.119 A 
ATOM     21  C   UNL A   1      31.821  28.593  25.205  1.00  0.00     0.047 A 
ATOM     22  C   UNL A   1      33.653  27.166  25.843  1.00  0.00     0.047 A 
ATOM     23  C   UNL A   1      31.027  27.472  24.955  1.00  0.00     0.008 A 
ATOM     24  C   UNL A   1      32.878  26.047  25.572  1.00  0.00     0.008 A 
BRANCH  20  25
ATOM     25  O   UNL A   1      33.866  29.570  25.860  1.00  0.00    -0.491 OA
BRANCH  25  26
ATOM     26  C   UNL A   1      34.062  29.939  27.239  1.00  0.00     0.167 C 
ATOM     27  C   UNL A   1      35.499  29.752  27.727  1.00  0.00     0.052 C 
ATOM     28  C   UNL A   1      33.500  31.316  27.596  1.00  0.00     0.052 C 
ENDBRANCH  25  26
ENDBRANCH  20  25
ENDBRANCH   9  19
ENDBRANCH   5   8
ENDBRANCH   3   4
ENDBRANCH   2   3
ENDBRANCH   1   2
BRANCH   1  29
ATOM     29  C   UNL A   1      38.077  22.434  25.519  1.00  0.00     0.002 C 
BRANCH  29  30
ATOM     30  C   UNL A   1      39.121  21.381  25.917  1.00  0.00     0.021 C 
BRANCH  30  31
ATOM     31  C   UNL A   1      40.240  21.861  26.826  1.00  0.00     0.116 C 
BRANCH  31  32
ATOM     32  N   UNL A   1      41.516  22.043  26.146  1.00  0.00    -0.352 N 
ATOM     33  C   UNL A   1      42.176  23.230  25.875  1.00  0.00     0.251 C 
ATOM     34  H   UNL A   1      41.965  21.220  25.843  1.00  0.00     0.163 HD
ATOM     35  O   UNL A   1      43.027  23.288  25.004  1.00  0.00    -0.269 OA
BRANCH  33  36
ATOM     36  C   UNL A   1      41.823  24.438  26.650  1.00  0.00     0.039 A 
ATOM     37  C   UNL A   1      42.419  24.693  27.886  1.00  0.00     0.014 A 
ATOM     38  C   UNL A   1      40.892  25.329  26.120  1.00  0.00     0.014 A 
ATOM     39  C   UNL A   1      42.136  25.896  28.532  1.00  0.00     0.010 A 
ATOM     40  C   UNL A   1      40.734  26.576  26.678  1.00  0.00     0.010 A 
ATOM     41  C   UNL A   1      41.318  26.855  27.906  1.00  0.00    -0.014 A 
BRANCH  41  42
ATOM     42  C   UNL A   1      41.196  28.198  28.475  1.00  0.00     0.031 A 
ATOM     43  C   UNL A   1      42.234  29.152  27.991  1.00  0.00     0.074 A 
ATOM     44  C   UNL A   1      40.162  28.629  29.233  1.00  0.00     0.049 A 
ATOM     45  N   UNL A   1      43.171  29.706  28.685  1.00  0.00    -0.248 NA
ATOM     46  C   UNL A   1      42.326  29.416  26.545  1.00  0.00     0.031 C 
ATOM     47  C   UNL A   1      38.908  27.941  29.557  1.00  0.00     0.029 A 
ATOM     48  N   UNL A   1      39.985  29.848  29.820  1.00  0.00    -0.354 N 
ATOM     49  C   UNL A   1      43.865  30.531  27.808  1.00  0.00     0.074 A 
ATOM     50  C   UNL A   1      43.406  30.199  26.484  1.00  0.00     0.031 C 
ATOM     51  C   UNL A   1      38.022  28.823  30.075  1.00  0.00     0.029 A 
ATOM     52  C   UNL A   1      38.696  30.090  30.285  1.00  0.00     0.049 A 
ATOM     53  H   UNL A   1      40.714  30.504  29.909  1.00  0.00     0.167 HD
ATOM     54  C   UNL A   1      44.590  31.586  28.273  1.00  0.00     0.037 A 
ATOM     55  C   UNL A   1      38.218  31.255  30.793  1.00  0.00     0.037 A 
ATOM     56  C   UNL A   1      44.903  31.425  29.671  1.00  0.00     0.049 A 
ATOM     57  C   UNL A   1      39.388  32.058  31.223  1.00  0.00     0.074 A 
ATOM     58  C   UNL A   1      45.571  30.461  30.405  1.00  0.00     0.029 A 
ATOM     59  N   UNL A   1      44.173  32.137  30.589  1.00  0.00    -0.354 N 
ATOM     60  N   UNL A   1      40.155  31.745  32.228  1.00  0.00    -0.248 NA
ATOM     61  C   UNL A   1      39.966  32.968  30.248  1.00  0.00     0.031 C 
ATOM     62  C   UNL A   1      44.807  30.317  31.602  1.00  0.00     0.029 A 
ATOM     63  C   UNL A   1      43.777  31.256  31.564  1.00  0.00     0.049 A 
ATOM     64  H   UNL A   1      43.970  33.100  30.555  1.00  0.00     0.167 HD
ATOM     65  C   UNL A   1      41.435  32.038  31.787  1.00  0.00     0.074 A 
ATOM     66  C   UNL A   1      41.250  32.861  30.595  1.00  0.00     0.031 C 
ATOM     67  C   UNL A   1      42.516  31.351  32.259  1.00  0.00     0.037 A 
BRANCH  54  68
ATOM     68  C   UNL A   1      44.677  32.918  27.568  1.00  0.00     0.064 A 
ATOM     69  C   UNL A   1      45.839  33.239  26.840  1.00  0.00     0.173 A 
ATOM     70  C   UNL A   1      43.807  34.000  27.831  1.00  0.00     0.173 A 
ATOM     71  F   UNL A   1      46.752  32.296  26.560  1.00  0.00    -0.203 F 
ATOM     72  C   UNL A   1      46.139  34.553  26.468  1.00  0.00     0.198 A 
ATOM     73  C   UNL A   1      44.083  35.299  27.413  1.00  0.00     0.198 A 
ATOM     74  F   UNL A   1      42.721  33.872  28.601  1.00  0.00    -0.203 F 
ATOM     75  F   UNL A   1      47.317  34.828  25.892  1.00  0.00    -0.200 F 
ATOM     76  C   UNL A   1      45.263  35.582  26.758  1.00  0.00     0.200 A 
ATOM     77  F   UNL A   1      43.233  36.287  27.728  1.00  0.00    -0.200 F 
ATOM     78  F   UNL A   1      45.575  36.850  26.460  1.00  0.00    -0.200 F 
ENDBRANCH  54  68
BRANCH  55  79
ATOM     79  C   UNL A   1      36.870  31.865  30.662  1.00  0.00     0.064 A 
ATOM     80  C   UNL A   1      35.996  31.914  31.764  1.00  0.00     0.173 A 
ATOM     81  C   UNL A   1      36.541  32.688  29.569  1.00  0.00     0.173 A 
ATOM     82  F   UNL A   1      36.252  31.190  32.863  1.00  0.00    -0.203 F 
ATOM     83  C   UNL A   1      34.891  32.773  31.790  1.00  0.00     0.198 A 
ATOM     84  C   UNL A   1      35.434  33.541  29.595  1.00  0.00     0.198 A 
ATOM     85  F   UNL A   1      37.344  32.761  28.497  1.00  0.00    -0.203 F 
ATOM     86  F   UNL A   1      34.130  32.850  32.892  1.00  0.00    -0.200 F 
ATOM     87  C   UNL A   1      34.621  33.597  30.712  1.00  0.00     0.200 A 
ATOM     88  F   UNL A   1      35.205  34.361  28.560  1.00  0.00    -0.200 F 
ATOM     89  F   UNL A   1      33.610  34.476  30.766  1.00  0.00    -0.200 F 
ENDBRANCH  55  79
BRANCH  67  90
ATOM     90  C   UNL A   1      42.326  30.465  33.460  1.00  0.00     0.064 A 
ATOM     91  C   UNL A   1      42.437  30.892  34.796  1.00  0.00     0.173 A 
ATOM     92  C   UNL A   1      41.884  29.153  33.242  1.00  0.00     0.173 A 
ATOM     93  F   UNL A   1      42.762  32.156  35.096  1.00  0.00    -0.203 F 
ATOM     94  C   UNL A   1      42.159  30.030  35.858  1.00  0.00     0.198 A 
ATOM     95  C   UNL A   1      41.568  28.307  34.302  1.00  0.00     0.198 A 
ATOM     96  F   UNL A   1      41.713  28.700  31.990  1.00  0.00    -0.203 F 
ATOM     97  F   UNL A   1      42.289  30.456  37.123  1.00  0.00    -0.200 F 
ATOM     98  C   UNL A   1      41.716  28.741  35.609  1.00  0.00     0.200 A 
ATOM     99  F   UNL A   1      41.096  27.078  34.053  1.00  0.00    -0.200 F 
ATOM    100  F   UNL A   1      41.410  27.925  36.627  1.00  0.00    -0.200 F 
ENDBRANCH  67  90
ENDBRANCH  41  42
ENDBRANCH  33  36
ENDBRANCH  31  32
ENDBRANCH  30  31
ENDBRANCH  29  30
ENDBRANCH   1  29
TORSDOF 16
ENDMDL
MODEL 2
REMARK VINA RESULT:     -13.1      3.321      9.064
REMARK SMILES CC(C)Oc1ccc([C@@H]2CC(=O)Nc3c(C(=O)NCCCCCCNC(=O)c4ccc(-c5c6nc(c(-c7c(F)c(F)c(F)c(F)c7F)c7ccc([nH]7)c(-c7c(F)c(F)c(F)c(F)c7F)c7nc(c(-c8c(F)c(F)c(F)c(F)c8F)c8ccc5[nH]8)C=C7)C=C6)cc4)nsc32)cc1
REMARK SMILES IDX 21 1 20 2 19 3 18 4 16 5 17 6 15 8 9 9 10 10 93 11 11 12
REMARK SMILES IDX 14 13 92 14 12 15 13 16 91 17 8 19 5 20 6 21 95 22 7 23
REMARK SMILES IDX 94 24 4 25 2 26 1 27 3 28 22 29 23 30 24 31 25 32 26 33
REMARK SMILES IDX 27 35 28 36 29 37 90 38 30 39 89 40 31 41 32 42 33 43 83 44
REMARK SMILES IDX 34 45 88 46 82 47 84 48 35 49 87 50 81 51 80 52 36 54 68 55
REMARK SMILES IDX 48 56 67 57 49 58 52 59 66 60 85 61 50 62 51 63 65 65 86 66
REMARK SMILES IDX 53 67 37 68 38 69 46 70 39 71 40 72 44 73 47 74 41 75 42 76
REMARK SMILES IDX 45 77 43 78 69 79 70 80 78 81 71 82 72 83 76 84 79 85 73 86
REMARK SMILES IDX 74 87 77 88 75 89 54 90 55 91 63 92 56 93 57 94 61 95 64 96
REMARK SMILES IDX 58 97 59 98 62 99 60 100
REMARK H PARENT 18 7 13 18 25 34 84 53 52 64
REMARK Flexibility Score: inf
ROOT
ATOM      1  C   UNL A   1      33.318  29.029  26.712  1.00  0.00     0.002 C 
ENDROOT
BRANCH   1   2
ATOM      2  C   UNL A   1      32.018  29.466  26.036  1.00  0.00     0.021 C 
BRANCH   2   3
ATOM      3  C   UNL A   1      32.053  29.635  24.529  1.00  0.00     0.116 C 
BRANCH   3   4
ATOM      4  N   UNL A   1      30.823  29.458  23.793  1.00  0.00    -0.351 N 
ATOM      5  C   UNL A   1      30.119  28.286  23.541  1.00  0.00     0.273 C 
ATOM      6  O   UNL A   1      29.037  28.407  22.964  1.00  0.00    -0.267 OA
ATOM      7  H   UNL A   1      30.429  30.279  23.420  1.00  0.00     0.163 HD
BRANCH   5   8
ATOM      8  C   UNL A   1      30.686  26.957  23.888  1.00  0.00     0.165 A 
ATOM      9  C   UNL A   1      32.499  23.736  23.123  1.00  0.00     0.073 C 
ATOM     10  C   UNL A   1      32.979  24.039  21.687  1.00  0.00     0.114 C 
ATOM     11  C   UNL A   1      31.704  24.869  23.684  1.00  0.00     0.058 A 
ATOM     12  C   UNL A   1      32.803  25.458  21.180  1.00  0.00     0.225 C 
ATOM     13  C   UNL A   1      31.639  26.138  23.168  1.00  0.00     0.089 A 
ATOM     14  S   UNL A   1      30.785  24.811  25.106  1.00  0.00    -0.038 S 
ATOM     15  O   UNL A   1      33.026  25.754  20.005  1.00  0.00    -0.275 OA
ATOM     16  N   UNL A   1      32.373  26.428  22.039  1.00  0.00    -0.323 N 
ATOM     17  N   UNL A   1      30.226  26.365  25.005  1.00  0.00    -0.185 NA
ATOM     18  H   UNL A   1      32.596  27.368  21.845  1.00  0.00     0.170 HD
BRANCH   9  19
ATOM     19  C   UNL A   1      33.695  23.393  23.993  1.00  0.00    -0.039 A 
ATOM     20  C   UNL A   1      35.885  22.724  25.609  1.00  0.00     0.119 A 
ATOM     21  C   UNL A   1      35.348  24.011  25.657  1.00  0.00     0.047 A 
ATOM     22  C   UNL A   1      35.287  21.756  24.811  1.00  0.00     0.047 A 
ATOM     23  C   UNL A   1      34.259  24.349  24.850  1.00  0.00     0.008 A 
ATOM     24  C   UNL A   1      34.220  22.092  23.988  1.00  0.00     0.008 A 
BRANCH  20  25
ATOM     25  O   UNL A   1      36.936  22.447  26.432  1.00  0.00    -0.491 OA
BRANCH  25  26
ATOM     26  C   UNL A   1      38.255  22.761  25.945  1.00  0.00     0.167 C 
ATOM     27  C   UNL A   1      38.876  23.993  26.604  1.00  0.00     0.052 C 
ATOM     28  C   UNL A   1      39.209  21.566  25.929  1.00  0.00     0.052 C 
ENDBRANCH  25  26
ENDBRANCH  20  25
ENDBRANCH   9  19
ENDBRANCH   5   8
ENDBRANCH   3   4
ENDBRANCH   2   3
ENDBRANCH   1   2
BRANCH   1  29
ATOM     29  C   UNL A   1      34.253  30.105  27.290  1.00  0.00     0.002 C 
BRANCH  29  30
ATOM     30  C   UNL A   1      33.680  31.482  27.655  1.00  0.00     0.021 C 
BRANCH  30  31
ATOM     31  C   UNL A   1      34.681  32.508  28.161  1.00  0.00     0.116 C 
BRANCH  31  32
ATOM     32  N   UNL A   1      34.602  32.752  29.595  1.00  0.00    -0.352 N 
ATOM     33  C   UNL A   1      35.290  32.107  30.610  1.00  0.00     0.251 C 
ATOM     34  H   UNL A   1      33.984  33.465  29.878  1.00  0.00     0.163 HD
ATOM     35  O   UNL A   1      34.885  32.139  31.759  1.00  0.00    -0.269 OA
BRANCH  33  36
ATOM     36  C   UNL A   1      36.522  31.361  30.276  1.00  0.00     0.039 A 
ATOM     37  C   UNL A   1      37.722  32.033  30.040  1.00  0.00     0.014 A 
ATOM     38  C   UNL A   1      36.471  29.970  30.214  1.00  0.00     0.014 A 
ATOM     39  C   UNL A   1      38.881  31.286  29.834  1.00  0.00     0.010 A 
ATOM     40  C   UNL A   1      37.633  29.236  30.166  1.00  0.00     0.010 A 
ATOM     41  C   UNL A   1      38.839  29.882  29.934  1.00  0.00    -0.014 A 
BRANCH  41  42
ATOM     42  C   UNL A   1      40.083  29.111  29.937  1.00  0.00     0.031 A 
ATOM     43  C   UNL A   1      40.672  28.926  31.295  1.00  0.00     0.074 A 
ATOM     44  C   UNL A   1      40.597  28.462  28.868  1.00  0.00     0.049 A 
ATOM     45  N   UNL A   1      41.789  29.401  31.734  1.00  0.00    -0.248 NA
ATOM     46  C   UNL A   1      39.864  28.250  32.324  1.00  0.00     0.031 C 
ATOM     47  C   UNL A   1      40.010  28.270  27.538  1.00  0.00     0.029 A 
ATOM     48  N   UNL A   1      41.756  27.747  28.780  1.00  0.00    -0.354 N 
ATOM     49  C   UNL A   1      41.920  28.937  33.038  1.00  0.00     0.074 A 
ATOM     50  C   UNL A   1      40.647  28.369  33.399  1.00  0.00     0.031 C 
ATOM     51  C   UNL A   1      40.695  27.315  26.868  1.00  0.00     0.029 A 
ATOM     52  C   UNL A   1      41.868  26.955  27.642  1.00  0.00     0.049 A 
ATOM     53  H   UNL A   1      42.459  27.791  29.468  1.00  0.00     0.167 HD
ATOM     54  C   UNL A   1      43.146  28.851  33.624  1.00  0.00     0.037 A 
ATOM     55  C   UNL A   1      42.850  26.058  27.365  1.00  0.00     0.037 A 
ATOM     56  C   UNL A   1      44.104  29.691  32.952  1.00  0.00     0.049 A 
ATOM     57  C   UNL A   1      44.014  26.408  28.214  1.00  0.00     0.074 A 
ATOM     58  C   UNL A   1      44.174  31.046  32.678  1.00  0.00     0.029 A 
ATOM     59  N   UNL A   1      45.001  29.102  32.096  1.00  0.00    -0.354 N 
ATOM     60  N   UNL A   1      44.729  27.486  28.060  1.00  0.00    -0.248 NA
ATOM     61  C   UNL A   1      44.099  25.777  29.521  1.00  0.00     0.031 C 
ATOM     62  C   UNL A   1      44.694  31.125  31.350  1.00  0.00     0.029 A 
ATOM     63  C   UNL A   1      44.988  29.828  30.932  1.00  0.00     0.049 A 
ATOM     64  H   UNL A   1      45.551  28.308  32.283  1.00  0.00     0.167 HD
ATOM     65  C   UNL A   1      44.983  27.918  29.351  1.00  0.00     0.074 A 
ATOM     66  C   UNL A   1      44.640  26.785  30.208  1.00  0.00     0.031 C 
ATOM     67  C   UNL A   1      45.171  29.241  29.626  1.00  0.00     0.037 A 
BRANCH  54  68
ATOM     68  C   UNL A   1      43.554  27.729  34.548  1.00  0.00     0.064 A 
ATOM     69  C   UNL A   1      43.504  26.400  34.084  1.00  0.00     0.173 A 
ATOM     70  C   UNL A   1      43.695  27.879  35.946  1.00  0.00     0.173 A 
ATOM     71  F   UNL A   1      43.339  26.137  32.778  1.00  0.00    -0.203 F 
ATOM     72  C   UNL A   1      43.520  25.310  34.960  1.00  0.00     0.198 A 
ATOM     73  C   UNL A   1      43.765  26.790  36.811  1.00  0.00     0.198 A 
ATOM     74  F   UNL A   1      43.650  29.075  36.543  1.00  0.00    -0.203 F 
ATOM     75  F   UNL A   1      43.338  24.071  34.484  1.00  0.00    -0.200 F 
ATOM     76  C   UNL A   1      43.647  25.507  36.323  1.00  0.00     0.200 A 
ATOM     77  F   UNL A   1      43.861  27.004  38.131  1.00  0.00    -0.200 F 
ATOM     78  F   UNL A   1      43.600  24.470  37.170  1.00  0.00    -0.200 F 
ENDBRANCH  54  68
BRANCH  55  79
ATOM     79  C   UNL A   1      42.772  24.751  26.664  1.00  0.00     0.064 A 
ATOM     80  C   UNL A   1      43.396  24.568  25.417  1.00  0.00     0.173 A 
ATOM     81  C   UNL A   1      42.371  23.582  27.338  1.00  0.00     0.173 A 
ATOM     82  F   UNL A   1      43.843  25.625  24.723  1.00  0.00    -0.203 F 
ATOM     83  C   UNL A   1      43.651  23.293  24.901  1.00  0.00     0.198 A 
ATOM     84  C   UNL A   1      42.621  22.309  26.818  1.00  0.00     0.198 A 
ATOM     85  F   UNL A   1      41.825  23.646  28.561  1.00  0.00    -0.203 F 
ATOM     86  F   UNL A   1      44.322  23.160  23.747  1.00  0.00    -0.200 F 
ATOM     87  C   UNL A   1      43.278  22.165  25.610  1.00  0.00     0.200 A 
ATOM     88  F   UNL A   1      42.289  21.224  27.532  1.00  0.00    -0.200 F 
ATOM     89  F   UNL A   1      43.590  20.943  25.154  1.00  0.00    -0.200 F 
ENDBRANCH  55  79
BRANCH  67  90
ATOM     90  C   UNL A   1      45.372  30.186  28.472  1.00  0.00     0.064 A 
ATOM     91  C   UNL A   1      44.332  30.811  27.758  1.00  0.00     0.173 A 
ATOM     92  C   UNL A   1      46.683  30.572  28.162  1.00  0.00     0.173 A 
ATOM     93  F   UNL A   1      43.048  30.572  28.052  1.00  0.00    -0.203 F 
ATOM     94  C   UNL A   1      44.601  31.744  26.756  1.00  0.00     0.198 A 
ATOM     95  C   UNL A   1      46.947  31.533  27.190  1.00  0.00     0.198 A 
ATOM     96  F   UNL A   1      47.716  30.046  28.839  1.00  0.00    -0.203 F 
ATOM     97  F   UNL A   1      43.593  32.313  26.079  1.00  0.00    -0.200 F 
ATOM     98  C   UNL A   1      45.907  32.110  26.479  1.00  0.00     0.200 A 
ATOM     99  F   UNL A   1      48.210  31.916  26.960  1.00  0.00    -0.200 F 
ATOM    100  F   UNL A   1      46.165  33.035  25.544  1.00  0.00    -0.200 F 
ENDBRANCH  67  90
ENDBRANCH  41  42
ENDBRANCH  33  36
ENDBRANCH  31  32
ENDBRANCH  30  31
ENDBRANCH  29  30
ENDBRANCH   1  29
TORSDOF 16
ENDMDL
MODEL 3
REMARK VINA RESULT:     -12.9      3.171      9.188
REMARK SMILES CC(C)Oc1ccc([C@@H]2CC(=O)Nc3c(C(=O)NCCCCCCNC(=O)c4ccc(-c5c6nc(c(-c7c(F)c(F)c(F)c(F)c7F)c7ccc([nH]7)c(-c7c(F)c(F)c(F)c(F)c7F)c7nc(c(-c8c(F)c(F)c(F)c(F)c8F)c8ccc5[nH]8)C=C7)C=C6)cc4)nsc32)cc1
REMARK SMILES IDX 21 1 20 2 19 3 18 4 16 5 17 6 15 8 9 9 10 10 93 11 11 12
REMARK SMILES IDX 14 13 92 14 12 15 13 16 91 17 8 19 5 20 6 21 95 22 7 23
REMARK SMILES IDX 94 24 4 25 2 26 1 27 3 28 22 29 23 30 24 31 25 32 26 33
REMARK SMILES IDX 27 35 28 36 29 37 90 38 30 39 89 40 31 41 32 42 33 43 83 44
REMARK SMILES IDX 34 45 88 46 82 47 84 48 35 49 87 50 81 51 80 52 36 54 68 55
REMARK SMILES IDX 48 56 67 57 49 58 52 59 66 60 85 61 50 62 51 63 65 65 86 66
REMARK SMILES IDX 53 67 37 68 38 69 46 70 39 71 40 72 44 73 47 74 41 75 42 76
REMARK SMILES IDX 45 77 43 78 69 79 70 80 78 81 71 82 72 83 76 84 79 85 73 86
REMARK SMILES IDX 74 87 77 88 75 89 54 90 55 91 63 92 56 93 57 94 61 95 64 96
REMARK SMILES IDX 58 97 59 98 62 99 60 100
REMARK H PARENT 18 7 13 18 25 34 84 53 52 64
REMARK Flexibility Score: inf
ROOT
ATOM      1  C   UNL A   1      31.916  27.536  26.321  1.00  0.00     0.002 C 
ENDROOT
BRANCH   1   2
ATOM      2  C   UNL A   1      31.342  28.039  24.996  1.00  0.00     0.021 C 
BRANCH   2   3
ATOM      3  C   UNL A   1      32.291  28.096  23.815  1.00  0.00     0.116 C 
BRANCH   3   4
ATOM      4  N   UNL A   1      31.819  27.621  22.535  1.00  0.00    -0.351 N 
ATOM      5  C   UNL A   1      31.882  26.338  22.004  1.00  0.00     0.273 C 
ATOM      6  O   UNL A   1      31.320  26.162  20.922  1.00  0.00    -0.267 OA
ATOM      7  H   UNL A   1      31.394  28.298  21.961  1.00  0.00     0.163 HD
BRANCH   5   8
ATOM      8  C   UNL A   1      32.650  25.261  22.681  1.00  0.00     0.165 A 
ATOM      9  C   UNL A   1      33.393  22.898  25.529  1.00  0.00     0.073 C 
ATOM     10  C   UNL A   1      32.149  23.149  26.410  1.00  0.00     0.114 C 
ATOM     11  C   UNL A   1      33.375  23.750  24.303  1.00  0.00     0.058 A 
ATOM     12  C   UNL A   1      31.032  23.985  25.813  1.00  0.00     0.225 C 
ATOM     13  C   UNL A   1      32.293  24.443  23.822  1.00  0.00     0.089 A 
ATOM     14  S   UNL A   1      34.676  23.964  23.240  1.00  0.00    -0.038 S 
ATOM     15  O   UNL A   1      30.071  24.351  26.492  1.00  0.00    -0.275 OA
ATOM     16  N   UNL A   1      31.098  24.353  24.501  1.00  0.00    -0.323 N 
ATOM     17  N   UNL A   1      33.894  25.017  22.231  1.00  0.00    -0.185 NA
ATOM     18  H   UNL A   1      30.263  24.562  24.023  1.00  0.00     0.170 HD
BRANCH   9  19
ATOM     19  C   UNL A   1      33.484  21.420  25.194  1.00  0.00    -0.039 A 
ATOM     20  C   UNL A   1      33.684  18.700  24.550  1.00  0.00     0.119 A 
ATOM     21  C   UNL A   1      32.434  19.317  24.596  1.00  0.00     0.047 A 
ATOM     22  C   UNL A   1      34.833  19.453  24.755  1.00  0.00     0.047 A 
ATOM     23  C   UNL A   1      32.330  20.671  24.920  1.00  0.00     0.008 A 
ATOM     24  C   UNL A   1      34.736  20.794  25.103  1.00  0.00     0.008 A 
BRANCH  20  25
ATOM     25  O   UNL A   1      33.725  17.380  24.210  1.00  0.00    -0.491 OA
BRANCH  25  26
ATOM     26  C   UNL A   1      33.893  16.429  25.280  1.00  0.00     0.167 C 
ATOM     27  C   UNL A   1      32.773  15.392  25.362  1.00  0.00     0.052 C 
ATOM     28  C   UNL A   1      35.283  15.791  25.327  1.00  0.00     0.052 C 
ENDBRANCH  25  26
ENDBRANCH  20  25
ENDBRANCH   9  19
ENDBRANCH   5   8
ENDBRANCH   3   4
ENDBRANCH   2   3
ENDBRANCH   1   2
BRANCH   1  29
ATOM     29  C   UNL A   1      33.055  28.329  26.985  1.00  0.00     0.002 C 
BRANCH  29  30
ATOM     30  C   UNL A   1      33.113  29.853  26.808  1.00  0.00     0.021 C 
BRANCH  30  31
ATOM     31  C   UNL A   1      33.701  30.637  27.969  1.00  0.00     0.116 C 
BRANCH  31  32
ATOM     32  N   UNL A   1      34.257  31.929  27.588  1.00  0.00    -0.352 N 
ATOM     33  C   UNL A   1      35.502  32.449  27.903  1.00  0.00     0.251 C 
ATOM     34  H   UNL A   1      33.676  32.505  27.039  1.00  0.00     0.163 HD
ATOM     35  O   UNL A   1      35.713  33.647  27.846  1.00  0.00    -0.269 OA
BRANCH  33  36
ATOM     36  C   UNL A   1      36.576  31.524  28.326  1.00  0.00     0.039 A 
ATOM     37  C   UNL A   1      36.673  30.244  27.779  1.00  0.00     0.014 A 
ATOM     38  C   UNL A   1      37.502  31.957  29.273  1.00  0.00     0.014 A 
ATOM     39  C   UNL A   1      37.762  29.446  28.127  1.00  0.00     0.010 A 
ATOM     40  C   UNL A   1      38.651  31.235  29.496  1.00  0.00     0.010 A 
ATOM     41  C   UNL A   1      38.773  29.961  28.962  1.00  0.00    -0.014 A 
BRANCH  41  42
ATOM     42  C   UNL A   1      40.016  29.213  29.152  1.00  0.00     0.031 A 
ATOM     43  C   UNL A   1      40.366  28.984  30.583  1.00  0.00     0.074 A 
ATOM     44  C   UNL A   1      40.723  28.618  28.165  1.00  0.00     0.049 A 
ATOM     45  N   UNL A   1      41.379  29.461  31.226  1.00  0.00    -0.248 NA
ATOM     46  C   UNL A   1      39.411  28.252  31.431  1.00  0.00     0.031 C 
ATOM     47  C   UNL A   1      40.380  28.470  26.747  1.00  0.00     0.029 A 
ATOM     48  N   UNL A   1      41.897  27.929  28.252  1.00  0.00    -0.354 N 
ATOM     49  C   UNL A   1      41.295  28.947  32.515  1.00  0.00     0.074 A 
ATOM     50  C   UNL A   1      39.993  28.342  32.629  1.00  0.00     0.031 C 
ATOM     51  C   UNL A   1      41.194  27.555  26.171  1.00  0.00     0.029 A 
ATOM     52  C   UNL A   1      42.224  27.186  27.123  1.00  0.00     0.049 A 
ATOM     53  H   UNL A   1      42.470  27.957  29.053  1.00  0.00     0.167 HD
ATOM     54  C   UNL A   1      42.403  28.860  33.302  1.00  0.00     0.037 A 
ATOM     55  C   UNL A   1      43.262  26.319  26.988  1.00  0.00     0.037 A 
ATOM     56  C   UNL A   1      43.441  29.745  32.837  1.00  0.00     0.049 A 
ATOM     57  C   UNL A   1      44.252  26.656  28.038  1.00  0.00     0.074 A 
ATOM     58  C   UNL A   1      43.523  31.110  32.629  1.00  0.00     0.029 A 
ATOM     59  N   UNL A   1      44.487  29.208  32.129  1.00  0.00    -0.354 N 
ATOM     60  N   UNL A   1      44.956  27.752  28.050  1.00  0.00    -0.248 NA
ATOM     61  C   UNL A   1      44.127  25.974  29.316  1.00  0.00     0.031 C 
ATOM     62  C   UNL A   1      44.262  31.253  31.416  1.00  0.00     0.029 A 
ATOM     63  C   UNL A   1      44.656  29.980  31.007  1.00  0.00     0.049 A 
ATOM     64  H   UNL A   1      45.016  28.417  32.379  1.00  0.00     0.167 HD
ATOM     65  C   UNL A   1      44.972  28.136  29.381  1.00  0.00     0.074 A 
ATOM     66  C   UNL A   1      44.515  26.963  30.122  1.00  0.00     0.031 C 
ATOM     67  C   UNL A   1      45.077  29.450  29.733  1.00  0.00     0.037 A 
BRANCH  54  68
ATOM     68  C   UNL A   1      42.674  27.710  34.240  1.00  0.00     0.064 A 
ATOM     69  C   UNL A   1      43.188  26.504  33.724  1.00  0.00     0.173 A 
ATOM     70  C   UNL A   1      42.167  27.638  35.557  1.00  0.00     0.173 A 
ATOM     71  F   UNL A   1      43.667  26.446  32.472  1.00  0.00    -0.203 F 
ATOM     72  C   UNL A   1      43.132  25.307  34.445  1.00  0.00     0.198 A 
ATOM     73  C   UNL A   1      42.161  26.456  36.293  1.00  0.00     0.198 A 
ATOM     74  F   UNL A   1      41.550  28.671  36.141  1.00  0.00    -0.203 F 
ATOM     75  F   UNL A   1      43.513  24.162  33.864  1.00  0.00    -0.200 F 
ATOM     76  C   UNL A   1      42.614  25.284  35.727  1.00  0.00     0.200 A 
ATOM     77  F   UNL A   1      41.630  26.450  37.524  1.00  0.00    -0.200 F 
ATOM     78  F   UNL A   1      42.501  24.129  36.397  1.00  0.00    -0.200 F 
ENDBRANCH  54  68
BRANCH  55  79
ATOM     79  C   UNL A   1      43.339  25.040  26.237  1.00  0.00     0.064 A 
ATOM     80  C   UNL A   1      44.327  24.844  25.254  1.00  0.00     0.173 A 
ATOM     81  C   UNL A   1      42.668  23.887  26.684  1.00  0.00     0.173 A 
ATOM     82  F   UNL A   1      45.040  25.884  24.797  1.00  0.00    -0.203 F 
ATOM     83  C   UNL A   1      44.658  23.568  24.787  1.00  0.00     0.198 A 
ATOM     84  C   UNL A   1      42.997  22.613  26.212  1.00  0.00     0.198 A 
ATOM     85  F   UNL A   1      41.754  23.959  27.663  1.00  0.00    -0.203 F 
ATOM     86  F   UNL A   1      45.662  23.416  23.911  1.00  0.00    -0.200 F 
ATOM     87  C   UNL A   1      44.004  22.452  25.279  1.00  0.00     0.200 A 
ATOM     88  F   UNL A   1      42.382  21.537  26.724  1.00  0.00    -0.200 F 
ATOM     89  F   UNL A   1      44.373  21.223  24.891  1.00  0.00    -0.200 F 
ENDBRANCH  55  79
BRANCH  67  90
ATOM     90  C   UNL A   1      45.450  30.444  28.666  1.00  0.00     0.064 A 
ATOM     91  C   UNL A   1      44.534  31.071  27.800  1.00  0.00     0.173 A 
ATOM     92  C   UNL A   1      46.782  30.875  28.609  1.00  0.00     0.173 A 
ATOM     93  F   UNL A   1      43.226  30.790  27.851  1.00  0.00    -0.203 F 
ATOM     94  C   UNL A   1      44.947  32.050  26.895  1.00  0.00     0.198 A 
ATOM     95  C   UNL A   1      47.185  31.880  27.734  1.00  0.00     0.198 A 
ATOM     96  F   UNL A   1      47.695  30.348  29.441  1.00  0.00    -0.203 F 
ATOM     97  F   UNL A   1      44.058  32.620  26.068  1.00  0.00    -0.200 F 
ATOM     98  C   UNL A   1      46.270  32.459  26.869  1.00  0.00     0.200 A 
ATOM     99  F   UNL A   1      48.456  32.303  27.747  1.00  0.00    -0.200 F 
ATOM    100  F   UNL A   1      46.661  33.426  26.028  1.00  0.00    -0.200 F 
ENDBRANCH  67  90
ENDBRANCH  41  42
ENDBRANCH  33  36
ENDBRANCH  31  32
ENDBRANCH  30  31
ENDBRANCH  29  30
ENDBRANCH   1  29
TORSDOF 16
ENDMDL
