MODEL 1
REMARK VINA RESULT:     -12.3      0.000      0.000
REMARK SMILES Cc1cc(C)n(CC(=O)N[C@H]2C=C[C@@H](C(=O)NCCCCCCNC(=O)c3ccc(-c4c5nc(c(-c6c(F)c(F)c(F)c(F)c6F)c6ccc([nH]6)c(-c6c(F)c(F)c(F)c(F)c6F)c6nc(c(-c7c(F)c(F)c(F)c(F)c7F)c7ccc4[nH]7)C=C6)C=C5)cc3)C2)n1
REMARK SMILES IDX 20 1 19 2 18 3 17 4 15 5 16 6 14 8 11 9 12 10 90 11 13 12
REMARK SMILES IDX 10 13 8 14 9 15 7 17 6 18 1 19 2 20 3 21 91 22 4 23 5 24
REMARK SMILES IDX 21 25 22 26 23 27 24 28 25 29 26 31 27 32 28 33 89 34 29 35
REMARK SMILES IDX 88 36 30 37 31 38 32 39 82 40 33 41 87 42 81 43 83 44 34 45
REMARK SMILES IDX 86 46 80 47 79 48 35 50 67 51 47 52 66 53 48 54 51 55 65 56
REMARK SMILES IDX 84 57 49 58 50 59 64 61 85 62 52 63 36 64 37 65 45 66 38 67
REMARK SMILES IDX 39 68 43 69 46 70 40 71 41 72 44 73 42 74 68 75 69 76 77 77
REMARK SMILES IDX 70 78 71 79 75 80 78 81 72 82 73 83 76 84 74 85 53 86 54 87
REMARK SMILES IDX 62 88 55 89 56 90 60 91 63 92 57 93 58 94 61 95 59 96
REMARK H PARENT 17 7 10 16 24 30 83 49 51 60
REMARK Flexibility Score: inf
ROOT
ATOM      1  C   UNL A   1      42.194  20.646  27.592  1.00  0.00     0.002 C 
ENDROOT
BRANCH   1   2
ATOM      2  C   UNL A   1      40.792  21.205  27.412  1.00  0.00     0.021 C 
BRANCH   2   3
ATOM      3  C   UNL A   1      40.466  21.967  26.112  1.00  0.00     0.116 C 
BRANCH   3   4
ATOM      4  N   UNL A   1      39.423  22.955  26.307  1.00  0.00    -0.356 N 
ATOM      5  C   UNL A   1      38.168  23.134  25.808  1.00  0.00     0.227 C 
ATOM      6  O   UNL A   1      37.555  24.107  26.278  1.00  0.00    -0.274 OA
ATOM      7  H   UNL A   1      39.681  23.656  26.949  1.00  0.00     0.163 HD
BRANCH   5   8
ATOM      8  C   UNL A   1      37.417  22.210  24.811  1.00  0.00     0.103 C 
ATOM      9  C   UNL A   1      35.107  21.355  24.495  1.00  0.00     0.106 C 
ATOM     10  C   UNL A   1      35.418  22.496  23.590  1.00  0.00    -0.006 C 
ATOM     11  C   UNL A   1      36.418  21.110  25.232  1.00  0.00     0.047 C 
ATOM     12  C   UNL A   1      36.680  22.924  23.726  1.00  0.00    -0.016 C 
BRANCH   9  13
ATOM     13  N   UNL A   1      33.865  21.543  25.242  1.00  0.00    -0.348 N 
ATOM     14  C   UNL A   1      32.530  21.375  25.008  1.00  0.00     0.242 C 
ATOM     15  O   UNL A   1      31.753  21.806  25.868  1.00  0.00    -0.273 OA
ATOM     16  H   UNL A   1      34.035  21.879  26.151  1.00  0.00     0.164 HD
BRANCH  14  17
ATOM     17  C   UNL A   1      32.004  20.539  23.885  1.00  0.00     0.244 C 
BRANCH  17  18
ATOM     18  N   UNL A   1      32.352  19.133  23.801  1.00  0.00    -0.260 N 
ATOM     19  C   UNL A   1      33.563  16.502  25.767  1.00  0.00     0.069 C 
ATOM     20  C   UNL A   1      33.018  17.316  24.652  1.00  0.00     0.060 A 
ATOM     21  C   UNL A   1      33.136  17.180  23.252  1.00  0.00     0.048 A 
ATOM     22  N   UNL A   1      32.307  18.409  24.936  1.00  0.00    -0.178 NA
ATOM     23  C   UNL A   1      32.551  18.320  22.722  1.00  0.00     0.036 A 
ATOM     24  C   UNL A   1      32.185  18.715  21.349  1.00  0.00     0.066 C 
ENDBRANCH  17  18
ENDBRANCH  14  17
ENDBRANCH   9  13
ENDBRANCH   5   8
ENDBRANCH   3   4
ENDBRANCH   2   3
ENDBRANCH   1   2
BRANCH   1  25
ATOM     25  C   UNL A   1      42.261  19.123  27.655  1.00  0.00     0.002 C 
BRANCH  25  26
ATOM     26  C   UNL A   1      42.796  18.434  26.391  1.00  0.00     0.021 C 
BRANCH  26  27
ATOM     27  C   UNL A   1      43.230  19.404  25.303  1.00  0.00     0.116 C 
BRANCH  27  28
ATOM     28  N   UNL A   1      44.684  19.402  25.117  1.00  0.00    -0.352 N 
ATOM     29  C   UNL A   1      45.499  20.464  24.795  1.00  0.00     0.251 C 
ATOM     30  H   UNL A   1      45.134  18.535  25.239  1.00  0.00     0.163 HD
ATOM     31  O   UNL A   1      46.610  20.289  24.278  1.00  0.00    -0.269 OA
BRANCH  29  32
ATOM     32  C   UNL A   1      45.073  21.813  25.185  1.00  0.00     0.039 A 
ATOM     33  C   UNL A   1      44.049  22.540  24.574  1.00  0.00     0.014 A 
ATOM     34  C   UNL A   1      45.789  22.376  26.226  1.00  0.00     0.014 A 
ATOM     35  C   UNL A   1      43.817  23.852  25.014  1.00  0.00     0.010 A 
ATOM     36  C   UNL A   1      45.228  23.422  26.879  1.00  0.00     0.010 A 
ATOM     37  C   UNL A   1      44.491  24.324  26.154  1.00  0.00    -0.014 A 
BRANCH  37  38
ATOM     38  C   UNL A   1      44.167  25.535  26.903  1.00  0.00     0.031 A 
ATOM     39  C   UNL A   1      45.117  26.612  26.521  1.00  0.00     0.074 A 
ATOM     40  C   UNL A   1      43.053  25.681  27.680  1.00  0.00     0.049 A 
ATOM     41  N   UNL A   1      46.181  26.907  27.189  1.00  0.00    -0.248 NA
ATOM     42  C   UNL A   1      45.120  27.193  25.162  1.00  0.00     0.031 C 
ATOM     43  C   UNL A   1      41.981  24.719  27.987  1.00  0.00     0.029 A 
ATOM     44  N   UNL A   1      42.637  26.783  28.399  1.00  0.00    -0.354 N 
ATOM     45  C   UNL A   1      46.777  27.954  26.504  1.00  0.00     0.074 A 
ATOM     46  C   UNL A   1      46.266  27.883  25.167  1.00  0.00     0.031 C 
ATOM     47  C   UNL A   1      40.946  25.338  28.617  1.00  0.00     0.029 A 
ATOM     48  C   UNL A   1      41.309  26.716  28.889  1.00  0.00     0.049 A 
ATOM     49  H   UNL A   1      43.221  27.560  28.560  1.00  0.00     0.167 HD
ATOM     50  C   UNL A   1      47.319  28.975  27.223  1.00  0.00     0.037 A 
ATOM     51  C   UNL A   1      40.621  27.698  29.559  1.00  0.00     0.037 A 
ATOM     52  C   UNL A   1      47.448  28.569  28.608  1.00  0.00     0.049 A 
ATOM     53  C   UNL A   1      41.647  28.611  30.136  1.00  0.00     0.074 A 
ATOM     54  C   UNL A   1      48.122  27.561  29.268  1.00  0.00     0.029 A 
ATOM     55  N   UNL A   1      46.410  28.943  29.424  1.00  0.00    -0.354 N 
ATOM     56  N   UNL A   1      42.457  28.228  31.085  1.00  0.00    -0.248 NA
ATOM     57  C   UNL A   1      42.142  29.655  29.251  1.00  0.00     0.031 C 
ATOM     58  C   UNL A   1      47.205  27.082  30.254  1.00  0.00     0.029 A 
ATOM     59  C   UNL A   1      46.086  27.914  30.266  1.00  0.00     0.049 A 
ATOM     60  H   UNL A   1      45.964  29.821  29.407  1.00  0.00     0.167 HD
ATOM     61  C   UNL A   1      43.710  28.579  30.609  1.00  0.00     0.074 A 
ATOM     62  C   UNL A   1      43.448  29.472  29.472  1.00  0.00     0.031 C 
ATOM     63  C   UNL A   1      44.813  27.840  30.939  1.00  0.00     0.037 A 
BRANCH  50  64
ATOM     64  C   UNL A   1      47.238  30.439  26.844  1.00  0.00     0.064 A 
ATOM     65  C   UNL A   1      48.399  31.227  26.993  1.00  0.00     0.173 A 
ATOM     66  C   UNL A   1      46.039  31.161  26.663  1.00  0.00     0.173 A 
ATOM     67  F   UNL A   1      49.594  30.650  27.192  1.00  0.00    -0.203 F 
ATOM     68  C   UNL A   1      48.347  32.622  27.040  1.00  0.00     0.198 A 
ATOM     69  C   UNL A   1      45.998  32.555  26.663  1.00  0.00     0.198 A 
ATOM     70  F   UNL A   1      44.844  30.565  26.586  1.00  0.00    -0.203 F 
ATOM     71  F   UNL A   1      49.458  33.320  27.312  1.00  0.00    -0.200 F 
ATOM     72  C   UNL A   1      47.146  33.285  26.880  1.00  0.00     0.200 A 
ATOM     73  F   UNL A   1      44.818  33.178  26.532  1.00  0.00    -0.200 F 
ATOM     74  F   UNL A   1      47.084  34.619  26.979  1.00  0.00    -0.200 F 
ENDBRANCH  50  64
BRANCH  51  75
ATOM     75  C   UNL A   1      39.204  28.168  29.386  1.00  0.00     0.064 A 
ATOM     76  C   UNL A   1      38.330  28.377  30.483  1.00  0.00     0.173 A 
ATOM     77  C   UNL A   1      38.786  28.729  28.169  1.00  0.00     0.173 A 
ATOM     78  F   UNL A   1      38.644  27.911  31.702  1.00  0.00    -0.203 F 
ATOM     79  C   UNL A   1      37.151  29.138  30.366  1.00  0.00     0.198 A 
ATOM     80  C   UNL A   1      37.621  29.498  28.057  1.00  0.00     0.198 A 
ATOM     81  F   UNL A   1      39.550  28.623  27.073  1.00  0.00    -0.203 F 
ATOM     82  F   UNL A   1      36.378  29.360  31.440  1.00  0.00    -0.200 F 
ATOM     83  C   UNL A   1      36.812  29.716  29.157  1.00  0.00     0.200 A 
ATOM     84  F   UNL A   1      37.324  30.078  26.887  1.00  0.00    -0.200 F 
ATOM     85  F   UNL A   1      35.735  30.510  29.056  1.00  0.00    -0.200 F 
ENDBRANCH  51  75
BRANCH  63  86
ATOM     86  C   UNL A   1      44.659  26.801  32.017  1.00  0.00     0.064 A 
ATOM     87  C   UNL A   1      44.399  25.435  31.799  1.00  0.00     0.173 A 
ATOM     88  C   UNL A   1      44.883  27.202  33.339  1.00  0.00     0.173 A 
ATOM     89  F   UNL A   1      44.309  24.941  30.559  1.00  0.00    -0.203 F 
ATOM     90  C   UNL A   1      44.278  24.538  32.862  1.00  0.00     0.198 A 
ATOM     91  C   UNL A   1      44.802  26.301  34.395  1.00  0.00     0.198 A 
ATOM     92  F   UNL A   1      45.220  28.473  33.602  1.00  0.00    -0.203 F 
ATOM     93  F   UNL A   1      43.999  23.246  32.629  1.00  0.00    -0.200 F 
ATOM     94  C   UNL A   1      44.472  24.976  34.161  1.00  0.00     0.200 A 
ATOM     95  F   UNL A   1      45.062  26.719  35.640  1.00  0.00    -0.200 F 
ATOM     96  F   UNL A   1      44.363  24.120  35.187  1.00  0.00    -0.200 F 
ENDBRANCH  63  86
ENDBRANCH  37  38
ENDBRANCH  29  32
ENDBRANCH  27  28
ENDBRANCH  26  27
ENDBRANCH  25  26
ENDBRANCH   1  25
TORSDOF 16
ENDMDL
MODEL 2
REMARK VINA RESULT:     -12.0      1.373      2.062
REMARK SMILES Cc1cc(C)n(CC(=O)N[C@H]2C=C[C@@H](C(=O)NCCCCCCNC(=O)c3ccc(-c4c5nc(c(-c6c(F)c(F)c(F)c(F)c6F)c6ccc([nH]6)c(-c6c(F)c(F)c(F)c(F)c6F)c6nc(c(-c7c(F)c(F)c(F)c(F)c7F)c7ccc4[nH]7)C=C6)C=C5)cc3)C2)n1
REMARK SMILES IDX 20 1 19 2 18 3 17 4 15 5 16 6 14 8 11 9 12 10 90 11 13 12
REMARK SMILES IDX 10 13 8 14 9 15 7 17 6 18 1 19 2 20 3 21 91 22 4 23 5 24
REMARK SMILES IDX 21 25 22 26 23 27 24 28 25 29 26 31 27 32 28 33 89 34 29 35
REMARK SMILES IDX 88 36 30 37 31 38 32 39 82 40 33 41 87 42 81 43 83 44 34 45
REMARK SMILES IDX 86 46 80 47 79 48 35 50 67 51 47 52 66 53 48 54 51 55 65 56
REMARK SMILES IDX 84 57 49 58 50 59 64 61 85 62 52 63 36 64 37 65 45 66 38 67
REMARK SMILES IDX 39 68 43 69 46 70 40 71 41 72 44 73 42 74 68 75 69 76 77 77
REMARK SMILES IDX 70 78 71 79 75 80 78 81 72 82 73 83 76 84 74 85 53 86 54 87
REMARK SMILES IDX 62 88 55 89 56 90 60 91 63 92 57 93 58 94 61 95 59 96
REMARK H PARENT 17 7 10 16 24 30 83 49 51 60
REMARK Flexibility Score: inf
ROOT
ATOM      1  C   UNL A   1      40.906  21.318  26.525  1.00  0.00     0.002 C 
ENDROOT
BRANCH   1   2
ATOM      2  C   UNL A   1      39.644  22.163  26.471  1.00  0.00     0.021 C 
BRANCH   2   3
ATOM      3  C   UNL A   1      38.529  21.755  25.487  1.00  0.00     0.116 C 
BRANCH   3   4
ATOM      4  N   UNL A   1      37.549  22.810  25.308  1.00  0.00    -0.356 N 
ATOM      5  C   UNL A   1      36.248  22.980  25.671  1.00  0.00     0.227 C 
ATOM      6  O   UNL A   1      35.760  24.080  25.363  1.00  0.00    -0.274 OA
ATOM      7  H   UNL A   1      37.909  23.580  24.810  1.00  0.00     0.163 HD
BRANCH   5   8
ATOM      8  C   UNL A   1      35.371  21.998  26.497  1.00  0.00     0.103 C 
ATOM      9  C   UNL A   1      33.010  21.846  27.250  1.00  0.00     0.106 C 
ATOM     10  C   UNL A   1      33.281  20.995  26.058  1.00  0.00    -0.006 C 
ATOM     11  C   UNL A   1      34.373  22.436  27.591  1.00  0.00     0.047 C 
ATOM     12  C   UNL A   1      34.566  21.040  25.683  1.00  0.00    -0.016 C 
BRANCH   9  13
ATOM     13  N   UNL A   1      31.851  22.719  27.076  1.00  0.00    -0.348 N 
ATOM     14  C   UNL A   1      31.595  23.923  26.484  1.00  0.00     0.242 C 
ATOM     15  O   UNL A   1      30.482  24.423  26.692  1.00  0.00    -0.273 OA
ATOM     16  H   UNL A   1      31.045  22.341  27.495  1.00  0.00     0.164 HD
BRANCH  14  17
ATOM     17  C   UNL A   1      32.506  24.536  25.469  1.00  0.00     0.244 C 
BRANCH  17  18
ATOM     18  N   UNL A   1      32.562  23.996  24.124  1.00  0.00    -0.260 N 
ATOM     19  C   UNL A   1      31.992  21.034  22.348  1.00  0.00     0.069 C 
ATOM     20  C   UNL A   1      32.300  22.438  22.720  1.00  0.00     0.060 A 
ATOM     21  C   UNL A   1      33.122  23.408  22.106  1.00  0.00     0.048 A 
ATOM     22  N   UNL A   1      31.776  22.940  23.840  1.00  0.00    -0.178 NA
ATOM     23  C   UNL A   1      33.147  24.478  22.987  1.00  0.00     0.036 A 
ATOM     24  C   UNL A   1      33.660  25.857  22.878  1.00  0.00     0.066 C 
ENDBRANCH  17  18
ENDBRANCH  14  17
ENDBRANCH   9  13
ENDBRANCH   5   8
ENDBRANCH   3   4
ENDBRANCH   2   3
ENDBRANCH   1   2
BRANCH   1  25
ATOM     25  C   UNL A   1      40.679  19.831  26.273  1.00  0.00     0.002 C 
BRANCH  25  26
ATOM     26  C   UNL A   1      41.895  19.061  25.733  1.00  0.00     0.021 C 
BRANCH  26  27
ATOM     27  C   UNL A   1      43.170  19.297  26.528  1.00  0.00     0.116 C 
BRANCH  27  28
ATOM     28  N   UNL A   1      44.355  19.318  25.665  1.00  0.00    -0.352 N 
ATOM     29  C   UNL A   1      44.802  20.344  24.864  1.00  0.00     0.251 C 
ATOM     30  H   UNL A   1      44.899  18.497  25.659  1.00  0.00     0.163 HD
ATOM     31  O   UNL A   1      45.549  20.129  23.900  1.00  0.00    -0.269 OA
BRANCH  29  32
ATOM     32  C   UNL A   1      44.469  21.721  25.244  1.00  0.00     0.039 A 
ATOM     33  C   UNL A   1      43.559  22.542  24.574  1.00  0.00     0.014 A 
ATOM     34  C   UNL A   1      45.156  22.209  26.342  1.00  0.00     0.014 A 
ATOM     35  C   UNL A   1      43.411  23.865  25.018  1.00  0.00     0.010 A 
ATOM     36  C   UNL A   1      44.643  23.294  26.970  1.00  0.00     0.010 A 
ATOM     37  C   UNL A   1      44.041  24.264  26.209  1.00  0.00    -0.014 A 
BRANCH  37  38
ATOM     38  C   UNL A   1      43.772  25.492  26.953  1.00  0.00     0.031 A 
ATOM     39  C   UNL A   1      44.744  26.536  26.536  1.00  0.00     0.074 A 
ATOM     40  C   UNL A   1      42.683  25.679  27.756  1.00  0.00     0.049 A 
ATOM     41  N   UNL A   1      45.832  26.807  27.174  1.00  0.00    -0.248 NA
ATOM     42  C   UNL A   1      44.730  27.103  25.172  1.00  0.00     0.031 C 
ATOM     43  C   UNL A   1      41.590  24.752  28.099  1.00  0.00     0.029 A 
ATOM     44  N   UNL A   1      42.318  26.800  28.473  1.00  0.00    -0.354 N 
ATOM     45  C   UNL A   1      46.442  27.828  26.464  1.00  0.00     0.074 A 
ATOM     46  C   UNL A   1      45.896  27.759  25.140  1.00  0.00     0.031 C 
ATOM     47  C   UNL A   1      40.591  25.408  28.748  1.00  0.00     0.029 A 
ATOM     48  C   UNL A   1      41.001  26.778  28.996  1.00  0.00     0.049 A 
ATOM     49  H   UNL A   1      42.928  27.561  28.611  1.00  0.00     0.167 HD
ATOM     50  C   UNL A   1      47.032  28.839  27.158  1.00  0.00     0.037 A 
ATOM     51  C   UNL A   1      40.359  27.787  29.671  1.00  0.00     0.037 A 
ATOM     52  C   UNL A   1      47.183  28.444  28.543  1.00  0.00     0.049 A 
ATOM     53  C   UNL A   1      41.425  28.674  30.214  1.00  0.00     0.074 A 
ATOM     54  C   UNL A   1      47.843  27.423  29.198  1.00  0.00     0.029 A 
ATOM     55  N   UNL A   1      46.177  28.857  29.381  1.00  0.00    -0.354 N 
ATOM     56  N   UNL A   1      42.248  28.277  31.146  1.00  0.00    -0.248 NA
ATOM     57  C   UNL A   1      41.929  29.694  29.305  1.00  0.00     0.031 C 
ATOM     58  C   UNL A   1      46.937  26.982  30.211  1.00  0.00     0.029 A 
ATOM     59  C   UNL A   1      45.844  27.846  30.242  1.00  0.00     0.049 A 
ATOM     60  H   UNL A   1      45.757  29.748  29.366  1.00  0.00     0.167 HD
ATOM     61  C   UNL A   1      43.498  28.585  30.636  1.00  0.00     0.074 A 
ATOM     62  C   UNL A   1      43.234  29.474  29.496  1.00  0.00     0.031 C 
ATOM     63  C   UNL A   1      44.587  27.818  30.947  1.00  0.00     0.037 A 
BRANCH  50  64
ATOM     64  C   UNL A   1      46.984  30.301  26.765  1.00  0.00     0.064 A 
ATOM     65  C   UNL A   1      48.169  31.059  26.888  1.00  0.00     0.173 A 
ATOM     66  C   UNL A   1      45.802  31.054  26.594  1.00  0.00     0.173 A 
ATOM     67  F   UNL A   1      49.350  30.451  27.076  1.00  0.00    -0.203 F 
ATOM     68  C   UNL A   1      48.155  32.455  26.922  1.00  0.00     0.198 A 
ATOM     69  C   UNL A   1      45.799  32.448  26.581  1.00  0.00     0.198 A 
ATOM     70  F   UNL A   1      44.591  30.490  26.542  1.00  0.00    -0.203 F 
ATOM     71  F   UNL A   1      49.288  33.126  27.170  1.00  0.00    -0.200 F 
ATOM     72  C   UNL A   1      46.970  33.149  26.773  1.00  0.00     0.200 A 
ATOM     73  F   UNL A   1      44.635  33.102  26.461  1.00  0.00    -0.200 F 
ATOM     74  F   UNL A   1      46.945  34.485  26.860  1.00  0.00    -0.200 F 
ENDBRANCH  50  64
BRANCH  51  75
ATOM     75  C   UNL A   1      38.952  28.297  29.529  1.00  0.00     0.064 A 
ATOM     76  C   UNL A   1      38.125  28.580  30.645  1.00  0.00     0.173 A 
ATOM     77  C   UNL A   1      38.509  28.821  28.304  1.00  0.00     0.173 A 
ATOM     78  F   UNL A   1      38.469  28.153  31.871  1.00  0.00    -0.203 F 
ATOM     79  C   UNL A   1      36.969  29.374  30.538  1.00  0.00     0.198 A 
ATOM     80  C   UNL A   1      37.366  29.624  28.201  1.00  0.00     0.198 A 
ATOM     81  F   UNL A   1      39.229  28.645  27.188  1.00  0.00    -0.203 F 
ATOM     82  F   UNL A   1      36.242  29.666  31.628  1.00  0.00    -0.200 F 
ATOM     83  C   UNL A   1      36.605  29.914  29.318  1.00  0.00     0.200 A 
ATOM     84  F   UNL A   1      37.047  30.166  27.018  1.00  0.00    -0.200 F 
ATOM     85  F   UNL A   1      35.552  30.740  29.221  1.00  0.00    -0.200 F 
ENDBRANCH  51  75
BRANCH  63  86
ATOM     86  C   UNL A   1      44.429  26.794  32.039  1.00  0.00     0.064 A 
ATOM     87  C   UNL A   1      44.206  25.420  31.840  1.00  0.00     0.173 A 
ATOM     88  C   UNL A   1      44.610  27.225  33.358  1.00  0.00     0.173 A 
ATOM     89  F   UNL A   1      44.158  24.901  30.607  1.00  0.00    -0.203 F 
ATOM     90  C   UNL A   1      44.078  24.539  32.916  1.00  0.00     0.198 A 
ATOM     91  C   UNL A   1      44.522  26.340  34.429  1.00  0.00     0.198 A 
ATOM     92  F   UNL A   1      44.911  28.508  33.607  1.00  0.00    -0.203 F 
ATOM     93  F   UNL A   1      43.834  23.237  32.700  1.00  0.00    -0.200 F 
ATOM     94  C   UNL A   1      44.229  25.005  34.211  1.00  0.00     0.200 A 
ATOM     95  F   UNL A   1      44.741  26.786  35.672  1.00  0.00    -0.200 F 
ATOM     96  F   UNL A   1      44.113  24.165  35.249  1.00  0.00    -0.200 F 
ENDBRANCH  63  86
ENDBRANCH  37  38
ENDBRANCH  29  32
ENDBRANCH  27  28
ENDBRANCH  26  27
ENDBRANCH  25  26
ENDBRANCH   1  25
TORSDOF 16
ENDMDL
MODEL 3
REMARK VINA RESULT:     -12.0      2.170      3.369
REMARK SMILES Cc1cc(C)n(CC(=O)N[C@H]2C=C[C@@H](C(=O)NCCCCCCNC(=O)c3ccc(-c4c5nc(c(-c6c(F)c(F)c(F)c(F)c6F)c6ccc([nH]6)c(-c6c(F)c(F)c(F)c(F)c6F)c6nc(c(-c7c(F)c(F)c(F)c(F)c7F)c7ccc4[nH]7)C=C6)C=C5)cc3)C2)n1
REMARK SMILES IDX 20 1 19 2 18 3 17 4 15 5 16 6 14 8 11 9 12 10 90 11 13 12
REMARK SMILES IDX 10 13 8 14 9 15 7 17 6 18 1 19 2 20 3 21 91 22 4 23 5 24
REMARK SMILES IDX 21 25 22 26 23 27 24 28 25 29 26 31 27 32 28 33 89 34 29 35
REMARK SMILES IDX 88 36 30 37 31 38 32 39 82 40 33 41 87 42 81 43 83 44 34 45
REMARK SMILES IDX 86 46 80 47 79 48 35 50 67 51 47 52 66 53 48 54 51 55 65 56
REMARK SMILES IDX 84 57 49 58 50 59 64 61 85 62 52 63 36 64 37 65 45 66 38 67
REMARK SMILES IDX 39 68 43 69 46 70 40 71 41 72 44 73 42 74 68 75 69 76 77 77
REMARK SMILES IDX 70 78 71 79 75 80 78 81 72 82 73 83 76 84 74 85 53 86 54 87
REMARK SMILES IDX 62 88 55 89 56 90 60 91 63 92 57 93 58 94 61 95 59 96
REMARK H PARENT 17 7 10 16 24 30 83 49 51 60
REMARK Flexibility Score: inf
ROOT
ATOM      1  C   UNL A   1      41.197  21.353  26.232  1.00  0.00     0.002 C 
ENDROOT
BRANCH   1   2
ATOM      2  C   UNL A   1      39.710  21.203  26.506  1.00  0.00     0.021 C 
BRANCH   2   3
ATOM      3  C   UNL A   1      38.733  22.174  25.813  1.00  0.00     0.116 C 
BRANCH   3   4
ATOM      4  N   UNL A   1      37.513  21.510  25.394  1.00  0.00    -0.356 N 
ATOM      5  C   UNL A   1      36.190  21.833  25.419  1.00  0.00     0.227 C 
ATOM      6  O   UNL A   1      35.438  20.990  24.903  1.00  0.00    -0.274 OA
ATOM      7  H   UNL A   1      37.682  20.623  24.999  1.00  0.00     0.163 HD
BRANCH   5   8
ATOM      8  C   UNL A   1      35.560  23.159  25.928  1.00  0.00     0.103 C 
ATOM      9  C   UNL A   1      33.603  24.584  25.375  1.00  0.00     0.106 C 
ATOM     10  C   UNL A   1      33.358  23.720  26.564  1.00  0.00    -0.006 C 
ATOM     11  C   UNL A   1      35.051  24.288  25.005  1.00  0.00     0.047 C 
ATOM     12  C   UNL A   1      34.432  22.988  26.891  1.00  0.00    -0.016 C 
BRANCH   9  13
ATOM     13  N   UNL A   1      32.548  24.479  24.368  1.00  0.00    -0.348 N 
ATOM     14  C   UNL A   1      31.904  25.328  23.513  1.00  0.00     0.242 C 
ATOM     15  O   UNL A   1      30.926  24.874  22.907  1.00  0.00    -0.273 OA
ATOM     16  H   UNL A   1      32.214  23.558  24.286  1.00  0.00     0.164 HD
BRANCH  14  17
ATOM     17  C   UNL A   1      32.444  26.674  23.149  1.00  0.00     0.244 C 
BRANCH  17  18
ATOM     18  N   UNL A   1      32.404  27.757  24.113  1.00  0.00    -0.260 N 
ATOM     19  C   UNL A   1      34.056  28.930  26.968  1.00  0.00     0.069 C 
ATOM     20  C   UNL A   1      33.146  28.787  25.803  1.00  0.00     0.060 A 
ATOM     21  C   UNL A   1      31.835  29.260  25.579  1.00  0.00     0.048 A 
ATOM     22  N   UNL A   1      33.548  28.068  24.753  1.00  0.00    -0.178 NA
ATOM     23  C   UNL A   1      31.438  28.684  24.382  1.00  0.00     0.036 A 
ATOM     24  C   UNL A   1      30.273  28.899  23.503  1.00  0.00     0.066 C 
ENDBRANCH  17  18
ENDBRANCH  14  17
ENDBRANCH   9  13
ENDBRANCH   5   8
ENDBRANCH   3   4
ENDBRANCH   2   3
ENDBRANCH   1   2
BRANCH   1  25
ATOM     25  C   UNL A   1      42.098  20.673  27.257  1.00  0.00     0.002 C 
BRANCH  25  26
ATOM     26  C   UNL A   1      42.679  19.317  26.828  1.00  0.00     0.021 C 
BRANCH  26  27
ATOM     27  C   UNL A   1      42.945  19.210  25.335  1.00  0.00     0.116 C 
BRANCH  27  28
ATOM     28  N   UNL A   1      44.378  19.122  25.040  1.00  0.00    -0.352 N 
ATOM     29  C   UNL A   1      45.226  20.132  24.643  1.00  0.00     0.251 C 
ATOM     30  H   UNL A   1      44.785  18.231  25.139  1.00  0.00     0.163 HD
ATOM     31  O   UNL A   1      46.282  19.887  24.045  1.00  0.00    -0.269 OA
BRANCH  29  32
ATOM     32  C   UNL A   1      44.909  21.506  25.046  1.00  0.00     0.039 A 
ATOM     33  C   UNL A   1      44.063  22.373  24.351  1.00  0.00     0.014 A 
ATOM     34  C   UNL A   1      45.544  21.941  26.196  1.00  0.00     0.014 A 
ATOM     35  C   UNL A   1      43.926  23.686  24.827  1.00  0.00     0.010 A 
ATOM     36  C   UNL A   1      45.026  23.022  26.828  1.00  0.00     0.010 A 
ATOM     37  C   UNL A   1      44.496  24.031  26.064  1.00  0.00    -0.014 A 
BRANCH  37  38
ATOM     38  C   UNL A   1      44.219  25.244  26.829  1.00  0.00     0.031 A 
ATOM     39  C   UNL A   1      45.210  26.288  26.463  1.00  0.00     0.074 A 
ATOM     40  C   UNL A   1      43.110  25.422  27.607  1.00  0.00     0.049 A 
ATOM     41  N   UNL A   1      46.283  26.533  27.136  1.00  0.00    -0.248 NA
ATOM     42  C   UNL A   1      45.238  26.886  25.112  1.00  0.00     0.031 C 
ATOM     43  C   UNL A   1      42.000  24.498  27.899  1.00  0.00     0.029 A 
ATOM     44  N   UNL A   1      42.735  26.529  28.340  1.00  0.00    -0.354 N 
ATOM     45  C   UNL A   1      46.921  27.565  26.466  1.00  0.00     0.074 A 
ATOM     46  C   UNL A   1      46.410  27.532  25.127  1.00  0.00     0.031 C 
ATOM     47  C   UNL A   1      40.990  25.148  28.537  1.00  0.00     0.029 A 
ATOM     48  C   UNL A   1      41.405  26.508  28.827  1.00  0.00     0.049 A 
ATOM     49  H   UNL A   1      43.348  27.281  28.513  1.00  0.00     0.167 HD
ATOM     50  C   UNL A   1      47.501  28.554  27.199  1.00  0.00     0.037 A 
ATOM     51  C   UNL A   1      40.754  27.507  29.510  1.00  0.00     0.037 A 
ATOM     52  C   UNL A   1      47.611  28.125  28.579  1.00  0.00     0.049 A 
ATOM     53  C   UNL A   1      41.814  28.371  30.101  1.00  0.00     0.074 A 
ATOM     54  C   UNL A   1      48.244  27.083  29.226  1.00  0.00     0.029 A 
ATOM     55  N   UNL A   1      46.587  28.528  29.399  1.00  0.00    -0.354 N 
ATOM     56  N   UNL A   1      42.607  27.944  31.045  1.00  0.00    -0.248 NA
ATOM     57  C   UNL A   1      42.351  29.407  29.230  1.00  0.00     0.031 C 
ATOM     58  C   UNL A   1      47.308  26.627  30.204  1.00  0.00     0.029 A 
ATOM     59  C   UNL A   1      46.222  27.501  30.227  1.00  0.00     0.049 A 
ATOM     60  H   UNL A   1      46.175  29.423  29.394  1.00  0.00     0.167 HD
ATOM     61  C   UNL A   1      43.873  28.253  30.576  1.00  0.00     0.074 A 
ATOM     62  C   UNL A   1      43.648  29.171  29.450  1.00  0.00     0.031 C 
ATOM     63  C   UNL A   1      44.946  27.468  30.897  1.00  0.00     0.037 A 
BRANCH  50  64
ATOM     64  C   UNL A   1      47.477  30.025  26.841  1.00  0.00     0.064 A 
ATOM     65  C   UNL A   1      48.662  30.771  27.021  1.00  0.00     0.173 A 
ATOM     66  C   UNL A   1      46.307  30.791  26.648  1.00  0.00     0.173 A 
ATOM     67  F   UNL A   1      49.832  30.149  27.234  1.00  0.00    -0.203 F 
ATOM     68  C   UNL A   1      48.657  32.166  27.087  1.00  0.00     0.198 A 
ATOM     69  C   UNL A   1      46.314  32.185  26.668  1.00  0.00     0.198 A 
ATOM     70  F   UNL A   1      45.094  30.238  26.542  1.00  0.00    -0.203 F 
ATOM     71  F   UNL A   1      49.786  32.821  27.389  1.00  0.00    -0.200 F 
ATOM     72  C   UNL A   1      47.482  32.872  26.916  1.00  0.00     0.200 A 
ATOM     73  F   UNL A   1      45.159  32.851  26.525  1.00  0.00    -0.200 F 
ATOM     74  F   UNL A   1      47.464  34.206  27.033  1.00  0.00    -0.200 F 
ENDBRANCH  50  64
BRANCH  51  75
ATOM     75  C   UNL A   1      39.356  28.033  29.342  1.00  0.00     0.064 A 
ATOM     76  C   UNL A   1      38.482  28.242  30.438  1.00  0.00     0.173 A 
ATOM     77  C   UNL A   1      38.969  28.644  28.139  1.00  0.00     0.173 A 
ATOM     78  F   UNL A   1      38.770  27.730  31.645  1.00  0.00    -0.203 F 
ATOM     79  C   UNL A   1      37.334  29.049  30.336  1.00  0.00     0.198 A 
ATOM     80  C   UNL A   1      37.834  29.459  28.043  1.00  0.00     0.198 A 
ATOM     81  F   UNL A   1      39.737  28.543  27.046  1.00  0.00    -0.203 F 
ATOM     82  F   UNL A   1      36.560  29.268  31.412  1.00  0.00    -0.200 F 
ATOM     83  C   UNL A   1      37.025  29.674  29.143  1.00  0.00     0.200 A 
ATOM     84  F   UNL A   1      37.567  30.084  26.888  1.00  0.00    -0.200 F 
ATOM     85  F   UNL A   1      35.979  30.510  29.058  1.00  0.00    -0.200 F 
ENDBRANCH  51  75
BRANCH  63  86
ATOM     86  C   UNL A   1      44.751  26.421  31.961  1.00  0.00     0.064 A 
ATOM     87  C   UNL A   1      44.380  25.083  31.727  1.00  0.00     0.173 A 
ATOM     88  C   UNL A   1      45.048  26.777  33.281  1.00  0.00     0.173 A 
ATOM     89  F   UNL A   1      44.211  24.623  30.482  1.00  0.00    -0.203 F 
ATOM     90  C   UNL A   1      44.228  24.176  32.777  1.00  0.00     0.198 A 
ATOM     91  C   UNL A   1      44.935  25.862  34.322  1.00  0.00     0.198 A 
ATOM     92  F   UNL A   1      45.489  28.013  33.555  1.00  0.00    -0.203 F 
ATOM     93  F   UNL A   1      43.844  22.914  32.531  1.00  0.00    -0.200 F 
ATOM     94  C   UNL A   1      44.498  24.571  34.076  1.00  0.00     0.200 A 
ATOM     95  F   UNL A   1      45.268  26.233  35.565  1.00  0.00    -0.200 F 
ATOM     96  F   UNL A   1      44.359  23.705  35.089  1.00  0.00    -0.200 F 
ENDBRANCH  63  86
ENDBRANCH  37  38
ENDBRANCH  29  32
ENDBRANCH  27  28
ENDBRANCH  26  27
ENDBRANCH  25  26
ENDBRANCH   1  25
TORSDOF 16
ENDMDL
