MODEL 1
REMARK VINA RESULT:     -10.7      0.000      0.000
REMARK SMILES CC[C@@H](C)[C@@H](C)Nc1cccc(F)c1C(=O)NCCCCCCNC(=O)c1ccc(-c2c3nc(c(-c4c(F)c(F)c(F)c(F)c4F)c4ccc([nH]4)c(-c4c(F)c(F)c(F)c(F)c4F)c4nc(c(-c5c(F)c(F)c(F)c(F)c5F)c5ccc2[nH]5)C=C4)C=C3)cc1
REMARK SMILES IDX 19 1 18 2 17 3 15 4 16 5 14 7 8 8 9 9 10 10 12 11 11 12
REMARK SMILES IDX 13 13 7 14 5 16 6 17 3 18 4 19 2 20 1 21 20 22 21 23 22 24
REMARK SMILES IDX 23 25 24 26 25 27 26 29 27 30 28 31 89 32 29 33 88 34 30 35
REMARK SMILES IDX 31 36 32 37 82 38 33 39 87 40 81 41 83 42 34 43 86 44 80 45
REMARK SMILES IDX 79 46 35 48 67 49 47 50 66 51 48 52 51 53 65 54 84 55 49 56
REMARK SMILES IDX 50 57 64 59 85 60 52 61 36 62 37 63 45 64 38 65 39 66 43 67
REMARK SMILES IDX 46 68 40 69 41 70 44 71 42 72 68 73 69 74 77 75 70 76 71 77
REMARK SMILES IDX 75 78 78 79 72 80 73 81 76 82 74 83 53 84 54 85 62 86 55 87
REMARK SMILES IDX 56 88 60 89 63 90 57 91 58 92 61 93 59 94
REMARK H PARENT 17 6 7 15 24 28 83 47 51 58
REMARK Flexibility Score: inf
ROOT
ATOM      1  C   UNL A   1      33.650  31.671  27.715  1.00  0.00     0.021 C 
ENDROOT
BRANCH   1   2
ATOM      2  C   UNL A   1      33.790  30.319  27.023  1.00  0.00     0.116 C 
BRANCH   2   3
ATOM      3  N   UNL A   1      32.963  29.299  27.627  1.00  0.00    -0.352 N 
ATOM      4  C   UNL A   1      32.048  28.415  27.112  1.00  0.00     0.256 C 
ATOM      5  O   UNL A   1      31.374  27.828  27.964  1.00  0.00    -0.269 OA
ATOM      6  H   UNL A   1      33.078  29.223  28.601  1.00  0.00     0.163 HD
BRANCH   4   7
ATOM      7  C   UNL A   1      31.785  28.192  25.648  1.00  0.00     0.098 A 
ATOM      8  C   UNL A   1      32.210  26.979  25.039  1.00  0.00     0.050 A 
ATOM      9  C   UNL A   1      31.799  26.695  23.720  1.00  0.00     0.027 A 
ATOM     10  C   UNL A   1      31.056  27.604  22.974  1.00  0.00     0.005 A 
ATOM     11  C   UNL A   1      31.178  29.144  24.823  1.00  0.00     0.138 A 
ATOM     12  C   UNL A   1      30.783  28.849  23.515  1.00  0.00     0.040 A 
ATOM     13  F   UNL A   1      31.016  30.417  25.211  1.00  0.00    -0.206 F 
BRANCH   8  14
ATOM     14  N   UNL A   1      33.108  26.104  25.668  1.00  0.00    -0.382 N 
ATOM     15  H   UNL A   1      33.647  26.417  26.430  1.00  0.00     0.160 HD
BRANCH  14  16
ATOM     16  C   UNL A   1      33.243  24.720  25.189  1.00  0.00     0.079 C 
ATOM     17  C   UNL A   1      32.887  23.802  26.363  1.00  0.00     0.031 C 
BRANCH  16  18
ATOM     18  C   UNL A   1      34.684  24.467  24.634  1.00  0.00     0.008 C 
ATOM     19  C   UNL A   1      34.682  23.398  23.528  1.00  0.00     0.010 C 
BRANCH  18  20
ATOM     20  C   UNL A   1      35.658  24.037  25.758  1.00  0.00     0.002 C 
ATOM     21  C   UNL A   1      37.064  23.705  25.275  1.00  0.00     0.004 C 
ENDBRANCH  18  20
ENDBRANCH  16  18
ENDBRANCH  14  16
ENDBRANCH   8  14
ENDBRANCH   4   7
ENDBRANCH   2   3
ENDBRANCH   1   2
BRANCH   1  22
ATOM     22  C   UNL A   1      34.899  32.210  28.418  1.00  0.00     0.002 C 
BRANCH  22  23
ATOM     23  C   UNL A   1      34.822  33.648  28.934  1.00  0.00     0.002 C 
BRANCH  23  24
ATOM     24  C   UNL A   1      33.449  34.316  28.858  1.00  0.00     0.021 C 
BRANCH  24  25
ATOM     25  C   UNL A   1      33.421  35.801  29.196  1.00  0.00     0.116 C 
BRANCH  25  26
ATOM     26  N   UNL A   1      32.525  36.111  30.295  1.00  0.00    -0.352 N 
ATOM     27  C   UNL A   1      32.594  35.725  31.611  1.00  0.00     0.251 C 
ATOM     28  H   UNL A   1      31.755  36.681  30.063  1.00  0.00     0.163 HD
ATOM     29  O   UNL A   1      31.660  35.945  32.372  1.00  0.00    -0.269 OA
BRANCH  27  30
ATOM     30  C   UNL A   1      33.794  35.016  32.108  1.00  0.00     0.039 A 
ATOM     31  C   UNL A   1      33.661  33.701  32.559  1.00  0.00     0.014 A 
ATOM     32  C   UNL A   1      35.042  35.645  32.138  1.00  0.00     0.014 A 
ATOM     33  C   UNL A   1      34.790  32.997  32.985  1.00  0.00     0.010 A 
ATOM     34  C   UNL A   1      36.177  34.918  32.489  1.00  0.00     0.010 A 
ATOM     35  C   UNL A   1      36.062  33.588  32.921  1.00  0.00    -0.014 A 
BRANCH  35  36
ATOM     36  C   UNL A   1      37.283  32.837  33.313  1.00  0.00     0.031 A 
ATOM     37  C   UNL A   1      37.965  33.139  34.619  1.00  0.00     0.074 A 
ATOM     38  C   UNL A   1      37.803  31.920  32.473  1.00  0.00     0.049 A 
ATOM     39  N   UNL A   1      39.081  32.653  35.100  1.00  0.00    -0.248 NA
ATOM     40  C   UNL A   1      37.319  34.132  35.493  1.00  0.00     0.031 C 
ATOM     41  C   UNL A   1      37.245  31.554  31.171  1.00  0.00     0.029 A 
ATOM     42  N   UNL A   1      38.921  31.129  32.589  1.00  0.00    -0.354 N 
ATOM     43  C   UNL A   1      39.269  33.281  36.325  1.00  0.00     0.074 A 
ATOM     44  C   UNL A   1      38.187  34.226  36.489  1.00  0.00     0.031 C 
ATOM     45  C   UNL A   1      38.002  30.589  30.624  1.00  0.00     0.029 A 
ATOM     46  C   UNL A   1      39.125  30.301  31.511  1.00  0.00     0.049 A 
ATOM     47  H   UNL A   1      39.517  31.152  33.371  1.00  0.00     0.167 HD
ATOM     48  C   UNL A   1      40.240  33.064  37.242  1.00  0.00     0.037 A 
ATOM     49  C   UNL A   1      40.111  29.416  31.263  1.00  0.00     0.037 A 
ATOM     50  C   UNL A   1      41.301  32.105  37.085  1.00  0.00     0.049 A 
ATOM     51  C   UNL A   1      41.205  29.233  32.281  1.00  0.00     0.074 A 
ATOM     52  C   UNL A   1      42.318  31.797  37.973  1.00  0.00     0.029 A 
ATOM     53  N   UNL A   1      41.479  31.296  35.974  1.00  0.00    -0.354 N 
ATOM     54  N   UNL A   1      41.352  29.808  33.450  1.00  0.00    -0.248 NA
ATOM     55  C   UNL A   1      42.272  28.278  31.947  1.00  0.00     0.031 C 
ATOM     56  C   UNL A   1      43.139  30.835  37.380  1.00  0.00     0.029 A 
ATOM     57  C   UNL A   1      42.599  30.500  36.148  1.00  0.00     0.049 A 
ATOM     58  H   UNL A   1      40.896  31.287  35.180  1.00  0.00     0.167 HD
ATOM     59  C   UNL A   1      42.500  29.257  34.005  1.00  0.00     0.074 A 
ATOM     60  C   UNL A   1      43.009  28.297  33.050  1.00  0.00     0.031 C 
ATOM     61  C   UNL A   1      43.078  29.526  35.200  1.00  0.00     0.037 A 
BRANCH  48  62
ATOM     62  C   UNL A   1      40.196  33.852  38.518  1.00  0.00     0.064 A 
ATOM     63  C   UNL A   1      41.029  34.966  38.699  1.00  0.00     0.173 A 
ATOM     64  C   UNL A   1      39.406  33.439  39.602  1.00  0.00     0.173 A 
ATOM     65  F   UNL A   1      41.810  35.398  37.697  1.00  0.00    -0.203 F 
ATOM     66  C   UNL A   1      41.091  35.623  39.926  1.00  0.00     0.198 A 
ATOM     67  C   UNL A   1      39.447  34.116  40.817  1.00  0.00     0.198 A 
ATOM     68  F   UNL A   1      38.584  32.387  39.475  1.00  0.00    -0.203 F 
ATOM     69  F   UNL A   1      41.928  36.657  40.090  1.00  0.00    -0.200 F 
ATOM     70  C   UNL A   1      40.300  35.198  40.982  1.00  0.00     0.200 A 
ATOM     71  F   UNL A   1      38.666  33.718  41.830  1.00  0.00    -0.200 F 
ATOM     72  F   UNL A   1      40.361  35.829  42.163  1.00  0.00    -0.200 F 
ENDBRANCH  48  62
BRANCH  49  73
ATOM     73  C   UNL A   1      40.095  28.614  30.010  1.00  0.00     0.064 A 
ATOM     74  C   UNL A   1      39.478  27.356  29.950  1.00  0.00     0.173 A 
ATOM     75  C   UNL A   1      40.698  29.099  28.841  1.00  0.00     0.173 A 
ATOM     76  F   UNL A   1      38.888  26.843  31.039  1.00  0.00    -0.203 F 
ATOM     77  C   UNL A   1      39.478  26.609  28.773  1.00  0.00     0.198 A 
ATOM     78  C   UNL A   1      40.669  28.366  27.656  1.00  0.00     0.198 A 
ATOM     79  F   UNL A   1      41.283  30.306  28.840  1.00  0.00    -0.203 F 
ATOM     80  F   UNL A   1      38.906  25.397  28.752  1.00  0.00    -0.200 F 
ATOM     81  C   UNL A   1      40.064  27.119  27.625  1.00  0.00     0.200 A 
ATOM     82  F   UNL A   1      41.212  28.876  26.542  1.00  0.00    -0.200 F 
ATOM     83  F   UNL A   1      40.042  26.411  26.487  1.00  0.00    -0.200 F 
ENDBRANCH  49  73
BRANCH  61  84
ATOM     84  C   UNL A   1      44.303  28.745  35.582  1.00  0.00     0.064 A 
ATOM     85  C   UNL A   1      45.578  29.218  35.234  1.00  0.00     0.173 A 
ATOM     86  C   UNL A   1      44.212  27.489  36.197  1.00  0.00     0.173 A 
ATOM     87  F   UNL A   1      45.718  30.410  34.634  1.00  0.00    -0.203 F 
ATOM     88  C   UNL A   1      46.715  28.450  35.466  1.00  0.00     0.198 A 
ATOM     89  C   UNL A   1      45.355  26.738  36.458  1.00  0.00     0.198 A 
ATOM     90  F   UNL A   1      43.017  26.999  36.558  1.00  0.00    -0.203 F 
ATOM     91  F   UNL A   1      47.917  28.902  35.082  1.00  0.00    -0.200 F 
ATOM     92  C   UNL A   1      46.603  27.212  36.080  1.00  0.00     0.200 A 
ATOM     93  F   UNL A   1      45.248  25.552  37.072  1.00  0.00    -0.200 F 
ATOM     94  F   UNL A   1      47.698  26.475  36.308  1.00  0.00    -0.200 F 
ENDBRANCH  61  84
ENDBRANCH  35  36
ENDBRANCH  27  30
ENDBRANCH  25  26
ENDBRANCH  24  25
ENDBRANCH  23  24
ENDBRANCH  22  23
ENDBRANCH   1  22
TORSDOF 17
ENDMDL
MODEL 2
REMARK VINA RESULT:     -10.7      1.617      7.665
REMARK SMILES CC[C@@H](C)[C@@H](C)Nc1cccc(F)c1C(=O)NCCCCCCNC(=O)c1ccc(-c2c3nc(c(-c4c(F)c(F)c(F)c(F)c4F)c4ccc([nH]4)c(-c4c(F)c(F)c(F)c(F)c4F)c4nc(c(-c5c(F)c(F)c(F)c(F)c5F)c5ccc2[nH]5)C=C4)C=C3)cc1
REMARK SMILES IDX 19 1 18 2 17 3 15 4 16 5 14 7 8 8 9 9 10 10 12 11 11 12
REMARK SMILES IDX 13 13 7 14 5 16 6 17 3 18 4 19 2 20 1 21 20 22 21 23 22 24
REMARK SMILES IDX 23 25 24 26 25 27 26 29 27 30 28 31 89 32 29 33 88 34 30 35
REMARK SMILES IDX 31 36 32 37 82 38 33 39 87 40 81 41 83 42 34 43 86 44 80 45
REMARK SMILES IDX 79 46 35 48 67 49 47 50 66 51 48 52 51 53 65 54 84 55 49 56
REMARK SMILES IDX 50 57 64 59 85 60 52 61 36 62 37 63 45 64 38 65 39 66 43 67
REMARK SMILES IDX 46 68 40 69 41 70 44 71 42 72 68 73 69 74 77 75 70 76 71 77
REMARK SMILES IDX 75 78 78 79 72 80 73 81 76 82 74 83 53 84 54 85 62 86 55 87
REMARK SMILES IDX 56 88 60 89 63 90 57 91 58 92 61 93 59 94
REMARK H PARENT 17 6 7 15 24 28 83 47 51 58
REMARK Flexibility Score: inf
ROOT
ATOM      1  C   UNL A   1      32.634  28.534  26.976  1.00  0.00     0.021 C 
ENDROOT
BRANCH   1   2
ATOM      2  C   UNL A   1      33.917  28.105  26.270  1.00  0.00     0.116 C 
BRANCH   2   3
ATOM      3  N   UNL A   1      34.023  28.648  24.935  1.00  0.00    -0.352 N 
ATOM      4  C   UNL A   1      33.271  28.483  23.799  1.00  0.00     0.256 C 
ATOM      5  O   UNL A   1      33.787  28.945  22.776  1.00  0.00    -0.269 OA
ATOM      6  H   UNL A   1      34.787  29.257  24.817  1.00  0.00     0.163 HD
BRANCH   4   7
ATOM      7  C   UNL A   1      31.963  27.745  23.723  1.00  0.00     0.098 A 
ATOM      8  C   UNL A   1      31.952  26.329  23.847  1.00  0.00     0.050 A 
ATOM      9  C   UNL A   1      30.715  25.661  23.961  1.00  0.00     0.027 A 
ATOM     10  C   UNL A   1      29.506  26.343  23.878  1.00  0.00     0.005 A 
ATOM     11  C   UNL A   1      30.737  28.376  23.485  1.00  0.00     0.138 A 
ATOM     12  C   UNL A   1      29.520  27.699  23.595  1.00  0.00     0.040 A 
ATOM     13  F   UNL A   1      30.665  29.644  23.057  1.00  0.00    -0.206 F 
BRANCH   8  14
ATOM     14  N   UNL A   1      33.125  25.564  23.755  1.00  0.00    -0.382 N 
ATOM     15  H   UNL A   1      33.888  25.894  23.228  1.00  0.00     0.160 HD
BRANCH  14  16
ATOM     16  C   UNL A   1      33.214  24.269  24.448  1.00  0.00     0.079 C 
ATOM     17  C   UNL A   1      33.855  24.534  25.814  1.00  0.00     0.031 C 
BRANCH  16  18
ATOM     18  C   UNL A   1      34.017  23.238  23.587  1.00  0.00     0.008 C 
ATOM     19  C   UNL A   1      33.748  21.794  24.042  1.00  0.00     0.010 C 
BRANCH  18  20
ATOM     20  C   UNL A   1      35.540  23.516  23.643  1.00  0.00     0.002 C 
ATOM     21  C   UNL A   1      36.402  22.263  23.729  1.00  0.00     0.004 C 
ENDBRANCH  18  20
ENDBRANCH  16  18
ENDBRANCH  14  16
ENDBRANCH   8  14
ENDBRANCH   4   7
ENDBRANCH   2   3
ENDBRANCH   1   2
BRANCH   1  22
ATOM     22  C   UNL A   1      32.469  30.033  27.237  1.00  0.00     0.002 C 
BRANCH  22  23
ATOM     23  C   UNL A   1      31.405  30.756  26.407  1.00  0.00     0.002 C 
BRANCH  23  24
ATOM     24  C   UNL A   1      31.402  32.282  26.503  1.00  0.00     0.021 C 
BRANCH  24  25
ATOM     25  C   UNL A   1      32.605  32.898  27.205  1.00  0.00     0.116 C 
BRANCH  25  26
ATOM     26  N   UNL A   1      32.369  34.266  27.631  1.00  0.00    -0.352 N 
ATOM     27  C   UNL A   1      32.968  34.979  28.640  1.00  0.00     0.251 C 
ATOM     28  H   UNL A   1      31.680  34.752  27.123  1.00  0.00     0.163 HD
ATOM     29  O   UNL A   1      32.530  36.075  28.969  1.00  0.00    -0.269 OA
BRANCH  27  30
ATOM     30  C   UNL A   1      34.133  34.411  29.353  1.00  0.00     0.039 A 
ATOM     31  C   UNL A   1      33.918  33.692  30.531  1.00  0.00     0.014 A 
ATOM     32  C   UNL A   1      35.432  34.590  28.868  1.00  0.00     0.014 A 
ATOM     33  C   UNL A   1      34.999  33.105  31.193  1.00  0.00     0.010 A 
ATOM     34  C   UNL A   1      36.498  33.939  29.484  1.00  0.00     0.010 A 
ATOM     35  C   UNL A   1      36.294  33.194  30.656  1.00  0.00    -0.014 A 
BRANCH  35  36
ATOM     36  C   UNL A   1      37.449  32.527  31.310  1.00  0.00     0.031 A 
ATOM     37  C   UNL A   1      38.165  31.405  30.608  1.00  0.00     0.074 A 
ATOM     38  C   UNL A   1      37.821  32.896  32.551  1.00  0.00     0.049 A 
ATOM     39  N   UNL A   1      39.138  30.646  31.045  1.00  0.00    -0.248 NA
ATOM     40  C   UNL A   1      37.719  31.081  29.244  1.00  0.00     0.031 C 
ATOM     41  C   UNL A   1      37.192  33.955  33.342  1.00  0.00     0.029 A 
ATOM     42  N   UNL A   1      38.819  32.421  33.368  1.00  0.00    -0.354 N 
ATOM     43  C   UNL A   1      39.414  29.758  30.013  1.00  0.00     0.074 A 
ATOM     44  C   UNL A   1      38.471  30.030  28.952  1.00  0.00     0.031 C 
ATOM     45  C   UNL A   1      37.837  34.071  34.514  1.00  0.00     0.029 A 
ATOM     46  C   UNL A   1      38.893  33.065  34.580  1.00  0.00     0.049 A 
ATOM     47  H   UNL A   1      39.423  31.689  33.109  1.00  0.00     0.167 HD
ATOM     48  C   UNL A   1      40.389  28.821  29.946  1.00  0.00     0.037 A 
ATOM     49  C   UNL A   1      39.715  32.862  35.629  1.00  0.00     0.037 A 
ATOM     50  C   UNL A   1      41.342  28.570  30.995  1.00  0.00     0.049 A 
ATOM     51  C   UNL A   1      40.758  31.779  35.544  1.00  0.00     0.074 A 
ATOM     52  C   UNL A   1      42.382  27.657  31.008  1.00  0.00     0.029 A 
ATOM     53  N   UNL A   1      41.376  29.236  32.210  1.00  0.00    -0.354 N 
ATOM     54  N   UNL A   1      41.031  30.970  34.549  1.00  0.00    -0.248 NA
ATOM     55  C   UNL A   1      41.608  31.579  36.727  1.00  0.00     0.031 C 
ATOM     56  C   UNL A   1      43.018  27.737  32.249  1.00  0.00     0.029 A 
ATOM     57  C   UNL A   1      42.411  28.741  32.987  1.00  0.00     0.049 A 
ATOM     58  H   UNL A   1      40.758  29.953  32.480  1.00  0.00     0.167 HD
ATOM     59  C   UNL A   1      42.105  30.196  34.970  1.00  0.00     0.074 A 
ATOM     60  C   UNL A   1      42.440  30.635  36.308  1.00  0.00     0.031 C 
ATOM     61  C   UNL A   1      42.752  29.209  34.306  1.00  0.00     0.037 A 
BRANCH  48  62
ATOM     62  C   UNL A   1      40.505  28.009  28.690  1.00  0.00     0.064 A 
ATOM     63  C   UNL A   1      39.879  26.758  28.588  1.00  0.00     0.173 A 
ATOM     64  C   UNL A   1      41.324  28.423  27.629  1.00  0.00     0.173 A 
ATOM     65  F   UNL A   1      39.091  26.312  29.577  1.00  0.00    -0.203 F 
ATOM     66  C   UNL A   1      40.089  25.940  27.480  1.00  0.00     0.198 A 
ATOM     67  C   UNL A   1      41.507  27.616  26.509  1.00  0.00     0.198 A 
ATOM     68  F   UNL A   1      41.935  29.616  27.673  1.00  0.00    -0.203 F 
ATOM     69  F   UNL A   1      39.517  24.729  27.424  1.00  0.00    -0.200 F 
ATOM     70  C   UNL A   1      40.901  26.370  26.442  1.00  0.00     0.200 A 
ATOM     71  F   UNL A   1      42.275  28.043  25.497  1.00  0.00    -0.200 F 
ATOM     72  F   UNL A   1      41.104  25.583  25.377  1.00  0.00    -0.200 F 
ENDBRANCH  48  62
BRANCH  49  73
ATOM     73  C   UNL A   1      39.607  33.721  36.839  1.00  0.00     0.064 A 
ATOM     74  C   UNL A   1      40.335  34.913  36.963  1.00  0.00     0.173 A 
ATOM     75  C   UNL A   1      38.761  33.362  37.899  1.00  0.00     0.173 A 
ATOM     76  F   UNL A   1      41.160  35.303  35.981  1.00  0.00    -0.203 F 
ATOM     77  C   UNL A   1      40.232  35.704  38.106  1.00  0.00     0.198 A 
ATOM     78  C   UNL A   1      38.635  34.170  39.026  1.00  0.00     0.198 A 
ATOM     79  F   UNL A   1      38.027  32.242  37.819  1.00  0.00    -0.203 F 
ATOM     80  F   UNL A   1      40.962  36.824  38.210  1.00  0.00    -0.200 F 
ATOM     81  C   UNL A   1      39.375  35.338  39.132  1.00  0.00     0.200 A 
ATOM     82  F   UNL A   1      37.783  33.826  40.002  1.00  0.00    -0.200 F 
ATOM     83  F   UNL A   1      39.257  36.112  40.219  1.00  0.00    -0.200 F 
ENDBRANCH  49  73
BRANCH  61  84
ATOM     84  C   UNL A   1      43.925  28.558  34.980  1.00  0.00     0.064 A 
ATOM     85  C   UNL A   1      45.223  29.050  34.770  1.00  0.00     0.173 A 
ATOM     86  C   UNL A   1      43.781  27.393  35.746  1.00  0.00     0.173 A 
ATOM     87  F   UNL A   1      45.416  30.157  34.035  1.00  0.00    -0.203 F 
ATOM     88  C   UNL A   1      46.334  28.387  35.282  1.00  0.00     0.198 A 
ATOM     89  C   UNL A   1      44.892  26.750  36.285  1.00  0.00     0.198 A 
ATOM     90  F   UNL A   1      42.561  26.889  35.984  1.00  0.00    -0.203 F 
ATOM     91  F   UNL A   1      47.566  28.851  35.028  1.00  0.00    -0.200 F 
ATOM     92  C   UNL A   1      46.167  27.239  36.041  1.00  0.00     0.200 A 
ATOM     93  F   UNL A   1      44.729  25.654  37.038  1.00  0.00    -0.200 F 
ATOM     94  F   UNL A   1      47.236  26.603  36.539  1.00  0.00    -0.200 F 
ENDBRANCH  61  84
ENDBRANCH  35  36
ENDBRANCH  27  30
ENDBRANCH  25  26
ENDBRANCH  24  25
ENDBRANCH  23  24
ENDBRANCH  22  23
ENDBRANCH   1  22
TORSDOF 17
ENDMDL
MODEL 3
REMARK VINA RESULT:     -10.7      1.614      7.682
REMARK SMILES CC[C@@H](C)[C@@H](C)Nc1cccc(F)c1C(=O)NCCCCCCNC(=O)c1ccc(-c2c3nc(c(-c4c(F)c(F)c(F)c(F)c4F)c4ccc([nH]4)c(-c4c(F)c(F)c(F)c(F)c4F)c4nc(c(-c5c(F)c(F)c(F)c(F)c5F)c5ccc2[nH]5)C=C4)C=C3)cc1
REMARK SMILES IDX 19 1 18 2 17 3 15 4 16 5 14 7 8 8 9 9 10 10 12 11 11 12
REMARK SMILES IDX 13 13 7 14 5 16 6 17 3 18 4 19 2 20 1 21 20 22 21 23 22 24
REMARK SMILES IDX 23 25 24 26 25 27 26 29 27 30 28 31 89 32 29 33 88 34 30 35
REMARK SMILES IDX 31 36 32 37 82 38 33 39 87 40 81 41 83 42 34 43 86 44 80 45
REMARK SMILES IDX 79 46 35 48 67 49 47 50 66 51 48 52 51 53 65 54 84 55 49 56
REMARK SMILES IDX 50 57 64 59 85 60 52 61 36 62 37 63 45 64 38 65 39 66 43 67
REMARK SMILES IDX 46 68 40 69 41 70 44 71 42 72 68 73 69 74 77 75 70 76 71 77
REMARK SMILES IDX 75 78 78 79 72 80 73 81 76 82 74 83 53 84 54 85 62 86 55 87
REMARK SMILES IDX 56 88 60 89 63 90 57 91 58 92 61 93 59 94
REMARK H PARENT 17 6 7 15 24 28 83 47 51 58
REMARK Flexibility Score: inf
ROOT
ATOM      1  C   UNL A   1      32.083  28.618  27.526  1.00  0.00     0.021 C 
ENDROOT
BRANCH   1   2
ATOM      2  C   UNL A   1      32.631  27.348  26.883  1.00  0.00     0.116 C 
BRANCH   2   3
ATOM      3  N   UNL A   1      31.631  26.310  26.766  1.00  0.00    -0.352 N 
ATOM      4  C   UNL A   1      31.142  25.603  25.697  1.00  0.00     0.256 C 
ATOM      5  O   UNL A   1      30.133  24.936  25.948  1.00  0.00    -0.269 OA
ATOM      6  H   UNL A   1      31.220  26.061  27.625  1.00  0.00     0.163 HD
BRANCH   4   7
ATOM      7  C   UNL A   1      31.691  25.654  24.298  1.00  0.00     0.098 A 
ATOM      8  C   UNL A   1      32.708  24.738  23.913  1.00  0.00     0.050 A 
ATOM      9  C   UNL A   1      33.086  24.665  22.556  1.00  0.00     0.027 A 
ATOM     10  C   UNL A   1      32.546  25.518  21.599  1.00  0.00     0.005 A 
ATOM     11  C   UNL A   1      31.287  26.598  23.347  1.00  0.00     0.138 A 
ATOM     12  C   UNL A   1      31.676  26.515  22.008  1.00  0.00     0.040 A 
ATOM     13  F   UNL A   1      30.572  27.680  23.684  1.00  0.00    -0.206 F 
BRANCH   8  14
ATOM     14  N   UNL A   1      33.420  23.978  24.852  1.00  0.00    -0.382 N 
ATOM     15  H   UNL A   1      33.639  24.362  25.732  1.00  0.00     0.160 HD
BRANCH  14  16
ATOM     16  C   UNL A   1      33.842  22.608  24.523  1.00  0.00     0.079 C 
ATOM     17  C   UNL A   1      32.683  21.679  24.901  1.00  0.00     0.031 C 
BRANCH  16  18
ATOM     18  C   UNL A   1      35.176  22.249  25.258  1.00  0.00     0.008 C 
ATOM     19  C   UNL A   1      35.660  23.410  26.144  1.00  0.00     0.010 C 
BRANCH  18  20
ATOM     20  C   UNL A   1      36.293  21.871  24.255  1.00  0.00     0.002 C 
ATOM     21  C   UNL A   1      36.601  22.951  23.225  1.00  0.00     0.004 C 
ENDBRANCH  18  20
ENDBRANCH  16  18
ENDBRANCH  14  16
ENDBRANCH   8  14
ENDBRANCH   4   7
ENDBRANCH   2   3
ENDBRANCH   1   2
BRANCH   1  22
ATOM     22  C   UNL A   1      32.568  29.945  26.935  1.00  0.00     0.002 C 
BRANCH  22  23
ATOM     23  C   UNL A   1      31.542  30.747  26.131  1.00  0.00     0.002 C 
BRANCH  23  24
ATOM     24  C   UNL A   1      31.400  32.222  26.507  1.00  0.00     0.021 C 
BRANCH  24  25
ATOM     25  C   UNL A   1      32.554  32.808  27.310  1.00  0.00     0.116 C 
BRANCH  25  26
ATOM     26  N   UNL A   1      32.363  34.212  27.627  1.00  0.00    -0.352 N 
ATOM     27  C   UNL A   1      32.993  34.985  28.572  1.00  0.00     0.251 C 
ATOM     28  H   UNL A   1      31.683  34.678  27.088  1.00  0.00     0.163 HD
ATOM     29  O   UNL A   1      32.592  36.117  28.815  1.00  0.00    -0.269 OA
BRANCH  27  30
ATOM     30  C   UNL A   1      34.148  34.440  29.319  1.00  0.00     0.039 A 
ATOM     31  C   UNL A   1      33.922  33.818  30.548  1.00  0.00     0.014 A 
ATOM     32  C   UNL A   1      35.447  34.547  28.815  1.00  0.00     0.014 A 
ATOM     33  C   UNL A   1      34.992  33.251  31.246  1.00  0.00     0.010 A 
ATOM     34  C   UNL A   1      36.500  33.916  29.472  1.00  0.00     0.010 A 
ATOM     35  C   UNL A   1      36.285  33.266  30.697  1.00  0.00    -0.014 A 
BRANCH  35  36
ATOM     36  C   UNL A   1      37.426  32.618  31.393  1.00  0.00     0.031 A 
ATOM     37  C   UNL A   1      38.166  31.487  30.731  1.00  0.00     0.074 A 
ATOM     38  C   UNL A   1      37.766  33.013  32.636  1.00  0.00     0.049 A 
ATOM     39  N   UNL A   1      39.131  30.741  31.207  1.00  0.00    -0.248 NA
ATOM     40  C   UNL A   1      37.755  31.133  29.363  1.00  0.00     0.031 C 
ATOM     41  C   UNL A   1      37.111  34.084  33.389  1.00  0.00     0.029 A 
ATOM     42  N   UNL A   1      38.745  32.560  33.486  1.00  0.00    -0.354 N 
ATOM     43  C   UNL A   1      39.437  29.834  30.200  1.00  0.00     0.074 A 
ATOM     44  C   UNL A   1      38.519  30.081  29.111  1.00  0.00     0.031 C 
ATOM     45  C   UNL A   1      37.727  34.227  34.574  1.00  0.00     0.029 A 
ATOM     46  C   UNL A   1      38.786  33.229  34.687  1.00  0.00     0.049 A 
ATOM     47  H   UNL A   1      39.359  31.827  33.257  1.00  0.00     0.167 HD
ATOM     48  C   UNL A   1      40.418  28.902  30.176  1.00  0.00     0.037 A 
ATOM     49  C   UNL A   1      39.582  33.051  35.759  1.00  0.00     0.037 A 
ATOM     50  C   UNL A   1      41.346  28.677  31.253  1.00  0.00     0.049 A 
ATOM     51  C   UNL A   1      40.632  31.972  35.722  1.00  0.00     0.074 A 
ATOM     52  C   UNL A   1      42.390  27.770  31.311  1.00  0.00     0.029 A 
ATOM     53  N   UNL A   1      41.346  29.367  32.456  1.00  0.00    -0.354 N 
ATOM     54  N   UNL A   1      40.934  31.145  34.751  1.00  0.00    -0.248 NA
ATOM     55  C   UNL A   1      41.453  31.800  36.930  1.00  0.00     0.031 C 
ATOM     56  C   UNL A   1      42.994  27.878  32.566  1.00  0.00     0.029 A 
ATOM     57  C   UNL A   1      42.364  28.894  33.268  1.00  0.00     0.049 A 
ATOM     58  H   UNL A   1      40.718  30.086  32.696  1.00  0.00     0.167 HD
ATOM     59  C   UNL A   1      42.001  30.385  35.214  1.00  0.00     0.074 A 
ATOM     60  C   UNL A   1      42.300  30.853  36.550  1.00  0.00     0.031 C 
ATOM     61  C   UNL A   1      42.670  29.389  34.586  1.00  0.00     0.037 A 
BRANCH  48  62
ATOM     62  C   UNL A   1      40.570  28.066  28.941  1.00  0.00     0.064 A 
ATOM     63  C   UNL A   1      41.342  28.519  27.861  1.00  0.00     0.173 A 
ATOM     64  C   UNL A   1      39.864  26.863  28.785  1.00  0.00     0.173 A 
ATOM     65  F   UNL A   1      42.031  29.667  27.955  1.00  0.00    -0.203 F 
ATOM     66  C   UNL A   1      41.381  27.812  26.661  1.00  0.00     0.198 A 
ATOM     67  C   UNL A   1      39.930  26.143  27.595  1.00  0.00     0.198 A 
ATOM     68  F   UNL A   1      39.121  26.381  29.792  1.00  0.00    -0.203 F 
ATOM     69  F   UNL A   1      42.088  28.289  25.627  1.00  0.00    -0.200 F 
ATOM     70  C   UNL A   1      40.676  26.626  26.530  1.00  0.00     0.200 A 
ATOM     71  F   UNL A   1      39.265  24.986  27.477  1.00  0.00    -0.200 F 
ATOM     72  F   UNL A   1      40.713  25.947  25.375  1.00  0.00    -0.200 F 
ENDBRANCH  48  62
BRANCH  49  73
ATOM     73  C   UNL A   1      39.439  33.933  36.949  1.00  0.00     0.064 A 
ATOM     74  C   UNL A   1      40.043  35.198  37.004  1.00  0.00     0.173 A 
ATOM     75  C   UNL A   1      38.685  33.522  38.058  1.00  0.00     0.173 A 
ATOM     76  F   UNL A   1      40.776  35.639  35.973  1.00  0.00    -0.203 F 
ATOM     77  C   UNL A   1      39.909  36.011  38.128  1.00  0.00     0.198 A 
ATOM     78  C   UNL A   1      38.526  34.350  39.168  1.00  0.00     0.198 A 
ATOM     79  F   UNL A   1      38.070  32.330  38.046  1.00  0.00    -0.203 F 
ATOM     80  F   UNL A   1      40.521  37.203  38.166  1.00  0.00    -0.200 F 
ATOM     81  C   UNL A   1      39.143  35.591  39.205  1.00  0.00     0.200 A 
ATOM     82  F   UNL A   1      37.761  33.951  40.193  1.00  0.00    -0.200 F 
ATOM     83  F   UNL A   1      38.994  36.384  40.275  1.00  0.00    -0.200 F 
ENDBRANCH  49  73
BRANCH  61  84
ATOM     84  C   UNL A   1      43.829  28.758  35.301  1.00  0.00     0.064 A 
ATOM     85  C   UNL A   1      43.612  27.704  36.204  1.00  0.00     0.173 A 
ATOM     86  C   UNL A   1      45.133  29.257  35.174  1.00  0.00     0.173 A 
ATOM     87  F   UNL A   1      42.381  27.197  36.368  1.00  0.00    -0.203 F 
ATOM     88  C   UNL A   1      44.654  27.190  36.970  1.00  0.00     0.198 A 
ATOM     89  C   UNL A   1      46.179  28.718  35.919  1.00  0.00     0.198 A 
ATOM     90  F   UNL A   1      45.392  30.256  34.318  1.00  0.00    -0.203 F 
ATOM     91  F   UNL A   1      44.413  26.216  37.858  1.00  0.00    -0.200 F 
ATOM     92  C   UNL A   1      45.936  27.696  36.825  1.00  0.00     0.200 A 
ATOM     93  F   UNL A   1      47.422  29.192  35.761  1.00  0.00    -0.200 F 
ATOM     94  F   UNL A   1      46.940  27.198  37.559  1.00  0.00    -0.200 F 
ENDBRANCH  61  84
ENDBRANCH  35  36
ENDBRANCH  27  30
ENDBRANCH  25  26
ENDBRANCH  24  25
ENDBRANCH  23  24
ENDBRANCH  22  23
ENDBRANCH   1  22
TORSDOF 17
ENDMDL
