MODEL 1
REMARK VINA RESULT:     -11.3      0.000      0.000
REMARK SMILES O=C(NCCCCCCNC(=O)[C@H](CO)NC(=O)[C@H](CS)NC(=O)[C@H](Cc1ccccc1)NC(=O)c1ccc(F)cc1)c1ccc(-c2c3nc(c(-c4c(F)c(F)c(F)c(F)c4F)c4ccc([nH]4)c(-c4c(F)c(F)c(F)c(F)c4F)c4nc(c(-c5c(F)c(F)c(F)c(F)c5F)c5ccc2[nH]5)C=C4)C=C3)cc1
REMARK SMILES IDX 8 1 7 2 6 3 5 4 4 5 3 6 1 7 2 8 43 10 44 11 105 12 45 13
REMARK SMILES IDX 104 14 46 15 47 16 48 17 98 18 49 19 103 20 97 21 99 22
REMARK SMILES IDX 50 23 102 24 96 25 95 26 51 28 83 29 63 30 82 31 64 32 67 33
REMARK SMILES IDX 81 34 100 35 65 36 66 37 80 39 101 40 68 41 52 42 53 43
REMARK SMILES IDX 61 44 54 45 55 46 59 47 62 48 56 49 57 50 60 51 58 52 84 53
REMARK SMILES IDX 85 54 93 55 86 56 87 57 91 58 94 59 88 60 89 61 92 62 90 63
REMARK SMILES IDX 69 64 70 65 78 66 71 67 72 68 76 69 79 70 73 71 74 72 77 73
REMARK SMILES IDX 75 74 9 75 10 76 11 77 12 79 13 80 16 81 17 82 18 84 19 85
REMARK SMILES IDX 22 86 23 87 24 89 25 90 33 91 34 92 35 94 36 95 37 96 42 97
REMARK SMILES IDX 38 98 41 99 39 100 40 101 26 102 27 103 28 104 32 105 29 106
REMARK SMILES IDX 31 107 30 108 20 109 21 110 14 112 15 113
REMARK H PARENT 3 9 99 27 67 38 10 78 16 83 22 88 33 93 21 111 15 114
REMARK Flexibility Score: inf
ROOT
ATOM      1  C   UNL A   1      39.225  22.841  26.584  1.00  0.00     0.021 C 
ENDROOT
BRANCH   1   2
ATOM      2  C   UNL A   1      40.520  22.189  26.100  1.00  0.00     0.002 C 
BRANCH   2   3
ATOM      3  C   UNL A   1      41.014  20.986  26.914  1.00  0.00     0.002 C 
BRANCH   3   4
ATOM      4  C   UNL A   1      41.322  19.709  26.127  1.00  0.00     0.021 C 
BRANCH   4   5
ATOM      5  C   UNL A   1      42.672  19.061  26.413  1.00  0.00     0.116 C 
BRANCH   5   6
ATOM      6  N   UNL A   1      43.451  18.835  25.207  1.00  0.00    -0.352 N 
ATOM      7  O   UNL A   1      44.654  19.343  23.376  1.00  0.00    -0.269 OA
ATOM      8  C   UNL A   1      44.190  19.709  24.460  1.00  0.00     0.251 C 
ATOM      9  H   UNL A   1      43.445  17.907  24.877  1.00  0.00     0.163 HD
BRANCH   8  10
ATOM     10  C   UNL A   1      44.429  21.095  24.918  1.00  0.00     0.039 A 
ATOM     11  C   UNL A   1      43.799  22.183  24.307  1.00  0.00     0.014 A 
ATOM     12  C   UNL A   1      45.260  21.304  26.025  1.00  0.00     0.014 A 
ATOM     13  C   UNL A   1      44.083  23.479  24.732  1.00  0.00     0.010 A 
ATOM     14  C   UNL A   1      45.492  22.600  26.493  1.00  0.00     0.010 A 
ATOM     15  C   UNL A   1      44.922  23.701  25.836  1.00  0.00    -0.014 A 
BRANCH  15  16
ATOM     16  C   UNL A   1      45.137  25.085  26.328  1.00  0.00     0.031 A 
ATOM     17  C   UNL A   1      46.484  25.743  26.232  1.00  0.00     0.074 A 
ATOM     18  C   UNL A   1      44.093  25.757  26.849  1.00  0.00     0.049 A 
ATOM     19  N   UNL A   1      46.838  26.952  26.589  1.00  0.00    -0.248 NA
ATOM     20  C   UNL A   1      47.578  24.939  25.668  1.00  0.00     0.031 C 
ATOM     21  C   UNL A   1      42.742  25.216  27.012  1.00  0.00     0.029 A 
ATOM     22  N   UNL A   1      43.997  27.040  27.325  1.00  0.00    -0.354 N 
ATOM     23  C   UNL A   1      48.193  27.052  26.301  1.00  0.00     0.074 A 
ATOM     24  C   UNL A   1      48.605  25.771  25.768  1.00  0.00     0.031 C 
ATOM     25  C   UNL A   1      41.945  26.169  27.517  1.00  0.00     0.029 A 
ATOM     26  C   UNL A   1      42.735  27.371  27.755  1.00  0.00     0.049 A 
ATOM     27  H   UNL A   1      44.758  27.662  27.357  1.00  0.00     0.167 HD
ATOM     28  C   UNL A   1      49.012  28.120  26.460  1.00  0.00     0.037 A 
ATOM     29  C   UNL A   1      42.269  28.514  28.292  1.00  0.00     0.037 A 
ATOM     30  C   UNL A   1      48.597  29.395  26.986  1.00  0.00     0.049 A 
ATOM     31  C   UNL A   1      43.205  29.674  28.473  1.00  0.00     0.074 A 
ATOM     32  C   UNL A   1      49.349  30.545  27.158  1.00  0.00     0.029 A 
ATOM     33  N   UNL A   1      47.315  29.687  27.430  1.00  0.00    -0.354 N 
ATOM     34  N   UNL A   1      44.474  29.768  28.159  1.00  0.00    -0.248 NA
ATOM     35  C   UNL A   1      42.644  30.887  29.082  1.00  0.00     0.031 C 
ATOM     36  C   UNL A   1      48.531  31.521  27.739  1.00  0.00     0.029 A 
ATOM     37  C   UNL A   1      47.260  30.993  27.891  1.00  0.00     0.049 A 
ATOM     38  H   UNL A   1      46.557  29.059  27.419  1.00  0.00     0.167 HD
ATOM     39  C   UNL A   1      44.861  31.050  28.521  1.00  0.00     0.074 A 
ATOM     40  C   UNL A   1      43.686  31.706  29.056  1.00  0.00     0.031 C 
ATOM     41  C   UNL A   1      46.082  31.630  28.421  1.00  0.00     0.037 A 
BRANCH  28  42
ATOM     42  C   UNL A   1      50.450  27.957  26.063  1.00  0.00     0.064 A 
ATOM     43  C   UNL A   1      51.449  27.706  27.016  1.00  0.00     0.173 A 
ATOM     44  C   UNL A   1      50.827  27.999  24.712  1.00  0.00     0.173 A 
ATOM     45  F   UNL A   1      51.142  27.667  28.321  1.00  0.00    -0.203 F 
ATOM     46  C   UNL A   1      52.775  27.521  26.632  1.00  0.00     0.198 A 
ATOM     47  C   UNL A   1      52.149  27.791  24.330  1.00  0.00     0.198 A 
ATOM     48  F   UNL A   1      49.909  28.229  23.761  1.00  0.00    -0.203 F 
ATOM     49  F   UNL A   1      53.718  27.317  27.562  1.00  0.00    -0.200 F 
ATOM     50  C   UNL A   1      53.123  27.557  25.289  1.00  0.00     0.200 A 
ATOM     51  F   UNL A   1      52.483  27.814  23.032  1.00  0.00    -0.200 F 
ATOM     52  F   UNL A   1      54.398  27.370  24.921  1.00  0.00    -0.200 F 
ENDBRANCH  28  42
BRANCH  29  53
ATOM     53  C   UNL A   1      40.841  28.613  28.687  1.00  0.00     0.064 A 
ATOM     54  C   UNL A   1      40.428  28.277  29.983  1.00  0.00     0.173 A 
ATOM     55  C   UNL A   1      39.866  29.055  27.781  1.00  0.00     0.173 A 
ATOM     56  F   UNL A   1      41.323  27.830  30.876  1.00  0.00    -0.203 F 
ATOM     57  C   UNL A   1      39.088  28.368  30.354  1.00  0.00     0.198 A 
ATOM     58  C   UNL A   1      38.531  29.171  28.163  1.00  0.00     0.198 A 
ATOM     59  F   UNL A   1      40.213  29.392  26.531  1.00  0.00    -0.203 F 
ATOM     60  F   UNL A   1      38.712  28.005  31.589  1.00  0.00    -0.200 F 
ATOM     61  C   UNL A   1      38.143  28.821  29.447  1.00  0.00     0.200 A 
ATOM     62  F   UNL A   1      37.624  29.623  27.287  1.00  0.00    -0.200 F 
ATOM     63  F   UNL A   1      36.856  28.916  29.808  1.00  0.00    -0.200 F 
ENDBRANCH  29  53
BRANCH  41  64
ATOM     64  C   UNL A   1      46.198  33.052  28.883  1.00  0.00     0.064 A 
ATOM     65  C   UNL A   1      46.554  33.365  30.204  1.00  0.00     0.173 A 
ATOM     66  C   UNL A   1      45.974  34.110  27.992  1.00  0.00     0.173 A 
ATOM     67  F   UNL A   1      46.760  32.385  31.097  1.00  0.00    -0.203 F 
ATOM     68  C   UNL A   1      46.655  34.688  30.621  1.00  0.00     0.198 A 
ATOM     69  C   UNL A   1      46.101  35.433  28.406  1.00  0.00     0.198 A 
ATOM     70  F   UNL A   1      45.636  33.861  26.718  1.00  0.00    -0.203 F 
ATOM     71  F   UNL A   1      46.949  34.966  31.898  1.00  0.00    -0.200 F 
ATOM     72  C   UNL A   1      46.434  35.721  29.721  1.00  0.00     0.200 A 
ATOM     73  F   UNL A   1      45.896  36.429  27.534  1.00  0.00    -0.200 F 
ATOM     74  F   UNL A   1      46.533  36.995  30.124  1.00  0.00    -0.200 F 
ENDBRANCH  41  64
ENDBRANCH  15  16
ENDBRANCH   8  10
ENDBRANCH   5   6
ENDBRANCH   4   5
ENDBRANCH   3   4
ENDBRANCH   2   3
ENDBRANCH   1   2
BRANCH   1  75
ATOM     75  C   UNL A   1      38.019  22.616  25.687  1.00  0.00     0.116 C 
BRANCH  75  76
ATOM     76  N   UNL A   1      37.718  21.225  25.450  1.00  0.00    -0.354 N 
ATOM     77  C   UNL A   1      36.499  20.645  25.214  1.00  0.00     0.244 C 
ATOM     78  H   UNL A   1      38.490  20.613  25.459  1.00  0.00     0.163 HD
ATOM     79  O   UNL A   1      36.493  19.476  24.828  1.00  0.00    -0.273 OA
BRANCH  77  80
ATOM     80  C   UNL A   1      35.211  21.501  25.337  1.00  0.00     0.197 C 
BRANCH  80  81
ATOM     81  N   UNL A   1      34.109  20.729  24.728  1.00  0.00    -0.340 N 
ATOM     82  C   UNL A   1      32.867  20.986  24.258  1.00  0.00     0.244 C 
ATOM     83  H   UNL A   1      34.339  19.775  24.642  1.00  0.00     0.164 HD
ATOM     84  O   UNL A   1      32.384  20.118  23.518  1.00  0.00    -0.273 OA
BRANCH  82  85
ATOM     85  C   UNL A   1      32.045  22.279  24.504  1.00  0.00     0.181 C 
BRANCH  85  86
ATOM     86  N   UNL A   1      31.539  22.456  25.858  1.00  0.00    -0.342 N 
ATOM     87  C   UNL A   1      30.796  23.492  26.352  1.00  0.00     0.243 C 
ATOM     88  H   UNL A   1      31.758  21.740  26.497  1.00  0.00     0.164 HD
ATOM     89  O   UNL A   1      30.034  23.231  27.288  1.00  0.00    -0.273 OA
BRANCH  87  90
ATOM     90  C   UNL A   1      30.899  24.909  25.742  1.00  0.00     0.176 C 
BRANCH  90  91
ATOM     91  N   UNL A   1      29.733  25.136  24.865  1.00  0.00    -0.340 N 
ATOM     92  C   UNL A   1      29.432  26.259  24.151  1.00  0.00     0.251 C 
ATOM     93  H   UNL A   1      29.097  24.388  24.785  1.00  0.00     0.164 HD
ATOM     94  O   UNL A   1      28.267  26.516  23.827  1.00  0.00    -0.269 OA
BRANCH  92  95
ATOM     95  C   UNL A   1      30.513  27.147  23.692  1.00  0.00     0.040 A 
ATOM     96  C   UNL A   1      30.483  28.521  23.946  1.00  0.00     0.017 A 
ATOM     97  C   UNL A   1      31.549  26.594  22.931  1.00  0.00     0.017 A 
ATOM     98  C   UNL A   1      31.536  29.324  23.497  1.00  0.00     0.040 A 
ATOM     99  C   UNL A   1      32.609  27.393  22.506  1.00  0.00     0.040 A 
ATOM    100  C   UNL A   1      32.597  28.751  22.800  1.00  0.00     0.123 A 
ATOM    101  F   UNL A   1      33.617  29.519  22.394  1.00  0.00    -0.207 F 
ENDBRANCH  92  95
ENDBRANCH  90  91
BRANCH  90 102
ATOM    102  C   UNL A   1      30.867  25.949  26.896  1.00  0.00     0.070 C 
BRANCH 102 103
ATOM    103  C   UNL A   1      31.900  27.050  26.787  1.00  0.00    -0.045 A 
ATOM    104  C   UNL A   1      33.162  26.823  26.224  1.00  0.00     0.004 A 
ATOM    105  C   UNL A   1      31.622  28.320  27.315  1.00  0.00     0.004 A 
ATOM    106  C   UNL A   1      34.097  27.857  26.131  1.00  0.00     0.000 A 
ATOM    107  C   UNL A   1      32.564  29.347  27.241  1.00  0.00     0.000 A 
ATOM    108  C   UNL A   1      33.797  29.119  26.636  1.00  0.00     0.000 A 
ENDBRANCH 102 103
ENDBRANCH  90 102
ENDBRANCH  87  90
ENDBRANCH  85  86
BRANCH  85 109
ATOM    109  C   UNL A   1      32.832  23.461  23.897  1.00  0.00     0.101 C 
BRANCH 109 110
ATOM    110  S   UNL A   1      33.280  23.324  22.138  1.00  0.00    -0.177 SA
ATOM    111  H   UNL A   1      34.596  22.999  22.030  1.00  0.00     0.102 HD
ENDBRANCH 109 110
ENDBRANCH  85 109
ENDBRANCH  82  85
ENDBRANCH  80  81
BRANCH  80 112
ATOM    112  C   UNL A   1      34.923  21.827  26.819  1.00  0.00     0.191 C 
BRANCH 112 113
ATOM    113  O   UNL A   1      33.942  20.956  27.386  1.00  0.00    -0.394 OA
ATOM    114  H   UNL A   1      33.069  21.172  27.023  1.00  0.00     0.210 HD
ENDBRANCH 112 113
ENDBRANCH  80 112
ENDBRANCH  77  80
ENDBRANCH  75  76
ENDBRANCH   1  75
TORSDOF 25
ENDMDL
MODEL 2
REMARK VINA RESULT:     -11.0      1.125      6.862
REMARK SMILES O=C(NCCCCCCNC(=O)[C@H](CO)NC(=O)[C@H](CS)NC(=O)[C@H](Cc1ccccc1)NC(=O)c1ccc(F)cc1)c1ccc(-c2c3nc(c(-c4c(F)c(F)c(F)c(F)c4F)c4ccc([nH]4)c(-c4c(F)c(F)c(F)c(F)c4F)c4nc(c(-c5c(F)c(F)c(F)c(F)c5F)c5ccc2[nH]5)C=C4)C=C3)cc1
REMARK SMILES IDX 8 1 7 2 6 3 5 4 4 5 3 6 1 7 2 8 43 10 44 11 105 12 45 13
REMARK SMILES IDX 104 14 46 15 47 16 48 17 98 18 49 19 103 20 97 21 99 22
REMARK SMILES IDX 50 23 102 24 96 25 95 26 51 28 83 29 63 30 82 31 64 32 67 33
REMARK SMILES IDX 81 34 100 35 65 36 66 37 80 39 101 40 68 41 52 42 53 43
REMARK SMILES IDX 61 44 54 45 55 46 59 47 62 48 56 49 57 50 60 51 58 52 84 53
REMARK SMILES IDX 85 54 93 55 86 56 87 57 91 58 94 59 88 60 89 61 92 62 90 63
REMARK SMILES IDX 69 64 70 65 78 66 71 67 72 68 76 69 79 70 73 71 74 72 77 73
REMARK SMILES IDX 75 74 9 75 10 76 11 77 12 79 13 80 16 81 17 82 18 84 19 85
REMARK SMILES IDX 22 86 23 87 24 89 25 90 33 91 34 92 35 94 36 95 37 96 42 97
REMARK SMILES IDX 38 98 41 99 39 100 40 101 26 102 27 103 28 104 32 105 29 106
REMARK SMILES IDX 31 107 30 108 20 109 21 110 14 112 15 113
REMARK H PARENT 3 9 99 27 67 38 10 78 16 83 22 88 33 93 21 111 15 114
REMARK Flexibility Score: inf
ROOT
ATOM      1  C   UNL A   1      38.399  22.985  26.324  1.00  0.00     0.021 C 
ENDROOT
BRANCH   1   2
ATOM      2  C   UNL A   1      39.923  22.880  26.387  1.00  0.00     0.002 C 
BRANCH   2   3
ATOM      3  C   UNL A   1      40.485  21.679  27.157  1.00  0.00     0.002 C 
BRANCH   3   4
ATOM      4  C   UNL A   1      40.579  20.359  26.388  1.00  0.00     0.021 C 
BRANCH   4   5
ATOM      5  C   UNL A   1      41.723  19.434  26.792  1.00  0.00     0.116 C 
BRANCH   5   6
ATOM      6  N   UNL A   1      42.683  19.231  25.721  1.00  0.00    -0.352 N 
ATOM      7  O   UNL A   1      44.172  19.775  24.124  1.00  0.00    -0.269 OA
ATOM      8  C   UNL A   1      43.543  20.116  25.130  1.00  0.00     0.251 C 
ATOM      9  H   UNL A   1      42.721  18.314  25.365  1.00  0.00     0.163 HD
BRANCH   8  10
ATOM     10  C   UNL A   1      43.719  21.484  25.665  1.00  0.00     0.039 A 
ATOM     11  C   UNL A   1      44.134  21.703  26.982  1.00  0.00     0.014 A 
ATOM     12  C   UNL A   1      43.520  22.573  24.809  1.00  0.00     0.014 A 
ATOM     13  C   UNL A   1      44.244  23.003  27.469  1.00  0.00     0.010 A 
ATOM     14  C   UNL A   1      43.697  23.877  25.279  1.00  0.00     0.010 A 
ATOM     15  C   UNL A   1      44.039  24.103  26.620  1.00  0.00    -0.014 A 
BRANCH  15  16
ATOM     16  C   UNL A   1      44.252  25.478  27.137  1.00  0.00     0.031 A 
ATOM     17  C   UNL A   1      43.097  26.327  27.585  1.00  0.00     0.074 A 
ATOM     18  C   UNL A   1      45.509  25.953  27.218  1.00  0.00     0.049 A 
ATOM     19  N   UNL A   1      43.107  27.537  28.085  1.00  0.00    -0.248 NA
ATOM     20  C   UNL A   1      41.752  25.746  27.450  1.00  0.00     0.031 C 
ATOM     21  C   UNL A   1      46.710  25.229  26.794  1.00  0.00     0.029 A 
ATOM     22  N   UNL A   1      45.991  27.146  27.692  1.00  0.00    -0.354 N 
ATOM     23  C   UNL A   1      41.778  27.866  28.317  1.00  0.00     0.074 A 
ATOM     24  C   UNL A   1      40.984  26.740  27.875  1.00  0.00     0.031 C 
ATOM     25  C   UNL A   1      47.791  25.976  27.060  1.00  0.00     0.029 A 
ATOM     26  C   UNL A   1      47.360  27.248  27.629  1.00  0.00     0.049 A 
ATOM     27  H   UNL A   1      45.412  27.861  28.043  1.00  0.00     0.167 HD
ATOM     28  C   UNL A   1      41.272  29.000  28.858  1.00  0.00     0.037 A 
ATOM     29  C   UNL A   1      48.175  28.259  27.982  1.00  0.00     0.037 A 
ATOM     30  C   UNL A   1      42.066  30.117  29.303  1.00  0.00     0.049 A 
ATOM     31  C   UNL A   1      47.583  29.511  28.562  1.00  0.00     0.074 A 
ATOM     32  C   UNL A   1      41.645  31.298  29.890  1.00  0.00     0.029 A 
ATOM     33  N   UNL A   1      43.448  30.192  29.204  1.00  0.00    -0.354 N 
ATOM     34  N   UNL A   1      46.328  29.792  28.812  1.00  0.00    -0.248 NA
ATOM     35  C   UNL A   1      48.522  30.587  28.907  1.00  0.00     0.031 C 
ATOM     36  C   UNL A   1      42.768  32.102  30.114  1.00  0.00     0.029 A 
ATOM     37  C   UNL A   1      43.892  31.406  29.704  1.00  0.00     0.049 A 
ATOM     38  H   UNL A   1      44.027  29.487  28.834  1.00  0.00     0.167 HD
ATOM     39  C   UNL A   1      46.326  31.068  29.355  1.00  0.00     0.074 A 
ATOM     40  C   UNL A   1      47.707  31.499  29.419  1.00  0.00     0.031 C 
ATOM     41  C   UNL A   1      45.272  31.818  29.760  1.00  0.00     0.037 A 
BRANCH  28  42
ATOM     42  C   UNL A   1      39.781  29.097  28.999  1.00  0.00     0.064 A 
ATOM     43  C   UNL A   1      39.147  28.891  30.234  1.00  0.00     0.173 A 
ATOM     44  C   UNL A   1      38.982  29.451  27.902  1.00  0.00     0.173 A 
ATOM     45  F   UNL A   1      39.865  28.540  31.310  1.00  0.00    -0.203 F 
ATOM     46  C   UNL A   1      37.766  29.019  30.359  1.00  0.00     0.198 A 
ATOM     47  C   UNL A   1      37.604  29.601  28.037  1.00  0.00     0.198 A 
ATOM     48  F   UNL A   1      39.540  29.665  26.701  1.00  0.00    -0.203 F 
ATOM     49  F   UNL A   1      37.178  28.784  31.541  1.00  0.00    -0.200 F 
ATOM     50  C   UNL A   1      36.996  29.380  29.263  1.00  0.00     0.200 A 
ATOM     51  F   UNL A   1      36.863  29.960  26.979  1.00  0.00    -0.200 F 
ATOM     52  F   UNL A   1      35.669  29.511  29.389  1.00  0.00    -0.200 F 
ENDBRANCH  28  42
BRANCH  29  53
ATOM     53  C   UNL A   1      49.642  28.117  27.801  1.00  0.00     0.064 A 
ATOM     54  C   UNL A   1      50.464  27.722  28.864  1.00  0.00     0.173 A 
ATOM     55  C   UNL A   1      50.248  28.362  26.560  1.00  0.00     0.173 A 
ATOM     56  F   UNL A   1      49.931  27.496  30.074  1.00  0.00    -0.203 F 
ATOM     57  C   UNL A   1      51.841  27.590  28.696  1.00  0.00     0.198 A 
ATOM     58  C   UNL A   1      51.621  28.203  26.387  1.00  0.00     0.198 A 
ATOM     59  F   UNL A   1      49.502  28.738  25.510  1.00  0.00    -0.203 F 
ATOM     60  F   UNL A   1      52.611  27.246  29.738  1.00  0.00    -0.200 F 
ATOM     61  C   UNL A   1      52.417  27.823  27.457  1.00  0.00     0.200 A 
ATOM     62  F   UNL A   1      52.170  28.415  25.183  1.00  0.00    -0.200 F 
ATOM     63  F   UNL A   1      53.740  27.688  27.293  1.00  0.00    -0.200 F 
ENDBRANCH  29  53
BRANCH  41  64
ATOM     64  C   UNL A   1      45.579  33.172  30.328  1.00  0.00     0.064 A 
ATOM     65  C   UNL A   1      45.618  34.314  29.514  1.00  0.00     0.173 A 
ATOM     66  C   UNL A   1      45.815  33.331  31.700  1.00  0.00     0.173 A 
ATOM     67  F   UNL A   1      45.417  34.208  28.193  1.00  0.00    -0.203 F 
ATOM     68  C   UNL A   1      45.908  35.564  30.053  1.00  0.00     0.198 A 
ATOM     69  C   UNL A   1      46.080  34.586  32.240  1.00  0.00     0.198 A 
ATOM     70  F   UNL A   1      45.785  32.268  32.519  1.00  0.00    -0.203 F 
ATOM     71  F   UNL A   1      45.987  36.635  29.252  1.00  0.00    -0.200 F 
ATOM     72  C   UNL A   1      46.133  35.700  31.415  1.00  0.00     0.200 A 
ATOM     73  F   UNL A   1      46.289  34.718  33.557  1.00  0.00    -0.200 F 
ATOM     74  F   UNL A   1      46.411  36.904  31.933  1.00  0.00    -0.200 F 
ENDBRANCH  41  64
ENDBRANCH  15  16
ENDBRANCH   8  10
ENDBRANCH   5   6
ENDBRANCH   4   5
ENDBRANCH   3   4
ENDBRANCH   2   3
ENDBRANCH   1   2
BRANCH   1  75
ATOM     75  C   UNL A   1      37.775  22.499  25.026  1.00  0.00     0.116 C 
BRANCH  75  76
ATOM     76  N   UNL A   1      37.476  21.088  25.013  1.00  0.00    -0.354 N 
ATOM     77  C   UNL A   1      36.253  20.475  25.096  1.00  0.00     0.244 C 
ATOM     78  H   UNL A   1      38.253  20.487  24.935  1.00  0.00     0.163 HD
ATOM     79  O   UNL A   1      36.206  19.269  24.855  1.00  0.00    -0.273 OA
BRANCH  77  80
ATOM     80  C   UNL A   1      34.990  21.330  25.380  1.00  0.00     0.197 C 
BRANCH  80  81
ATOM     81  N   UNL A   1      33.842  20.638  24.760  1.00  0.00    -0.340 N 
ATOM     82  C   UNL A   1      32.621  20.982  24.289  1.00  0.00     0.244 C 
ATOM     83  H   UNL A   1      34.009  19.673  24.665  1.00  0.00     0.164 HD
ATOM     84  O   UNL A   1      32.085  20.155  23.538  1.00  0.00    -0.273 OA
BRANCH  82  85
ATOM     85  C   UNL A   1      31.885  22.323  24.545  1.00  0.00     0.181 C 
BRANCH  85  86
ATOM     86  N   UNL A   1      31.361  22.507  25.892  1.00  0.00    -0.342 N 
ATOM     87  C   UNL A   1      30.626  23.553  26.375  1.00  0.00     0.243 C 
ATOM     88  H   UNL A   1      31.560  21.788  26.534  1.00  0.00     0.164 HD
ATOM     89  O   UNL A   1      29.846  23.303  27.299  1.00  0.00    -0.273 OA
BRANCH  87  90
ATOM     90  C   UNL A   1      30.758  24.969  25.767  1.00  0.00     0.176 C 
BRANCH  90  91
ATOM     91  N   UNL A   1      29.612  25.211  24.868  1.00  0.00    -0.340 N 
ATOM     92  C   UNL A   1      29.370  26.313  24.102  1.00  0.00     0.251 C 
ATOM     93  H   UNL A   1      28.942  24.490  24.814  1.00  0.00     0.164 HD
ATOM     94  O   UNL A   1      28.221  26.609  23.755  1.00  0.00    -0.269 OA
BRANCH  92  95
ATOM     95  C   UNL A   1      30.495  27.130  23.617  1.00  0.00     0.040 A 
ATOM     96  C   UNL A   1      31.536  26.567  22.872  1.00  0.00     0.017 A 
ATOM     97  C   UNL A   1      30.539  28.481  23.978  1.00  0.00     0.017 A 
ATOM     98  C   UNL A   1      32.579  27.383  22.428  1.00  0.00     0.040 A 
ATOM     99  C   UNL A   1      31.569  29.297  23.513  1.00  0.00     0.040 A 
ATOM    100  C   UNL A   1      32.577  28.742  22.734  1.00  0.00     0.123 A 
ATOM    101  F   UNL A   1      33.566  29.526  22.284  1.00  0.00    -0.207 F 
ENDBRANCH  92  95
ENDBRANCH  90  91
BRANCH  90 102
ATOM    102  C   UNL A   1      30.717  26.009  26.921  1.00  0.00     0.070 C 
BRANCH 102 103
ATOM    103  C   UNL A   1      31.790  27.075  26.853  1.00  0.00    -0.045 A 
ATOM    104  C   UNL A   1      31.585  28.360  27.370  1.00  0.00     0.004 A 
ATOM    105  C   UNL A   1      33.003  26.800  26.205  1.00  0.00     0.004 A 
ATOM    106  C   UNL A   1      32.593  29.325  27.300  1.00  0.00     0.000 A 
ATOM    107  C   UNL A   1      34.003  27.771  26.116  1.00  0.00     0.000 A 
ATOM    108  C   UNL A   1      33.803  29.029  26.677  1.00  0.00     0.000 A 
ENDBRANCH 102 103
ENDBRANCH  90 102
ENDBRANCH  87  90
ENDBRANCH  85  86
BRANCH  85 109
ATOM    109  C   UNL A   1      32.766  23.460  23.982  1.00  0.00     0.101 C 
BRANCH 109 110
ATOM    110  S   UNL A   1      33.262  23.317  22.237  1.00  0.00    -0.177 SA
ATOM    111  H   UNL A   1      34.258  24.206  21.974  1.00  0.00     0.102 HD
ENDBRANCH 109 110
ENDBRANCH  85 109
ENDBRANCH  82  85
ENDBRANCH  80  81
BRANCH  80 112
ATOM    112  C   UNL A   1      34.791  21.505  26.901  1.00  0.00     0.191 C 
BRANCH 112 113
ATOM    113  O   UNL A   1      34.786  22.878  27.295  1.00  0.00    -0.394 OA
ATOM    114  H   UNL A   1      34.779  22.937  28.263  1.00  0.00     0.210 HD
ENDBRANCH 112 113
ENDBRANCH  80 112
ENDBRANCH  77  80
ENDBRANCH  75  76
ENDBRANCH   1  75
TORSDOF 25
ENDMDL
MODEL 3
REMARK VINA RESULT:     -10.8      1.557      3.024
REMARK SMILES O=C(NCCCCCCNC(=O)[C@H](CO)NC(=O)[C@H](CS)NC(=O)[C@H](Cc1ccccc1)NC(=O)c1ccc(F)cc1)c1ccc(-c2c3nc(c(-c4c(F)c(F)c(F)c(F)c4F)c4ccc([nH]4)c(-c4c(F)c(F)c(F)c(F)c4F)c4nc(c(-c5c(F)c(F)c(F)c(F)c5F)c5ccc2[nH]5)C=C4)C=C3)cc1
REMARK SMILES IDX 8 1 7 2 6 3 5 4 4 5 3 6 1 7 2 8 43 10 44 11 105 12 45 13
REMARK SMILES IDX 104 14 46 15 47 16 48 17 98 18 49 19 103 20 97 21 99 22
REMARK SMILES IDX 50 23 102 24 96 25 95 26 51 28 83 29 63 30 82 31 64 32 67 33
REMARK SMILES IDX 81 34 100 35 65 36 66 37 80 39 101 40 68 41 52 42 53 43
REMARK SMILES IDX 61 44 54 45 55 46 59 47 62 48 56 49 57 50 60 51 58 52 84 53
REMARK SMILES IDX 85 54 93 55 86 56 87 57 91 58 94 59 88 60 89 61 92 62 90 63
REMARK SMILES IDX 69 64 70 65 78 66 71 67 72 68 76 69 79 70 73 71 74 72 77 73
REMARK SMILES IDX 75 74 9 75 10 76 11 77 12 79 13 80 16 81 17 82 18 84 19 85
REMARK SMILES IDX 22 86 23 87 24 89 25 90 33 91 34 92 35 94 36 95 37 96 42 97
REMARK SMILES IDX 38 98 41 99 39 100 40 101 26 102 27 103 28 104 32 105 29 106
REMARK SMILES IDX 31 107 30 108 20 109 21 110 14 112 15 113
REMARK H PARENT 3 9 99 27 67 38 10 78 16 83 22 88 33 93 21 111 15 114
REMARK Flexibility Score: inf
ROOT
ATOM      1  C   UNL A   1      38.911  23.302  26.568  1.00  0.00     0.021 C 
ENDROOT
BRANCH   1   2
ATOM      2  C   UNL A   1      40.159  22.515  26.166  1.00  0.00     0.002 C 
BRANCH   2   3
ATOM      3  C   UNL A   1      40.584  21.393  27.121  1.00  0.00     0.002 C 
BRANCH   3   4
ATOM      4  C   UNL A   1      40.693  19.989  26.521  1.00  0.00     0.021 C 
BRANCH   4   5
ATOM      5  C   UNL A   1      41.936  19.195  26.907  1.00  0.00     0.116 C 
BRANCH   5   6
ATOM      6  N   UNL A   1      42.760  18.853  25.759  1.00  0.00    -0.352 N 
ATOM      7  O   UNL A   1      44.073  19.183  23.963  1.00  0.00    -0.269 OA
ATOM      8  C   UNL A   1      43.575  19.641  24.995  1.00  0.00     0.251 C 
ATOM      9  H   UNL A   1      42.725  17.907  25.491  1.00  0.00     0.163 HD
BRANCH   8  10
ATOM     10  C   UNL A   1      43.858  21.043  25.374  1.00  0.00     0.039 A 
ATOM     11  C   UNL A   1      43.511  22.107  24.537  1.00  0.00     0.014 A 
ATOM     12  C   UNL A   1      44.431  21.300  26.625  1.00  0.00     0.014 A 
ATOM     13  C   UNL A   1      43.835  23.412  24.901  1.00  0.00     0.010 A 
ATOM     14  C   UNL A   1      44.694  22.615  27.019  1.00  0.00     0.010 A 
ATOM     15  C   UNL A   1      44.418  23.681  26.151  1.00  0.00    -0.014 A 
BRANCH  15  16
ATOM     16  C   UNL A   1      44.670  25.087  26.556  1.00  0.00     0.031 A 
ATOM     17  C   UNL A   1      46.030  25.706  26.410  1.00  0.00     0.074 A 
ATOM     18  C   UNL A   1      43.646  25.814  27.044  1.00  0.00     0.049 A 
ATOM     19  N   UNL A   1      46.416  26.925  26.690  1.00  0.00    -0.248 NA
ATOM     20  C   UNL A   1      47.100  24.844  25.886  1.00  0.00     0.031 C 
ATOM     21  C   UNL A   1      42.285  25.315  27.251  1.00  0.00     0.029 A 
ATOM     22  N   UNL A   1      43.584  27.125  27.442  1.00  0.00    -0.354 N 
ATOM     23  C   UNL A   1      47.769  26.976  26.385  1.00  0.00     0.074 A 
ATOM     24  C   UNL A   1      48.147  25.656  25.927  1.00  0.00     0.031 C 
ATOM     25  C   UNL A   1      41.515  26.315  27.703  1.00  0.00     0.029 A 
ATOM     26  C   UNL A   1      42.335  27.511  27.862  1.00  0.00     0.049 A 
ATOM     27  H   UNL A   1      44.360  27.730  27.430  1.00  0.00     0.167 HD
ATOM     28  C   UNL A   1      48.614  28.032  26.472  1.00  0.00     0.037 A 
ATOM     29  C   UNL A   1      41.900  28.695  28.332  1.00  0.00     0.037 A 
ATOM     30  C   UNL A   1      48.234  29.346  26.923  1.00  0.00     0.049 A 
ATOM     31  C   UNL A   1      42.865  29.841  28.434  1.00  0.00     0.074 A 
ATOM     32  C   UNL A   1      49.013  30.487  27.019  1.00  0.00     0.029 A 
ATOM     33  N   UNL A   1      46.963  29.695  27.359  1.00  0.00    -0.354 N 
ATOM     34  N   UNL A   1      44.132  29.886  28.105  1.00  0.00    -0.248 NA
ATOM     35  C   UNL A   1      42.338  31.101  28.974  1.00  0.00     0.031 C 
ATOM     36  C   UNL A   1      48.224  31.515  27.546  1.00  0.00     0.029 A 
ATOM     37  C   UNL A   1      46.943  31.027  27.741  1.00  0.00     0.049 A 
ATOM     38  H   UNL A   1      46.191  29.085  27.392  1.00  0.00     0.167 HD
ATOM     39  C   UNL A   1      44.552  31.178  28.385  1.00  0.00     0.074 A 
ATOM     40  C   UNL A   1      43.398  31.893  28.890  1.00  0.00     0.031 C 
ATOM     41  C   UNL A   1      45.785  31.723  28.241  1.00  0.00     0.037 A 
BRANCH  28  42
ATOM     42  C   UNL A   1      50.044  27.812  26.074  1.00  0.00     0.064 A 
ATOM     43  C   UNL A   1      50.439  27.822  24.727  1.00  0.00     0.173 A 
ATOM     44  C   UNL A   1      51.039  27.643  27.048  1.00  0.00     0.173 A 
ATOM     45  F   UNL A   1      49.526  27.969  23.757  1.00  0.00    -0.203 F 
ATOM     46  C   UNL A   1      51.775  27.652  24.372  1.00  0.00     0.198 A 
ATOM     47  C   UNL A   1      52.376  27.496  26.690  1.00  0.00     0.198 A 
ATOM     48  F   UNL A   1      50.715  27.633  28.350  1.00  0.00    -0.203 F 
ATOM     49  F   UNL A   1      52.125  27.630  23.078  1.00  0.00    -0.200 F 
ATOM     50  C   UNL A   1      52.744  27.496  25.353  1.00  0.00     0.200 A 
ATOM     51  F   UNL A   1      53.312  27.357  27.639  1.00  0.00    -0.200 F 
ATOM     52  F   UNL A   1      54.029  27.341  25.009  1.00  0.00    -0.200 F 
ENDBRANCH  28  42
BRANCH  29  53
ATOM     53  C   UNL A   1      40.479  28.851  28.732  1.00  0.00     0.064 A 
ATOM     54  C   UNL A   1      39.498  29.186  27.789  1.00  0.00     0.173 A 
ATOM     55  C   UNL A   1      40.073  28.656  30.060  1.00  0.00     0.173 A 
ATOM     56  F   UNL A   1      39.844  29.400  26.511  1.00  0.00    -0.203 F 
ATOM     57  C   UNL A   1      38.164  29.333  28.163  1.00  0.00     0.198 A 
ATOM     58  C   UNL A   1      38.734  28.778  30.427  1.00  0.00     0.198 A 
ATOM     59  F   UNL A   1      40.974  28.330  30.998  1.00  0.00    -0.203 F 
ATOM     60  F   UNL A   1      37.251  29.690  27.249  1.00  0.00    -0.200 F 
ATOM     61  C   UNL A   1      37.783  29.122  29.479  1.00  0.00     0.200 A 
ATOM     62  F   UNL A   1      38.368  28.558  31.697  1.00  0.00    -0.200 F 
ATOM     63  F   UNL A   1      36.499  29.256  29.837  1.00  0.00    -0.200 F 
ENDBRANCH  29  53
BRANCH  41  64
ATOM     64  C   UNL A   1      45.938  33.166  28.615  1.00  0.00     0.064 A 
ATOM     65  C   UNL A   1      45.701  34.191  27.687  1.00  0.00     0.173 A 
ATOM     66  C   UNL A   1      46.305  33.528  29.919  1.00  0.00     0.173 A 
ATOM     67  F   UNL A   1      45.366  33.892  26.423  1.00  0.00    -0.203 F 
ATOM     68  C   UNL A   1      45.850  35.528  28.046  1.00  0.00     0.198 A 
ATOM     69  C   UNL A   1      46.429  34.866  30.282  1.00  0.00     0.198 A 
ATOM     70  F   UNL A   1      46.539  32.584  30.842  1.00  0.00    -0.203 F 
ATOM     71  F   UNL A   1      45.665  36.489  27.133  1.00  0.00    -0.200 F 
ATOM     72  C   UNL A   1      46.209  35.864  29.344  1.00  0.00     0.200 A 
ATOM     73  F   UNL A   1      46.767  35.191  31.537  1.00  0.00    -0.200 F 
ATOM     74  F   UNL A   1      46.351  37.151  29.688  1.00  0.00    -0.200 F 
ENDBRANCH  41  64
ENDBRANCH  15  16
ENDBRANCH   8  10
ENDBRANCH   5   6
ENDBRANCH   4   5
ENDBRANCH   3   4
ENDBRANCH   2   3
ENDBRANCH   1   2
BRANCH   1  75
ATOM     75  C   UNL A   1      37.704  23.095  25.668  1.00  0.00     0.116 C 
BRANCH  75  76
ATOM     76  N   UNL A   1      37.300  21.716  25.540  1.00  0.00    -0.354 N 
ATOM     77  C   UNL A   1      36.051  21.214  25.284  1.00  0.00     0.244 C 
ATOM     78  H   UNL A   1      38.016  21.048  25.651  1.00  0.00     0.163 HD
ATOM     79  O   UNL A   1      35.966  20.018  25.006  1.00  0.00    -0.273 OA
BRANCH  77  80
ATOM     80  C   UNL A   1      34.835  22.177  25.251  1.00  0.00     0.197 C 
BRANCH  80  81
ATOM     81  N   UNL A   1      33.787  21.535  24.432  1.00  0.00    -0.340 N 
ATOM     82  C   UNL A   1      32.836  21.935  23.556  1.00  0.00     0.244 C 
ATOM     83  H   UNL A   1      33.778  20.558  24.556  1.00  0.00     0.164 HD
ATOM     84  O   UNL A   1      32.373  21.048  22.826  1.00  0.00    -0.273 OA
BRANCH  82  85
ATOM     85  C   UNL A   1      32.342  23.390  23.344  1.00  0.00     0.181 C 
BRANCH  85  86
ATOM     86  N   UNL A   1      32.419  23.888  21.977  1.00  0.00    -0.342 N 
ATOM     87  C   UNL A   1      32.751  25.145  21.555  1.00  0.00     0.243 C 
ATOM     88  H   UNL A   1      32.206  23.239  21.269  1.00  0.00     0.164 HD
ATOM     89  O   UNL A   1      33.277  25.236  20.442  1.00  0.00    -0.273 OA
BRANCH  87  90
ATOM     90  C   UNL A   1      32.496  26.380  22.451  1.00  0.00     0.176 C 
BRANCH  90  91
ATOM     91  N   UNL A   1      33.773  27.095  22.651  1.00  0.00    -0.340 N 
ATOM     92  C   UNL A   1      34.021  28.138  23.495  1.00  0.00     0.251 C 
ATOM     93  H   UNL A   1      34.535  26.782  22.112  1.00  0.00     0.164 HD
ATOM     94  O   UNL A   1      34.945  28.930  23.275  1.00  0.00    -0.269 OA
BRANCH  92  95
ATOM     95  C   UNL A   1      33.229  28.288  24.727  1.00  0.00     0.040 A 
ATOM     96  C   UNL A   1      32.334  29.349  24.892  1.00  0.00     0.017 A 
ATOM     97  C   UNL A   1      33.442  27.377  25.767  1.00  0.00     0.017 A 
ATOM     98  C   UNL A   1      31.599  29.447  26.077  1.00  0.00     0.040 A 
ATOM     99  C   UNL A   1      32.689  27.463  26.938  1.00  0.00     0.040 A 
ATOM    100  C   UNL A   1      31.768  28.494  27.079  1.00  0.00     0.123 A 
ATOM    101  F   UNL A   1      31.042  28.576  28.202  1.00  0.00    -0.207 F 
ENDBRANCH  92  95
ENDBRANCH  90  91
BRANCH  90 102
ATOM    102  C   UNL A   1      31.503  27.325  21.720  1.00  0.00     0.070 C 
BRANCH 102 103
ATOM    103  C   UNL A   1      30.188  27.541  22.438  1.00  0.00    -0.045 A 
ATOM    104  C   UNL A   1      29.503  28.761  22.368  1.00  0.00     0.004 A 
ATOM    105  C   UNL A   1      29.660  26.524  23.246  1.00  0.00     0.004 A 
ATOM    106  C   UNL A   1      28.288  28.935  23.037  1.00  0.00     0.000 A 
ATOM    107  C   UNL A   1      28.457  26.705  23.930  1.00  0.00     0.000 A 
ATOM    108  C   UNL A   1      27.763  27.906  23.814  1.00  0.00     0.000 A 
ENDBRANCH 102 103
ENDBRANCH  90 102
ENDBRANCH  87  90
ENDBRANCH  85  86
BRANCH  85 109
ATOM    109  C   UNL A   1      30.981  23.536  24.060  1.00  0.00     0.101 C 
BRANCH 109 110
ATOM    110  S   UNL A   1      31.017  23.554  25.880  1.00  0.00    -0.177 SA
ATOM    111  H   UNL A   1      31.889  22.610  26.326  1.00  0.00     0.102 HD
ENDBRANCH 109 110
ENDBRANCH  85 109
ENDBRANCH  82  85
ENDBRANCH  80  81
BRANCH  80 112
ATOM    112  C   UNL A   1      34.336  22.463  26.684  1.00  0.00     0.191 C 
BRANCH 112 113
ATOM    113  O   UNL A   1      34.782  21.480  27.621  1.00  0.00    -0.394 OA
ATOM    114  H   UNL A   1      35.315  21.908  28.309  1.00  0.00     0.210 HD
ENDBRANCH 112 113
ENDBRANCH  80 112
ENDBRANCH  77  80
ENDBRANCH  75  76
ENDBRANCH   1  75
TORSDOF 25
ENDMDL
