MODEL 1
REMARK VINA RESULT:     -12.7      0.000      0.000
REMARK SMILES O=C(CN1C(=O)N/C(=C/c2cc3c(cc2Cl)OCO3)C1=O)NCCCCCCNC(=O)c1ccc(-c2c3nc(c(-c4c(F)c(F)c(F)c(F)c4F)c4ccc([nH]4)c(-c4c(F)c(F)c(F)c(F)c4F)c4nc(c(-c5c(F)c(F)c(F)c(F)c5F)c5ccc2[nH]5)C=C4)C=C3)cc1
REMARK SMILES IDX 25 1 24 2 23 3 22 4 1 5 2 6 3 8 4 9 5 10 20 11 6 12 7 13
REMARK SMILES IDX 8 14 21 15 9 17 10 18 11 19 15 20 12 21 14 22 16 23 13 24
REMARK SMILES IDX 19 25 17 26 18 27 26 28 27 29 28 30 29 31 30 32 31 34 32 35
REMARK SMILES IDX 33 36 94 37 34 38 93 39 35 40 36 41 37 42 87 43 38 44 92 45
REMARK SMILES IDX 86 46 88 47 39 48 91 49 85 50 84 51 40 53 72 54 52 55 71 56
REMARK SMILES IDX 53 57 56 58 70 59 89 60 54 61 55 62 69 64 90 65 57 66 41 67
REMARK SMILES IDX 42 68 50 69 43 70 44 71 48 72 51 73 45 74 46 75 49 76 47 77
REMARK SMILES IDX 73 78 74 79 82 80 75 81 76 82 80 83 83 84 77 85 78 86 81 87
REMARK SMILES IDX 79 88 58 89 59 90 67 91 60 92 61 93 65 94 68 95 62 96 63 97
REMARK SMILES IDX 66 98 64 99
REMARK H PARENT 22 7 7 16 29 33 88 52 56 63
REMARK Flexibility Score: inf
ROOT
ATOM      1  C   UNL A   1      33.113  30.076  26.974  1.00  0.00     0.002 C 
ENDROOT
BRANCH   1   2
ATOM      2  C   UNL A   1      33.636  28.955  26.062  1.00  0.00     0.021 C 
BRANCH   2   3
ATOM      3  C   UNL A   1      33.166  29.030  24.607  1.00  0.00     0.116 C 
BRANCH   3   4
ATOM      4  N   UNL A   1      32.645  27.759  24.162  1.00  0.00    -0.355 N 
ATOM      5  O   UNL A   1      30.437  28.358  24.041  1.00  0.00    -0.273 OA
ATOM      6  C   UNL A   1      31.311  27.501  23.941  1.00  0.00     0.240 C 
ATOM      7  H   UNL A   1      33.287  27.028  24.006  1.00  0.00     0.163 HD
BRANCH   6   8
ATOM      8  C   UNL A   1      30.984  26.016  23.750  1.00  0.00     0.230 C 
BRANCH   8   9
ATOM      9  N   UNL A   1      31.276  25.215  24.923  1.00  0.00    -0.249 N 
ATOM     10  C   UNL A   1      30.485  25.128  26.043  1.00  0.00     0.329 C 
ATOM     11  C   UNL A   1      32.302  24.307  24.983  1.00  0.00     0.278 C 
ATOM     12  O   UNL A   1      29.451  25.742  26.257  1.00  0.00    -0.248 OA
ATOM     13  N   UNL A   1      31.064  24.223  26.912  1.00  0.00    -0.303 N 
ATOM     14  C   UNL A   1      32.178  23.677  26.343  1.00  0.00     0.109 C 
ATOM     15  O   UNL A   1      33.090  24.003  24.102  1.00  0.00    -0.267 OA
ATOM     16  H   UNL A   1      30.723  24.004  27.809  1.00  0.00     0.172 HD
ATOM     17  C   UNL A   1      32.943  22.745  26.921  1.00  0.00     0.042 C 
BRANCH  17  18
ATOM     18  C   UNL A   1      34.086  22.110  26.252  1.00  0.00    -0.001 A 
ATOM     19  C   UNL A   1      35.345  22.704  26.449  1.00  0.00     0.060 A 
ATOM     20  C   UNL A   1      33.986  20.926  25.476  1.00  0.00     0.052 A 
ATOM     21  C   UNL A   1      36.448  22.078  25.912  1.00  0.00     0.166 A 
ATOM     22  C   UNL A   1      35.128  20.313  24.951  1.00  0.00     0.071 A 
ATOM     23  Cl  UNL A   1      32.452  20.199  25.132  1.00  0.00    -0.084 Cl
ATOM     24  C   UNL A   1      36.345  20.911  25.194  1.00  0.00     0.167 A 
ATOM     25  O   UNL A   1      37.734  22.505  26.028  1.00  0.00    -0.454 OA
ATOM     26  O   UNL A   1      37.554  20.452  24.777  1.00  0.00    -0.454 OA
ATOM     27  C   UNL A   1      38.435  21.445  25.345  1.00  0.00     0.468 C 
ENDBRANCH  17  18
ENDBRANCH   8   9
ENDBRANCH   6   8
ENDBRANCH   3   4
ENDBRANCH   2   3
ENDBRANCH   1   2
BRANCH   1  28
ATOM     28  C   UNL A   1      31.687  30.557  26.690  1.00  0.00     0.002 C 
BRANCH  28  29
ATOM     29  C   UNL A   1      31.474  32.069  26.775  1.00  0.00     0.021 C 
BRANCH  29  30
ATOM     30  C   UNL A   1      32.722  32.884  27.100  1.00  0.00     0.116 C 
BRANCH  30  31
ATOM     31  N   UNL A   1      32.415  34.226  27.567  1.00  0.00    -0.352 N 
ATOM     32  C   UNL A   1      32.988  34.943  28.590  1.00  0.00     0.251 C 
ATOM     33  H   UNL A   1      31.693  34.688  27.081  1.00  0.00     0.163 HD
ATOM     34  O   UNL A   1      32.513  36.023  28.929  1.00  0.00    -0.269 OA
BRANCH  32  35
ATOM     35  C   UNL A   1      34.165  34.404  29.309  1.00  0.00     0.039 A 
ATOM     36  C   UNL A   1      33.960  33.709  30.504  1.00  0.00     0.014 A 
ATOM     37  C   UNL A   1      35.462  34.595  28.824  1.00  0.00     0.014 A 
ATOM     38  C   UNL A   1      35.049  33.152  31.181  1.00  0.00     0.010 A 
ATOM     39  C   UNL A   1      36.539  33.988  29.467  1.00  0.00     0.010 A 
ATOM     40  C   UNL A   1      36.344  33.262  30.652  1.00  0.00    -0.014 A 
BRANCH  40  41
ATOM     41  C   UNL A   1      37.510  32.640  31.331  1.00  0.00     0.031 A 
ATOM     42  C   UNL A   1      38.249  31.508  30.673  1.00  0.00     0.074 A 
ATOM     43  C   UNL A   1      37.867  33.052  32.564  1.00  0.00     0.049 A 
ATOM     44  N   UNL A   1      39.222  30.769  31.142  1.00  0.00    -0.248 NA
ATOM     45  C   UNL A   1      37.819  31.143  29.314  1.00  0.00     0.031 C 
ATOM     46  C   UNL A   1      37.210  34.114  33.325  1.00  0.00     0.029 A 
ATOM     47  N   UNL A   1      38.863  32.611  33.400  1.00  0.00    -0.354 N 
ATOM     48  C   UNL A   1      39.511  29.847  30.145  1.00  0.00     0.074 A 
ATOM     49  C   UNL A   1      38.581  30.088  29.063  1.00  0.00     0.031 C 
ATOM     50  C   UNL A   1      37.824  34.249  34.512  1.00  0.00     0.029 A 
ATOM     51  C   UNL A   1      38.897  33.263  34.609  1.00  0.00     0.049 A 
ATOM     52  H   UNL A   1      39.494  31.897  33.156  1.00  0.00     0.167 HD
ATOM     53  C   UNL A   1      40.477  28.898  30.125  1.00  0.00     0.037 A 
ATOM     54  C   UNL A   1      39.696  33.078  35.677  1.00  0.00     0.037 A 
ATOM     55  C   UNL A   1      41.420  28.674  31.188  1.00  0.00     0.049 A 
ATOM     56  C   UNL A   1      40.767  32.023  35.622  1.00  0.00     0.074 A 
ATOM     57  C   UNL A   1      42.452  27.753  31.249  1.00  0.00     0.029 A 
ATOM     58  N   UNL A   1      41.451  29.388  32.377  1.00  0.00    -0.354 N 
ATOM     59  N   UNL A   1      41.055  31.184  34.657  1.00  0.00    -0.248 NA
ATOM     60  C   UNL A   1      41.634  31.896  36.804  1.00  0.00     0.031 C 
ATOM     61  C   UNL A   1      43.092  27.894  32.485  1.00  0.00     0.029 A 
ATOM     62  C   UNL A   1      42.483  28.927  33.177  1.00  0.00     0.049 A 
ATOM     63  H   UNL A   1      40.830  30.115  32.616  1.00  0.00     0.167 HD
ATOM     64  C   UNL A   1      42.150  30.455  35.100  1.00  0.00     0.074 A 
ATOM     65  C   UNL A   1      42.484  30.958  36.416  1.00  0.00     0.031 C 
ATOM     66  C   UNL A   1      42.817  29.456  34.474  1.00  0.00     0.037 A 
BRANCH  53  67
ATOM     67  C   UNL A   1      40.579  28.038  28.901  1.00  0.00     0.064 A 
ATOM     68  C   UNL A   1      39.832  26.858  28.774  1.00  0.00     0.173 A 
ATOM     69  C   UNL A   1      41.390  28.422  27.822  1.00  0.00     0.173 A 
ATOM     70  F   UNL A   1      39.052  26.442  29.783  1.00  0.00    -0.203 F 
ATOM     71  C   UNL A   1      39.907  26.083  27.620  1.00  0.00     0.198 A 
ATOM     72  C   UNL A   1      41.442  27.658  26.660  1.00  0.00     0.198 A 
ATOM     73  F   UNL A   1      42.120  29.546  27.891  1.00  0.00    -0.203 F 
ATOM     74  F   UNL A   1      39.212  24.940  27.537  1.00  0.00    -0.200 F 
ATOM     75  C   UNL A   1      40.705  26.488  26.561  1.00  0.00     0.200 A 
ATOM     76  F   UNL A   1      42.205  28.056  25.631  1.00  0.00    -0.200 F 
ATOM     77  F   UNL A   1      40.768  25.747  25.446  1.00  0.00    -0.200 F 
ENDBRANCH  53  67
BRANCH  54  78
ATOM     78  C   UNL A   1      39.527  33.920  36.890  1.00  0.00     0.064 A 
ATOM     79  C   UNL A   1      40.136  35.179  36.982  1.00  0.00     0.173 A 
ATOM     80  C   UNL A   1      38.779  33.474  37.989  1.00  0.00     0.173 A 
ATOM     81  F   UNL A   1      40.879  35.639  35.964  1.00  0.00    -0.203 F 
ATOM     82  C   UNL A   1      40.027  35.949  38.137  1.00  0.00     0.198 A 
ATOM     83  C   UNL A   1      38.648  34.257  39.134  1.00  0.00     0.198 A 
ATOM     84  F   UNL A   1      38.173  32.279  37.948  1.00  0.00    -0.203 F 
ATOM     85  F   UNL A   1      40.663  37.124  38.219  1.00  0.00    -0.200 F 
ATOM     86  C   UNL A   1      39.280  35.489  39.211  1.00  0.00     0.200 A 
ATOM     87  F   UNL A   1      37.916  33.814  40.166  1.00  0.00    -0.200 F 
ATOM     88  F   UNL A   1      39.179  36.227  40.324  1.00  0.00    -0.200 F 
ENDBRANCH  54  78
BRANCH  66  89
ATOM     89  C   UNL A   1      44.006  28.874  35.179  1.00  0.00     0.064 A 
ATOM     90  C   UNL A   1      45.298  29.381  34.983  1.00  0.00     0.173 A 
ATOM     91  C   UNL A   1      43.841  27.821  36.092  1.00  0.00     0.173 A 
ATOM     92  F   UNL A   1      45.507  30.377  34.109  1.00  0.00    -0.203 F 
ATOM     93  C   UNL A   1      46.387  28.840  35.660  1.00  0.00     0.198 A 
ATOM     94  C   UNL A   1      44.929  27.300  36.786  1.00  0.00     0.198 A 
ATOM     95  F   UNL A   1      42.623  27.306  36.317  1.00  0.00    -0.203 F 
ATOM     96  F   UNL A   1      47.620  29.311  35.428  1.00  0.00    -0.200 F 
ATOM     97  C   UNL A   1      46.201  27.805  36.565  1.00  0.00     0.200 A 
ATOM     98  F   UNL A   1      44.746  26.307  37.667  1.00  0.00    -0.200 F 
ATOM     99  F   UNL A   1      47.251  27.289  37.219  1.00  0.00    -0.200 F 
ENDBRANCH  66  89
ENDBRANCH  40  41
ENDBRANCH  32  35
ENDBRANCH  30  31
ENDBRANCH  29  30
ENDBRANCH  28  29
ENDBRANCH   1  28
TORSDOF 15
ENDMDL
MODEL 2
REMARK VINA RESULT:     -12.5      2.108      7.702
REMARK SMILES O=C(CN1C(=O)N/C(=C/c2cc3c(cc2Cl)OCO3)C1=O)NCCCCCCNC(=O)c1ccc(-c2c3nc(c(-c4c(F)c(F)c(F)c(F)c4F)c4ccc([nH]4)c(-c4c(F)c(F)c(F)c(F)c4F)c4nc(c(-c5c(F)c(F)c(F)c(F)c5F)c5ccc2[nH]5)C=C4)C=C3)cc1
REMARK SMILES IDX 25 1 24 2 23 3 22 4 1 5 2 6 3 8 4 9 5 10 20 11 6 12 7 13
REMARK SMILES IDX 8 14 21 15 9 17 10 18 11 19 15 20 12 21 14 22 16 23 13 24
REMARK SMILES IDX 19 25 17 26 18 27 26 28 27 29 28 30 29 31 30 32 31 34 32 35
REMARK SMILES IDX 33 36 94 37 34 38 93 39 35 40 36 41 37 42 87 43 38 44 92 45
REMARK SMILES IDX 86 46 88 47 39 48 91 49 85 50 84 51 40 53 72 54 52 55 71 56
REMARK SMILES IDX 53 57 56 58 70 59 89 60 54 61 55 62 69 64 90 65 57 66 41 67
REMARK SMILES IDX 42 68 50 69 43 70 44 71 48 72 51 73 45 74 46 75 49 76 47 77
REMARK SMILES IDX 73 78 74 79 82 80 75 81 76 82 80 83 83 84 77 85 78 86 81 87
REMARK SMILES IDX 79 88 58 89 59 90 67 91 60 92 61 93 65 94 68 95 62 96 63 97
REMARK SMILES IDX 66 98 64 99
REMARK H PARENT 22 7 7 16 29 33 88 52 56 63
REMARK Flexibility Score: inf
ROOT
ATOM      1  C   UNL A   1      35.133  33.255  28.055  1.00  0.00     0.002 C 
ENDROOT
BRANCH   1   2
ATOM      2  C   UNL A   1      35.512  31.766  28.002  1.00  0.00     0.021 C 
BRANCH   2   3
ATOM      3  C   UNL A   1      34.329  30.799  27.904  1.00  0.00     0.116 C 
BRANCH   3   4
ATOM      4  N   UNL A   1      34.027  30.485  26.527  1.00  0.00    -0.355 N 
ATOM      5  O   UNL A   1      32.030  29.421  26.887  1.00  0.00    -0.273 OA
ATOM      6  C   UNL A   1      32.913  29.787  26.116  1.00  0.00     0.240 C 
ATOM      7  H   UNL A   1      34.659  30.789  25.836  1.00  0.00     0.163 HD
BRANCH   6   8
ATOM      8  C   UNL A   1      32.961  29.339  24.652  1.00  0.00     0.230 C 
BRANCH   8   9
ATOM      9  N   UNL A   1      31.894  28.421  24.303  1.00  0.00    -0.249 N 
ATOM     10  C   UNL A   1      30.639  28.785  23.880  1.00  0.00     0.329 C 
ATOM     11  C   UNL A   1      32.069  27.065  24.189  1.00  0.00     0.278 C 
ATOM     12  O   UNL A   1      30.202  29.921  23.781  1.00  0.00    -0.248 OA
ATOM     13  N   UNL A   1      29.931  27.635  23.586  1.00  0.00    -0.303 N 
ATOM     14  C   UNL A   1      30.729  26.541  23.751  1.00  0.00     0.109 C 
ATOM     15  O   UNL A   1      33.100  26.426  24.322  1.00  0.00    -0.267 OA
ATOM     16  H   UNL A   1      28.989  27.610  23.301  1.00  0.00     0.172 HD
ATOM     17  C   UNL A   1      30.345  25.282  23.516  1.00  0.00     0.042 C 
BRANCH  17  18
ATOM     18  C   UNL A   1      31.250  24.129  23.616  1.00  0.00    -0.001 A 
ATOM     19  C   UNL A   1      31.029  23.242  24.683  1.00  0.00     0.060 A 
ATOM     20  C   UNL A   1      32.279  23.854  22.679  1.00  0.00     0.052 A 
ATOM     21  C   UNL A   1      31.801  22.103  24.750  1.00  0.00     0.166 A 
ATOM     22  C   UNL A   1      33.041  22.684  22.772  1.00  0.00     0.071 A 
ATOM     23  Cl  UNL A   1      32.650  24.954  21.395  1.00  0.00    -0.084 Cl
ATOM     24  C   UNL A   1      32.770  21.825  23.815  1.00  0.00     0.167 A 
ATOM     25  O   UNL A   1      31.701  21.134  25.699  1.00  0.00    -0.454 OA
ATOM     26  O   UNL A   1      33.395  20.643  24.055  1.00  0.00    -0.454 OA
ATOM     27  C   UNL A   1      32.684  20.189  25.226  1.00  0.00     0.468 C 
ENDBRANCH  17  18
ENDBRANCH   8   9
ENDBRANCH   6   8
ENDBRANCH   3   4
ENDBRANCH   2   3
ENDBRANCH   1   2
BRANCH   1  28
ATOM     28  C   UNL A   1      34.252  33.678  29.235  1.00  0.00     0.002 C 
BRANCH  28  29
ATOM     29  C   UNL A   1      33.163  34.699  28.907  1.00  0.00     0.021 C 
BRANCH  29  30
ATOM     30  C   UNL A   1      33.354  36.078  29.532  1.00  0.00     0.116 C 
BRANCH  30  31
ATOM     31  N   UNL A   1      32.462  36.318  30.656  1.00  0.00    -0.352 N 
ATOM     32  C   UNL A   1      32.562  35.880  31.954  1.00  0.00     0.251 C 
ATOM     33  H   UNL A   1      31.674  36.874  30.457  1.00  0.00     0.163 HD
ATOM     34  O   UNL A   1      31.644  36.076  32.744  1.00  0.00    -0.269 OA
BRANCH  32  35
ATOM     35  C   UNL A   1      33.767  35.144  32.401  1.00  0.00     0.039 A 
ATOM     36  C   UNL A   1      33.612  33.851  32.911  1.00  0.00     0.014 A 
ATOM     37  C   UNL A   1      35.037  35.723  32.338  1.00  0.00     0.014 A 
ATOM     38  C   UNL A   1      34.736  33.117  33.299  1.00  0.00     0.010 A 
ATOM     39  C   UNL A   1      36.161  34.969  32.668  1.00  0.00     0.010 A 
ATOM     40  C   UNL A   1      36.022  33.659  33.154  1.00  0.00    -0.014 A 
BRANCH  40  41
ATOM     41  C   UNL A   1      37.234  32.880  33.519  1.00  0.00     0.031 A 
ATOM     42  C   UNL A   1      37.956  33.170  34.805  1.00  0.00     0.074 A 
ATOM     43  C   UNL A   1      37.719  31.957  32.666  1.00  0.00     0.049 A 
ATOM     44  N   UNL A   1      39.081  32.675  35.254  1.00  0.00    -0.248 NA
ATOM     45  C   UNL A   1      37.342  34.168  35.695  1.00  0.00     0.031 C 
ATOM     46  C   UNL A   1      37.134  31.608  31.372  1.00  0.00     0.029 A 
ATOM     47  N   UNL A   1      38.830  31.153  32.756  1.00  0.00    -0.354 N 
ATOM     48  C   UNL A   1      39.316  33.308  36.467  1.00  0.00     0.074 A 
ATOM     49  C   UNL A   1      38.241  34.257  36.665  1.00  0.00     0.031 C 
ATOM     50  C   UNL A   1      37.884  30.657  30.792  1.00  0.00     0.029 A 
ATOM     51  C   UNL A   1      39.020  30.351  31.658  1.00  0.00     0.049 A 
ATOM     52  H   UNL A   1      39.431  31.151  33.535  1.00  0.00     0.167 HD
ATOM     53  C   UNL A   1      40.325  33.103  37.347  1.00  0.00     0.037 A 
ATOM     54  C   UNL A   1      40.004  29.476  31.376  1.00  0.00     0.037 A 
ATOM     55  C   UNL A   1      41.380  32.143  37.165  1.00  0.00     0.049 A 
ATOM     56  C   UNL A   1      41.107  29.261  32.378  1.00  0.00     0.074 A 
ATOM     57  C   UNL A   1      42.433  31.844  38.013  1.00  0.00     0.029 A 
ATOM     58  N   UNL A   1      41.511  31.315  36.060  1.00  0.00    -0.354 N 
ATOM     59  N   UNL A   1      41.295  29.838  33.539  1.00  0.00    -0.248 NA
ATOM     60  C   UNL A   1      42.131  28.264  32.032  1.00  0.00     0.031 C 
ATOM     61  C   UNL A   1      43.214  30.853  37.410  1.00  0.00     0.029 A 
ATOM     62  C   UNL A   1      42.627  30.508  36.204  1.00  0.00     0.049 A 
ATOM     63  H   UNL A   1      40.900  31.303  35.287  1.00  0.00     0.167 HD
ATOM     64  C   UNL A   1      42.435  29.255  34.075  1.00  0.00     0.074 A 
ATOM     65  C   UNL A   1      42.890  28.269  33.118  1.00  0.00     0.031 C 
ATOM     66  C   UNL A   1      43.051  29.514  35.253  1.00  0.00     0.037 A 
BRANCH  53  67
ATOM     67  C   UNL A   1      40.327  33.923  38.603  1.00  0.00     0.064 A 
ATOM     68  C   UNL A   1      39.634  33.506  39.748  1.00  0.00     0.173 A 
ATOM     69  C   UNL A   1      41.072  35.110  38.681  1.00  0.00     0.173 A 
ATOM     70  F   UNL A   1      38.896  32.385  39.719  1.00  0.00    -0.203 F 
ATOM     71  C   UNL A   1      39.669  34.256  40.920  1.00  0.00     0.198 A 
ATOM     72  C   UNL A   1      41.126  35.843  39.863  1.00  0.00     0.198 A 
ATOM     73  F   UNL A   1      41.759  35.549  37.615  1.00  0.00    -0.203 F 
ATOM     74  F   UNL A   1      38.968  33.857  41.991  1.00  0.00    -0.200 F 
ATOM     75  C   UNL A   1      40.422  35.419  40.979  1.00  0.00     0.200 A 
ATOM     76  F   UNL A   1      41.864  36.961  39.923  1.00  0.00    -0.200 F 
ATOM     77  F   UNL A   1      40.465  36.135  42.112  1.00  0.00    -0.200 F 
ENDBRANCH  53  67
BRANCH  54  78
ATOM     78  C   UNL A   1      39.989  28.721  30.097  1.00  0.00     0.064 A 
ATOM     79  C   UNL A   1      39.386  27.459  30.013  1.00  0.00     0.173 A 
ATOM     80  C   UNL A   1      40.600  29.231  28.942  1.00  0.00     0.173 A 
ATOM     81  F   UNL A   1      38.808  26.921  31.097  1.00  0.00    -0.203 F 
ATOM     82  C   UNL A   1      39.417  26.723  28.831  1.00  0.00     0.198 A 
ATOM     83  C   UNL A   1      40.607  28.506  27.753  1.00  0.00     0.198 A 
ATOM     84  F   UNL A   1      41.187  30.437  28.970  1.00  0.00    -0.203 F 
ATOM     85  F   UNL A   1      38.879  25.497  28.793  1.00  0.00    -0.200 F 
ATOM     86  C   UNL A   1      40.024  27.249  27.700  1.00  0.00     0.200 A 
ATOM     87  F   UNL A   1      41.185  29.022  26.659  1.00  0.00    -0.200 F 
ATOM     88  F   UNL A   1      40.058  26.540  26.565  1.00  0.00    -0.200 F 
ENDBRANCH  54  78
BRANCH  66  89
ATOM     89  C   UNL A   1      44.254  28.687  35.598  1.00  0.00     0.064 A 
ATOM     90  C   UNL A   1      44.141  27.491  36.320  1.00  0.00     0.173 A 
ATOM     91  C   UNL A   1      45.529  29.079  35.165  1.00  0.00     0.173 A 
ATOM     92  F   UNL A   1      42.944  27.083  36.769  1.00  0.00    -0.203 F 
ATOM     93  C   UNL A   1      45.267  26.727  36.616  1.00  0.00     0.198 A 
ATOM     94  C   UNL A   1      46.649  28.300  35.440  1.00  0.00     0.198 A 
ATOM     95  F   UNL A   1      45.687  30.214  34.465  1.00  0.00    -0.203 F 
ATOM     96  F   UNL A   1      45.143  25.608  37.343  1.00  0.00    -0.200 F 
ATOM     97  C   UNL A   1      46.517  27.129  36.170  1.00  0.00     0.200 A 
ATOM     98  F   UNL A   1      47.855  28.684  35.001  1.00  0.00    -0.200 F 
ATOM     99  F   UNL A   1      47.599  26.389  36.452  1.00  0.00    -0.200 F 
ENDBRANCH  66  89
ENDBRANCH  40  41
ENDBRANCH  32  35
ENDBRANCH  30  31
ENDBRANCH  29  30
ENDBRANCH  28  29
ENDBRANCH   1  28
TORSDOF 15
ENDMDL
MODEL 3
REMARK VINA RESULT:     -12.5      1.681      7.604
REMARK SMILES O=C(CN1C(=O)N/C(=C/c2cc3c(cc2Cl)OCO3)C1=O)NCCCCCCNC(=O)c1ccc(-c2c3nc(c(-c4c(F)c(F)c(F)c(F)c4F)c4ccc([nH]4)c(-c4c(F)c(F)c(F)c(F)c4F)c4nc(c(-c5c(F)c(F)c(F)c(F)c5F)c5ccc2[nH]5)C=C4)C=C3)cc1
REMARK SMILES IDX 25 1 24 2 23 3 22 4 1 5 2 6 3 8 4 9 5 10 20 11 6 12 7 13
REMARK SMILES IDX 8 14 21 15 9 17 10 18 11 19 15 20 12 21 14 22 16 23 13 24
REMARK SMILES IDX 19 25 17 26 18 27 26 28 27 29 28 30 29 31 30 32 31 34 32 35
REMARK SMILES IDX 33 36 94 37 34 38 93 39 35 40 36 41 37 42 87 43 38 44 92 45
REMARK SMILES IDX 86 46 88 47 39 48 91 49 85 50 84 51 40 53 72 54 52 55 71 56
REMARK SMILES IDX 53 57 56 58 70 59 89 60 54 61 55 62 69 64 90 65 57 66 41 67
REMARK SMILES IDX 42 68 50 69 43 70 44 71 48 72 51 73 45 74 46 75 49 76 47 77
REMARK SMILES IDX 73 78 74 79 82 80 75 81 76 82 80 83 83 84 77 85 78 86 81 87
REMARK SMILES IDX 79 88 58 89 59 90 67 91 60 92 61 93 65 94 68 95 62 96 63 97
REMARK SMILES IDX 66 98 64 99
REMARK H PARENT 22 7 7 16 29 33 88 52 56 63
REMARK Flexibility Score: inf
ROOT
ATOM      1  C   UNL A   1      35.148  33.029  28.100  1.00  0.00     0.002 C 
ENDROOT
BRANCH   1   2
ATOM      2  C   UNL A   1      34.190  31.857  27.829  1.00  0.00     0.021 C 
BRANCH   2   3
ATOM      3  C   UNL A   1      34.831  30.469  27.896  1.00  0.00     0.116 C 
BRANCH   3   4
ATOM      4  N   UNL A   1      33.827  29.431  27.865  1.00  0.00    -0.355 N 
ATOM      5  O   UNL A   1      34.306  28.605  25.782  1.00  0.00    -0.273 OA
ATOM      6  C   UNL A   1      33.612  28.591  26.795  1.00  0.00     0.240 C 
ATOM      7  H   UNL A   1      33.259  29.315  28.661  1.00  0.00     0.163 HD
BRANCH   6   8
ATOM      8  C   UNL A   1      32.320  27.773  26.892  1.00  0.00     0.230 C 
BRANCH   8   9
ATOM      9  N   UNL A   1      32.078  26.952  25.722  1.00  0.00    -0.249 N 
ATOM     10  C   UNL A   1      31.360  27.337  24.615  1.00  0.00     0.329 C 
ATOM     11  C   UNL A   1      32.689  25.743  25.505  1.00  0.00     0.278 C 
ATOM     12  O   UNL A   1      30.769  28.395  24.459  1.00  0.00    -0.248 OA
ATOM     13  N   UNL A   1      31.404  26.311  23.692  1.00  0.00    -0.303 N 
ATOM     14  C   UNL A   1      32.192  25.298  24.157  1.00  0.00     0.109 C 
ATOM     15  O   UNL A   1      33.521  25.186  26.202  1.00  0.00    -0.267 OA
ATOM     16  H   UNL A   1      30.936  26.310  22.826  1.00  0.00     0.172 HD
ATOM     17  C   UNL A   1      32.459  24.176  23.481  1.00  0.00     0.042 C 
BRANCH  17  18
ATOM     18  C   UNL A   1      33.381  23.141  23.966  1.00  0.00    -0.001 A 
ATOM     19  C   UNL A   1      34.709  23.212  23.513  1.00  0.00     0.060 A 
ATOM     20  C   UNL A   1      33.011  22.127  24.888  1.00  0.00     0.052 A 
ATOM     21  C   UNL A   1      35.619  22.312  24.023  1.00  0.00     0.166 A 
ATOM     22  C   UNL A   1      33.962  21.233  25.392  1.00  0.00     0.071 A 
ATOM     23  Cl  UNL A   1      31.373  21.940  25.415  1.00  0.00    -0.084 Cl
ATOM     24  C   UNL A   1      35.258  21.358  24.945  1.00  0.00     0.167 A 
ATOM     25  O   UNL A   1      36.941  22.260  23.709  1.00  0.00    -0.454 OA
ATOM     26  O   UNL A   1      36.312  20.592  25.333  1.00  0.00    -0.454 OA
ATOM     27  C   UNL A   1      37.383  21.195  24.578  1.00  0.00     0.468 C 
ENDBRANCH  17  18
ENDBRANCH   8   9
ENDBRANCH   6   8
ENDBRANCH   3   4
ENDBRANCH   2   3
ENDBRANCH   1   2
BRANCH   1  28
ATOM     28  C   UNL A   1      34.750  33.966  29.245  1.00  0.00     0.002 C 
BRANCH  28  29
ATOM     29  C   UNL A   1      33.378  34.626  29.106  1.00  0.00     0.021 C 
BRANCH  29  30
ATOM     30  C   UNL A   1      33.319  36.095  29.512  1.00  0.00     0.116 C 
BRANCH  30  31
ATOM     31  N   UNL A   1      32.425  36.337  30.633  1.00  0.00    -0.352 N 
ATOM     32  C   UNL A   1      32.520  35.899  31.932  1.00  0.00     0.251 C 
ATOM     33  H   UNL A   1      31.638  36.894  30.433  1.00  0.00     0.163 HD
ATOM     34  O   UNL A   1      31.600  36.096  32.719  1.00  0.00    -0.269 OA
BRANCH  32  35
ATOM     35  C   UNL A   1      33.722  35.160  32.382  1.00  0.00     0.039 A 
ATOM     36  C   UNL A   1      33.568  33.854  32.857  1.00  0.00     0.014 A 
ATOM     37  C   UNL A   1      34.989  35.749  32.355  1.00  0.00     0.014 A 
ATOM     38  C   UNL A   1      34.690  33.118  33.247  1.00  0.00     0.010 A 
ATOM     39  C   UNL A   1      36.113  34.995  32.687  1.00  0.00     0.010 A 
ATOM     40  C   UNL A   1      35.975  33.673  33.138  1.00  0.00    -0.014 A 
BRANCH  40  41
ATOM     41  C   UNL A   1      37.185  32.893  33.505  1.00  0.00     0.031 A 
ATOM     42  C   UNL A   1      37.906  33.184  34.792  1.00  0.00     0.074 A 
ATOM     43  C   UNL A   1      37.671  31.969  32.654  1.00  0.00     0.049 A 
ATOM     44  N   UNL A   1      39.030  32.688  35.243  1.00  0.00    -0.248 NA
ATOM     45  C   UNL A   1      37.291  34.183  35.680  1.00  0.00     0.031 C 
ATOM     46  C   UNL A   1      37.087  31.619  31.359  1.00  0.00     0.029 A 
ATOM     47  N   UNL A   1      38.781  31.164  32.746  1.00  0.00    -0.354 N 
ATOM     48  C   UNL A   1      39.264  33.322  36.456  1.00  0.00     0.074 A 
ATOM     49  C   UNL A   1      38.189  34.271  36.651  1.00  0.00     0.031 C 
ATOM     50  C   UNL A   1      37.838  30.667  30.780  1.00  0.00     0.029 A 
ATOM     51  C   UNL A   1      38.972  30.361  31.648  1.00  0.00     0.049 A 
ATOM     52  H   UNL A   1      39.381  31.163  33.525  1.00  0.00     0.167 HD
ATOM     53  C   UNL A   1      40.271  33.117  37.337  1.00  0.00     0.037 A 
ATOM     54  C   UNL A   1      39.956  29.486  31.369  1.00  0.00     0.037 A 
ATOM     55  C   UNL A   1      41.326  32.155  37.157  1.00  0.00     0.049 A 
ATOM     56  C   UNL A   1      41.058  29.271  32.372  1.00  0.00     0.074 A 
ATOM     57  C   UNL A   1      42.378  31.857  38.007  1.00  0.00     0.029 A 
ATOM     58  N   UNL A   1      41.457  31.327  36.053  1.00  0.00    -0.354 N 
ATOM     59  N   UNL A   1      41.245  29.849  33.533  1.00  0.00    -0.248 NA
ATOM     60  C   UNL A   1      42.082  28.273  32.028  1.00  0.00     0.031 C 
ATOM     61  C   UNL A   1      43.159  30.865  37.406  1.00  0.00     0.029 A 
ATOM     62  C   UNL A   1      42.573  30.519  36.199  1.00  0.00     0.049 A 
ATOM     63  H   UNL A   1      40.848  31.315  35.279  1.00  0.00     0.167 HD
ATOM     64  C   UNL A   1      42.383  29.264  34.070  1.00  0.00     0.074 A 
ATOM     65  C   UNL A   1      42.839  28.278  33.115  1.00  0.00     0.031 C 
ATOM     66  C   UNL A   1      42.998  29.524  35.249  1.00  0.00     0.037 A 
BRANCH  53  67
ATOM     67  C   UNL A   1      40.272  33.937  38.592  1.00  0.00     0.064 A 
ATOM     68  C   UNL A   1      40.986  35.142  38.676  1.00  0.00     0.173 A 
ATOM     69  C   UNL A   1      39.512  33.544  39.705  1.00  0.00     0.173 A 
ATOM     70  F   UNL A   1      41.738  35.553  37.644  1.00  0.00    -0.203 F 
ATOM     71  C   UNL A   1      40.954  35.914  39.834  1.00  0.00     0.198 A 
ATOM     72  C   UNL A   1      39.462  34.333  40.851  1.00  0.00     0.198 A 
ATOM     73  F   UNL A   1      38.807  32.403  39.673  1.00  0.00    -0.203 F 
ATOM     74  F   UNL A   1      41.674  37.043  39.904  1.00  0.00    -0.200 F 
ATOM     75  C   UNL A   1      40.186  35.514  40.916  1.00  0.00     0.200 A 
ATOM     76  F   UNL A   1      38.710  33.951  41.893  1.00  0.00    -0.200 F 
ATOM     77  F   UNL A   1      40.147  36.264  42.027  1.00  0.00    -0.200 F 
ENDBRANCH  53  67
BRANCH  54  78
ATOM     78  C   UNL A   1      39.943  28.730  30.089  1.00  0.00     0.064 A 
ATOM     79  C   UNL A   1      39.368  27.455  30.014  1.00  0.00     0.173 A 
ATOM     80  C   UNL A   1      40.527  29.253  28.927  1.00  0.00     0.173 A 
ATOM     81  F   UNL A   1      38.816  26.903  31.105  1.00  0.00    -0.203 F 
ATOM     82  C   UNL A   1      39.401  26.719  28.831  1.00  0.00     0.198 A 
ATOM     83  C   UNL A   1      40.536  28.528  27.738  1.00  0.00     0.198 A 
ATOM     84  F   UNL A   1      41.087  30.472  28.947  1.00  0.00    -0.203 F 
ATOM     85  F   UNL A   1      38.891  25.480  28.800  1.00  0.00    -0.200 F 
ATOM     86  C   UNL A   1      39.981  27.257  27.693  1.00  0.00     0.200 A 
ATOM     87  F   UNL A   1      41.088  29.056  26.637  1.00  0.00    -0.200 F 
ATOM     88  F   UNL A   1      40.017  26.548  26.557  1.00  0.00    -0.200 F 
ENDBRANCH  54  78
BRANCH  66  89
ATOM     89  C   UNL A   1      44.199  28.697  35.597  1.00  0.00     0.064 A 
ATOM     90  C   UNL A   1      44.086  27.503  36.322  1.00  0.00     0.173 A 
ATOM     91  C   UNL A   1      45.476  29.087  35.162  1.00  0.00     0.173 A 
ATOM     92  F   UNL A   1      42.888  27.098  36.771  1.00  0.00    -0.203 F 
ATOM     93  C   UNL A   1      45.210  26.739  36.620  1.00  0.00     0.198 A 
ATOM     94  C   UNL A   1      46.594  28.307  35.440  1.00  0.00     0.198 A 
ATOM     95  F   UNL A   1      45.635  30.219  34.460  1.00  0.00    -0.203 F 
ATOM     96  F   UNL A   1      45.085  25.622  37.350  1.00  0.00    -0.200 F 
ATOM     97  C   UNL A   1      46.461  27.137  36.173  1.00  0.00     0.200 A 
ATOM     98  F   UNL A   1      47.801  28.688  35.000  1.00  0.00    -0.200 F 
ATOM     99  F   UNL A   1      47.543  26.397  36.457  1.00  0.00    -0.200 F 
ENDBRANCH  66  89
ENDBRANCH  40  41
ENDBRANCH  32  35
ENDBRANCH  30  31
ENDBRANCH  29  30
ENDBRANCH  28  29
ENDBRANCH   1  28
TORSDOF 15
ENDMDL
