MODEL 1
REMARK VINA RESULT:     -12.8      0.000      0.000
REMARK SMILES CS(=O)(=O)N1C[C@@H]2CN(C(=O)c3ccco3)C[C@]2(C(=O)NCCCCCCNC(=O)c2ccc(-c3c4nc(c(-c5c(F)c(F)c(F)c(F)c5F)c5ccc([nH]5)c(-c5c(F)c(F)c(F)c(F)c5F)c5nc(c(-c6c(F)c(F)c(F)c(F)c6F)c6ccc3[nH]6)C=C5)C=C4)cc2)C1
REMARK SMILES IDX 24 1 23 2 22 3 21 4 19 5 20 6 18 8 5 9 6 10 94 11 7 12 8 13
REMARK SMILES IDX 17 14 9 15 2 16 1 17 3 18 4 19 10 20 11 21 12 22 13 23 16 24
REMARK SMILES IDX 14 25 15 26 25 27 26 28 27 29 28 30 29 31 30 33 31 34 32 35
REMARK SMILES IDX 93 36 33 37 92 38 34 39 35 40 36 41 86 42 37 43 91 44 85 45
REMARK SMILES IDX 87 46 38 47 90 48 84 49 83 50 39 52 71 53 51 54 70 55 52 56
REMARK SMILES IDX 55 57 69 58 88 59 53 60 54 61 68 63 89 64 56 65 40 66 41 67
REMARK SMILES IDX 49 68 42 69 43 70 47 71 50 72 44 73 45 74 48 75 46 76 72 77
REMARK SMILES IDX 73 78 81 79 74 80 75 81 79 82 82 83 76 84 77 85 80 86 78 87
REMARK SMILES IDX 57 88 58 89 66 90 59 91 60 92 64 93 67 94 61 95 62 96 65 97
REMARK SMILES IDX 63 98
REMARK H PARENT 21 7 28 32 87 51 55 62
REMARK Flexibility Score: inf
ROOT
ATOM      1  C   UNL A   1      32.842  30.063  26.747  1.00  0.00     0.002 C 
ENDROOT
BRANCH   1   2
ATOM      2  C   UNL A   1      32.662  28.546  26.804  1.00  0.00     0.021 C 
BRANCH   2   3
ATOM      3  C   UNL A   1      33.692  27.749  26.004  1.00  0.00     0.116 C 
BRANCH   3   4
ATOM      4  N   UNL A   1      34.080  28.507  24.830  1.00  0.00    -0.356 N 
ATOM      5  C   UNL A   1      33.730  28.231  23.533  1.00  0.00     0.229 C 
ATOM      6  O   UNL A   1      34.435  28.680  22.629  1.00  0.00    -0.274 OA
ATOM      7  H   UNL A   1      34.650  29.297  24.980  1.00  0.00     0.163 HD
BRANCH   5   8
ATOM      8  C   UNL A   1      32.442  27.398  23.322  1.00  0.00     0.086 C 
ATOM      9  N   UNL A   1      30.311  28.707  23.363  1.00  0.00    -0.201 NA
ATOM     10  C   UNL A   1      29.951  27.307  23.177  1.00  0.00     0.108 C 
ATOM     11  C   UNL A   1      31.752  28.827  22.964  1.00  0.00     0.121 C 
ATOM     12  C   UNL A   1      31.220  26.741  22.589  1.00  0.00     0.042 C 
ATOM     13  C   UNL A   1      31.304  25.247  22.782  1.00  0.00     0.126 C 
ATOM     14  C   UNL A   1      33.381  26.325  22.544  1.00  0.00     0.138 C 
ATOM     15  N   UNL A   1      32.717  25.035  22.773  1.00  0.00    -0.334 N 
BRANCH   9  16
ATOM     16  S   UNL A   1      29.225  29.858  22.764  1.00  0.00     0.211 S 
ATOM     17  C   UNL A   1      27.675  28.993  22.892  1.00  0.00     0.176 C 
ATOM     18  O   UNL A   1      29.508  30.031  21.352  1.00  0.00    -0.213 OA
ATOM     19  O   UNL A   1      29.222  30.983  23.670  1.00  0.00    -0.213 OA
ENDBRANCH   9  16
BRANCH  15  20
ATOM     20  C   UNL A   1      33.206  23.816  23.233  1.00  0.00     0.289 C 
ATOM     21  O   UNL A   1      32.427  22.876  23.410  1.00  0.00    -0.265 OA
BRANCH  20  22
ATOM     22  C   UNL A   1      34.596  23.694  23.612  1.00  0.00     0.191 A 
ATOM     23  C   UNL A   1      35.204  24.012  24.816  1.00  0.00     0.056 A 
ATOM     24  O   UNL A   1      35.521  23.154  22.764  1.00  0.00    -0.459 OA
ATOM     25  C   UNL A   1      36.571  23.680  24.684  1.00  0.00     0.043 A 
ATOM     26  C   UNL A   1      36.707  23.131  23.432  1.00  0.00     0.196 A 
ENDBRANCH  20  22
ENDBRANCH  15  20
ENDBRANCH   5   8
ENDBRANCH   3   4
ENDBRANCH   2   3
ENDBRANCH   1   2
BRANCH   1  27
ATOM     27  C   UNL A   1      31.631  30.815  26.196  1.00  0.00     0.002 C 
BRANCH  27  28
ATOM     28  C   UNL A   1      31.404  32.207  26.795  1.00  0.00     0.021 C 
BRANCH  28  29
ATOM     29  C   UNL A   1      32.673  32.954  27.197  1.00  0.00     0.116 C 
BRANCH  29  30
ATOM     30  N   UNL A   1      32.403  34.316  27.626  1.00  0.00    -0.352 N 
ATOM     31  C   UNL A   1      32.971  35.035  28.646  1.00  0.00     0.251 C 
ATOM     32  H   UNL A   1      31.711  34.791  27.111  1.00  0.00     0.163 HD
ATOM     33  O   UNL A   1      32.502  36.117  28.984  1.00  0.00    -0.269 OA
BRANCH  31  34
ATOM     34  C   UNL A   1      34.146  34.490  29.356  1.00  0.00     0.039 A 
ATOM     35  C   UNL A   1      33.955  33.850  30.582  1.00  0.00     0.014 A 
ATOM     36  C   UNL A   1      35.427  34.609  28.810  1.00  0.00     0.014 A 
ATOM     37  C   UNL A   1      35.047  33.279  31.237  1.00  0.00     0.010 A 
ATOM     38  C   UNL A   1      36.505  33.985  29.435  1.00  0.00     0.010 A 
ATOM     39  C   UNL A   1      36.325  33.313  30.654  1.00  0.00    -0.014 A 
BRANCH  39  40
ATOM     40  C   UNL A   1      37.476  32.638  31.308  1.00  0.00     0.031 A 
ATOM     41  C   UNL A   1      38.161  31.480  30.637  1.00  0.00     0.074 A 
ATOM     42  C   UNL A   1      37.875  33.041  32.531  1.00  0.00     0.049 A 
ATOM     43  N   UNL A   1      39.157  30.746  31.068  1.00  0.00    -0.248 NA
ATOM     44  C   UNL A   1      37.648  31.078  29.318  1.00  0.00     0.031 C 
ATOM     45  C   UNL A   1      37.263  34.123  33.304  1.00  0.00     0.029 A 
ATOM     46  N   UNL A   1      38.884  32.585  33.342  1.00  0.00    -0.354 N 
ATOM     47  C   UNL A   1      39.382  29.796  30.080  1.00  0.00     0.074 A 
ATOM     48  C   UNL A   1      38.388  30.012  29.051  1.00  0.00     0.031 C 
ATOM     49  C   UNL A   1      37.919  34.259  34.467  1.00  0.00     0.029 A 
ATOM     50  C   UNL A   1      38.971  33.249  34.543  1.00  0.00     0.049 A 
ATOM     51  H   UNL A   1      39.489  31.850  33.089  1.00  0.00     0.167 HD
ATOM     52  C   UNL A   1      40.343  28.843  30.028  1.00  0.00     0.037 A 
ATOM     53  C   UNL A   1      39.795  33.057  35.591  1.00  0.00     0.037 A 
ATOM     54  C   UNL A   1      41.341  28.643  31.047  1.00  0.00     0.049 A 
ATOM     55  C   UNL A   1      40.843  31.978  35.511  1.00  0.00     0.074 A 
ATOM     56  C   UNL A   1      42.396  27.747  31.054  1.00  0.00     0.029 A 
ATOM     57  N   UNL A   1      41.403  29.342  32.243  1.00  0.00    -0.354 N 
ATOM     58  N   UNL A   1      41.099  31.141  34.535  1.00  0.00    -0.248 NA
ATOM     59  C   UNL A   1      41.725  31.823  36.676  1.00  0.00     0.031 C 
ATOM     60  C   UNL A   1      43.056  27.857  32.281  1.00  0.00     0.029 A 
ATOM     61  C   UNL A   1      42.459  28.873  33.009  1.00  0.00     0.049 A 
ATOM     62  H   UNL A   1      40.789  30.064  32.508  1.00  0.00     0.167 HD
ATOM     63  C   UNL A   1      42.186  30.387  34.953  1.00  0.00     0.074 A 
ATOM     64  C   UNL A   1      42.556  30.877  36.263  1.00  0.00     0.031 C 
ATOM     65  C   UNL A   1      42.824  29.378  34.309  1.00  0.00     0.037 A 
BRANCH  52  66
ATOM     66  C   UNL A   1      40.367  27.932  28.834  1.00  0.00     0.064 A 
ATOM     67  C   UNL A   1      41.120  28.235  27.690  1.00  0.00     0.173 A 
ATOM     68  C   UNL A   1      39.682  26.708  28.861  1.00  0.00     0.173 A 
ATOM     69  F   UNL A   1      41.788  29.396  27.608  1.00  0.00    -0.203 F 
ATOM     70  C   UNL A   1      41.170  27.357  26.611  1.00  0.00     0.198 A 
ATOM     71  C   UNL A   1      39.760  25.818  27.794  1.00  0.00     0.198 A 
ATOM     72  F   UNL A   1      38.951  26.364  29.933  1.00  0.00    -0.203 F 
ATOM     73  F   UNL A   1      41.863  27.686  25.512  1.00  0.00    -0.200 F 
ATOM     74  C   UNL A   1      40.498  26.145  26.666  1.00  0.00     0.200 A 
ATOM     75  F   UNL A   1      39.123  24.640  27.858  1.00  0.00    -0.200 F 
ATOM     76  F   UNL A   1      40.560  25.293  25.634  1.00  0.00    -0.200 F 
ENDBRANCH  52  66
BRANCH  53  77
ATOM     77  C   UNL A   1      39.668  33.902  36.809  1.00  0.00     0.064 A 
ATOM     78  C   UNL A   1      38.884  33.494  37.898  1.00  0.00     0.173 A 
ATOM     79  C   UNL A   1      40.302  35.151  36.897  1.00  0.00     0.173 A 
ATOM     80  F   UNL A   1      38.242  32.317  37.856  1.00  0.00    -0.203 F 
ATOM     81  C   UNL A   1      38.710  34.315  39.010  1.00  0.00     0.198 A 
ATOM     82  C   UNL A   1      40.157  35.956  38.025  1.00  0.00     0.198 A 
ATOM     83  F   UNL A   1      41.070  35.588  35.889  1.00  0.00    -0.203 F 
ATOM     84  F   UNL A   1      37.904  33.927  40.007  1.00  0.00    -0.200 F 
ATOM     85  C   UNL A   1      39.351  35.543  39.076  1.00  0.00     0.200 A 
ATOM     86  F   UNL A   1      40.793  37.133  38.092  1.00  0.00    -0.200 F 
ATOM     87  F   UNL A   1      39.183  36.334  40.144  1.00  0.00    -0.200 F 
ENDBRANCH  53  77
BRANCH  65  88
ATOM     88  C   UNL A   1      44.017  28.766  34.988  1.00  0.00     0.064 A 
ATOM     89  C   UNL A   1      43.892  27.690  35.879  1.00  0.00     0.173 A 
ATOM     90  C   UNL A   1      45.309  29.237  34.707  1.00  0.00     0.173 A 
ATOM     91  F   UNL A   1      42.678  27.210  36.192  1.00  0.00    -0.203 F 
ATOM     92  C   UNL A   1      45.013  27.130  36.488  1.00  0.00     0.198 A 
ATOM     93  C   UNL A   1      46.429  28.651  35.289  1.00  0.00     0.198 A 
ATOM     94  F   UNL A   1      45.487  30.259  33.855  1.00  0.00    -0.203 F 
ATOM     95  F   UNL A   1      44.863  26.140  37.378  1.00  0.00    -0.200 F 
ATOM     96  C   UNL A   1      46.279  27.605  36.185  1.00  0.00     0.200 A 
ATOM     97  F   UNL A   1      47.654  29.100  34.981  1.00  0.00    -0.200 F 
ATOM     98  F   UNL A   1      47.358  27.057  36.765  1.00  0.00    -0.200 F 
ENDBRANCH  65  88
ENDBRANCH  39  40
ENDBRANCH  31  34
ENDBRANCH  29  30
ENDBRANCH  28  29
ENDBRANCH  27  28
ENDBRANCH   1  27
TORSDOF 16
ENDMDL
MODEL 2
REMARK VINA RESULT:     -12.7      0.532      1.657
REMARK SMILES CS(=O)(=O)N1C[C@@H]2CN(C(=O)c3ccco3)C[C@]2(C(=O)NCCCCCCNC(=O)c2ccc(-c3c4nc(c(-c5c(F)c(F)c(F)c(F)c5F)c5ccc([nH]5)c(-c5c(F)c(F)c(F)c(F)c5F)c5nc(c(-c6c(F)c(F)c(F)c(F)c6F)c6ccc3[nH]6)C=C5)C=C4)cc2)C1
REMARK SMILES IDX 24 1 23 2 22 3 21 4 19 5 20 6 18 8 5 9 6 10 94 11 7 12 8 13
REMARK SMILES IDX 17 14 9 15 2 16 1 17 3 18 4 19 10 20 11 21 12 22 13 23 16 24
REMARK SMILES IDX 14 25 15 26 25 27 26 28 27 29 28 30 29 31 30 33 31 34 32 35
REMARK SMILES IDX 93 36 33 37 92 38 34 39 35 40 36 41 86 42 37 43 91 44 85 45
REMARK SMILES IDX 87 46 38 47 90 48 84 49 83 50 39 52 71 53 51 54 70 55 52 56
REMARK SMILES IDX 55 57 69 58 88 59 53 60 54 61 68 63 89 64 56 65 40 66 41 67
REMARK SMILES IDX 49 68 42 69 43 70 47 71 50 72 44 73 45 74 48 75 46 76 72 77
REMARK SMILES IDX 73 78 81 79 74 80 75 81 79 82 82 83 76 84 77 85 80 86 78 87
REMARK SMILES IDX 57 88 58 89 66 90 59 91 60 92 64 93 67 94 61 95 62 96 65 97
REMARK SMILES IDX 63 98
REMARK H PARENT 21 7 28 32 87 51 55 62
REMARK Flexibility Score: inf
ROOT
ATOM      1  C   UNL A   1      32.169  29.683  27.057  1.00  0.00     0.002 C 
ENDROOT
BRANCH   1   2
ATOM      2  C   UNL A   1      33.649  29.346  26.883  1.00  0.00     0.021 C 
BRANCH   2   3
ATOM      3  C   UNL A   1      33.936  28.212  25.899  1.00  0.00     0.116 C 
BRANCH   3   4
ATOM      4  N   UNL A   1      34.156  28.767  24.577  1.00  0.00    -0.356 N 
ATOM      5  C   UNL A   1      33.658  28.274  23.397  1.00  0.00     0.229 C 
ATOM      6  O   UNL A   1      34.235  28.572  22.351  1.00  0.00    -0.274 OA
ATOM      7  H   UNL A   1      34.716  29.575  24.522  1.00  0.00     0.163 HD
BRANCH   5   8
ATOM      8  C   UNL A   1      32.380  27.407  23.489  1.00  0.00     0.086 C 
ATOM      9  N   UNL A   1      30.225  28.669  23.344  1.00  0.00    -0.201 NA
ATOM     10  C   UNL A   1      29.887  27.265  23.539  1.00  0.00     0.108 C 
ATOM     11  C   UNL A   1      31.635  28.695  22.831  1.00  0.00     0.121 C 
ATOM     12  C   UNL A   1      31.129  26.578  23.028  1.00  0.00     0.042 C 
ATOM     13  C   UNL A   1      31.260  25.181  23.583  1.00  0.00     0.126 C 
ATOM     14  C   UNL A   1      33.293  26.179  22.943  1.00  0.00     0.138 C 
ATOM     15  N   UNL A   1      32.675  24.983  23.532  1.00  0.00    -0.334 N 
BRANCH   9  16
ATOM     16  S   UNL A   1      29.077  29.625  22.550  1.00  0.00     0.211 S 
ATOM     17  C   UNL A   1      29.002  31.054  23.609  1.00  0.00     0.176 C 
ATOM     18  O   UNL A   1      27.800  28.945  22.650  1.00  0.00    -0.213 OA
ATOM     19  O   UNL A   1      29.623  30.007  21.268  1.00  0.00    -0.213 OA
ENDBRANCH   9  16
BRANCH  15  20
ATOM     20  C   UNL A   1      33.220  23.923  24.250  1.00  0.00     0.289 C 
ATOM     21  O   UNL A   1      32.483  23.207  24.932  1.00  0.00    -0.265 OA
BRANCH  20  22
ATOM     22  C   UNL A   1      34.654  23.739  24.287  1.00  0.00     0.191 A 
ATOM     23  C   UNL A   1      35.558  24.118  25.266  1.00  0.00     0.056 A 
ATOM     24  O   UNL A   1      35.313  23.066  23.296  1.00  0.00    -0.459 OA
ATOM     25  C   UNL A   1      36.832  23.685  24.838  1.00  0.00     0.043 A 
ATOM     26  C   UNL A   1      36.625  23.021  23.652  1.00  0.00     0.196 A 
ENDBRANCH  20  22
ENDBRANCH  15  20
ENDBRANCH   5   8
ENDBRANCH   3   4
ENDBRANCH   2   3
ENDBRANCH   1   2
BRANCH   1  27
ATOM     27  C   UNL A   1      31.654  30.753  26.096  1.00  0.00     0.002 C 
BRANCH  27  28
ATOM     28  C   UNL A   1      31.411  32.128  26.726  1.00  0.00     0.021 C 
BRANCH  28  29
ATOM     29  C   UNL A   1      32.663  32.841  27.230  1.00  0.00     0.116 C 
BRANCH  29  30
ATOM     30  N   UNL A   1      32.405  34.223  27.597  1.00  0.00    -0.352 N 
ATOM     31  C   UNL A   1      32.973  34.979  28.591  1.00  0.00     0.251 C 
ATOM     32  H   UNL A   1      31.725  34.683  27.055  1.00  0.00     0.163 HD
ATOM     33  O   UNL A   1      32.515  36.080  28.877  1.00  0.00    -0.269 OA
BRANCH  31  34
ATOM     34  C   UNL A   1      34.135  34.451  29.334  1.00  0.00     0.039 A 
ATOM     35  C   UNL A   1      33.920  33.828  30.565  1.00  0.00     0.014 A 
ATOM     36  C   UNL A   1      35.427  34.570  28.816  1.00  0.00     0.014 A 
ATOM     37  C   UNL A   1      34.999  33.273  31.253  1.00  0.00     0.010 A 
ATOM     38  C   UNL A   1      36.494  33.961  29.474  1.00  0.00     0.010 A 
ATOM     39  C   UNL A   1      36.290  33.306  30.699  1.00  0.00    -0.014 A 
BRANCH  39  40
ATOM     40  C   UNL A   1      37.430  32.647  31.389  1.00  0.00     0.031 A 
ATOM     41  C   UNL A   1      38.132  31.479  30.753  1.00  0.00     0.074 A 
ATOM     42  C   UNL A   1      37.803  33.075  32.611  1.00  0.00     0.049 A 
ATOM     43  N   UNL A   1      39.122  30.758  31.217  1.00  0.00    -0.248 NA
ATOM     44  C   UNL A   1      37.647  31.052  29.432  1.00  0.00     0.031 C 
ATOM     45  C   UNL A   1      37.171  34.168  33.352  1.00  0.00     0.029 A 
ATOM     46  N   UNL A   1      38.797  32.637  33.452  1.00  0.00    -0.354 N 
ATOM     47  C   UNL A   1      39.370  29.790  30.252  1.00  0.00     0.074 A 
ATOM     48  C   UNL A   1      38.397  29.984  29.199  1.00  0.00     0.031 C 
ATOM     49  C   UNL A   1      37.803  34.328  34.525  1.00  0.00     0.029 A 
ATOM     50  C   UNL A   1      38.857  33.323  34.641  1.00  0.00     0.049 A 
ATOM     51  H   UNL A   1      39.409  31.900  33.224  1.00  0.00     0.167 HD
ATOM     52  C   UNL A   1      40.335  28.840  30.238  1.00  0.00     0.037 A 
ATOM     53  C   UNL A   1      39.660  33.154  35.709  1.00  0.00     0.037 A 
ATOM     54  C   UNL A   1      41.313  28.662  31.280  1.00  0.00     0.049 A 
ATOM     55  C   UNL A   1      40.713  32.077  35.671  1.00  0.00     0.074 A 
ATOM     56  C   UNL A   1      42.370  27.770  31.325  1.00  0.00     0.029 A 
ATOM     57  N   UNL A   1      41.348  29.383  32.464  1.00  0.00    -0.354 N 
ATOM     58  N   UNL A   1      40.991  31.224  34.716  1.00  0.00    -0.248 NA
ATOM     59  C   UNL A   1      41.571  31.948  36.856  1.00  0.00     0.031 C 
ATOM     60  C   UNL A   1      43.005  27.906  32.563  1.00  0.00     0.029 A 
ATOM     61  C   UNL A   1      42.390  28.933  33.260  1.00  0.00     0.049 A 
ATOM     62  H   UNL A   1      40.726  30.109  32.703  1.00  0.00     0.167 HD
ATOM     63  C   UNL A   1      42.072  30.481  35.169  1.00  0.00     0.074 A 
ATOM     64  C   UNL A   1      42.413  30.997  36.477  1.00  0.00     0.031 C 
ATOM     65  C   UNL A   1      42.726  29.463  34.557  1.00  0.00     0.037 A 
BRANCH  52  66
ATOM     66  C   UNL A   1      40.386  27.907  29.061  1.00  0.00     0.064 A 
ATOM     67  C   UNL A   1      39.636  26.722  29.025  1.00  0.00     0.173 A 
ATOM     68  C   UNL A   1      41.142  28.238  27.926  1.00  0.00     0.173 A 
ATOM     69  F   UNL A   1      38.903  26.354  30.087  1.00  0.00    -0.203 F 
ATOM     70  C   UNL A   1      39.658  25.893  27.907  1.00  0.00     0.198 A 
ATOM     71  C   UNL A   1      41.136  27.424  26.797  1.00  0.00     0.198 A 
ATOM     72  F   UNL A   1      41.873  29.363  27.903  1.00  0.00    -0.203 F 
ATOM     73  F   UNL A   1      38.967  24.745  27.912  1.00  0.00    -0.200 F 
ATOM     74  C   UNL A   1      40.400  26.248  26.791  1.00  0.00     0.200 A 
ATOM     75  F   UNL A   1      41.841  27.778  25.713  1.00  0.00    -0.200 F 
ATOM     76  F   UNL A   1      40.407  25.458  25.708  1.00  0.00    -0.200 F 
ENDBRANCH  52  66
BRANCH  53  77
ATOM     77  C   UNL A   1      39.505  34.021  36.908  1.00  0.00     0.064 A 
ATOM     78  C   UNL A   1      40.143  35.267  36.991  1.00  0.00     0.173 A 
ATOM     79  C   UNL A   1      38.739  33.609  38.011  1.00  0.00     0.173 A 
ATOM     80  F   UNL A   1      40.901  35.699  35.972  1.00  0.00    -0.203 F 
ATOM     81  C   UNL A   1      40.052  36.049  38.141  1.00  0.00     0.198 A 
ATOM     82  C   UNL A   1      38.620  34.408  39.145  1.00  0.00     0.198 A 
ATOM     83  F   UNL A   1      38.101  32.430  37.982  1.00  0.00    -0.203 F 
ATOM     84  F   UNL A   1      40.726  37.205  38.216  1.00  0.00    -0.200 F 
ATOM     85  C   UNL A   1      39.287  35.622  39.215  1.00  0.00     0.200 A 
ATOM     86  F   UNL A   1      37.864  33.999  40.173  1.00  0.00    -0.200 F 
ATOM     87  F   UNL A   1      39.201  36.373  40.321  1.00  0.00    -0.200 F 
ENDBRANCH  53  77
BRANCH  65  88
ATOM     88  C   UNL A   1      43.907  28.868  35.271  1.00  0.00     0.064 A 
ATOM     89  C   UNL A   1      43.769  27.802  36.173  1.00  0.00     0.173 A 
ATOM     90  C   UNL A   1      45.202  29.345  35.015  1.00  0.00     0.173 A 
ATOM     91  F   UNL A   1      42.552  27.317  36.463  1.00  0.00    -0.203 F 
ATOM     92  C   UNL A   1      44.879  27.258  36.814  1.00  0.00     0.198 A 
ATOM     93  C   UNL A   1      46.312  28.774  35.631  1.00  0.00     0.198 A 
ATOM     94  F   UNL A   1      45.393  30.358  34.156  1.00  0.00    -0.203 F 
ATOM     95  F   UNL A   1      44.715  26.277  37.713  1.00  0.00    -0.200 F 
ATOM     96  C   UNL A   1      46.149  27.738  36.536  1.00  0.00     0.200 A 
ATOM     97  F   UNL A   1      47.541  29.228  35.346  1.00  0.00    -0.200 F 
ATOM     98  F   UNL A   1      47.217  27.205  37.147  1.00  0.00    -0.200 F 
ENDBRANCH  65  88
ENDBRANCH  39  40
ENDBRANCH  31  34
ENDBRANCH  29  30
ENDBRANCH  28  29
ENDBRANCH  27  28
ENDBRANCH   1  27
TORSDOF 16
ENDMDL
MODEL 3
REMARK VINA RESULT:     -12.7      5.542     10.107
REMARK SMILES CS(=O)(=O)N1C[C@@H]2CN(C(=O)c3ccco3)C[C@]2(C(=O)NCCCCCCNC(=O)c2ccc(-c3c4nc(c(-c5c(F)c(F)c(F)c(F)c5F)c5ccc([nH]5)c(-c5c(F)c(F)c(F)c(F)c5F)c5nc(c(-c6c(F)c(F)c(F)c(F)c6F)c6ccc3[nH]6)C=C5)C=C4)cc2)C1
REMARK SMILES IDX 24 1 23 2 22 3 21 4 19 5 20 6 18 8 5 9 6 10 94 11 7 12 8 13
REMARK SMILES IDX 17 14 9 15 2 16 1 17 3 18 4 19 10 20 11 21 12 22 13 23 16 24
REMARK SMILES IDX 14 25 15 26 25 27 26 28 27 29 28 30 29 31 30 33 31 34 32 35
REMARK SMILES IDX 93 36 33 37 92 38 34 39 35 40 36 41 86 42 37 43 91 44 85 45
REMARK SMILES IDX 87 46 38 47 90 48 84 49 83 50 39 52 71 53 51 54 70 55 52 56
REMARK SMILES IDX 55 57 69 58 88 59 53 60 54 61 68 63 89 64 56 65 40 66 41 67
REMARK SMILES IDX 49 68 42 69 43 70 47 71 50 72 44 73 45 74 48 75 46 76 72 77
REMARK SMILES IDX 73 78 81 79 74 80 75 81 79 82 82 83 76 84 77 85 80 86 78 87
REMARK SMILES IDX 57 88 58 89 66 90 59 91 60 92 64 93 67 94 61 95 62 96 65 97
REMARK SMILES IDX 63 98
REMARK H PARENT 21 7 28 32 87 51 55 62
REMARK Flexibility Score: inf
ROOT
ATOM      1  C   UNL A   1      37.545  21.811  25.089  1.00  0.00     0.002 C 
ENDROOT
BRANCH   1   2
ATOM      2  C   UNL A   1      36.742  22.879  24.347  1.00  0.00     0.021 C 
BRANCH   2   3
ATOM      3  C   UNL A   1      35.912  23.795  25.245  1.00  0.00     0.116 C 
BRANCH   3   4
ATOM      4  N   UNL A   1      35.584  23.097  26.473  1.00  0.00    -0.356 N 
ATOM      5  C   UNL A   1      34.332  22.707  26.875  1.00  0.00     0.229 C 
ATOM      6  O   UNL A   1      34.139  22.509  28.075  1.00  0.00    -0.274 OA
ATOM      7  H   UNL A   1      36.333  22.882  27.075  1.00  0.00     0.163 HD
BRANCH   5   8
ATOM      8  C   UNL A   1      33.271  22.516  25.764  1.00  0.00     0.086 C 
ATOM      9  N   UNL A   1      33.344  20.306  24.593  1.00  0.00    -0.201 NA
ATOM     10  C   UNL A   1      32.286  21.088  23.967  1.00  0.00     0.108 C 
ATOM     11  C   UNL A   1      33.590  20.930  25.936  1.00  0.00     0.121 C 
ATOM     12  C   UNL A   1      31.941  22.067  25.063  1.00  0.00     0.042 C 
ATOM     13  C   UNL A   1      31.260  23.297  24.515  1.00  0.00     0.126 C 
ATOM     14  C   UNL A   1      32.385  23.623  26.556  1.00  0.00     0.138 C 
ATOM     15  N   UNL A   1      31.600  24.276  25.500  1.00  0.00    -0.334 N 
BRANCH   9  16
ATOM     16  S   UNL A   1      33.193  18.623  24.518  1.00  0.00     0.211 S 
ATOM     17  C   UNL A   1      32.419  18.400  22.931  1.00  0.00     0.176 C 
ATOM     18  O   UNL A   1      32.230  18.227  25.528  1.00  0.00    -0.213 OA
ATOM     19  O   UNL A   1      34.521  18.056  24.487  1.00  0.00    -0.213 OA
ENDBRANCH   9  16
BRANCH  15  20
ATOM     20  C   UNL A   1      31.411  25.619  25.189  1.00  0.00     0.289 C 
ATOM     21  O   UNL A   1      30.931  25.929  24.096  1.00  0.00    -0.265 OA
BRANCH  20  22
ATOM     22  C   UNL A   1      31.885  26.642  26.095  1.00  0.00     0.191 A 
ATOM     23  C   UNL A   1      33.130  27.249  26.152  1.00  0.00     0.056 A 
ATOM     24  O   UNL A   1      31.063  27.200  27.033  1.00  0.00    -0.459 OA
ATOM     25  C   UNL A   1      33.074  28.199  27.196  1.00  0.00     0.043 A 
ATOM     26  C   UNL A   1      31.787  28.155  27.678  1.00  0.00     0.196 A 
ENDBRANCH  20  22
ENDBRANCH  15  20
ENDBRANCH   5   8
ENDBRANCH   3   4
ENDBRANCH   2   3
ENDBRANCH   1   2
BRANCH   1  27
ATOM     27  C   UNL A   1      37.192  20.377  24.695  1.00  0.00     0.002 C 
BRANCH  27  28
ATOM     28  C   UNL A   1      38.237  19.324  25.080  1.00  0.00     0.021 C 
BRANCH  28  29
ATOM     29  C   UNL A   1      39.451  19.860  25.834  1.00  0.00     0.116 C 
BRANCH  29  30
ATOM     30  N   UNL A   1      40.538  18.898  25.890  1.00  0.00    -0.352 N 
ATOM     31  C   UNL A   1      41.879  19.112  26.080  1.00  0.00     0.251 C 
ATOM     32  H   UNL A   1      40.274  17.956  25.775  1.00  0.00     0.163 HD
ATOM     33  O   UNL A   1      42.686  18.200  25.926  1.00  0.00    -0.269 OA
BRANCH  31  34
ATOM     34  C   UNL A   1      42.357  20.458  26.454  1.00  0.00     0.039 A 
ATOM     35  C   UNL A   1      42.858  21.296  25.456  1.00  0.00     0.014 A 
ATOM     36  C   UNL A   1      42.307  20.890  27.782  1.00  0.00     0.014 A 
ATOM     37  C   UNL A   1      43.258  22.592  25.782  1.00  0.00     0.010 A 
ATOM     38  C   UNL A   1      42.649  22.204  28.095  1.00  0.00     0.010 A 
ATOM     39  C   UNL A   1      43.128  23.068  27.098  1.00  0.00    -0.014 A 
BRANCH  39  40
ATOM     40  C   UNL A   1      43.478  24.472  27.436  1.00  0.00     0.031 A 
ATOM     41  C   UNL A   1      44.916  24.911  27.466  1.00  0.00     0.074 A 
ATOM     42  C   UNL A   1      42.500  25.341  27.761  1.00  0.00     0.049 A 
ATOM     43  N   UNL A   1      45.416  26.083  27.770  1.00  0.00    -0.248 NA
ATOM     44  C   UNL A   1      45.927  23.897  27.130  1.00  0.00     0.031 C 
ATOM     45  C   UNL A   1      41.072  25.024  27.812  1.00  0.00     0.029 A 
ATOM     46  N   UNL A   1      42.558  26.666  28.118  1.00  0.00    -0.354 N 
ATOM     47  C   UNL A   1      46.795  25.943  27.671  1.00  0.00     0.074 A 
ATOM     48  C   UNL A   1      47.056  24.563  27.327  1.00  0.00     0.031 C 
ATOM     49  C   UNL A   1      40.389  26.125  28.159  1.00  0.00     0.029 A 
ATOM     50  C   UNL A   1      41.330  27.216  28.397  1.00  0.00     0.049 A 
ATOM     51  H   UNL A   1      43.400  27.174  28.168  1.00  0.00     0.167 HD
ATOM     52  C   UNL A   1      47.752  26.887  27.833  1.00  0.00     0.037 A 
ATOM     53  C   UNL A   1      41.001  28.455  28.812  1.00  0.00     0.037 A 
ATOM     54  C   UNL A   1      47.486  28.265  28.157  1.00  0.00     0.049 A 
ATOM     55  C   UNL A   1      42.090  29.478  28.999  1.00  0.00     0.074 A 
ATOM     56  C   UNL A   1      48.386  29.310  28.277  1.00  0.00     0.029 A 
ATOM     57  N   UNL A   1      46.229  28.787  28.423  1.00  0.00    -0.354 N 
ATOM     58  N   UNL A   1      43.383  29.356  28.820  1.00  0.00    -0.248 NA
ATOM     59  C   UNL A   1      41.672  30.817  29.437  1.00  0.00     0.031 C 
ATOM     60  C   UNL A   1      47.682  30.448  28.680  1.00  0.00     0.029 A 
ATOM     61  C   UNL A   1      46.335  30.132  28.739  1.00  0.00     0.049 A 
ATOM     62  H   UNL A   1      45.387  28.278  28.391  1.00  0.00     0.167 HD
ATOM     63  C   UNL A   1      43.926  30.604  29.090  1.00  0.00     0.074 A 
ATOM     64  C   UNL A   1      42.822  31.476  29.426  1.00  0.00     0.031 C 
ATOM     65  C   UNL A   1      45.225  30.994  29.061  1.00  0.00     0.037 A 
BRANCH  52  66
ATOM     66  C   UNL A   1      49.186  26.470  27.667  1.00  0.00     0.064 A 
ATOM     67  C   UNL A   1      49.770  26.322  26.400  1.00  0.00     0.173 A 
ATOM     68  C   UNL A   1      50.004  26.282  28.791  1.00  0.00     0.173 A 
ATOM     69  F   UNL A   1      49.031  26.482  25.292  1.00  0.00    -0.203 F 
ATOM     70  C   UNL A   1      51.114  25.981  26.265  1.00  0.00     0.198 A 
ATOM     71  C   UNL A   1      51.355  25.974  28.653  1.00  0.00     0.198 A 
ATOM     72  F   UNL A   1      49.499  26.417  30.027  1.00  0.00    -0.203 F 
ATOM     73  F   UNL A   1      51.640  25.805  25.045  1.00  0.00    -0.200 F 
ATOM     74  C   UNL A   1      51.907  25.817  27.390  1.00  0.00     0.200 A 
ATOM     75  F   UNL A   1      52.124  25.831  29.742  1.00  0.00    -0.200 F 
ATOM     76  F   UNL A   1      53.204  25.506  27.259  1.00  0.00    -0.200 F 
ENDBRANCH  52  66
BRANCH  53  77
ATOM     77  C   UNL A   1      39.579  28.802  29.079  1.00  0.00     0.064 A 
ATOM     78  C   UNL A   1      38.760  29.337  28.075  1.00  0.00     0.173 A 
ATOM     79  C   UNL A   1      39.016  28.635  30.355  1.00  0.00     0.173 A 
ATOM     80  F   UNL A   1      39.255  29.534  26.843  1.00  0.00    -0.203 F 
ATOM     81  C   UNL A   1      37.449  29.725  28.342  1.00  0.00     0.198 A 
ATOM     82  C   UNL A   1      37.694  28.989  30.612  1.00  0.00     0.198 A 
ATOM     83  F   UNL A   1      39.751  28.120  31.351  1.00  0.00    -0.203 F 
ATOM     84  F   UNL A   1      36.712  30.294  27.379  1.00  0.00    -0.200 F 
ATOM     85  C   UNL A   1      36.915  29.546  29.609  1.00  0.00     0.200 A 
ATOM     86  F   UNL A   1      37.177  28.797  31.833  1.00  0.00    -0.200 F 
ATOM     87  F   UNL A   1      35.654  29.920  29.867  1.00  0.00    -0.200 F 
ENDBRANCH  53  77
BRANCH  65  88
ATOM     88  C   UNL A   1      45.522  32.437  29.355  1.00  0.00     0.064 A 
ATOM     89  C   UNL A   1      45.841  32.881  30.648  1.00  0.00     0.173 A 
ATOM     90  C   UNL A   1      45.531  33.383  28.318  1.00  0.00     0.173 A 
ATOM     91  F   UNL A   1      45.834  32.020  31.677  1.00  0.00    -0.203 F 
ATOM     92  C   UNL A   1      46.125  34.222  30.895  1.00  0.00     0.198 A 
ATOM     93  C   UNL A   1      45.851  34.715  28.563  1.00  0.00     0.198 A 
ATOM     94  F   UNL A   1      45.241  33.012  27.061  1.00  0.00    -0.203 F 
ATOM     95  F   UNL A   1      46.371  34.631  32.147  1.00  0.00    -0.200 F 
ATOM     96  C   UNL A   1      46.139  35.134  29.852  1.00  0.00     0.200 A 
ATOM     97  F   UNL A   1      45.881  35.592  27.550  1.00  0.00    -0.200 F 
ATOM     98  F   UNL A   1      46.423  36.423  30.091  1.00  0.00    -0.200 F 
ENDBRANCH  65  88
ENDBRANCH  39  40
ENDBRANCH  31  34
ENDBRANCH  29  30
ENDBRANCH  28  29
ENDBRANCH  27  28
ENDBRANCH   1  27
TORSDOF 16
ENDMDL
