MODEL 1
REMARK VINA RESULT:     -12.0      0.000      0.000
REMARK SMILES O=C(CN(CC(=O)NCc1ccccc1)c1ccccc1)NCCCCCCNC(=O)c1ccc(-c2c3nc(c(-c4c(F)c(F)c(F)c(F)c4F)c4ccc([nH]4)c(-c4c(F)c(F)c(F)c(F)c4F)c4nc(c(-c5c(F)c(F)c(F)c(F)c5F)c5ccc2[nH]5)C=C4)C=C3)cc1
REMARK SMILES IDX 24 1 23 2 22 3 1 4 2 5 3 7 4 8 5 9 6 10 7 11 8 12 9 14 10 15
REMARK SMILES IDX 11 16 15 17 12 18 14 19 13 20 16 21 17 22 21 23 18 24 20 25
REMARK SMILES IDX 19 26 25 27 26 28 27 29 28 30 29 31 30 32 31 34 32 35 33 36
REMARK SMILES IDX 94 37 34 38 93 39 35 40 36 41 37 42 87 43 38 44 92 45 86 46
REMARK SMILES IDX 88 47 39 48 91 49 85 50 84 51 40 53 72 54 52 55 71 56 53 57
REMARK SMILES IDX 56 58 70 59 89 60 54 61 55 62 69 64 90 65 57 66 41 67 42 68
REMARK SMILES IDX 50 69 43 70 44 71 48 72 51 73 45 74 46 75 49 76 47 77 73 78
REMARK SMILES IDX 74 79 82 80 75 81 76 82 80 83 83 84 77 85 78 86 81 87 79 88
REMARK SMILES IDX 58 89 59 90 67 91 60 92 61 93 65 94 68 95 62 96 63 97 66 98
REMARK SMILES IDX 64 99
REMARK H PARENT 22 6 8 13 29 33 88 52 56 63
REMARK Flexibility Score: inf
ROOT
ATOM      1  C   UNL A   1      36.801  23.485  24.980  1.00  0.00     0.021 C 
ENDROOT
BRANCH   1   2
ATOM      2  C   UNL A   1      36.340  23.405  23.528  1.00  0.00     0.116 C 
BRANCH   2   3
ATOM      3  N   UNL A   1      35.079  22.713  23.426  1.00  0.00    -0.355 N 
ATOM      4  O   UNL A   1      33.969  24.472  22.474  1.00  0.00    -0.273 OA
ATOM      5  C   UNL A   1      33.968  23.317  22.895  1.00  0.00     0.239 C 
ATOM      6  H   UNL A   1      35.014  21.784  23.747  1.00  0.00     0.163 HD
BRANCH   5   7
ATOM      7  C   UNL A   1      32.696  22.492  22.955  1.00  0.00     0.217 C 
BRANCH   7   8
ATOM      8  N   UNL A   1      32.544  21.472  24.032  1.00  0.00    -0.353 N 
BRANCH   8   9
ATOM      9  C   UNL A   1      31.977  21.983  25.313  1.00  0.00     0.217 C 
BRANCH   9  10
ATOM     10  C   UNL A   1      32.914  22.721  26.284  1.00  0.00     0.239 C 
ATOM     11  O   UNL A   1      33.843  22.113  26.831  1.00  0.00    -0.273 OA
ATOM     12  N   UNL A   1      32.801  24.047  26.562  1.00  0.00    -0.350 N 
ATOM     13  H   UNL A   1      33.354  24.363  27.314  1.00  0.00     0.163 HD
BRANCH  12  14
ATOM     14  C   UNL A   1      32.000  25.062  25.930  1.00  0.00     0.151 C 
BRANCH  14  15
ATOM     15  C   UNL A   1      32.387  26.463  26.331  1.00  0.00    -0.029 A 
ATOM     16  C   UNL A   1      31.453  27.350  26.882  1.00  0.00     0.005 A 
ATOM     17  C   UNL A   1      33.693  26.929  26.128  1.00  0.00     0.005 A 
ATOM     18  C   UNL A   1      31.776  28.683  27.137  1.00  0.00     0.000 A 
ATOM     19  C   UNL A   1      34.028  28.258  26.407  1.00  0.00     0.000 A 
ATOM     20  C   UNL A   1      33.063  29.140  26.890  1.00  0.00     0.000 A 
ENDBRANCH  14  15
ENDBRANCH  12  14
ENDBRANCH   9  10
ENDBRANCH   8   9
BRANCH   8  21
ATOM     21  C   UNL A   1      32.830  20.114  23.879  1.00  0.00     0.038 A 
ATOM     22  C   UNL A   1      33.828  19.458  24.626  1.00  0.00     0.026 A 
ATOM     23  C   UNL A   1      32.172  19.288  22.954  1.00  0.00     0.026 A 
ATOM     24  C   UNL A   1      34.168  18.108  24.450  1.00  0.00     0.002 A 
ATOM     25  C   UNL A   1      32.521  17.941  22.743  1.00  0.00     0.002 A 
ATOM     26  C   UNL A   1      33.524  17.349  23.492  1.00  0.00     0.000 A 
ENDBRANCH   8  21
ENDBRANCH   7   8
ENDBRANCH   5   7
ENDBRANCH   2   3
ENDBRANCH   1   2
BRANCH   1  27
ATOM     27  C   UNL A   1      37.590  22.253  25.441  1.00  0.00     0.002 C 
BRANCH  27  28
ATOM     28  C   UNL A   1      37.338  20.982  24.625  1.00  0.00     0.002 C 
BRANCH  28  29
ATOM     29  C   UNL A   1      38.224  19.793  24.998  1.00  0.00     0.021 C 
BRANCH  29  30
ATOM     30  C   UNL A   1      39.313  20.114  26.013  1.00  0.00     0.116 C 
BRANCH  30  31
ATOM     31  N   UNL A   1      40.336  19.081  26.067  1.00  0.00    -0.352 N 
ATOM     32  C   UNL A   1      41.697  19.217  26.168  1.00  0.00     0.251 C 
ATOM     33  H   UNL A   1      40.005  18.155  26.025  1.00  0.00     0.163 HD
ATOM     34  O   UNL A   1      42.431  18.243  26.018  1.00  0.00    -0.269 OA
BRANCH  32  35
ATOM     35  C   UNL A   1      42.281  20.547  26.433  1.00  0.00     0.039 A 
ATOM     36  C   UNL A   1      42.716  21.321  25.354  1.00  0.00     0.014 A 
ATOM     37  C   UNL A   1      42.391  21.034  27.739  1.00  0.00     0.014 A 
ATOM     38  C   UNL A   1      43.205  22.608  25.580  1.00  0.00     0.010 A 
ATOM     39  C   UNL A   1      42.800  22.345  27.955  1.00  0.00     0.010 A 
ATOM     40  C   UNL A   1      43.216  23.145  26.879  1.00  0.00    -0.014 A 
BRANCH  40  41
ATOM     41  C   UNL A   1      43.656  24.541  27.129  1.00  0.00     0.031 A 
ATOM     42  C   UNL A   1      42.674  25.570  27.611  1.00  0.00     0.074 A 
ATOM     43  C   UNL A   1      44.926  24.896  26.856  1.00  0.00     0.049 A 
ATOM     44  N   UNL A   1      42.854  26.848  27.832  1.00  0.00    -0.248 NA
ATOM     45  C   UNL A   1      41.299  25.108  27.849  1.00  0.00     0.031 C 
ATOM     46  C   UNL A   1      45.960  24.002  26.334  1.00  0.00     0.029 A 
ATOM     47  N   UNL A   1      45.561  26.107  26.972  1.00  0.00    -0.354 N 
ATOM     48  C   UNL A   1      41.617  27.342  28.223  1.00  0.00     0.074 A 
ATOM     49  C   UNL A   1      40.681  26.241  28.147  1.00  0.00     0.031 C 
ATOM     50  C   UNL A   1      47.105  24.687  26.195  1.00  0.00     0.029 A 
ATOM     51  C   UNL A   1      46.877  26.078  26.578  1.00  0.00     0.049 A 
ATOM     52  H   UNL A   1      45.117  26.920  27.304  1.00  0.00     0.167 HD
ATOM     53  C   UNL A   1      41.295  28.593  28.631  1.00  0.00     0.037 A 
ATOM     54  C   UNL A   1      47.794  27.061  26.521  1.00  0.00     0.037 A 
ATOM     55  C   UNL A   1      42.234  29.681  28.713  1.00  0.00     0.049 A 
ATOM     56  C   UNL A   1      47.412  28.447  26.964  1.00  0.00     0.074 A 
ATOM     57  C   UNL A   1      42.023  30.971  29.171  1.00  0.00     0.029 A 
ATOM     58  N   UNL A   1      43.562  29.611  28.315  1.00  0.00    -0.354 N 
ATOM     59  N   UNL A   1      46.257  28.886  27.406  1.00  0.00    -0.248 NA
ATOM     60  C   UNL A   1      48.462  29.472  26.909  1.00  0.00     0.031 C 
ATOM     61  C   UNL A   1      43.206  31.697  28.992  1.00  0.00     0.029 A 
ATOM     62  C   UNL A   1      44.174  30.844  28.487  1.00  0.00     0.049 A 
ATOM     63  H   UNL A   1      44.004  28.805  27.964  1.00  0.00     0.167 HD
ATOM     64  C   UNL A   1      46.448  30.229  27.706  1.00  0.00     0.074 A 
ATOM     65  C   UNL A   1      47.834  30.527  27.409  1.00  0.00     0.031 C 
ATOM     66  C   UNL A   1      45.555  31.130  28.185  1.00  0.00     0.037 A 
BRANCH  53  67
ATOM     67  C   UNL A   1      39.862  28.848  29.010  1.00  0.00     0.064 A 
ATOM     68  C   UNL A   1      39.407  28.695  30.329  1.00  0.00     0.173 A 
ATOM     69  C   UNL A   1      38.933  29.262  28.043  1.00  0.00     0.173 A 
ATOM     70  F   UNL A   1      40.250  28.293  31.293  1.00  0.00    -0.203 F 
ATOM     71  C   UNL A   1      38.068  28.901  30.656  1.00  0.00     0.198 A 
ATOM     72  C   UNL A   1      37.603  29.503  28.381  1.00  0.00     0.198 A 
ATOM     73  F   UNL A   1      39.312  29.434  26.769  1.00  0.00    -0.203 F 
ATOM     74  F   UNL A   1      37.645  28.682  31.909  1.00  0.00    -0.200 F 
ATOM     75  C   UNL A   1      37.170  29.310  29.683  1.00  0.00     0.200 A 
ATOM     76  F   UNL A   1      36.739  29.915  27.443  1.00  0.00    -0.200 F 
ATOM     77  F   UNL A   1      35.883  29.509  30.000  1.00  0.00    -0.200 F 
ENDBRANCH  53  67
BRANCH  54  78
ATOM     78  C   UNL A   1      49.170  26.757  26.048  1.00  0.00     0.064 A 
ATOM     79  C   UNL A   1      49.541  26.988  24.716  1.00  0.00     0.173 A 
ATOM     80  C   UNL A   1      50.145  26.251  26.920  1.00  0.00     0.173 A 
ATOM     81  F   UNL A   1      48.638  27.452  23.840  1.00  0.00    -0.203 F 
ATOM     82  C   UNL A   1      50.832  26.713  24.271  1.00  0.00     0.198 A 
ATOM     83  C   UNL A   1      51.445  26.004  26.480  1.00  0.00     0.198 A 
ATOM     84  F   UNL A   1      49.842  26.019  28.205  1.00  0.00    -0.203 F 
ATOM     85  F   UNL A   1      51.151  26.906  22.984  1.00  0.00    -0.200 F 
ATOM     86  C   UNL A   1      51.785  26.229  25.155  1.00  0.00     0.200 A 
ATOM     87  F   UNL A   1      52.366  25.554  27.343  1.00  0.00    -0.200 F 
ATOM     88  F   UNL A   1      53.030  25.976  24.730  1.00  0.00    -0.200 F 
ENDBRANCH  54  78
BRANCH  66  89
ATOM     89  C   UNL A   1      46.055  32.522  28.450  1.00  0.00     0.064 A 
ATOM     90  C   UNL A   1      46.623  32.883  29.682  1.00  0.00     0.173 A 
ATOM     91  C   UNL A   1      46.000  33.498  27.443  1.00  0.00     0.173 A 
ATOM     92  F   UNL A   1      46.686  31.992  30.682  1.00  0.00    -0.203 F 
ATOM     93  C   UNL A   1      47.092  34.176  29.903  1.00  0.00     0.198 A 
ATOM     94  C   UNL A   1      46.501  34.779  27.657  1.00  0.00     0.198 A 
ATOM     95  F   UNL A   1      45.472  33.205  26.245  1.00  0.00    -0.203 F 
ATOM     96  F   UNL A   1      47.582  34.511  31.104  1.00  0.00    -0.200 F 
ATOM     97  C   UNL A   1      47.038  35.120  28.888  1.00  0.00     0.200 A 
ATOM     98  F   UNL A   1      46.464  35.685  26.669  1.00  0.00    -0.200 F 
ATOM     99  F   UNL A   1      47.498  36.360  29.101  1.00  0.00    -0.200 F 
ENDBRANCH  66  89
ENDBRANCH  40  41
ENDBRANCH  32  35
ENDBRANCH  30  31
ENDBRANCH  29  30
ENDBRANCH  28  29
ENDBRANCH  27  28
ENDBRANCH   1  27
TORSDOF 19
ENDMDL
MODEL 2
REMARK VINA RESULT:     -11.9      6.440     10.969
REMARK SMILES O=C(CN(CC(=O)NCc1ccccc1)c1ccccc1)NCCCCCCNC(=O)c1ccc(-c2c3nc(c(-c4c(F)c(F)c(F)c(F)c4F)c4ccc([nH]4)c(-c4c(F)c(F)c(F)c(F)c4F)c4nc(c(-c5c(F)c(F)c(F)c(F)c5F)c5ccc2[nH]5)C=C4)C=C3)cc1
REMARK SMILES IDX 24 1 23 2 22 3 1 4 2 5 3 7 4 8 5 9 6 10 7 11 8 12 9 14 10 15
REMARK SMILES IDX 11 16 15 17 12 18 14 19 13 20 16 21 17 22 21 23 18 24 20 25
REMARK SMILES IDX 19 26 25 27 26 28 27 29 28 30 29 31 30 32 31 34 32 35 33 36
REMARK SMILES IDX 94 37 34 38 93 39 35 40 36 41 37 42 87 43 38 44 92 45 86 46
REMARK SMILES IDX 88 47 39 48 91 49 85 50 84 51 40 53 72 54 52 55 71 56 53 57
REMARK SMILES IDX 56 58 70 59 89 60 54 61 55 62 69 64 90 65 57 66 41 67 42 68
REMARK SMILES IDX 50 69 43 70 44 71 48 72 51 73 45 74 46 75 49 76 47 77 73 78
REMARK SMILES IDX 74 79 82 80 75 81 76 82 80 83 83 84 77 85 78 86 81 87 79 88
REMARK SMILES IDX 58 89 59 90 67 91 60 92 61 93 65 94 68 95 62 96 63 97 66 98
REMARK SMILES IDX 64 99
REMARK H PARENT 22 6 8 13 29 33 88 52 56 63
REMARK Flexibility Score: inf
ROOT
ATOM      1  C   UNL A   1      34.841  31.278  28.072  1.00  0.00     0.021 C 
ENDROOT
BRANCH   1   2
ATOM      2  C   UNL A   1      33.661  30.858  27.202  1.00  0.00     0.116 C 
BRANCH   2   3
ATOM      3  N   UNL A   1      33.995  29.702  26.406  1.00  0.00    -0.355 N 
ATOM      4  O   UNL A   1      32.200  29.909  25.003  1.00  0.00    -0.273 OA
ATOM      5  C   UNL A   1      33.218  29.311  25.345  1.00  0.00     0.239 C 
ATOM      6  H   UNL A   1      34.800  29.181  26.630  1.00  0.00     0.163 HD
BRANCH   5   7
ATOM      7  C   UNL A   1      33.646  28.018  24.676  1.00  0.00     0.217 C 
BRANCH   7   8
ATOM      8  N   UNL A   1      33.216  26.719  25.268  1.00  0.00    -0.353 N 
BRANCH   8   9
ATOM      9  C   UNL A   1      31.951  26.770  26.056  1.00  0.00     0.217 C 
BRANCH   9  10
ATOM     10  C   UNL A   1      30.632  26.430  25.344  1.00  0.00     0.239 C 
ATOM     11  O   UNL A   1      30.126  27.239  24.557  1.00  0.00    -0.273 OA
ATOM     12  N   UNL A   1      29.984  25.245  25.505  1.00  0.00    -0.350 N 
ATOM     13  H   UNL A   1      29.075  25.213  25.124  1.00  0.00     0.163 HD
BRANCH  12  14
ATOM     14  C   UNL A   1      30.416  24.031  26.147  1.00  0.00     0.151 C 
BRANCH  14  15
ATOM     15  C   UNL A   1      31.030  23.039  25.194  1.00  0.00    -0.029 A 
ATOM     16  C   UNL A   1      31.563  21.824  25.645  1.00  0.00     0.005 A 
ATOM     17  C   UNL A   1      31.117  23.323  23.824  1.00  0.00     0.005 A 
ATOM     18  C   UNL A   1      32.244  20.962  24.786  1.00  0.00     0.000 A 
ATOM     19  C   UNL A   1      31.776  22.449  22.954  1.00  0.00     0.000 A 
ATOM     20  C   UNL A   1      32.359  21.279  23.439  1.00  0.00     0.000 A 
ENDBRANCH  14  15
ENDBRANCH  12  14
ENDBRANCH   9  10
ENDBRANCH   8   9
BRANCH   8  21
ATOM     21  C   UNL A   1      33.875  25.505  25.071  1.00  0.00     0.038 A 
ATOM     22  C   UNL A   1      34.171  24.619  26.126  1.00  0.00     0.026 A 
ATOM     23  C   UNL A   1      34.327  25.068  23.815  1.00  0.00     0.026 A 
ATOM     24  C   UNL A   1      34.880  23.419  25.957  1.00  0.00     0.002 A 
ATOM     25  C   UNL A   1      35.065  23.885  23.632  1.00  0.00     0.002 A 
ATOM     26  C   UNL A   1      35.345  23.058  24.707  1.00  0.00     0.000 A 
ENDBRANCH   8  21
ENDBRANCH   7   8
ENDBRANCH   5   7
ENDBRANCH   2   3
ENDBRANCH   1   2
BRANCH   1  27
ATOM     27  C   UNL A   1      34.451  32.208  29.228  1.00  0.00     0.002 C 
BRANCH  27  28
ATOM     28  C   UNL A   1      34.672  33.699  28.959  1.00  0.00     0.002 C 
BRANCH  28  29
ATOM     29  C   UNL A   1      33.391  34.527  28.846  1.00  0.00     0.021 C 
BRANCH  29  30
ATOM     30  C   UNL A   1      33.494  35.931  29.426  1.00  0.00     0.116 C 
BRANCH  30  31
ATOM     31  N   UNL A   1      32.530  36.159  30.490  1.00  0.00    -0.352 N 
ATOM     32  C   UNL A   1      32.547  35.708  31.785  1.00  0.00     0.251 C 
ATOM     33  H   UNL A   1      31.756  36.717  30.247  1.00  0.00     0.163 HD
ATOM     34  O   UNL A   1      31.560  35.843  32.503  1.00  0.00    -0.269 OA
BRANCH  32  35
ATOM     35  C   UNL A   1      33.752  35.032  32.307  1.00  0.00     0.039 A 
ATOM     36  C   UNL A   1      33.629  33.742  32.830  1.00  0.00     0.014 A 
ATOM     37  C   UNL A   1      34.999  35.663  32.273  1.00  0.00     0.014 A 
ATOM     38  C   UNL A   1      34.768  33.061  33.262  1.00  0.00     0.010 A 
ATOM     39  C   UNL A   1      36.141  34.954  32.627  1.00  0.00     0.010 A 
ATOM     40  C   UNL A   1      36.038  33.648  33.130  1.00  0.00    -0.014 A 
BRANCH  40  41
ATOM     41  C   UNL A   1      37.268  32.907  33.508  1.00  0.00     0.031 A 
ATOM     42  C   UNL A   1      37.970  33.214  34.800  1.00  0.00     0.074 A 
ATOM     43  C   UNL A   1      37.790  32.005  32.654  1.00  0.00     0.049 A 
ATOM     44  N   UNL A   1      39.083  32.715  35.277  1.00  0.00    -0.248 NA
ATOM     45  C   UNL A   1      37.355  34.237  35.658  1.00  0.00     0.031 C 
ATOM     46  C   UNL A   1      37.231  31.659  31.347  1.00  0.00     0.029 A 
ATOM     47  N   UNL A   1      38.913  31.223  32.754  1.00  0.00    -0.354 N 
ATOM     48  C   UNL A   1      39.305  33.371  36.480  1.00  0.00     0.074 A 
ATOM     49  C   UNL A   1      38.248  34.347  36.630  1.00  0.00     0.031 C 
ATOM     50  C   UNL A   1      38.000  30.718  30.777  1.00  0.00     0.029 A 
ATOM     51  C   UNL A   1      39.127  30.426  31.657  1.00  0.00     0.049 A 
ATOM     52  H   UNL A   1      39.509  31.233  33.537  1.00  0.00     0.167 HD
ATOM     53  C   UNL A   1      40.287  33.162  37.390  1.00  0.00     0.037 A 
ATOM     54  C   UNL A   1      40.124  29.563  31.385  1.00  0.00     0.037 A 
ATOM     55  C   UNL A   1      41.332  32.182  37.239  1.00  0.00     0.049 A 
ATOM     56  C   UNL A   1      41.213  29.357  32.402  1.00  0.00     0.074 A 
ATOM     57  C   UNL A   1      42.339  31.849  38.129  1.00  0.00     0.029 A 
ATOM     58  N   UNL A   1      41.510  31.384  36.117  1.00  0.00    -0.354 N 
ATOM     59  N   UNL A   1      41.372  29.927  33.572  1.00  0.00    -0.248 NA
ATOM     60  C   UNL A   1      42.258  28.382  32.063  1.00  0.00     0.031 C 
ATOM     61  C   UNL A   1      43.162  30.896  37.521  1.00  0.00     0.029 A 
ATOM     62  C   UNL A   1      42.631  30.582  36.279  1.00  0.00     0.049 A 
ATOM     63  H   UNL A   1      40.927  31.386  35.324  1.00  0.00     0.167 HD
ATOM     64  C   UNL A   1      42.516  29.363  34.121  1.00  0.00     0.074 A 
ATOM     65  C   UNL A   1      43.003  28.394  33.160  1.00  0.00     0.031 C 
ATOM     66  C   UNL A   1      43.107  29.623  35.314  1.00  0.00     0.037 A 
BRANCH  53  67
ATOM     67  C   UNL A   1      40.280  34.021  38.624  1.00  0.00     0.064 A 
ATOM     68  C   UNL A   1      39.585  33.643  39.785  1.00  0.00     0.173 A 
ATOM     69  C   UNL A   1      40.985  35.234  38.652  1.00  0.00     0.173 A 
ATOM     70  F   UNL A   1      38.886  32.498  39.811  1.00  0.00    -0.203 F 
ATOM     71  C   UNL A   1      39.558  34.468  40.907  1.00  0.00     0.198 A 
ATOM     72  C   UNL A   1      40.987  36.038  39.790  1.00  0.00     0.198 A 
ATOM     73  F   UNL A   1      41.674  35.642  37.577  1.00  0.00    -0.203 F 
ATOM     74  F   UNL A   1      38.832  34.117  41.977  1.00  0.00    -0.200 F 
ATOM     75  C   UNL A   1      40.264  35.661  40.910  1.00  0.00     0.200 A 
ATOM     76  F   UNL A   1      41.683  37.183  39.797  1.00  0.00    -0.200 F 
ATOM     77  F   UNL A   1      40.238  36.453  41.991  1.00  0.00    -0.200 F 
ENDBRANCH  53  67
BRANCH  54  78
ATOM     78  C   UNL A   1      40.118  28.814  30.102  1.00  0.00     0.064 A 
ATOM     79  C   UNL A   1      39.487  27.567  29.998  1.00  0.00     0.173 A 
ATOM     80  C   UNL A   1      40.724  29.338  28.950  1.00  0.00     0.173 A 
ATOM     81  F   UNL A   1      38.912  27.015  31.076  1.00  0.00    -0.203 F 
ATOM     82  C   UNL A   1      39.472  26.866  28.793  1.00  0.00     0.198 A 
ATOM     83  C   UNL A   1      40.682  28.650  27.738  1.00  0.00     0.198 A 
ATOM     84  F   UNL A   1      41.335  30.530  28.995  1.00  0.00    -0.203 F 
ATOM     85  F   UNL A   1      38.896  25.658  28.730  1.00  0.00    -0.200 F 
ATOM     86  C   UNL A   1      40.063  27.412  27.663  1.00  0.00     0.200 A 
ATOM     87  F   UNL A   1      41.238  29.190  26.645  1.00  0.00    -0.200 F 
ATOM     88  F   UNL A   1      40.037  26.743  26.502  1.00  0.00    -0.200 F 
ENDBRANCH  54  78
BRANCH  66  89
ATOM     89  C   UNL A   1      44.332  28.827  35.665  1.00  0.00     0.064 A 
ATOM     90  C   UNL A   1      45.622  29.264  35.325  1.00  0.00     0.173 A 
ATOM     91  C   UNL A   1      44.216  27.628  36.386  1.00  0.00     0.173 A 
ATOM     92  F   UNL A   1      45.788  30.395  34.623  1.00  0.00    -0.203 F 
ATOM     93  C   UNL A   1      46.746  28.518  35.671  1.00  0.00     0.198 A 
ATOM     94  C   UNL A   1      45.343  26.903  36.760  1.00  0.00     0.198 A 
ATOM     95  F   UNL A   1      43.007  27.167  36.741  1.00  0.00    -0.203 F 
ATOM     96  F   UNL A   1      47.963  28.929  35.291  1.00  0.00    -0.200 F 
ATOM     97  C   UNL A   1      46.606  27.343  36.395  1.00  0.00     0.200 A 
ATOM     98  F   UNL A   1      45.208  25.777  37.474  1.00  0.00    -0.200 F 
ATOM     99  F   UNL A   1      47.689  26.631  36.734  1.00  0.00    -0.200 F 
ENDBRANCH  66  89
ENDBRANCH  40  41
ENDBRANCH  32  35
ENDBRANCH  30  31
ENDBRANCH  29  30
ENDBRANCH  28  29
ENDBRANCH  27  28
ENDBRANCH   1  27
TORSDOF 19
ENDMDL
MODEL 3
REMARK VINA RESULT:     -11.9      6.541     11.091
REMARK SMILES O=C(CN(CC(=O)NCc1ccccc1)c1ccccc1)NCCCCCCNC(=O)c1ccc(-c2c3nc(c(-c4c(F)c(F)c(F)c(F)c4F)c4ccc([nH]4)c(-c4c(F)c(F)c(F)c(F)c4F)c4nc(c(-c5c(F)c(F)c(F)c(F)c5F)c5ccc2[nH]5)C=C4)C=C3)cc1
REMARK SMILES IDX 24 1 23 2 22 3 1 4 2 5 3 7 4 8 5 9 6 10 7 11 8 12 9 14 10 15
REMARK SMILES IDX 11 16 15 17 12 18 14 19 13 20 16 21 17 22 21 23 18 24 20 25
REMARK SMILES IDX 19 26 25 27 26 28 27 29 28 30 29 31 30 32 31 34 32 35 33 36
REMARK SMILES IDX 94 37 34 38 93 39 35 40 36 41 37 42 87 43 38 44 92 45 86 46
REMARK SMILES IDX 88 47 39 48 91 49 85 50 84 51 40 53 72 54 52 55 71 56 53 57
REMARK SMILES IDX 56 58 70 59 89 60 54 61 55 62 69 64 90 65 57 66 41 67 42 68
REMARK SMILES IDX 50 69 43 70 44 71 48 72 51 73 45 74 46 75 49 76 47 77 73 78
REMARK SMILES IDX 74 79 82 80 75 81 76 82 80 83 83 84 77 85 78 86 81 87 79 88
REMARK SMILES IDX 58 89 59 90 67 91 60 92 61 93 65 94 68 95 62 96 63 97 66 98
REMARK SMILES IDX 64 99
REMARK H PARENT 22 6 8 13 29 33 88 52 56 63
REMARK Flexibility Score: inf
ROOT
ATOM      1  C   UNL A   1      34.812  31.805  29.015  1.00  0.00     0.021 C 
ENDROOT
BRANCH   1   2
ATOM      2  C   UNL A   1      34.405  31.537  27.569  1.00  0.00     0.116 C 
BRANCH   2   3
ATOM      3  N   UNL A   1      33.900  30.194  27.418  1.00  0.00    -0.355 N 
ATOM      4  O   UNL A   1      31.865  30.845  26.601  1.00  0.00    -0.273 OA
ATOM      5  C   UNL A   1      32.639  29.951  26.935  1.00  0.00     0.239 C 
ATOM      6  H   UNL A   1      34.474  29.434  27.669  1.00  0.00     0.163 HD
BRANCH   5   7
ATOM      7  C   UNL A   1      32.220  28.493  26.935  1.00  0.00     0.217 C 
BRANCH   7   8
ATOM      8  N   UNL A   1      32.706  27.599  25.844  1.00  0.00    -0.353 N 
BRANCH   8   9
ATOM      9  C   UNL A   1      33.067  28.290  24.573  1.00  0.00     0.217 C 
BRANCH   9  10
ATOM     10  C   UNL A   1      32.000  28.400  23.472  1.00  0.00     0.239 C 
ATOM     11  O   UNL A   1      31.175  29.322  23.498  1.00  0.00    -0.273 OA
ATOM     12  N   UNL A   1      31.924  27.539  22.422  1.00  0.00    -0.350 N 
ATOM     13  H   UNL A   1      31.106  27.618  21.878  1.00  0.00     0.163 HD
BRANCH  12  14
ATOM     14  C   UNL A   1      32.851  26.529  21.981  1.00  0.00     0.151 C 
BRANCH  14  15
ATOM     15  C   UNL A   1      32.430  25.131  22.355  1.00  0.00    -0.029 A 
ATOM     16  C   UNL A   1      31.167  24.868  22.900  1.00  0.00     0.005 A 
ATOM     17  C   UNL A   1      33.313  24.053  22.197  1.00  0.00     0.005 A 
ATOM     18  C   UNL A   1      30.822  23.598  23.363  1.00  0.00     0.000 A 
ATOM     19  C   UNL A   1      32.961  22.773  22.636  1.00  0.00     0.000 A 
ATOM     20  C   UNL A   1      31.724  22.550  23.239  1.00  0.00     0.000 A 
ENDBRANCH  14  15
ENDBRANCH  12  14
ENDBRANCH   9  10
ENDBRANCH   8   9
BRANCH   8  21
ATOM     21  C   UNL A   1      32.893  26.223  25.976  1.00  0.00     0.038 A 
ATOM     22  C   UNL A   1      31.912  25.370  26.517  1.00  0.00     0.026 A 
ATOM     23  C   UNL A   1      34.080  25.568  25.609  1.00  0.00     0.026 A 
ATOM     24  C   UNL A   1      32.100  23.992  26.708  1.00  0.00     0.002 A 
ATOM     25  C   UNL A   1      34.297  24.194  25.821  1.00  0.00     0.002 A 
ATOM     26  C   UNL A   1      33.305  23.403  26.375  1.00  0.00     0.000 A 
ENDBRANCH   8  21
ENDBRANCH   7   8
ENDBRANCH   5   7
ENDBRANCH   2   3
ENDBRANCH   1   2
BRANCH   1  27
ATOM     27  C   UNL A   1      34.173  33.068  29.607  1.00  0.00     0.002 C 
BRANCH  27  28
ATOM     28  C   UNL A   1      34.585  34.378  28.930  1.00  0.00     0.002 C 
BRANCH  28  29
ATOM     29  C   UNL A   1      33.492  35.446  28.879  1.00  0.00     0.021 C 
BRANCH  29  30
ATOM     30  C   UNL A   1      33.581  36.491  29.983  1.00  0.00     0.116 C 
BRANCH  30  31
ATOM     31  N   UNL A   1      32.511  36.354  30.959  1.00  0.00    -0.352 N 
ATOM     32  C   UNL A   1      32.478  35.604  32.106  1.00  0.00     0.251 C 
ATOM     33  H   UNL A   1      31.696  36.872  30.769  1.00  0.00     0.163 HD
ATOM     34  O   UNL A   1      31.426  35.459  32.724  1.00  0.00    -0.269 OA
BRANCH  32  35
ATOM     35  C   UNL A   1      33.711  34.946  32.585  1.00  0.00     0.039 A 
ATOM     36  C   UNL A   1      33.627  33.655  33.112  1.00  0.00     0.014 A 
ATOM     37  C   UNL A   1      34.946  35.596  32.507  1.00  0.00     0.014 A 
ATOM     38  C   UNL A   1      34.790  32.992  33.503  1.00  0.00     0.010 A 
ATOM     39  C   UNL A   1      36.111  34.904  32.819  1.00  0.00     0.010 A 
ATOM     40  C   UNL A   1      36.046  33.597  33.326  1.00  0.00    -0.014 A 
BRANCH  40  41
ATOM     41  C   UNL A   1      37.300  32.876  33.660  1.00  0.00     0.031 A 
ATOM     42  C   UNL A   1      38.045  33.196  34.924  1.00  0.00     0.074 A 
ATOM     43  C   UNL A   1      37.802  31.978  32.790  1.00  0.00     0.049 A 
ATOM     44  N   UNL A   1      39.182  32.715  35.360  1.00  0.00    -0.248 NA
ATOM     45  C   UNL A   1      37.448  34.214  35.801  1.00  0.00     0.031 C 
ATOM     46  C   UNL A   1      37.200  31.618  31.506  1.00  0.00     0.029 A 
ATOM     47  N   UNL A   1      38.939  31.212  32.850  1.00  0.00    -0.354 N 
ATOM     48  C   UNL A   1      39.440  33.379  36.552  1.00  0.00     0.074 A 
ATOM     49  C   UNL A   1      38.375  34.340  36.738  1.00  0.00     0.031 C 
ATOM     50  C   UNL A   1      37.959  30.687  30.910  1.00  0.00     0.029 A 
ATOM     51  C   UNL A   1      39.123  30.413  31.748  1.00  0.00     0.049 A 
ATOM     52  H   UNL A   1      39.563  31.233  33.610  1.00  0.00     0.167 HD
ATOM     53  C   UNL A   1      40.458  33.187  37.425  1.00  0.00     0.037 A 
ATOM     54  C   UNL A   1      40.121  29.564  31.442  1.00  0.00     0.037 A 
ATOM     55  C   UNL A   1      41.510  32.221  37.238  1.00  0.00     0.049 A 
ATOM     56  C   UNL A   1      41.251  29.377  32.417  1.00  0.00     0.074 A 
ATOM     57  C   UNL A   1      42.554  31.906  38.090  1.00  0.00     0.029 A 
ATOM     58  N   UNL A   1      41.658  31.422  36.113  1.00  0.00    -0.354 N 
ATOM     59  N   UNL A   1      41.444  29.954  33.579  1.00  0.00    -0.248 NA
ATOM     60  C   UNL A   1      42.296  28.416  32.043  1.00  0.00     0.031 C 
ATOM     61  C   UNL A   1      43.368  30.962  37.455  1.00  0.00     0.029 A 
ATOM     62  C   UNL A   1      42.795  30.637  36.235  1.00  0.00     0.049 A 
ATOM     63  H   UNL A   1      41.046  31.412  35.342  1.00  0.00     0.167 HD
ATOM     64  C   UNL A   1      42.617  29.408  34.086  1.00  0.00     0.074 A 
ATOM     65  C   UNL A   1      43.081  28.443  33.111  1.00  0.00     0.031 C 
ATOM     66  C   UNL A   1      43.249  29.680  35.255  1.00  0.00     0.037 A 
BRANCH  53  67
ATOM     67  C   UNL A   1      40.485  34.051  38.656  1.00  0.00     0.064 A 
ATOM     68  C   UNL A   1      41.175  35.273  38.687  1.00  0.00     0.173 A 
ATOM     69  C   UNL A   1      39.803  33.657  39.817  1.00  0.00     0.173 A 
ATOM     70  F   UNL A   1      41.853  35.694  37.608  1.00  0.00    -0.203 F 
ATOM     71  C   UNL A   1      41.221  36.043  39.847  1.00  0.00     0.198 A 
ATOM     72  C   UNL A   1      39.818  34.448  40.963  1.00  0.00     0.198 A 
ATOM     73  F   UNL A   1      39.119  32.503  39.842  1.00  0.00    -0.203 F 
ATOM     74  F   UNL A   1      41.943  37.172  39.872  1.00  0.00    -0.200 F 
ATOM     75  C   UNL A   1      40.537  35.633  40.982  1.00  0.00     0.200 A 
ATOM     76  F   UNL A   1      39.144  34.058  42.054  1.00  0.00    -0.200 F 
ATOM     77  F   UNL A   1      40.580  36.376  42.096  1.00  0.00    -0.200 F 
ENDBRANCH  53  67
BRANCH  54  78
ATOM     78  C   UNL A   1      40.078  28.810  30.161  1.00  0.00     0.064 A 
ATOM     79  C   UNL A   1      40.647  29.338  28.995  1.00  0.00     0.173 A 
ATOM     80  C   UNL A   1      39.486  27.540  30.084  1.00  0.00     0.173 A 
ATOM     81  F   UNL A   1      41.206  30.556  29.014  1.00  0.00    -0.203 F 
ATOM     82  C   UNL A   1      40.616  28.629  27.795  1.00  0.00     0.198 A 
ATOM     83  C   UNL A   1      39.483  26.820  28.891  1.00  0.00     0.198 A 
ATOM     84  F   UNL A   1      38.934  26.988  31.174  1.00  0.00    -0.203 F 
ATOM     85  F   UNL A   1      41.133  29.172  26.685  1.00  0.00    -0.200 F 
ATOM     86  C   UNL A   1      40.041  27.368  27.746  1.00  0.00     0.200 A 
ATOM     87  F   UNL A   1      38.943  25.594  28.853  1.00  0.00    -0.200 F 
ATOM     88  F   UNL A   1      40.023  26.682  26.595  1.00  0.00    -0.200 F 
ENDBRANCH  54  78
BRANCH  66  89
ATOM     89  C   UNL A   1      44.497  28.903  35.562  1.00  0.00     0.064 A 
ATOM     90  C   UNL A   1      44.458  27.686  36.259  1.00  0.00     0.173 A 
ATOM     91  C   UNL A   1      45.746  29.365  35.119  1.00  0.00     0.173 A 
ATOM     92  F   UNL A   1      43.292  27.207  36.718  1.00  0.00    -0.203 F 
ATOM     93  C   UNL A   1      45.626  26.974  36.523  1.00  0.00     0.198 A 
ATOM     94  C   UNL A   1      46.907  28.634  35.354  1.00  0.00     0.198 A 
ATOM     95  F   UNL A   1      45.840  30.520  34.443  1.00  0.00    -0.203 F 
ATOM     96  F   UNL A   1      45.570  25.840  37.235  1.00  0.00    -0.200 F 
ATOM     97  C   UNL A   1      46.848  27.444  36.063  1.00  0.00     0.200 A 
ATOM     98  F   UNL A   1      48.084  29.080  34.894  1.00  0.00    -0.200 F 
ATOM     99  F   UNL A   1      47.969  26.753  36.311  1.00  0.00    -0.200 F 
ENDBRANCH  66  89
ENDBRANCH  40  41
ENDBRANCH  32  35
ENDBRANCH  30  31
ENDBRANCH  29  30
ENDBRANCH  28  29
ENDBRANCH  27  28
ENDBRANCH   1  27
TORSDOF 19
ENDMDL
