MODEL 1
REMARK VINA RESULT:     -13.3      0.000      0.000
REMARK SMILES COc1ccc(N2C(=O)/C(=C/c3c(C(=O)NCCCCCCNC(=O)c4ccc(-c5c6nc(c(-c7c(F)c(F)c(F)c(F)c7F)c7ccc([nH]7)c(-c7c(F)c(F)c(F)c(F)c7F)c7nc(c(-c8c(F)c(F)c(F)c(F)c8F)c8ccc5[nH]8)C=C7)C=C6)cc4)[nH]c4cc(OC)ccc34)SC2=S)cc1
REMARK SMILES IDX 19 1 18 2 17 3 16 4 14 5 15 6 13 8 12 9 97 10 89 11 90 12
REMARK SMILES IDX 96 13 91 15 95 16 92 17 11 18 7 19 8 20 99 21 9 22 10 23
REMARK SMILES IDX 98 24 100 25 6 26 3 27 4 28 102 29 5 30 101 31 2 32 1 33
REMARK SMILES IDX 93 34 94 35 20 36 21 37 22 38 23 39 24 40 25 42 26 43 27 44
REMARK SMILES IDX 88 45 28 46 87 47 29 48 30 49 31 50 81 51 32 52 86 53 80 54
REMARK SMILES IDX 82 55 33 56 85 57 79 58 78 59 34 61 66 62 46 63 65 64 47 65
REMARK SMILES IDX 50 66 64 67 83 68 48 69 49 70 63 72 84 73 51 74 35 75 36 76
REMARK SMILES IDX 44 77 37 78 38 79 42 80 45 81 39 82 40 83 43 84 41 85 67 86
REMARK SMILES IDX 68 87 76 88 69 89 70 90 74 91 77 92 71 93 72 94 75 95 73 96
REMARK SMILES IDX 52 97 53 98 61 99 54 100 55 101 59 102 62 103 56 104 57 105
REMARK SMILES IDX 60 106 58 107
REMARK H PARENT 16 7 89 14 23 41 82 60 50 71
REMARK Flexibility Score: inf
ROOT
ATOM      1  C   UNL A   1      38.230  23.754  26.159  1.00  0.00     0.002 C 
ENDROOT
BRANCH   1   2
ATOM      2  C   UNL A   1      37.184  23.361  25.110  1.00  0.00     0.021 C 
BRANCH   2   3
ATOM      3  C   UNL A   1      35.748  23.726  25.457  1.00  0.00     0.116 C 
BRANCH   3   4
ATOM      4  N   UNL A   1      35.302  23.225  26.738  1.00  0.00    -0.351 N 
ATOM      5  C   UNL A   1      34.453  22.163  26.930  1.00  0.00     0.268 C 
ATOM      6  O   UNL A   1      33.919  22.017  28.029  1.00  0.00    -0.268 OA
ATOM      7  H   UNL A   1      35.633  23.686  27.542  1.00  0.00     0.163 HD
BRANCH   5   8
ATOM      8  C   UNL A   1      34.109  21.355  25.786  1.00  0.00     0.112 A 
ATOM      9  C   UNL A   1      32.994  21.253  24.942  1.00  0.00     0.014 A 
ATOM     10  C   UNL A   1      33.081  19.894  24.389  1.00  0.00     0.008 A 
ATOM     11  N   UNL A   1      35.010  20.415  25.369  1.00  0.00    -0.350 N 
ATOM     12  C   UNL A   1      34.339  19.401  24.751  1.00  0.00     0.050 A 
ATOM     13  C   UNL A   1      32.258  18.972  23.681  1.00  0.00     0.015 A 
ATOM     14  H   UNL A   1      35.985  20.463  25.494  1.00  0.00     0.167 HD
ATOM     15  C   UNL A   1      34.786  18.095  24.535  1.00  0.00     0.073 A 
ATOM     16  C   UNL A   1      32.698  17.627  23.456  1.00  0.00     0.047 A 
ATOM     17  C   UNL A   1      33.943  17.192  23.904  1.00  0.00     0.120 A 
BRANCH   9  18
ATOM     18  C   UNL A   1      31.905  22.240  24.943  1.00  0.00     0.032 C 
ATOM     19  N   UNL A   1      31.417  25.678  23.695  1.00  0.00    -0.261 N 
ATOM     20  C   UNL A   1      30.943  24.581  24.440  1.00  0.00     0.270 C 
ATOM     21  C   UNL A   1      32.464  25.415  22.830  1.00  0.00     0.152 C 
ATOM     22  O   UNL A   1      30.049  24.587  25.277  1.00  0.00    -0.268 OA
ATOM     23  C   UNL A   1      31.794  23.346  24.157  1.00  0.00     0.081 C 
ATOM     24  S   UNL A   1      32.724  23.682  22.739  1.00  0.00    -0.054 SA
ATOM     25  S   UNL A   1      33.407  26.484  21.956  1.00  0.00    -0.051 S 
BRANCH  19  26
ATOM     26  C   UNL A   1      30.900  27.012  23.852  1.00  0.00     0.051 A 
ATOM     27  C   UNL A   1      30.061  29.726  23.930  1.00  0.00     0.119 A 
ATOM     28  C   UNL A   1      31.153  29.305  24.675  1.00  0.00     0.048 A 
ATOM     29  C   UNL A   1      29.418  28.811  23.097  1.00  0.00     0.048 A 
ATOM     30  C   UNL A   1      31.587  27.975  24.608  1.00  0.00     0.030 A 
ATOM     31  C   UNL A   1      29.828  27.459  23.067  1.00  0.00     0.030 A 
BRANCH  27  32
ATOM     32  O   UNL A   1      29.786  31.062  23.994  1.00  0.00    -0.497 OA
ATOM     33  C   UNL A   1      28.487  31.430  23.546  1.00  0.00     0.278 C 
ENDBRANCH  27  32
ENDBRANCH  19  26
ENDBRANCH   9  18
BRANCH  17  34
ATOM     34  O   UNL A   1      34.463  15.929  23.875  1.00  0.00    -0.497 OA
ATOM     35  C   UNL A   1      35.189  15.456  24.996  1.00  0.00     0.278 C 
ENDBRANCH  17  34
ENDBRANCH   5   8
ENDBRANCH   3   4
ENDBRANCH   2   3
ENDBRANCH   1   2
BRANCH   1  36
ATOM     36  C   UNL A   1      39.173  22.601  26.500  1.00  0.00     0.002 C 
BRANCH  36  37
ATOM     37  C   UNL A   1      39.154  21.304  25.700  1.00  0.00     0.021 C 
BRANCH  37  38
ATOM     38  C   UNL A   1      39.449  19.987  26.384  1.00  0.00     0.116 C 
BRANCH  38  39
ATOM     39  N   UNL A   1      40.605  19.265  25.875  1.00  0.00    -0.352 N 
ATOM     40  C   UNL A   1      41.935  19.642  25.842  1.00  0.00     0.251 C 
ATOM     41  H   UNL A   1      40.412  18.375  25.499  1.00  0.00     0.163 HD
ATOM     42  O   UNL A   1      42.771  18.907  25.327  1.00  0.00    -0.269 OA
BRANCH  40  43
ATOM     43  C   UNL A   1      42.354  20.950  26.400  1.00  0.00     0.039 A 
ATOM     44  C   UNL A   1      42.407  21.140  27.785  1.00  0.00     0.014 A 
ATOM     45  C   UNL A   1      42.718  21.991  25.552  1.00  0.00     0.014 A 
ATOM     46  C   UNL A   1      42.897  22.347  28.303  1.00  0.00     0.010 A 
ATOM     47  C   UNL A   1      43.372  23.100  26.059  1.00  0.00     0.010 A 
ATOM     48  C   UNL A   1      43.415  23.325  27.442  1.00  0.00    -0.014 A 
BRANCH  48  49
ATOM     49  C   UNL A   1      43.878  24.663  27.898  1.00  0.00     0.031 A 
ATOM     50  C   UNL A   1      42.831  25.695  28.250  1.00  0.00     0.074 A 
ATOM     51  C   UNL A   1      45.182  24.994  27.895  1.00  0.00     0.049 A 
ATOM     52  N   UNL A   1      42.954  26.985  28.429  1.00  0.00    -0.248 NA
ATOM     53  C   UNL A   1      41.440  25.213  28.342  1.00  0.00     0.031 C 
ATOM     54  C   UNL A   1      46.289  24.106  27.541  1.00  0.00     0.029 A 
ATOM     55  N   UNL A   1      45.795  26.189  28.183  1.00  0.00    -0.354 N 
ATOM     56  C   UNL A   1      41.658  27.462  28.598  1.00  0.00     0.074 A 
ATOM     57  C   UNL A   1      40.763  26.346  28.405  1.00  0.00     0.031 C 
ATOM     58  C   UNL A   1      47.448  24.779  27.660  1.00  0.00     0.029 A 
ATOM     59  C   UNL A   1      47.162  26.157  28.049  1.00  0.00     0.049 A 
ATOM     60  H   UNL A   1      45.301  26.994  28.462  1.00  0.00     0.167 HD
ATOM     61  C   UNL A   1      41.248  28.709  28.929  1.00  0.00     0.037 A 
ATOM     62  C   UNL A   1      48.071  27.137  28.213  1.00  0.00     0.037 A 
ATOM     63  C   UNL A   1      42.150  29.795  29.195  1.00  0.00     0.049 A 
ATOM     64  C   UNL A   1      47.595  28.514  28.601  1.00  0.00     0.074 A 
ATOM     65  C   UNL A   1      41.858  31.084  29.597  1.00  0.00     0.029 A 
ATOM     66  N   UNL A   1      43.532  29.703  29.105  1.00  0.00    -0.354 N 
ATOM     67  N   UNL A   1      46.372  28.948  28.795  1.00  0.00    -0.248 NA
ATOM     68  C   UNL A   1      48.629  29.538  28.802  1.00  0.00     0.031 C 
ATOM     69  C   UNL A   1      43.062  31.784  29.717  1.00  0.00     0.029 A 
ATOM     70  C   UNL A   1      44.106  30.915  29.444  1.00  0.00     0.049 A 
ATOM     71  H   UNL A   1      44.029  28.896  28.841  1.00  0.00     0.167 HD
ATOM     72  C   UNL A   1      46.492  30.276  29.184  1.00  0.00     0.074 A 
ATOM     73  C   UNL A   1      47.909  30.575  29.208  1.00  0.00     0.031 C 
ATOM     74  C   UNL A   1      45.523  31.172  29.492  1.00  0.00     0.037 A 
BRANCH  61  75
ATOM     75  C   UNL A   1      39.770  28.947  29.056  1.00  0.00     0.064 A 
ATOM     76  C   UNL A   1      39.100  28.802  30.281  1.00  0.00     0.173 A 
ATOM     77  C   UNL A   1      39.012  29.341  27.942  1.00  0.00     0.173 A 
ATOM     78  F   UNL A   1      39.772  28.413  31.376  1.00  0.00    -0.203 F 
ATOM     79  C   UNL A   1      37.726  29.001  30.379  1.00  0.00     0.198 A 
ATOM     80  C   UNL A   1      37.644  29.579  28.052  1.00  0.00     0.198 A 
ATOM     81  F   UNL A   1      39.597  29.498  26.745  1.00  0.00    -0.203 F 
ATOM     82  F   UNL A   1      37.102  28.790  31.547  1.00  0.00    -0.200 F 
ATOM     83  C   UNL A   1      37.001  29.398  29.268  1.00  0.00     0.200 A 
ATOM     84  F   UNL A   1      36.946  29.977  26.979  1.00  0.00    -0.200 F 
ATOM     85  F   UNL A   1      35.679  29.600  29.365  1.00  0.00    -0.200 F 
ENDBRANCH  61  75
BRANCH  62  86
ATOM     86  C   UNL A   1      49.525  26.854  28.054  1.00  0.00     0.064 A 
ATOM     87  C   UNL A   1      50.112  26.830  26.780  1.00  0.00     0.173 A 
ATOM     88  C   UNL A   1      50.348  26.575  29.154  1.00  0.00     0.173 A 
ATOM     89  F   UNL A   1      49.363  27.069  25.693  1.00  0.00    -0.203 F 
ATOM     90  C   UNL A   1      51.456  26.503  26.610  1.00  0.00     0.198 A 
ATOM     91  C   UNL A   1      51.701  26.282  28.985  1.00  0.00     0.198 A 
ATOM     92  F   UNL A   1      49.841  26.591  30.394  1.00  0.00    -0.203 F 
ATOM     93  F   UNL A   1      51.974  26.426  25.376  1.00  0.00    -0.200 F 
ATOM     94  C   UNL A   1      52.251  26.233  27.713  1.00  0.00     0.200 A 
ATOM     95  F   UNL A   1      52.470  26.036  30.055  1.00  0.00    -0.200 F 
ATOM     96  F   UNL A   1      53.543  25.917  27.549  1.00  0.00    -0.200 F 
ENDBRANCH  62  86
BRANCH  74  97
ATOM     97  C   UNL A   1      45.960  32.532  29.952  1.00  0.00     0.064 A 
ATOM     98  C   UNL A   1      46.224  32.809  31.301  1.00  0.00     0.173 A 
ATOM     99  C   UNL A   1      46.162  33.560  29.017  1.00  0.00     0.173 A 
ATOM    100  F   UNL A   1      46.036  31.864  32.234  1.00  0.00    -0.203 F 
ATOM    101  C   UNL A   1      46.641  34.075  31.702  1.00  0.00     0.198 A 
ATOM    102  C   UNL A   1      46.612  34.813  29.417  1.00  0.00     0.198 A 
ATOM    103  F   UNL A   1      45.935  33.342  27.713  1.00  0.00    -0.203 F 
ATOM    104  F   UNL A   1      46.834  34.334  33.002  1.00  0.00    -0.200 F 
ATOM    105  C   UNL A   1      46.842  35.073  30.760  1.00  0.00     0.200 A 
ATOM    106  F   UNL A   1      46.826  35.769  28.503  1.00  0.00    -0.200 F 
ATOM    107  F   UNL A   1      47.252  36.289  31.147  1.00  0.00    -0.200 F 
ENDBRANCH  74  97
ENDBRANCH  48  49
ENDBRANCH  40  43
ENDBRANCH  38  39
ENDBRANCH  37  38
ENDBRANCH  36  37
ENDBRANCH   1  36
TORSDOF 17
ENDMDL
MODEL 2
REMARK VINA RESULT:     -13.2      2.885      9.402
REMARK SMILES COc1ccc(N2C(=O)/C(=C/c3c(C(=O)NCCCCCCNC(=O)c4ccc(-c5c6nc(c(-c7c(F)c(F)c(F)c(F)c7F)c7ccc([nH]7)c(-c7c(F)c(F)c(F)c(F)c7F)c7nc(c(-c8c(F)c(F)c(F)c(F)c8F)c8ccc5[nH]8)C=C7)C=C6)cc4)[nH]c4cc(OC)ccc34)SC2=S)cc1
REMARK SMILES IDX 19 1 18 2 17 3 16 4 14 5 15 6 13 8 12 9 97 10 89 11 90 12
REMARK SMILES IDX 96 13 91 15 95 16 92 17 11 18 7 19 8 20 99 21 9 22 10 23
REMARK SMILES IDX 98 24 100 25 6 26 3 27 4 28 102 29 5 30 101 31 2 32 1 33
REMARK SMILES IDX 93 34 94 35 20 36 21 37 22 38 23 39 24 40 25 42 26 43 27 44
REMARK SMILES IDX 88 45 28 46 87 47 29 48 30 49 31 50 81 51 32 52 86 53 80 54
REMARK SMILES IDX 82 55 33 56 85 57 79 58 78 59 34 61 66 62 46 63 65 64 47 65
REMARK SMILES IDX 50 66 64 67 83 68 48 69 49 70 63 72 84 73 51 74 35 75 36 76
REMARK SMILES IDX 44 77 37 78 38 79 42 80 45 81 39 82 40 83 43 84 41 85 67 86
REMARK SMILES IDX 68 87 76 88 69 89 70 90 74 91 77 92 71 93 72 94 75 95 73 96
REMARK SMILES IDX 52 97 53 98 61 99 54 100 55 101 59 102 62 103 56 104 57 105
REMARK SMILES IDX 60 106 58 107
REMARK H PARENT 16 7 89 14 23 41 82 60 50 71
REMARK Flexibility Score: inf
ROOT
ATOM      1  C   UNL A   1      34.400  25.716  25.116  1.00  0.00     0.002 C 
ENDROOT
BRANCH   1   2
ATOM      2  C   UNL A   1      33.513  26.480  26.106  1.00  0.00     0.021 C 
BRANCH   2   3
ATOM      3  C   UNL A   1      33.710  27.988  26.122  1.00  0.00     0.116 C 
BRANCH   3   4
ATOM      4  N   UNL A   1      34.312  28.522  24.920  1.00  0.00    -0.351 N 
ATOM      5  C   UNL A   1      33.652  28.786  23.745  1.00  0.00     0.268 C 
ATOM      6  O   UNL A   1      34.308  28.954  22.718  1.00  0.00    -0.268 OA
ATOM      7  H   UNL A   1      35.277  28.712  24.946  1.00  0.00     0.163 HD
BRANCH   5   8
ATOM      8  C   UNL A   1      32.212  28.700  23.742  1.00  0.00     0.112 A 
ATOM      9  C   UNL A   1      31.272  27.813  23.200  1.00  0.00     0.014 A 
ATOM     10  C   UNL A   1      30.043  28.612  23.086  1.00  0.00     0.008 A 
ATOM     11  N   UNL A   1      31.509  29.693  24.365  1.00  0.00    -0.350 N 
ATOM     12  C   UNL A   1      30.282  29.804  23.778  1.00  0.00     0.050 A 
ATOM     13  C   UNL A   1      28.772  28.535  22.448  1.00  0.00     0.015 A 
ATOM     14  H   UNL A   1      31.834  30.239  25.117  1.00  0.00     0.167 HD
ATOM     15  C   UNL A   1      29.420  30.902  23.814  1.00  0.00     0.073 A 
ATOM     16  C   UNL A   1      27.877  29.654  22.470  1.00  0.00     0.047 A 
ATOM     17  C   UNL A   1      28.215  30.834  23.129  1.00  0.00     0.120 A 
BRANCH   9  18
ATOM     18  C   UNL A   1      31.645  26.507  22.637  1.00  0.00     0.032 C 
ATOM     19  N   UNL A   1      31.881  23.037  23.870  1.00  0.00    -0.261 N 
ATOM     20  C   UNL A   1      32.108  23.978  22.846  1.00  0.00     0.270 C 
ATOM     21  C   UNL A   1      31.010  23.430  24.870  1.00  0.00     0.152 C 
ATOM     22  O   UNL A   1      32.853  23.855  21.882  1.00  0.00    -0.268 OA
ATOM     23  C   UNL A   1      31.370  25.278  23.154  1.00  0.00     0.081 C 
ATOM     24  S   UNL A   1      30.232  24.935  24.409  1.00  0.00    -0.054 SA
ATOM     25  S   UNL A   1      30.666  22.684  26.326  1.00  0.00    -0.051 S 
BRANCH  19  26
ATOM     26  C   UNL A   1      32.551  21.765  23.925  1.00  0.00     0.051 A 
ATOM     27  C   UNL A   1      33.686  19.182  24.265  1.00  0.00     0.119 A 
ATOM     28  C   UNL A   1      34.182  20.267  24.972  1.00  0.00     0.048 A 
ATOM     29  C   UNL A   1      32.584  19.366  23.431  1.00  0.00     0.048 A 
ATOM     30  C   UNL A   1      33.599  21.533  24.830  1.00  0.00     0.030 A 
ATOM     31  C   UNL A   1      32.026  20.652  23.253  1.00  0.00     0.030 A 
BRANCH  27  32
ATOM     32  O   UNL A   1      34.263  17.978  24.553  1.00  0.00    -0.497 OA
ATOM     33  C   UNL A   1      33.692  16.861  23.883  1.00  0.00     0.278 C 
ENDBRANCH  27  32
ENDBRANCH  19  26
ENDBRANCH   9  18
BRANCH  17  34
ATOM     34  O   UNL A   1      27.537  32.019  23.150  1.00  0.00    -0.497 OA
ATOM     35  C   UNL A   1      28.214  33.207  22.780  1.00  0.00     0.278 C 
ENDBRANCH  17  34
ENDBRANCH   5   8
ENDBRANCH   3   4
ENDBRANCH   2   3
ENDBRANCH   1   2
BRANCH   1  36
ATOM     36  C   UNL A   1      34.784  24.329  25.630  1.00  0.00     0.002 C 
BRANCH  36  37
ATOM     37  C   UNL A   1      36.198  24.033  26.116  1.00  0.00     0.021 C 
BRANCH  37  38
ATOM     38  C   UNL A   1      37.264  23.605  25.131  1.00  0.00     0.116 C 
BRANCH  38  39
ATOM     39  N   UNL A   1      38.179  22.579  25.608  1.00  0.00    -0.352 N 
ATOM     40  C   UNL A   1      39.311  22.702  26.391  1.00  0.00     0.251 C 
ATOM     41  H   UNL A   1      37.958  21.659  25.332  1.00  0.00     0.163 HD
ATOM     42  O   UNL A   1      39.987  21.714  26.658  1.00  0.00    -0.269 OA
BRANCH  40  43
ATOM     43  C   UNL A   1      39.733  24.033  26.889  1.00  0.00     0.039 A 
ATOM     44  C   UNL A   1      40.338  24.950  26.022  1.00  0.00     0.014 A 
ATOM     45  C   UNL A   1      39.512  24.389  28.216  1.00  0.00     0.014 A 
ATOM     46  C   UNL A   1      40.644  26.240  26.477  1.00  0.00     0.010 A 
ATOM     47  C   UNL A   1      39.640  25.710  28.608  1.00  0.00     0.010 A 
ATOM     48  C   UNL A   1      40.266  26.640  27.767  1.00  0.00    -0.014 A 
BRANCH  48  49
ATOM     49  C   UNL A   1      40.623  27.958  28.359  1.00  0.00     0.031 A 
ATOM     50  C   UNL A   1      42.058  28.185  28.776  1.00  0.00     0.074 A 
ATOM     51  C   UNL A   1      39.685  28.887  28.622  1.00  0.00     0.049 A 
ATOM     52  N   UNL A   1      42.573  29.123  29.528  1.00  0.00    -0.248 NA
ATOM     53  C   UNL A   1      43.035  27.168  28.342  1.00  0.00     0.031 C 
ATOM     54  C   UNL A   1      38.262  28.779  28.306  1.00  0.00     0.029 A 
ATOM     55  N   UNL A   1      39.795  30.107  29.243  1.00  0.00    -0.354 N 
ATOM     56  C   UNL A   1      43.909  28.774  29.694  1.00  0.00     0.074 A 
ATOM     57  C   UNL A   1      44.102  27.497  29.050  1.00  0.00     0.031 C 
ATOM     58  C   UNL A   1      37.635  29.898  28.709  1.00  0.00     0.029 A 
ATOM     59  C   UNL A   1      38.603  30.780  29.357  1.00  0.00     0.049 A 
ATOM     60  H   UNL A   1      40.650  30.468  29.574  1.00  0.00     0.167 HD
ATOM     61  C   UNL A   1      44.902  29.475  30.291  1.00  0.00     0.037 A 
ATOM     62  C   UNL A   1      38.330  31.968  29.930  1.00  0.00     0.037 A 
ATOM     63  C   UNL A   1      44.718  30.781  30.861  1.00  0.00     0.049 A 
ATOM     64  C   UNL A   1      39.455  32.741  30.572  1.00  0.00     0.074 A 
ATOM     65  C   UNL A   1      45.658  31.613  31.439  1.00  0.00     0.029 A 
ATOM     66  N   UNL A   1      43.504  31.452  30.902  1.00  0.00    -0.354 N 
ATOM     67  N   UNL A   1      40.722  32.422  30.693  1.00  0.00    -0.248 NA
ATOM     68  C   UNL A   1      39.111  34.047  31.151  1.00  0.00     0.031 C 
ATOM     69  C   UNL A   1      45.007  32.775  31.861  1.00  0.00     0.029 A 
ATOM     70  C   UNL A   1      43.672  32.689  31.497  1.00  0.00     0.049 A 
ATOM     71  H   UNL A   1      42.652  31.100  30.559  1.00  0.00     0.167 HD
ATOM     72  C   UNL A   1      41.332  33.503  31.317  1.00  0.00     0.074 A 
ATOM     73  C   UNL A   1      40.298  34.492  31.541  1.00  0.00     0.031 C 
ATOM     74  C   UNL A   1      42.629  33.666  31.675  1.00  0.00     0.037 A 
BRANCH  61  75
ATOM     75  C   UNL A   1      46.272  28.857  30.320  1.00  0.00     0.064 A 
ATOM     76  C   UNL A   1      46.700  28.062  31.395  1.00  0.00     0.173 A 
ATOM     77  C   UNL A   1      47.166  29.049  29.256  1.00  0.00     0.173 A 
ATOM     78  F   UNL A   1      45.893  27.857  32.448  1.00  0.00    -0.203 F 
ATOM     79  C   UNL A   1      47.981  27.517  31.422  1.00  0.00     0.198 A 
ATOM     80  C   UNL A   1      48.431  28.469  29.267  1.00  0.00     0.198 A 
ATOM     81  F   UNL A   1      46.811  29.798  28.200  1.00  0.00    -0.203 F 
ATOM     82  F   UNL A   1      48.387  26.818  32.492  1.00  0.00    -0.200 F 
ATOM     83  C   UNL A   1      48.842  27.713  30.355  1.00  0.00     0.200 A 
ATOM     84  F   UNL A   1      49.258  28.648  28.227  1.00  0.00    -0.200 F 
ATOM     85  F   UNL A   1      50.071  27.179  30.377  1.00  0.00    -0.200 F 
ENDBRANCH  61  75
BRANCH  62  86
ATOM     86  C   UNL A   1      36.950  32.526  29.893  1.00  0.00     0.064 A 
ATOM     87  C   UNL A   1      36.513  33.278  28.792  1.00  0.00     0.173 A 
ATOM     88  C   UNL A   1      36.053  32.352  30.956  1.00  0.00     0.173 A 
ATOM     89  F   UNL A   1      37.340  33.492  27.758  1.00  0.00    -0.203 F 
ATOM     90  C   UNL A   1      35.248  33.862  28.771  1.00  0.00     0.198 A 
ATOM     91  C   UNL A   1      34.775  32.909  30.919  1.00  0.00     0.198 A 
ATOM     92  F   UNL A   1      36.415  31.638  32.031  1.00  0.00    -0.203 F 
ATOM     93  F   UNL A   1      34.882  34.627  27.733  1.00  0.00    -0.200 F 
ATOM     94  C   UNL A   1      34.379  33.674  29.834  1.00  0.00     0.200 A 
ATOM     95  F   UNL A   1      33.931  32.712  31.942  1.00  0.00    -0.200 F 
ATOM     96  F   UNL A   1      33.162  34.236  29.814  1.00  0.00    -0.200 F 
ENDBRANCH  62  86
BRANCH  74  97
ATOM     97  C   UNL A   1      43.018  34.985  32.278  1.00  0.00     0.064 A 
ATOM     98  C   UNL A   1      42.896  35.237  33.652  1.00  0.00     0.173 A 
ATOM     99  C   UNL A   1      43.564  35.994  31.469  1.00  0.00     0.173 A 
ATOM    100  F   UNL A   1      42.370  34.309  34.465  1.00  0.00    -0.203 F 
ATOM    101  C   UNL A   1      43.275  36.464  34.189  1.00  0.00     0.198 A 
ATOM    102  C   UNL A   1      43.975  37.206  32.015  1.00  0.00     0.198 A 
ATOM    103  F   UNL A   1      43.713  35.798  30.150  1.00  0.00    -0.203 F 
ATOM    104  F   UNL A   1      43.099  36.704  35.495  1.00  0.00    -0.200 F 
ATOM    105  C   UNL A   1      43.821  37.444  33.372  1.00  0.00     0.200 A 
ATOM    106  F   UNL A   1      44.521  38.143  31.227  1.00  0.00    -0.200 F 
ATOM    107  F   UNL A   1      44.194  38.621  33.893  1.00  0.00    -0.200 F 
ENDBRANCH  74  97
ENDBRANCH  48  49
ENDBRANCH  40  43
ENDBRANCH  38  39
ENDBRANCH  37  38
ENDBRANCH  36  37
ENDBRANCH   1  36
TORSDOF 17
ENDMDL
MODEL 3
REMARK VINA RESULT:     -13.0      2.725      6.579
REMARK SMILES COc1ccc(N2C(=O)/C(=C/c3c(C(=O)NCCCCCCNC(=O)c4ccc(-c5c6nc(c(-c7c(F)c(F)c(F)c(F)c7F)c7ccc([nH]7)c(-c7c(F)c(F)c(F)c(F)c7F)c7nc(c(-c8c(F)c(F)c(F)c(F)c8F)c8ccc5[nH]8)C=C7)C=C6)cc4)[nH]c4cc(OC)ccc34)SC2=S)cc1
REMARK SMILES IDX 19 1 18 2 17 3 16 4 14 5 15 6 13 8 12 9 97 10 89 11 90 12
REMARK SMILES IDX 96 13 91 15 95 16 92 17 11 18 7 19 8 20 99 21 9 22 10 23
REMARK SMILES IDX 98 24 100 25 6 26 3 27 4 28 102 29 5 30 101 31 2 32 1 33
REMARK SMILES IDX 93 34 94 35 20 36 21 37 22 38 23 39 24 40 25 42 26 43 27 44
REMARK SMILES IDX 88 45 28 46 87 47 29 48 30 49 31 50 81 51 32 52 86 53 80 54
REMARK SMILES IDX 82 55 33 56 85 57 79 58 78 59 34 61 66 62 46 63 65 64 47 65
REMARK SMILES IDX 50 66 64 67 83 68 48 69 49 70 63 72 84 73 51 74 35 75 36 76
REMARK SMILES IDX 44 77 37 78 38 79 42 80 45 81 39 82 40 83 43 84 41 85 67 86
REMARK SMILES IDX 68 87 76 88 69 89 70 90 74 91 77 92 71 93 72 94 75 95 73 96
REMARK SMILES IDX 52 97 53 98 61 99 54 100 55 101 59 102 62 103 56 104 57 105
REMARK SMILES IDX 60 106 58 107
REMARK H PARENT 16 7 89 14 23 41 82 60 50 71
REMARK Flexibility Score: inf
ROOT
ATOM      1  C   UNL A   1      34.196  25.263  25.720  1.00  0.00     0.002 C 
ENDROOT
BRANCH   1   2
ATOM      2  C   UNL A   1      35.215  24.439  24.926  1.00  0.00     0.021 C 
BRANCH   2   3
ATOM      3  C   UNL A   1      36.066  23.486  25.753  1.00  0.00     0.116 C 
BRANCH   3   4
ATOM      4  N   UNL A   1      35.455  23.074  26.998  1.00  0.00    -0.351 N 
ATOM      5  C   UNL A   1      34.439  22.159  27.125  1.00  0.00     0.268 C 
ATOM      6  O   UNL A   1      33.811  22.110  28.183  1.00  0.00    -0.268 OA
ATOM      7  H   UNL A   1      35.796  23.485  27.824  1.00  0.00     0.163 HD
BRANCH   5   8
ATOM      8  C   UNL A   1      34.055  21.405  25.958  1.00  0.00     0.112 A 
ATOM      9  C   UNL A   1      32.910  21.335  25.153  1.00  0.00     0.014 A 
ATOM     10  C   UNL A   1      32.983  20.005  24.533  1.00  0.00     0.008 A 
ATOM     11  N   UNL A   1      34.945  20.492  25.463  1.00  0.00    -0.350 N 
ATOM     12  C   UNL A   1      34.256  19.504  24.822  1.00  0.00     0.050 A 
ATOM     13  C   UNL A   1      32.138  19.112  23.813  1.00  0.00     0.015 A 
ATOM     14  H   UNL A   1      35.924  20.541  25.553  1.00  0.00     0.167 HD
ATOM     15  C   UNL A   1      34.700  18.213  24.528  1.00  0.00     0.073 A 
ATOM     16  C   UNL A   1      32.575  17.782  23.507  1.00  0.00     0.047 A 
ATOM     17  C   UNL A   1      33.839  17.335  23.886  1.00  0.00     0.120 A 
BRANCH   9  18
ATOM     18  C   UNL A   1      31.816  22.314  25.243  1.00  0.00     0.032 C 
ATOM     19  N   UNL A   1      30.986  25.541  23.656  1.00  0.00    -0.261 N 
ATOM     20  C   UNL A   1      30.707  24.561  24.629  1.00  0.00     0.270 C 
ATOM     21  C   UNL A   1      31.841  25.156  22.639  1.00  0.00     0.152 C 
ATOM     22  O   UNL A   1      30.003  24.686  25.624  1.00  0.00    -0.268 OA
ATOM     23  C   UNL A   1      31.516  23.298  24.350  1.00  0.00     0.081 C 
ATOM     24  S   UNL A   1      32.125  23.427  22.738  1.00  0.00    -0.054 SA
ATOM     25  S   UNL A   1      32.553  26.089  21.449  1.00  0.00    -0.051 S 
BRANCH  19  26
ATOM     26  C   UNL A   1      30.475  26.884  23.731  1.00  0.00     0.051 A 
ATOM     27  C   UNL A   1      29.587  29.580  23.600  1.00  0.00     0.119 A 
ATOM     28  C   UNL A   1      30.833  29.274  24.126  1.00  0.00     0.048 A 
ATOM     29  C   UNL A   1      28.801  28.552  23.081  1.00  0.00     0.048 A 
ATOM     30  C   UNL A   1      31.284  27.949  24.158  1.00  0.00     0.030 A 
ATOM     31  C   UNL A   1      29.237  27.209  23.157  1.00  0.00     0.030 A 
BRANCH  27  32
ATOM     32  O   UNL A   1      29.289  30.911  23.527  1.00  0.00    -0.497 OA
ATOM     33  C   UNL A   1      28.039  31.216  22.922  1.00  0.00     0.278 C 
ENDBRANCH  27  32
ENDBRANCH  19  26
ENDBRANCH   9  18
BRANCH  17  34
ATOM     34  O   UNL A   1      34.363  16.078  23.777  1.00  0.00    -0.497 OA
ATOM     35  C   UNL A   1      35.019  15.506  24.894  1.00  0.00     0.278 C 
ENDBRANCH  17  34
ENDBRANCH   5   8
ENDBRANCH   3   4
ENDBRANCH   2   3
ENDBRANCH   1   2
BRANCH   1  36
ATOM     36  C   UNL A   1      34.005  26.665  25.143  1.00  0.00     0.002 C 
BRANCH  36  37
ATOM     37  C   UNL A   1      34.390  27.905  25.941  1.00  0.00     0.021 C 
BRANCH  37  38
ATOM     38  C   UNL A   1      33.623  28.268  27.194  1.00  0.00     0.116 C 
BRANCH  38  39
ATOM     39  N   UNL A   1      33.395  29.690  27.396  1.00  0.00    -0.352 N 
ATOM     40  C   UNL A   1      34.241  30.655  27.911  1.00  0.00     0.251 C 
ATOM     41  H   UNL A   1      32.506  30.015  27.124  1.00  0.00     0.163 HD
ATOM     42  O   UNL A   1      33.851  31.810  28.046  1.00  0.00    -0.269 OA
BRANCH  40  43
ATOM     43  C   UNL A   1      35.615  30.293  28.333  1.00  0.00     0.039 A 
ATOM     44  C   UNL A   1      35.836  29.699  29.581  1.00  0.00     0.014 A 
ATOM     45  C   UNL A   1      36.694  30.522  27.484  1.00  0.00     0.014 A 
ATOM     46  C   UNL A   1      37.125  29.272  29.930  1.00  0.00     0.010 A 
ATOM     47  C   UNL A   1      37.919  29.936  27.748  1.00  0.00     0.010 A 
ATOM     48  C   UNL A   1      38.172  29.358  29.000  1.00  0.00    -0.014 A 
BRANCH  48  49
ATOM     49  C   UNL A   1      39.583  29.006  29.313  1.00  0.00     0.031 A 
ATOM     50  C   UNL A   1      40.416  30.015  30.070  1.00  0.00     0.074 A 
ATOM     51  C   UNL A   1      40.145  27.876  28.847  1.00  0.00     0.049 A 
ATOM     52  N   UNL A   1      41.710  30.067  30.249  1.00  0.00    -0.248 NA
ATOM     53  C   UNL A   1      39.691  31.164  30.644  1.00  0.00     0.031 C 
ATOM     54  C   UNL A   1      39.465  26.838  28.073  1.00  0.00     0.029 A 
ATOM     55  N   UNL A   1      41.439  27.424  28.943  1.00  0.00    -0.354 N 
ATOM     56  C   UNL A   1      41.948  31.272  30.901  1.00  0.00     0.074 A 
ATOM     57  C   UNL A   1      40.683  31.961  31.001  1.00  0.00     0.031 C 
ATOM     58  C   UNL A   1      40.340  25.857  27.788  1.00  0.00     0.029 A 
ATOM     59  C   UNL A   1      41.652  26.221  28.315  1.00  0.00     0.049 A 
ATOM     60  H   UNL A   1      42.147  27.915  29.419  1.00  0.00     0.167 HD
ATOM     61  C   UNL A   1      43.107  31.746  31.415  1.00  0.00     0.037 A 
ATOM     62  C   UNL A   1      42.785  25.505  28.177  1.00  0.00     0.037 A 
ATOM     63  C   UNL A   1      44.346  31.018  31.379  1.00  0.00     0.049 A 
ATOM     64  C   UNL A   1      44.062  26.042  28.773  1.00  0.00     0.074 A 
ATOM     65  C   UNL A   1      45.570  31.367  31.916  1.00  0.00     0.029 A 
ATOM     66  N   UNL A   1      44.504  29.775  30.784  1.00  0.00    -0.354 N 
ATOM     67  N   UNL A   1      44.271  27.164  29.421  1.00  0.00    -0.248 NA
ATOM     68  C   UNL A   1      45.262  25.207  28.626  1.00  0.00     0.031 C 
ATOM     69  C   UNL A   1      46.480  30.349  31.617  1.00  0.00     0.029 A 
ATOM     70  C   UNL A   1      45.809  29.342  30.942  1.00  0.00     0.049 A 
ATOM     71  H   UNL A   1      43.795  29.275  30.321  1.00  0.00     0.167 HD
ATOM     72  C   UNL A   1      45.608  27.147  29.797  1.00  0.00     0.074 A 
ATOM     73  C   UNL A   1      46.160  25.898  29.313  1.00  0.00     0.031 C 
ATOM     74  C   UNL A   1      46.320  28.078  30.479  1.00  0.00     0.037 A 
BRANCH  61  75
ATOM     75  C   UNL A   1      43.076  33.091  32.085  1.00  0.00     0.064 A 
ATOM     76  C   UNL A   1      42.829  33.225  33.461  1.00  0.00     0.173 A 
ATOM     77  C   UNL A   1      43.310  34.262  31.348  1.00  0.00     0.173 A 
ATOM     78  F   UNL A   1      42.583  32.140  34.212  1.00  0.00    -0.203 F 
ATOM     79  C   UNL A   1      42.778  34.478  34.064  1.00  0.00     0.198 A 
ATOM     80  C   UNL A   1      43.298  35.511  31.963  1.00  0.00     0.198 A 
ATOM     81  F   UNL A   1      43.554  34.196  30.030  1.00  0.00    -0.203 F 
ATOM     82  F   UNL A   1      42.473  34.580  35.366  1.00  0.00    -0.200 F 
ATOM     83  C   UNL A   1      43.021  35.619  33.318  1.00  0.00     0.200 A 
ATOM     84  F   UNL A   1      43.548  36.614  31.242  1.00  0.00    -0.200 F 
ATOM     85  F   UNL A   1      42.981  36.825  33.901  1.00  0.00    -0.200 F 
ENDBRANCH  61  75
BRANCH  62  86
ATOM     86  C   UNL A   1      42.768  24.187  27.484  1.00  0.00     0.064 A 
ATOM     87  C   UNL A   1      43.025  24.101  26.107  1.00  0.00     0.173 A 
ATOM     88  C   UNL A   1      42.467  22.998  28.163  1.00  0.00     0.173 A 
ATOM     89  F   UNL A   1      43.297  25.212  25.407  1.00  0.00    -0.203 F 
ATOM     90  C   UNL A   1      42.949  22.884  25.432  1.00  0.00     0.198 A 
ATOM     91  C   UNL A   1      42.425  21.776  27.493  1.00  0.00     0.198 A 
ATOM     92  F   UNL A   1      42.218  23.021  29.480  1.00  0.00    -0.203 F 
ATOM     93  F   UNL A   1      43.139  22.843  24.106  1.00  0.00    -0.200 F 
ATOM     94  C   UNL A   1      42.652  21.722  26.127  1.00  0.00     0.200 A 
ATOM     95  F   UNL A   1      42.152  20.652  28.170  1.00  0.00    -0.200 F 
ATOM     96  F   UNL A   1      42.577  20.552  25.477  1.00  0.00    -0.200 F 
ENDBRANCH  62  86
BRANCH  74  97
ATOM     97  C   UNL A   1      47.748  27.752  30.806  1.00  0.00     0.064 A 
ATOM     98  C   UNL A   1      48.102  27.060  31.973  1.00  0.00     0.173 A 
ATOM     99  C   UNL A   1      48.772  28.099  29.910  1.00  0.00     0.173 A 
ATOM    100  F   UNL A   1      47.161  26.715  32.865  1.00  0.00    -0.203 F 
ATOM    101  C   UNL A   1      49.433  26.757  32.248  1.00  0.00     0.198 A 
ATOM    102  C   UNL A   1      50.096  27.764  30.172  1.00  0.00     0.198 A 
ATOM    103  F   UNL A   1      48.484  28.750  28.773  1.00  0.00    -0.203 F 
ATOM    104  F   UNL A   1      49.755  26.145  33.396  1.00  0.00    -0.200 F 
ATOM    105  C   UNL A   1      50.427  27.102  31.345  1.00  0.00     0.200 A 
ATOM    106  F   UNL A   1      51.052  28.079  29.287  1.00  0.00    -0.200 F 
ATOM    107  F   UNL A   1      51.706  26.802  31.608  1.00  0.00    -0.200 F 
ENDBRANCH  74  97
ENDBRANCH  48  49
ENDBRANCH  40  43
ENDBRANCH  38  39
ENDBRANCH  37  38
ENDBRANCH  36  37
ENDBRANCH   1  36
TORSDOF 17
ENDMDL
