MODEL 1
REMARK VINA RESULT:     -12.1      0.000      0.000
REMARK SMILES O=C(NCCCCCCNC(=O)c1ccc(-c2c3nc(c(-c4c(F)c(F)c(F)c(F)c4F)c4ccc([nH]4)c(-c4c(F)c(F)c(F)c(F)c4F)c4nc(c(-c5c(F)c(F)c(F)c(F)c5F)c5ccc2[nH]5)C=C4)C=C3)cc1)c1ccc(/[NH+]=C2\S[C@@H](Cc3ccc(F)cc3)C(=O)N2Cc2ccccc2)cc1
REMARK SMILES IDX 6 1 5 2 4 3 3 4 1 5 2 6 76 8 77 9 103 10 78 11 102 12 79 13
REMARK SMILES IDX 80 14 81 15 82 17 94 18 83 19 92 20 93 21 95 22 96 23 97 24
REMARK SMILES IDX 101 25 98 26 100 27 99 28 84 29 85 30 86 31 91 32 87 33
REMARK SMILES IDX 90 34 88 35 89 36 7 37 8 38 9 39 10 40 11 41 12 43 13 44
REMARK SMILES IDX 14 45 75 46 15 47 74 48 16 49 17 50 18 51 68 52 19 53 73 54
REMARK SMILES IDX 67 55 69 56 20 57 72 58 66 59 65 60 21 62 53 63 33 64 52 65
REMARK SMILES IDX 34 66 37 67 51 68 70 69 35 70 36 71 50 73 71 74 38 75 22 76
REMARK SMILES IDX 23 77 31 78 24 79 25 80 29 81 32 82 26 83 27 84 30 85 28 86
REMARK SMILES IDX 54 87 55 88 63 89 56 90 57 91 61 92 64 93 58 94 59 95 62 96
REMARK SMILES IDX 60 97 39 98 40 99 48 100 41 101 42 102 46 103 49 104 43 105
REMARK SMILES IDX 44 106 47 107 45 108
REMARK H PARENT 3 7 80 16 10 42 69 61 37 72
REMARK Flexibility Score: inf
ROOT
ATOM      1  C   UNL A   1      33.477  28.275  24.792  1.00  0.00     0.002 C 
ENDROOT
BRANCH   1   2
ATOM      2  C   UNL A   1      32.741  29.364  24.008  1.00  0.00     0.021 C 
BRANCH   2   3
ATOM      3  C   UNL A   1      31.409  29.799  24.612  1.00  0.00     0.116 C 
BRANCH   3   4
ATOM      4  N   UNL A   1      30.328  29.752  23.641  1.00  0.00    -0.352 N 
ATOM      5  O   UNL A   1      29.064  28.869  21.992  1.00  0.00    -0.269 OA
ATOM      6  C   UNL A   1      29.856  28.690  22.916  1.00  0.00     0.251 C 
ATOM      7  H   UNL A   1      29.868  30.608  23.482  1.00  0.00     0.163 HD
BRANCH   6   8
ATOM      8  C   UNL A   1      30.308  27.322  23.237  1.00  0.00     0.040 A 
ATOM      9  C   UNL A   1      29.888  26.696  24.413  1.00  0.00     0.018 A 
ATOM     10  C   UNL A   1      31.135  26.648  22.335  1.00  0.00     0.018 A 
ATOM     11  C   UNL A   1      30.380  25.435  24.729  1.00  0.00     0.052 A 
ATOM     12  C   UNL A   1      31.596  25.365  22.643  1.00  0.00     0.052 A 
ATOM     13  C   UNL A   1      31.250  24.770  23.858  1.00  0.00     0.125 A 
BRANCH  13  14
ATOM     14  N   UNL A   1      31.653  23.480  24.202  1.00  0.00    -0.235 N 
ATOM     15  C   UNL A   1      32.859  23.202  24.562  1.00  0.00     0.320 C 
ATOM     16  H   UNL A   1      30.990  22.752  24.169  1.00  0.00     0.313 HD
ATOM     17  S   UNL A   1      34.240  24.263  24.558  1.00  0.00    -0.022 SA
ATOM     18  N   UNL A   1      33.195  21.966  25.041  1.00  0.00    -0.186 N 
ATOM     19  C   UNL A   1      35.403  22.883  24.804  1.00  0.00     0.178 C 
ATOM     20  C   UNL A   1      34.531  21.731  25.289  1.00  0.00     0.324 C 
ATOM     21  O   UNL A   1      34.973  20.690  25.762  1.00  0.00    -0.245 OA
BRANCH  18  22
ATOM     22  C   UNL A   1      32.194  20.935  25.293  1.00  0.00     0.283 C 
BRANCH  22  23
ATOM     23  C   UNL A   1      32.415  19.668  24.488  1.00  0.00    -0.006 A 
ATOM     24  C   UNL A   1      32.309  19.669  23.092  1.00  0.00     0.008 A 
ATOM     25  C   UNL A   1      32.714  18.454  25.129  1.00  0.00     0.008 A 
ATOM     26  C   UNL A   1      32.500  18.490  22.363  1.00  0.00     0.000 A 
ATOM     27  C   UNL A   1      32.937  17.285  24.402  1.00  0.00     0.000 A 
ATOM     28  C   UNL A   1      32.824  17.302  23.017  1.00  0.00     0.000 A 
ENDBRANCH  22  23
ENDBRANCH  18  22
BRANCH  19  29
ATOM     29  C   UNL A   1      36.520  23.285  25.766  1.00  0.00     0.063 C 
BRANCH  29  30
ATOM     30  C   UNL A   1      37.701  22.337  25.775  1.00  0.00    -0.046 A 
ATOM     31  C   UNL A   1      38.833  22.641  26.547  1.00  0.00     0.007 A 
ATOM     32  C   UNL A   1      37.686  21.151  25.023  1.00  0.00     0.007 A 
ATOM     33  C   UNL A   1      39.917  21.764  26.590  1.00  0.00     0.039 A 
ATOM     34  C   UNL A   1      38.770  20.272  25.073  1.00  0.00     0.039 A 
ATOM     35  C   UNL A   1      39.873  20.585  25.859  1.00  0.00     0.123 A 
ATOM     36  F   UNL A   1      40.909  19.738  25.910  1.00  0.00    -0.207 F 
ENDBRANCH  29  30
ENDBRANCH  19  29
ENDBRANCH  13  14
ENDBRANCH   6   8
ENDBRANCH   3   4
ENDBRANCH   2   3
ENDBRANCH   1   2
BRANCH   1  37
ATOM     37  C   UNL A   1      32.844  27.889  26.132  1.00  0.00     0.002 C 
BRANCH  37  38
ATOM     38  C   UNL A   1      33.503  28.504  27.367  1.00  0.00     0.021 C 
BRANCH  38  39
ATOM     39  C   UNL A   1      34.482  29.636  27.076  1.00  0.00     0.116 C 
BRANCH  39  40
ATOM     40  N   UNL A   1      34.210  30.824  27.869  1.00  0.00    -0.352 N 
ATOM     41  C   UNL A   1      34.902  31.335  28.938  1.00  0.00     0.251 C 
ATOM     42  H   UNL A   1      33.414  31.334  27.601  1.00  0.00     0.163 HD
ATOM     43  O   UNL A   1      34.427  32.255  29.599  1.00  0.00    -0.269 OA
BRANCH  41  44
ATOM     44  C   UNL A   1      36.211  30.761  29.315  1.00  0.00     0.039 A 
ATOM     45  C   UNL A   1      37.371  31.300  28.752  1.00  0.00     0.014 A 
ATOM     46  C   UNL A   1      36.297  29.695  30.214  1.00  0.00     0.014 A 
ATOM     47  C   UNL A   1      38.619  30.810  29.138  1.00  0.00     0.010 A 
ATOM     48  C   UNL A   1      37.544  29.261  30.657  1.00  0.00     0.010 A 
ATOM     49  C   UNL A   1      38.718  29.812  30.121  1.00  0.00    -0.014 A 
BRANCH  49  50
ATOM     50  C   UNL A   1      40.041  29.335  30.602  1.00  0.00     0.031 A 
ATOM     51  C   UNL A   1      40.726  30.028  31.746  1.00  0.00     0.074 A 
ATOM     52  C   UNL A   1      40.651  28.316  29.967  1.00  0.00     0.049 A 
ATOM     53  N   UNL A   1      41.905  29.799  32.267  1.00  0.00    -0.248 NA
ATOM     54  C   UNL A   1      40.001  31.145  32.371  1.00  0.00     0.031 C 
ATOM     55  C   UNL A   1      40.112  27.593  28.816  1.00  0.00     0.029 A 
ATOM     56  N   UNL A   1      41.867  27.719  30.193  1.00  0.00    -0.354 N 
ATOM     57  C   UNL A   1      42.066  30.747  33.268  1.00  0.00     0.074 A 
ATOM     58  C   UNL A   1      40.892  31.592  33.243  1.00  0.00     0.031 C 
ATOM     59  C   UNL A   1      40.979  26.636  28.451  1.00  0.00     0.029 A 
ATOM     60  C   UNL A   1      42.154  26.705  29.313  1.00  0.00     0.049 A 
ATOM     61  H   UNL A   1      42.475  27.993  30.918  1.00  0.00     0.167 HD
ATOM     62  C   UNL A   1      43.089  30.885  34.146  1.00  0.00     0.037 A 
ATOM     63  C   UNL A   1      43.246  25.924  29.208  1.00  0.00     0.037 A 
ATOM     64  C   UNL A   1      44.249  30.033  34.177  1.00  0.00     0.049 A 
ATOM     65  C   UNL A   1      44.378  26.108  30.183  1.00  0.00     0.074 A 
ATOM     66  C   UNL A   1      45.314  30.054  35.061  1.00  0.00     0.029 A 
ATOM     67  N   UNL A   1      44.501  29.008  33.275  1.00  0.00    -0.354 N 
ATOM     68  N   UNL A   1      44.489  26.962  31.171  1.00  0.00    -0.248 NA
ATOM     69  C   UNL A   1      45.534  25.215  30.031  1.00  0.00     0.031 C 
ATOM     70  C   UNL A   1      46.236  29.082  34.660  1.00  0.00     0.029 A 
ATOM     71  C   UNL A   1      45.719  28.411  33.564  1.00  0.00     0.049 A 
ATOM     72  H   UNL A   1      43.904  28.744  32.538  1.00  0.00     0.167 HD
ATOM     73  C   UNL A   1      45.708  26.691  31.776  1.00  0.00     0.074 A 
ATOM     74  C   UNL A   1      46.295  25.583  31.051  1.00  0.00     0.031 C 
ATOM     75  C   UNL A   1      46.290  27.305  32.836  1.00  0.00     0.037 A 
BRANCH  62  76
ATOM     76  C   UNL A   1      42.999  32.005  35.144  1.00  0.00     0.064 A 
ATOM     77  C   UNL A   1      43.555  33.269  34.887  1.00  0.00     0.173 A 
ATOM     78  C   UNL A   1      42.327  31.824  36.363  1.00  0.00     0.173 A 
ATOM     79  F   UNL A   1      44.216  33.496  33.742  1.00  0.00    -0.203 F 
ATOM     80  C   UNL A   1      43.475  34.293  35.827  1.00  0.00     0.198 A 
ATOM     81  C   UNL A   1      42.219  32.860  37.285  1.00  0.00     0.198 A 
ATOM     82  F   UNL A   1      41.771  30.639  36.658  1.00  0.00    -0.203 F 
ATOM     83  F   UNL A   1      44.067  35.471  35.584  1.00  0.00    -0.200 F 
ATOM     84  C   UNL A   1      42.803  34.091  37.022  1.00  0.00     0.200 A 
ATOM     85  F   UNL A   1      41.555  32.668  38.434  1.00  0.00    -0.200 F 
ATOM     86  F   UNL A   1      42.723  35.078  37.925  1.00  0.00    -0.200 F 
ENDBRANCH  62  76
BRANCH  63  87
ATOM     87  C   UNL A   1      43.310  24.883  28.149  1.00  0.00     0.064 A 
ATOM     88  C   UNL A   1      43.000  23.546  28.432  1.00  0.00     0.173 A 
ATOM     89  C   UNL A   1      43.678  25.202  26.833  1.00  0.00     0.173 A 
ATOM     90  F   UNL A   1      42.663  23.187  29.680  1.00  0.00    -0.203 F 
ATOM     91  C   UNL A   1      43.072  22.565  27.445  1.00  0.00     0.198 A 
ATOM     92  C   UNL A   1      43.719  24.225  25.840  1.00  0.00     0.198 A 
ATOM     93  F   UNL A   1      43.979  26.467  26.507  1.00  0.00    -0.203 F 
ATOM     94  F   UNL A   1      42.812  21.287  27.755  1.00  0.00    -0.200 F 
ATOM     95  C   UNL A   1      43.424  22.906  26.148  1.00  0.00     0.200 A 
ATOM     96  F   UNL A   1      44.044  24.563  24.585  1.00  0.00    -0.200 F 
ATOM     97  F   UNL A   1      43.485  21.964  25.198  1.00  0.00    -0.200 F 
ENDBRANCH  63  87
BRANCH  75  98
ATOM     98  C   UNL A   1      47.615  26.770  33.302  1.00  0.00     0.064 A 
ATOM     99  C   UNL A   1      48.829  27.298  32.839  1.00  0.00     0.173 A 
ATOM    100  C   UNL A   1      47.667  25.741  34.255  1.00  0.00     0.173 A 
ATOM    101  F   UNL A   1      48.835  28.273  31.917  1.00  0.00    -0.203 F 
ATOM    102  C   UNL A   1      50.047  26.796  33.293  1.00  0.00     0.198 A 
ATOM    103  C   UNL A   1      48.885  25.266  34.731  1.00  0.00     0.198 A 
ATOM    104  F   UNL A   1      46.535  25.206  34.737  1.00  0.00    -0.203 F 
ATOM    105  F   UNL A   1      51.194  27.280  32.797  1.00  0.00    -0.200 F 
ATOM    106  C   UNL A   1      50.074  25.787  34.244  1.00  0.00     0.200 A 
ATOM    107  F   UNL A   1      48.910  24.302  35.663  1.00  0.00    -0.200 F 
ATOM    108  F   UNL A   1      51.247  25.312  34.685  1.00  0.00    -0.200 F 
ENDBRANCH  75  98
ENDBRANCH  49  50
ENDBRANCH  41  44
ENDBRANCH  39  40
ENDBRANCH  38  39
ENDBRANCH  37  38
ENDBRANCH   1  37
TORSDOF 18
ENDMDL
MODEL 2
REMARK VINA RESULT:     -12.1      3.744      9.782
REMARK SMILES O=C(NCCCCCCNC(=O)c1ccc(-c2c3nc(c(-c4c(F)c(F)c(F)c(F)c4F)c4ccc([nH]4)c(-c4c(F)c(F)c(F)c(F)c4F)c4nc(c(-c5c(F)c(F)c(F)c(F)c5F)c5ccc2[nH]5)C=C4)C=C3)cc1)c1ccc(/[NH+]=C2\S[C@@H](Cc3ccc(F)cc3)C(=O)N2Cc2ccccc2)cc1
REMARK SMILES IDX 6 1 5 2 4 3 3 4 1 5 2 6 76 8 77 9 103 10 78 11 102 12 79 13
REMARK SMILES IDX 80 14 81 15 82 17 94 18 83 19 92 20 93 21 95 22 96 23 97 24
REMARK SMILES IDX 101 25 98 26 100 27 99 28 84 29 85 30 86 31 91 32 87 33
REMARK SMILES IDX 90 34 88 35 89 36 7 37 8 38 9 39 10 40 11 41 12 43 13 44
REMARK SMILES IDX 14 45 75 46 15 47 74 48 16 49 17 50 18 51 68 52 19 53 73 54
REMARK SMILES IDX 67 55 69 56 20 57 72 58 66 59 65 60 21 62 53 63 33 64 52 65
REMARK SMILES IDX 34 66 37 67 51 68 70 69 35 70 36 71 50 73 71 74 38 75 22 76
REMARK SMILES IDX 23 77 31 78 24 79 25 80 29 81 32 82 26 83 27 84 30 85 28 86
REMARK SMILES IDX 54 87 55 88 63 89 56 90 57 91 61 92 64 93 58 94 59 95 62 96
REMARK SMILES IDX 60 97 39 98 40 99 48 100 41 101 42 102 46 103 49 104 43 105
REMARK SMILES IDX 44 106 47 107 45 108
REMARK H PARENT 3 7 80 16 10 42 69 61 37 72
REMARK Flexibility Score: inf
ROOT
ATOM      1  C   UNL A   1      43.973  23.449  27.462  1.00  0.00     0.002 C 
ENDROOT
BRANCH   1   2
ATOM      2  C   UNL A   1      43.425  23.586  26.039  1.00  0.00     0.021 C 
BRANCH   2   3
ATOM      3  C   UNL A   1      42.502  22.454  25.597  1.00  0.00     0.116 C 
BRANCH   3   4
ATOM      4  N   UNL A   1      42.034  21.659  26.722  1.00  0.00    -0.352 N 
ATOM      5  O   UNL A   1      40.600  20.998  28.334  1.00  0.00    -0.269 OA
ATOM      6  C   UNL A   1      40.777  21.567  27.258  1.00  0.00     0.251 C 
ATOM      7  H   UNL A   1      42.722  21.108  27.161  1.00  0.00     0.163 HD
BRANCH   6   8
ATOM      8  C   UNL A   1      39.630  22.163  26.547  1.00  0.00     0.040 A 
ATOM      9  C   UNL A   1      39.286  23.500  26.754  1.00  0.00     0.018 A 
ATOM     10  C   UNL A   1      38.913  21.382  25.636  1.00  0.00     0.018 A 
ATOM     11  C   UNL A   1      38.160  24.022  26.125  1.00  0.00     0.052 A 
ATOM     12  C   UNL A   1      37.805  21.925  24.980  1.00  0.00     0.052 A 
ATOM     13  C   UNL A   1      37.402  23.235  25.251  1.00  0.00     0.125 A 
BRANCH  13  14
ATOM     14  N   UNL A   1      36.327  23.838  24.601  1.00  0.00    -0.235 N 
ATOM     15  C   UNL A   1      35.216  23.223  24.381  1.00  0.00     0.320 C 
ATOM     16  H   UNL A   1      36.419  24.771  24.298  1.00  0.00     0.313 HD
ATOM     17  S   UNL A   1      34.853  21.546  24.676  1.00  0.00    -0.022 SA
ATOM     18  N   UNL A   1      34.124  23.877  23.881  1.00  0.00    -0.186 N 
ATOM     19  C   UNL A   1      33.317  21.622  23.699  1.00  0.00     0.178 C 
ATOM     20  C   UNL A   1      33.020  23.111  23.571  1.00  0.00     0.324 C 
ATOM     21  O   UNL A   1      31.958  23.565  23.161  1.00  0.00    -0.245 OA
BRANCH  18  22
ATOM     22  C   UNL A   1      34.109  25.324  23.689  1.00  0.00     0.283 C 
BRANCH  22  23
ATOM     23  C   UNL A   1      33.149  26.047  24.616  1.00  0.00    -0.006 A 
ATOM     24  C   UNL A   1      32.035  26.732  24.115  1.00  0.00     0.008 A 
ATOM     25  C   UNL A   1      33.368  26.062  26.003  1.00  0.00     0.008 A 
ATOM     26  C   UNL A   1      31.168  27.408  24.980  1.00  0.00     0.000 A 
ATOM     27  C   UNL A   1      32.486  26.708  26.870  1.00  0.00     0.000 A 
ATOM     28  C   UNL A   1      31.387  27.387  26.356  1.00  0.00     0.000 A 
ENDBRANCH  22  23
ENDBRANCH  18  22
BRANCH  19  29
ATOM     29  C   UNL A   1      32.211  20.808  24.369  1.00  0.00     0.063 C 
BRANCH  29  30
ATOM     30  C   UNL A   1      32.492  19.322  24.439  1.00  0.00    -0.046 A 
ATOM     31  C   UNL A   1      32.637  18.584  23.254  1.00  0.00     0.007 A 
ATOM     32  C   UNL A   1      32.610  18.661  25.673  1.00  0.00     0.007 A 
ATOM     33  C   UNL A   1      32.926  17.219  23.300  1.00  0.00     0.039 A 
ATOM     34  C   UNL A   1      32.904  17.297  25.716  1.00  0.00     0.039 A 
ATOM     35  C   UNL A   1      33.064  16.590  24.529  1.00  0.00     0.123 A 
ATOM     36  F   UNL A   1      33.352  15.283  24.573  1.00  0.00    -0.207 F 
ENDBRANCH  29  30
ENDBRANCH  19  29
ENDBRANCH  13  14
ENDBRANCH   6   8
ENDBRANCH   3   4
ENDBRANCH   2   3
ENDBRANCH   1   2
BRANCH   1  37
ATOM     37  C   UNL A   1      45.499  23.463  27.581  1.00  0.00     0.002 C 
BRANCH  37  38
ATOM     38  C   UNL A   1      46.246  23.979  26.350  1.00  0.00     0.021 C 
BRANCH  38  39
ATOM     39  C   UNL A   1      46.978  25.301  26.552  1.00  0.00     0.116 C 
BRANCH  39  40
ATOM     40  N   UNL A   1      46.882  26.172  25.391  1.00  0.00    -0.352 N 
ATOM     41  C   UNL A   1      46.067  27.254  25.179  1.00  0.00     0.251 C 
ATOM     42  H   UNL A   1      47.490  25.952  24.650  1.00  0.00     0.163 HD
ATOM     43  O   UNL A   1      45.998  27.768  24.065  1.00  0.00    -0.269 OA
BRANCH  41  44
ATOM     44  C   UNL A   1      45.246  27.791  26.285  1.00  0.00     0.039 A 
ATOM     45  C   UNL A   1      44.446  26.912  27.020  1.00  0.00     0.014 A 
ATOM     46  C   UNL A   1      45.260  29.154  26.596  1.00  0.00     0.014 A 
ATOM     47  C   UNL A   1      43.708  27.390  28.104  1.00  0.00     0.010 A 
ATOM     48  C   UNL A   1      44.586  29.614  27.724  1.00  0.00     0.010 A 
ATOM     49  C   UNL A   1      43.800  28.738  28.487  1.00  0.00    -0.014 A 
BRANCH  49  50
ATOM     50  C   UNL A   1      43.085  29.247  29.686  1.00  0.00     0.031 A 
ATOM     51  C   UNL A   1      41.647  29.672  29.587  1.00  0.00     0.074 A 
ATOM     52  C   UNL A   1      43.750  29.384  30.849  1.00  0.00     0.049 A 
ATOM     53  N   UNL A   1      40.873  30.198  30.504  1.00  0.00    -0.248 NA
ATOM     54  C   UNL A   1      40.999  29.511  28.277  1.00  0.00     0.031 C 
ATOM     55  C   UNL A   1      45.159  29.051  31.061  1.00  0.00     0.029 A 
ATOM     56  N   UNL A   1      43.332  29.850  32.071  1.00  0.00    -0.354 N 
ATOM     57  C   UNL A   1      39.657  30.438  29.879  1.00  0.00     0.074 A 
ATOM     58  C   UNL A   1      39.812  30.058  28.491  1.00  0.00     0.031 C 
ATOM     59  C   UNL A   1      45.483  29.301  32.339  1.00  0.00     0.029 A 
ATOM     60  C   UNL A   1      44.319  29.852  33.026  1.00  0.00     0.049 A 
ATOM     61  H   UNL A   1      42.412  30.155  32.245  1.00  0.00     0.167 HD
ATOM     62  C   UNL A   1      38.507  30.909  30.419  1.00  0.00     0.037 A 
ATOM     63  C   UNL A   1      44.291  30.259  34.309  1.00  0.00     0.037 A 
ATOM     64  C   UNL A   1      38.352  31.272  31.803  1.00  0.00     0.049 A 
ATOM     65  C   UNL A   1      43.007  30.796  34.882  1.00  0.00     0.074 A 
ATOM     66  C   UNL A   1      37.215  31.707  32.461  1.00  0.00     0.029 A 
ATOM     67  N   UNL A   1      39.372  31.251  32.745  1.00  0.00    -0.354 N 
ATOM     68  N   UNL A   1      41.843  30.954  34.300  1.00  0.00    -0.248 NA
ATOM     69  C   UNL A   1      43.032  31.207  36.292  1.00  0.00     0.031 C 
ATOM     70  C   UNL A   1      37.560  32.003  33.784  1.00  0.00     0.029 A 
ATOM     71  C   UNL A   1      38.897  31.693  33.969  1.00  0.00     0.049 A 
ATOM     72  H   UNL A   1      40.298  30.964  32.568  1.00  0.00     0.167 HD
ATOM     73  C   UNL A   1      40.992  31.451  35.276  1.00  0.00     0.074 A 
ATOM     74  C   UNL A   1      41.770  31.557  36.493  1.00  0.00     0.031 C 
ATOM     75  C   UNL A   1      39.683  31.791  35.175  1.00  0.00     0.037 A 
BRANCH  62  76
ATOM     76  C   UNL A   1      37.324  31.063  29.503  1.00  0.00     0.064 A 
ATOM     77  C   UNL A   1      37.000  32.298  28.918  1.00  0.00     0.173 A 
ATOM     78  C   UNL A   1      36.519  29.958  29.186  1.00  0.00     0.173 A 
ATOM     79  F   UNL A   1      37.730  33.389  29.194  1.00  0.00    -0.203 F 
ATOM     80  C   UNL A   1      35.893  32.428  28.083  1.00  0.00     0.198 A 
ATOM     81  C   UNL A   1      35.434  30.085  28.323  1.00  0.00     0.198 A 
ATOM     82  F   UNL A   1      36.786  28.753  29.710  1.00  0.00    -0.203 F 
ATOM     83  F   UNL A   1      35.568  33.630  27.586  1.00  0.00    -0.200 F 
ATOM     84  C   UNL A   1      35.115  31.321  27.781  1.00  0.00     0.200 A 
ATOM     85  F   UNL A   1      34.692  29.011  28.019  1.00  0.00    -0.200 F 
ATOM     86  F   UNL A   1      34.052  31.446  26.974  1.00  0.00    -0.200 F 
ENDBRANCH  62  76
BRANCH  63  87
ATOM     87  C   UNL A   1      45.517  30.155  35.145  1.00  0.00     0.064 A 
ATOM     88  C   UNL A   1      45.830  28.968  35.820  1.00  0.00     0.173 A 
ATOM     89  C   UNL A   1      46.402  31.235  35.281  1.00  0.00     0.173 A 
ATOM     90  F   UNL A   1      45.005  27.913  35.737  1.00  0.00    -0.203 F 
ATOM     91  C   UNL A   1      46.970  28.870  36.614  1.00  0.00     0.198 A 
ATOM     92  C   UNL A   1      47.558  31.126  36.051  1.00  0.00     0.198 A 
ATOM     93  F   UNL A   1      46.152  32.392  34.651  1.00  0.00    -0.203 F 
ATOM     94  F   UNL A   1      47.221  27.737  37.285  1.00  0.00    -0.200 F 
ATOM     95  C   UNL A   1      47.837  29.946  36.724  1.00  0.00     0.200 A 
ATOM     96  F   UNL A   1      48.400  32.164  36.139  1.00  0.00    -0.200 F 
ATOM     97  F   UNL A   1      48.938  29.850  37.481  1.00  0.00    -0.200 F 
ENDBRANCH  63  87
BRANCH  75  98
ATOM     98  C   UNL A   1      38.996  32.275  36.420  1.00  0.00     0.064 A 
ATOM     99  C   UNL A   1      39.144  33.591  36.881  1.00  0.00     0.173 A 
ATOM    100  C   UNL A   1      38.147  31.420  37.139  1.00  0.00     0.173 A 
ATOM    101  F   UNL A   1      39.955  34.445  36.239  1.00  0.00    -0.203 F 
ATOM    102  C   UNL A   1      38.489  34.024  38.032  1.00  0.00     0.198 A 
ATOM    103  C   UNL A   1      37.467  31.866  38.269  1.00  0.00     0.198 A 
ATOM    104  F   UNL A   1      37.964  30.152  36.737  1.00  0.00    -0.203 F 
ATOM    105  F   UNL A   1      38.687  35.270  38.483  1.00  0.00    -0.200 F 
ATOM    106  C   UNL A   1      37.645  33.165  38.720  1.00  0.00     0.200 A 
ATOM    107  F   UNL A   1      36.639  31.038  38.922  1.00  0.00    -0.200 F 
ATOM    108  F   UNL A   1      37.009  33.586  39.821  1.00  0.00    -0.200 F 
ENDBRANCH  75  98
ENDBRANCH  49  50
ENDBRANCH  41  44
ENDBRANCH  39  40
ENDBRANCH  38  39
ENDBRANCH  37  38
ENDBRANCH   1  37
TORSDOF 18
ENDMDL
MODEL 3
REMARK VINA RESULT:     -12.0      4.400      9.534
REMARK SMILES O=C(NCCCCCCNC(=O)c1ccc(-c2c3nc(c(-c4c(F)c(F)c(F)c(F)c4F)c4ccc([nH]4)c(-c4c(F)c(F)c(F)c(F)c4F)c4nc(c(-c5c(F)c(F)c(F)c(F)c5F)c5ccc2[nH]5)C=C4)C=C3)cc1)c1ccc(/[NH+]=C2\S[C@@H](Cc3ccc(F)cc3)C(=O)N2Cc2ccccc2)cc1
REMARK SMILES IDX 6 1 5 2 4 3 3 4 1 5 2 6 76 8 77 9 103 10 78 11 102 12 79 13
REMARK SMILES IDX 80 14 81 15 82 17 94 18 83 19 92 20 93 21 95 22 96 23 97 24
REMARK SMILES IDX 101 25 98 26 100 27 99 28 84 29 85 30 86 31 91 32 87 33
REMARK SMILES IDX 90 34 88 35 89 36 7 37 8 38 9 39 10 40 11 41 12 43 13 44
REMARK SMILES IDX 14 45 75 46 15 47 74 48 16 49 17 50 18 51 68 52 19 53 73 54
REMARK SMILES IDX 67 55 69 56 20 57 72 58 66 59 65 60 21 62 53 63 33 64 52 65
REMARK SMILES IDX 34 66 37 67 51 68 70 69 35 70 36 71 50 73 71 74 38 75 22 76
REMARK SMILES IDX 23 77 31 78 24 79 25 80 29 81 32 82 26 83 27 84 30 85 28 86
REMARK SMILES IDX 54 87 55 88 63 89 56 90 57 91 61 92 64 93 58 94 59 95 62 96
REMARK SMILES IDX 60 97 39 98 40 99 48 100 41 101 42 102 46 103 49 104 43 105
REMARK SMILES IDX 44 106 47 107 45 108
REMARK H PARENT 3 7 80 16 10 42 69 61 37 72
REMARK Flexibility Score: inf
ROOT
ATOM      1  C   UNL A   1      34.259  35.279  30.484  1.00  0.00     0.002 C 
ENDROOT
BRANCH   1   2
ATOM      2  C   UNL A   1      33.341  34.632  29.444  1.00  0.00     0.021 C 
BRANCH   2   3
ATOM      3  C   UNL A   1      33.966  34.445  28.065  1.00  0.00     0.116 C 
BRANCH   3   4
ATOM      4  N   UNL A   1      35.390  34.159  28.146  1.00  0.00    -0.352 N 
ATOM      5  O   UNL A   1      37.232  32.889  28.444  1.00  0.00    -0.269 OA
ATOM      6  C   UNL A   1      36.033  32.950  28.173  1.00  0.00     0.251 C 
ATOM      7  H   UNL A   1      35.975  34.949  28.186  1.00  0.00     0.163 HD
BRANCH   6   8
ATOM      8  C   UNL A   1      35.283  31.712  27.887  1.00  0.00     0.040 A 
ATOM      9  C   UNL A   1      33.896  31.746  27.729  1.00  0.00     0.018 A 
ATOM     10  C   UNL A   1      35.982  30.510  27.741  1.00  0.00     0.018 A 
ATOM     11  C   UNL A   1      33.202  30.558  27.527  1.00  0.00     0.052 A 
ATOM     12  C   UNL A   1      35.280  29.326  27.502  1.00  0.00     0.052 A 
ATOM     13  C   UNL A   1      33.885  29.340  27.432  1.00  0.00     0.125 A 
BRANCH  13  14
ATOM     14  N   UNL A   1      33.136  28.196  27.161  1.00  0.00    -0.235 N 
ATOM     15  C   UNL A   1      32.306  28.127  26.176  1.00  0.00     0.320 C 
ATOM     16  H   UNL A   1      33.244  27.409  27.744  1.00  0.00     0.313 HD
ATOM     17  S   UNL A   1      31.823  29.409  25.101  1.00  0.00    -0.022 SA
ATOM     18  N   UNL A   1      31.697  26.950  25.836  1.00  0.00    -0.186 N 
ATOM     19  C   UNL A   1      30.433  28.438  24.437  1.00  0.00     0.178 C 
ATOM     20  C   UNL A   1      30.740  27.003  24.845  1.00  0.00     0.324 C 
ATOM     21  O   UNL A   1      30.147  26.024  24.405  1.00  0.00    -0.245 OA
BRANCH  18  22
ATOM     22  C   UNL A   1      32.042  25.686  26.478  1.00  0.00     0.283 C 
BRANCH  22  23
ATOM     23  C   UNL A   1      32.983  24.827  25.654  1.00  0.00    -0.006 A 
ATOM     24  C   UNL A   1      34.291  25.243  25.378  1.00  0.00     0.008 A 
ATOM     25  C   UNL A   1      32.555  23.595  25.131  1.00  0.00     0.008 A 
ATOM     26  C   UNL A   1      35.143  24.448  24.604  1.00  0.00     0.000 A 
ATOM     27  C   UNL A   1      33.413  22.786  24.386  1.00  0.00     0.000 A 
ATOM     28  C   UNL A   1      34.707  23.216  24.118  1.00  0.00     0.000 A 
ENDBRANCH  22  23
ENDBRANCH  18  22
BRANCH  19  29
ATOM     29  C   UNL A   1      30.295  28.656  22.931  1.00  0.00     0.063 C 
BRANCH  29  30
ATOM     30  C   UNL A   1      29.520  29.901  22.553  1.00  0.00    -0.046 A 
ATOM     31  C   UNL A   1      29.243  30.871  23.529  1.00  0.00     0.007 A 
ATOM     32  C   UNL A   1      29.069  30.106  21.239  1.00  0.00     0.007 A 
ATOM     33  C   UNL A   1      28.556  32.038  23.190  1.00  0.00     0.039 A 
ATOM     34  C   UNL A   1      28.387  31.277  20.903  1.00  0.00     0.039 A 
ATOM     35  C   UNL A   1      28.141  32.234  21.881  1.00  0.00     0.123 A 
ATOM     36  F   UNL A   1      27.492  33.359  21.555  1.00  0.00    -0.207 F 
ENDBRANCH  29  30
ENDBRANCH  19  29
ENDBRANCH  13  14
ENDBRANCH   6   8
ENDBRANCH   3   4
ENDBRANCH   2   3
ENDBRANCH   1   2
BRANCH   1  37
ATOM     37  C   UNL A   1      34.774  34.341  31.579  1.00  0.00     0.002 C 
BRANCH  37  38
ATOM     38  C   UNL A   1      34.341  32.880  31.444  1.00  0.00     0.021 C 
BRANCH  38  39
ATOM     39  C   UNL A   1      35.427  31.857  31.757  1.00  0.00     0.116 C 
BRANCH  39  40
ATOM     40  N   UNL A   1      35.976  32.021  33.094  1.00  0.00    -0.352 N 
ATOM     41  C   UNL A   1      37.196  31.635  33.588  1.00  0.00     0.251 C 
ATOM     42  H   UNL A   1      35.386  32.475  33.737  1.00  0.00     0.163 HD
ATOM     43  O   UNL A   1      37.423  31.701  34.794  1.00  0.00    -0.269 OA
BRANCH  41  44
ATOM     44  C   UNL A   1      38.233  31.113  32.674  1.00  0.00     0.039 A 
ATOM     45  C   UNL A   1      38.030  31.213  31.295  1.00  0.00     0.014 A 
ATOM     46  C   UNL A   1      39.399  30.524  33.171  1.00  0.00     0.014 A 
ATOM     47  C   UNL A   1      39.023  30.778  30.417  1.00  0.00     0.010 A 
ATOM     48  C   UNL A   1      40.420  30.163  32.296  1.00  0.00     0.010 A 
ATOM     49  C   UNL A   1      40.241  30.283  30.909  1.00  0.00    -0.014 A 
BRANCH  49  50
ATOM     50  C   UNL A   1      41.340  29.890  29.989  1.00  0.00     0.031 A 
ATOM     51  C   UNL A   1      41.332  28.538  29.333  1.00  0.00     0.074 A 
ATOM     52  C   UNL A   1      42.376  30.728  29.796  1.00  0.00     0.049 A 
ATOM     53  N   UNL A   1      42.229  27.991  28.550  1.00  0.00    -0.248 NA
ATOM     54  C   UNL A   1      40.175  27.675  29.613  1.00  0.00     0.031 C 
ATOM     55  C   UNL A   1      42.524  32.046  30.413  1.00  0.00     0.029 A 
ATOM     56  N   UNL A   1      43.510  30.590  29.033  1.00  0.00    -0.354 N 
ATOM     57  C   UNL A   1      41.750  26.722  28.256  1.00  0.00     0.074 A 
ATOM     58  C   UNL A   1      40.515  26.556  28.992  1.00  0.00     0.031 C 
ATOM     59  C   UNL A   1      43.667  32.606  29.987  1.00  0.00     0.029 A 
ATOM     60  C   UNL A   1      44.354  31.671  29.102  1.00  0.00     0.049 A 
ATOM     61  H   UNL A   1      43.698  29.792  28.488  1.00  0.00     0.167 HD
ATOM     62  C   UNL A   1      42.279  25.789  27.429  1.00  0.00     0.037 A 
ATOM     63  C   UNL A   1      45.552  31.880  28.524  1.00  0.00     0.037 A 
ATOM     64  C   UNL A   1      43.501  25.964  26.688  1.00  0.00     0.049 A 
ATOM     65  C   UNL A   1      46.129  30.821  27.623  1.00  0.00     0.074 A 
ATOM     66  C   UNL A   1      44.093  25.103  25.781  1.00  0.00     0.029 A 
ATOM     67  N   UNL A   1      44.326  27.078  26.776  1.00  0.00    -0.354 N 
ATOM     68  N   UNL A   1      45.634  29.653  27.297  1.00  0.00    -0.248 NA
ATOM     69  C   UNL A   1      47.429  31.115  27.006  1.00  0.00     0.031 C 
ATOM     70  C   UNL A   1      45.303  25.668  25.365  1.00  0.00     0.029 A 
ATOM     71  C   UNL A   1      45.436  26.911  25.962  1.00  0.00     0.049 A 
ATOM     72  H   UNL A   1      44.148  27.869  27.335  1.00  0.00     0.167 HD
ATOM     73  C   UNL A   1      46.543  29.084  26.416  1.00  0.00     0.074 A 
ATOM     74  C   UNL A   1      47.615  30.044  26.247  1.00  0.00     0.031 C 
ATOM     75  C   UNL A   1      46.495  27.876  25.801  1.00  0.00     0.037 A 
BRANCH  62  76
ATOM     76  C   UNL A   1      41.538  24.489  27.287  1.00  0.00     0.064 A 
ATOM     77  C   UNL A   1      42.008  23.303  27.872  1.00  0.00     0.173 A 
ATOM     78  C   UNL A   1      40.328  24.432  26.577  1.00  0.00     0.173 A 
ATOM     79  F   UNL A   1      43.164  23.298  28.554  1.00  0.00    -0.203 F 
ATOM     80  C   UNL A   1      41.318  22.104  27.720  1.00  0.00     0.198 A 
ATOM     81  C   UNL A   1      39.622  23.238  26.457  1.00  0.00     0.198 A 
ATOM     82  F   UNL A   1      39.827  25.536  26.003  1.00  0.00    -0.203 F 
ATOM     83  F   UNL A   1      41.819  20.973  28.236  1.00  0.00    -0.200 F 
ATOM     84  C   UNL A   1      40.122  22.073  27.018  1.00  0.00     0.200 A 
ATOM     85  F   UNL A   1      38.458  23.213  25.791  1.00  0.00    -0.200 F 
ATOM     86  F   UNL A   1      39.456  20.919  26.875  1.00  0.00    -0.200 F 
ENDBRANCH  62  76
BRANCH  63  87
ATOM     87  C   UNL A   1      46.276  33.156  28.766  1.00  0.00     0.064 A 
ATOM     88  C   UNL A   1      46.020  34.290  27.983  1.00  0.00     0.173 A 
ATOM     89  C   UNL A   1      47.234  33.271  29.785  1.00  0.00     0.173 A 
ATOM     90  F   UNL A   1      45.128  34.225  26.983  1.00  0.00    -0.203 F 
ATOM     91  C   UNL A   1      46.705  35.484  28.198  1.00  0.00     0.198 A 
ATOM     92  C   UNL A   1      47.896  34.474  30.018  1.00  0.00     0.198 A 
ATOM     93  F   UNL A   1      47.513  32.218  30.566  1.00  0.00    -0.203 F 
ATOM     94  F   UNL A   1      46.472  36.539  27.405  1.00  0.00    -0.200 F 
ATOM     95  C   UNL A   1      47.638  35.578  29.219  1.00  0.00     0.200 A 
ATOM     96  F   UNL A   1      48.784  34.564  31.018  1.00  0.00    -0.200 F 
ATOM     97  F   UNL A   1      48.291  36.728  29.431  1.00  0.00    -0.200 F 
ENDBRANCH  63  87
BRANCH  75  98
ATOM     98  C   UNL A   1      47.616  27.535  24.860  1.00  0.00     0.064 A 
ATOM     99  C   UNL A   1      47.544  27.825  23.490  1.00  0.00     0.173 A 
ATOM    100  C   UNL A   1      48.794  26.947  25.346  1.00  0.00     0.173 A 
ATOM    101  F   UNL A   1      46.434  28.374  22.973  1.00  0.00    -0.203 F 
ATOM    102  C   UNL A   1      48.599  27.511  22.636  1.00  0.00     0.198 A 
ATOM    103  C   UNL A   1      49.859  26.666  24.495  1.00  0.00     0.198 A 
ATOM    104  F   UNL A   1      48.918  26.655  26.650  1.00  0.00    -0.203 F 
ATOM    105  F   UNL A   1      48.486  27.749  21.322  1.00  0.00    -0.200 F 
ATOM    106  C   UNL A   1      49.758  26.941  23.140  1.00  0.00     0.200 A 
ATOM    107  F   UNL A   1      50.985  26.130  24.987  1.00  0.00    -0.200 F 
ATOM    108  F   UNL A   1      50.775  26.649  22.318  1.00  0.00    -0.200 F 
ENDBRANCH  75  98
ENDBRANCH  49  50
ENDBRANCH  41  44
ENDBRANCH  39  40
ENDBRANCH  38  39
ENDBRANCH  37  38
ENDBRANCH   1  37
TORSDOF 18
ENDMDL
