MODEL 1
REMARK VINA RESULT:     -13.4      0.000      0.000
REMARK SMILES O=C(NCCCCCCNC(=O)[C@H]1CC=CC[C@@H]1C(=O)N[C@@H]1CCCN(c2ccccc2F)C1=O)c1ccc(-c2c3nc(c(-c4c(F)c(F)c(F)c(F)c4F)c4ccc([nH]4)c(-c4c(F)c(F)c(F)c(F)c4F)c4nc(c(-c5c(F)c(F)c(F)c(F)c5F)c5ccc2[nH]5)C=C4)C=C3)cc1
REMARK SMILES IDX 7 1 6 2 5 3 4 4 3 5 1 6 2 7 36 9 37 10 98 11 38 12 97 13
REMARK SMILES IDX 39 14 40 15 41 16 91 17 42 18 96 19 90 20 92 21 43 22 95 23
REMARK SMILES IDX 89 24 88 25 44 27 76 28 56 29 75 30 57 31 60 32 74 33 93 34
REMARK SMILES IDX 58 35 59 36 73 38 94 39 61 40 45 41 46 42 54 43 47 44 48 45
REMARK SMILES IDX 52 46 55 47 49 48 50 49 53 50 51 51 77 52 78 53 86 54 79 55
REMARK SMILES IDX 80 56 84 57 87 58 81 59 82 60 85 61 83 62 62 63 63 64 71 65
REMARK SMILES IDX 64 66 65 67 69 68 72 69 66 70 67 71 70 72 68 73 8 74 9 75
REMARK SMILES IDX 10 76 11 77 12 79 13 80 14 81 18 82 15 83 17 84 16 85 19 86
REMARK SMILES IDX 20 87 21 88 22 90 23 91 34 92 24 93 26 94 35 95 25 96 27 97
REMARK SMILES IDX 28 98 32 99 29 100 31 101 33 102 30 103
REMARK H PARENT 3 8 92 26 60 37 10 78 21 89
REMARK Flexibility Score: inf
ROOT
ATOM      1  C   UNL A   1      32.388  29.992  27.223  1.00  0.00     0.002 C 
ENDROOT
BRANCH   1   2
ATOM      2  C   UNL A   1      31.561  30.879  26.281  1.00  0.00     0.002 C 
BRANCH   2   3
ATOM      3  C   UNL A   1      31.428  32.342  26.709  1.00  0.00     0.021 C 
BRANCH   3   4
ATOM      4  C   UNL A   1      32.708  32.953  27.262  1.00  0.00     0.116 C 
BRANCH   4   5
ATOM      5  N   UNL A   1      32.505  34.330  27.679  1.00  0.00    -0.352 N 
ATOM      6  O   UNL A   1      32.568  36.074  29.107  1.00  0.00    -0.269 OA
ATOM      7  C   UNL A   1      33.039  35.000  28.749  1.00  0.00     0.251 C 
ATOM      8  H   UNL A   1      31.896  34.857  27.112  1.00  0.00     0.163 HD
BRANCH   7   9
ATOM      9  C   UNL A   1      34.189  34.423  29.473  1.00  0.00     0.039 A 
ATOM     10  C   UNL A   1      33.995  33.698  30.652  1.00  0.00     0.014 A 
ATOM     11  C   UNL A   1      35.472  34.564  28.934  1.00  0.00     0.014 A 
ATOM     12  C   UNL A   1      35.091  33.199  31.347  1.00  0.00     0.010 A 
ATOM     13  C   UNL A   1      36.563  33.995  29.591  1.00  0.00     0.010 A 
ATOM     14  C   UNL A   1      36.381  33.319  30.808  1.00  0.00    -0.014 A 
BRANCH  14  15
ATOM     15  C   UNL A   1      37.517  32.637  31.474  1.00  0.00     0.031 A 
ATOM     16  C   UNL A   1      38.199  31.464  30.836  1.00  0.00     0.074 A 
ATOM     17  C   UNL A   1      37.916  33.087  32.677  1.00  0.00     0.049 A 
ATOM     18  N   UNL A   1      39.188  30.740  31.295  1.00  0.00    -0.248 NA
ATOM     19  C   UNL A   1      37.704  31.041  29.518  1.00  0.00     0.031 C 
ATOM     20  C   UNL A   1      37.310  34.211  33.394  1.00  0.00     0.029 A 
ATOM     21  N   UNL A   1      38.920  32.664  33.510  1.00  0.00    -0.354 N 
ATOM     22  C   UNL A   1      39.423  29.766  30.334  1.00  0.00     0.074 A 
ATOM     23  C   UNL A   1      38.459  29.977  29.275  1.00  0.00     0.031 C 
ATOM     24  C   UNL A   1      37.972  34.409  34.541  1.00  0.00     0.029 A 
ATOM     25  C   UNL A   1      39.006  33.389  34.673  1.00  0.00     0.049 A 
ATOM     26  H   UNL A   1      39.520  31.914  33.295  1.00  0.00     0.167 HD
ATOM     27  C   UNL A   1      40.362  28.791  30.345  1.00  0.00     0.037 A 
ATOM     28  C   UNL A   1      39.810  33.237  35.741  1.00  0.00     0.037 A 
ATOM     29  C   UNL A   1      41.323  28.605  31.402  1.00  0.00     0.049 A 
ATOM     30  C   UNL A   1      40.824  32.131  35.738  1.00  0.00     0.074 A 
ATOM     31  C   UNL A   1      42.357  27.688  31.471  1.00  0.00     0.029 A 
ATOM     32  N   UNL A   1      41.362  29.341  32.578  1.00  0.00    -0.354 N 
ATOM     33  N   UNL A   1      41.069  31.245  34.805  1.00  0.00    -0.248 NA
ATOM     34  C   UNL A   1      41.666  31.998  36.933  1.00  0.00     0.031 C 
ATOM     35  C   UNL A   1      42.979  27.824  32.715  1.00  0.00     0.029 A 
ATOM     36  C   UNL A   1      42.376  28.870  33.397  1.00  0.00     0.049 A 
ATOM     37  H   UNL A   1      40.757  30.086  32.799  1.00  0.00     0.167 HD
ATOM     38  C   UNL A   1      42.099  30.453  35.290  1.00  0.00     0.074 A 
ATOM     39  C   UNL A   1      42.443  30.974  36.599  1.00  0.00     0.031 C 
ATOM     40  C   UNL A   1      42.702  29.393  34.701  1.00  0.00     0.037 A 
BRANCH  27  41
ATOM     41  C   UNL A   1      40.392  27.829  29.192  1.00  0.00     0.064 A 
ATOM     42  C   UNL A   1      41.155  28.119  28.050  1.00  0.00     0.173 A 
ATOM     43  C   UNL A   1      39.619  26.659  29.183  1.00  0.00     0.173 A 
ATOM     44  F   UNL A   1      41.910  29.227  28.004  1.00  0.00    -0.203 F 
ATOM     45  C   UNL A   1      41.134  27.281  26.939  1.00  0.00     0.198 A 
ATOM     46  C   UNL A   1      39.621  25.808  28.080  1.00  0.00     0.198 A 
ATOM     47  F   UNL A   1      38.881  26.328  30.253  1.00  0.00    -0.203 F 
ATOM     48  F   UNL A   1      41.848  27.595  25.849  1.00  0.00    -0.200 F 
ATOM     49  C   UNL A   1      40.370  26.123  26.957  1.00  0.00     0.200 A 
ATOM     50  F   UNL A   1      38.905  24.675  28.109  1.00  0.00    -0.200 F 
ATOM     51  F   UNL A   1      40.362  25.309  25.892  1.00  0.00    -0.200 F 
ENDBRANCH  27  41
BRANCH  28  52
ATOM     52  C   UNL A   1      39.667  34.172  36.884  1.00  0.00     0.064 A 
ATOM     53  C   UNL A   1      40.393  35.373  36.931  1.00  0.00     0.173 A 
ATOM     54  C   UNL A   1      38.880  33.840  37.993  1.00  0.00     0.173 A 
ATOM     55  F   UNL A   1      41.170  35.729  35.897  1.00  0.00    -0.203 F 
ATOM     56  C   UNL A   1      40.363  36.187  38.061  1.00  0.00     0.198 A 
ATOM     57  C   UNL A   1      38.830  34.668  39.112  1.00  0.00     0.198 A 
ATOM     58  F   UNL A   1      38.159  32.709  37.986  1.00  0.00    -0.203 F 
ATOM     59  F   UNL A   1      41.110  37.299  38.103  1.00  0.00    -0.200 F 
ATOM     60  C   UNL A   1      39.583  35.833  39.151  1.00  0.00     0.200 A 
ATOM     61  F   UNL A   1      38.063  34.333  40.158  1.00  0.00    -0.200 F 
ATOM     62  F   UNL A   1      39.560  36.613  40.240  1.00  0.00    -0.200 F 
ENDBRANCH  28  52
BRANCH  40  63
ATOM     63  C   UNL A   1      43.807  28.715  35.455  1.00  0.00     0.064 A 
ATOM     64  C   UNL A   1      45.145  29.076  35.230  1.00  0.00     0.173 A 
ATOM     65  C   UNL A   1      43.552  27.644  36.324  1.00  0.00     0.173 A 
ATOM     66  F   UNL A   1      45.442  30.089  34.403  1.00  0.00    -0.203 F 
ATOM     67  C   UNL A   1      46.186  28.373  35.828  1.00  0.00     0.198 A 
ATOM     68  C   UNL A   1      44.595  26.961  36.942  1.00  0.00     0.198 A 
ATOM     69  F   UNL A   1      42.288  27.272  36.581  1.00  0.00    -0.203 F 
ATOM     70  F   UNL A   1      47.457  28.707  35.563  1.00  0.00    -0.200 F 
ATOM     71  C   UNL A   1      45.911  27.317  36.683  1.00  0.00     0.200 A 
ATOM     72  F   UNL A   1      44.327  25.955  37.786  1.00  0.00    -0.200 F 
ATOM     73  F   UNL A   1      46.915  26.640  37.259  1.00  0.00    -0.200 F 
ENDBRANCH  40  63
ENDBRANCH  14  15
ENDBRANCH   7   9
ENDBRANCH   4   5
ENDBRANCH   3   4
ENDBRANCH   2   3
ENDBRANCH   1   2
BRANCH   1  74
ATOM     74  C   UNL A   1      33.721  29.490  26.656  1.00  0.00     0.021 C 
BRANCH  74  75
ATOM     75  C   UNL A   1      33.732  27.999  26.341  1.00  0.00     0.116 C 
BRANCH  75  76
ATOM     76  N   UNL A   1      32.470  27.364  26.647  1.00  0.00    -0.356 N 
ATOM     77  C   UNL A   1      31.449  26.841  25.939  1.00  0.00     0.224 C 
ATOM     78  H   UNL A   1      32.318  27.297  27.616  1.00  0.00     0.163 HD
ATOM     79  O   UNL A   1      30.543  26.369  26.644  1.00  0.00    -0.275 OA
BRANCH  77  80
ATOM     80  C   UNL A   1      31.308  26.736  24.413  1.00  0.00     0.095 C 
ATOM     81  C   UNL A   1      30.746  28.065  23.869  1.00  0.00     0.041 C 
ATOM     82  C   UNL A   1      32.435  26.175  23.536  1.00  0.00     0.095 C 
ATOM     83  C   UNL A   1      31.805  29.031  23.444  1.00  0.00    -0.030 C 
ATOM     84  C   UNL A   1      33.482  27.216  23.089  1.00  0.00     0.041 C 
ATOM     85  C   UNL A   1      33.038  28.646  23.103  1.00  0.00    -0.030 C 
BRANCH  82  86
ATOM     86  C   UNL A   1      31.819  25.487  22.318  1.00  0.00     0.224 C 
ATOM     87  O   UNL A   1      31.548  26.103  21.287  1.00  0.00    -0.275 OA
ATOM     88  N   UNL A   1      31.518  24.157  22.361  1.00  0.00    -0.344 N 
ATOM     89  H   UNL A   1      31.054  23.823  21.559  1.00  0.00     0.164 HD
BRANCH  88  90
ATOM     90  C   UNL A   1      31.759  23.133  23.383  1.00  0.00     0.172 C 
ATOM     91  C   UNL A   1      30.933  23.312  24.648  1.00  0.00     0.037 C 
ATOM     92  C   UNL A   1      33.271  22.886  23.585  1.00  0.00     0.249 C 
ATOM     93  C   UNL A   1      31.360  22.280  25.675  1.00  0.00     0.025 C 
ATOM     94  N   UNL A   1      33.716  22.609  24.882  1.00  0.00    -0.308 N 
ATOM     95  O   UNL A   1      34.014  22.861  22.599  1.00  0.00    -0.272 OA
ATOM     96  C   UNL A   1      32.820  22.498  26.036  1.00  0.00     0.126 C 
BRANCH  94  97
ATOM     97  C   UNL A   1      35.128  22.607  25.144  1.00  0.00     0.080 A 
ATOM     98  C   UNL A   1      35.852  21.408  25.172  1.00  0.00     0.029 A 
ATOM     99  C   UNL A   1      35.828  23.802  25.386  1.00  0.00     0.146 A 
ATOM    100  C   UNL A   1      37.236  21.417  25.391  1.00  0.00     0.002 A 
ATOM    101  C   UNL A   1      37.202  23.814  25.612  1.00  0.00     0.041 A 
ATOM    102  F   UNL A   1      35.168  24.963  25.513  1.00  0.00    -0.205 F 
ATOM    103  C   UNL A   1      37.911  22.618  25.606  1.00  0.00     0.003 A 
ENDBRANCH  94  97
ENDBRANCH  88  90
ENDBRANCH  82  86
ENDBRANCH  77  80
ENDBRANCH  75  76
ENDBRANCH  74  75
ENDBRANCH   1  74
TORSDOF 16
ENDMDL
MODEL 2
REMARK VINA RESULT:     -13.4      0.279      1.878
REMARK SMILES O=C(NCCCCCCNC(=O)[C@H]1CC=CC[C@@H]1C(=O)N[C@@H]1CCCN(c2ccccc2F)C1=O)c1ccc(-c2c3nc(c(-c4c(F)c(F)c(F)c(F)c4F)c4ccc([nH]4)c(-c4c(F)c(F)c(F)c(F)c4F)c4nc(c(-c5c(F)c(F)c(F)c(F)c5F)c5ccc2[nH]5)C=C4)C=C3)cc1
REMARK SMILES IDX 7 1 6 2 5 3 4 4 3 5 1 6 2 7 36 9 37 10 98 11 38 12 97 13
REMARK SMILES IDX 39 14 40 15 41 16 91 17 42 18 96 19 90 20 92 21 43 22 95 23
REMARK SMILES IDX 89 24 88 25 44 27 76 28 56 29 75 30 57 31 60 32 74 33 93 34
REMARK SMILES IDX 58 35 59 36 73 38 94 39 61 40 45 41 46 42 54 43 47 44 48 45
REMARK SMILES IDX 52 46 55 47 49 48 50 49 53 50 51 51 77 52 78 53 86 54 79 55
REMARK SMILES IDX 80 56 84 57 87 58 81 59 82 60 85 61 83 62 62 63 63 64 71 65
REMARK SMILES IDX 64 66 65 67 69 68 72 69 66 70 67 71 70 72 68 73 8 74 9 75
REMARK SMILES IDX 10 76 11 77 12 79 13 80 14 81 18 82 15 83 17 84 16 85 19 86
REMARK SMILES IDX 20 87 21 88 22 90 23 91 34 92 24 93 26 94 35 95 25 96 27 97
REMARK SMILES IDX 28 98 32 99 29 100 31 101 33 102 30 103
REMARK H PARENT 3 8 92 26 60 37 10 78 21 89
REMARK Flexibility Score: inf
ROOT
ATOM      1  C   UNL A   1      32.444  29.980  27.186  1.00  0.00     0.002 C 
ENDROOT
BRANCH   1   2
ATOM      2  C   UNL A   1      31.552  30.857  26.295  1.00  0.00     0.002 C 
BRANCH   2   3
ATOM      3  C   UNL A   1      31.435  32.321  26.725  1.00  0.00     0.021 C 
BRANCH   3   4
ATOM      4  C   UNL A   1      32.728  32.924  27.256  1.00  0.00     0.116 C 
BRANCH   4   5
ATOM      5  N   UNL A   1      32.532  34.291  27.708  1.00  0.00    -0.352 N 
ATOM      6  O   UNL A   1      32.619  36.002  29.174  1.00  0.00    -0.269 OA
ATOM      7  C   UNL A   1      33.083  34.937  28.785  1.00  0.00     0.251 C 
ATOM      8  H   UNL A   1      31.916  34.832  27.163  1.00  0.00     0.163 HD
BRANCH   7   9
ATOM      9  C   UNL A   1      34.244  34.342  29.478  1.00  0.00     0.039 A 
ATOM     10  C   UNL A   1      34.060  33.500  30.578  1.00  0.00     0.014 A 
ATOM     11  C   UNL A   1      35.529  34.589  28.986  1.00  0.00     0.014 A 
ATOM     12  C   UNL A   1      35.163  32.985  31.249  1.00  0.00     0.010 A 
ATOM     13  C   UNL A   1      36.632  34.007  29.612  1.00  0.00     0.010 A 
ATOM     14  C   UNL A   1      36.457  33.210  30.754  1.00  0.00    -0.014 A 
BRANCH  14  15
ATOM     15  C   UNL A   1      37.608  32.516  31.379  1.00  0.00     0.031 A 
ATOM     16  C   UNL A   1      38.307  31.389  30.680  1.00  0.00     0.074 A 
ATOM     17  C   UNL A   1      38.007  32.913  32.601  1.00  0.00     0.049 A 
ATOM     18  N   UNL A   1      39.312  30.661  31.097  1.00  0.00    -0.248 NA
ATOM     19  C   UNL A   1      37.811  31.023  29.345  1.00  0.00     0.031 C 
ATOM     20  C   UNL A   1      37.386  33.989  33.376  1.00  0.00     0.029 A 
ATOM     21  N   UNL A   1      39.024  32.468  33.407  1.00  0.00    -0.354 N 
ATOM     22  C   UNL A   1      39.557  29.740  30.088  1.00  0.00     0.074 A 
ATOM     23  C   UNL A   1      38.584  29.986  29.046  1.00  0.00     0.031 C 
ATOM     24  C   UNL A   1      38.052  34.143  34.527  1.00  0.00     0.029 A 
ATOM     25  C   UNL A   1      39.104  33.135  34.603  1.00  0.00     0.049 A 
ATOM     26  H   UNL A   1      39.636  31.740  33.151  1.00  0.00     0.167 HD
ATOM     27  C   UNL A   1      40.513  28.782  30.045  1.00  0.00     0.037 A 
ATOM     28  C   UNL A   1      39.918  32.945  35.658  1.00  0.00     0.037 A 
ATOM     29  C   UNL A   1      41.484  28.561  31.086  1.00  0.00     0.049 A 
ATOM     30  C   UNL A   1      40.951  31.860  35.595  1.00  0.00     0.074 A 
ATOM     31  C   UNL A   1      42.534  27.660  31.104  1.00  0.00     0.029 A 
ATOM     32  N   UNL A   1      41.518  29.239  32.298  1.00  0.00    -0.354 N 
ATOM     33  N   UNL A   1      41.206  31.025  34.618  1.00  0.00    -0.248 NA
ATOM     34  C   UNL A   1      41.803  31.682  36.777  1.00  0.00     0.031 C 
ATOM     35  C   UNL A   1      43.162  27.747  32.350  1.00  0.00     0.029 A 
ATOM     36  C   UNL A   1      42.546  28.746  33.087  1.00  0.00     0.049 A 
ATOM     37  H   UNL A   1      40.901  29.961  32.558  1.00  0.00     0.167 HD
ATOM     38  C   UNL A   1      42.252  30.229  35.057  1.00  0.00     0.074 A 
ATOM     39  C   UNL A   1      42.595  30.691  36.388  1.00  0.00     0.031 C 
ATOM     40  C   UNL A   1      42.870  29.210  34.413  1.00  0.00     0.037 A 
BRANCH  27  41
ATOM     41  C   UNL A   1      40.553  27.879  28.846  1.00  0.00     0.064 A 
ATOM     42  C   UNL A   1      39.854  26.662  28.856  1.00  0.00     0.173 A 
ATOM     43  C   UNL A   1      41.331  28.178  27.719  1.00  0.00     0.173 A 
ATOM     44  F   UNL A   1      39.098  26.324  29.911  1.00  0.00    -0.203 F 
ATOM     45  C   UNL A   1      39.941  25.774  27.787  1.00  0.00     0.198 A 
ATOM     46  C   UNL A   1      41.394  27.300  26.639  1.00  0.00     0.198 A 
ATOM     47  F   UNL A   1      42.008  29.334  27.652  1.00  0.00    -0.203 F 
ATOM     48  F   UNL A   1      39.288  24.604  27.833  1.00  0.00    -0.200 F 
ATOM     49  C   UNL A   1      40.708  26.096  26.677  1.00  0.00     0.200 A 
ATOM     50  F   UNL A   1      42.113  27.625  25.554  1.00  0.00    -0.200 F 
ATOM     51  F   UNL A   1      40.780  25.247  25.642  1.00  0.00    -0.200 F 
ENDBRANCH  27  41
BRANCH  28  52
ATOM     52  C   UNL A   1      39.766  33.820  36.847  1.00  0.00     0.064 A 
ATOM     53  C   UNL A   1      38.944  33.445  37.922  1.00  0.00     0.173 A 
ATOM     54  C   UNL A   1      40.361  35.087  36.889  1.00  0.00     0.173 A 
ATOM     55  F   UNL A   1      38.344  32.246  37.921  1.00  0.00    -0.203 F 
ATOM     56  C   UNL A   1      38.695  34.321  38.975  1.00  0.00     0.198 A 
ATOM     57  C   UNL A   1      40.132  35.952  37.957  1.00  0.00     0.198 A 
ATOM     58  F   UNL A   1      41.165  35.482  35.891  1.00  0.00    -0.203 F 
ATOM     59  F   UNL A   1      37.861  33.961  39.961  1.00  0.00    -0.200 F 
ATOM     60  C   UNL A   1      39.288  35.574  38.991  1.00  0.00     0.200 A 
ATOM     61  F   UNL A   1      40.719  37.156  37.979  1.00  0.00    -0.200 F 
ATOM     62  F   UNL A   1      39.043  36.419  40.002  1.00  0.00    -0.200 F 
ENDBRANCH  28  52
BRANCH  40  63
ATOM     63  C   UNL A   1      43.992  28.516  35.126  1.00  0.00     0.064 A 
ATOM     64  C   UNL A   1      43.730  27.429  35.975  1.00  0.00     0.173 A 
ATOM     65  C   UNL A   1      45.311  28.987  35.049  1.00  0.00     0.173 A 
ATOM     66  F   UNL A   1      42.484  26.946  36.088  1.00  0.00    -0.203 F 
ATOM     67  C   UNL A   1      44.743  26.855  36.738  1.00  0.00     0.198 A 
ATOM     68  C   UNL A   1      46.326  28.393  35.793  1.00  0.00     0.198 A 
ATOM     69  F   UNL A   1      45.613  30.015  34.241  1.00  0.00    -0.203 F 
ATOM     70  F   UNL A   1      44.459  25.847  37.574  1.00  0.00    -0.200 F 
ATOM     71  C   UNL A   1      46.039  27.337  36.646  1.00  0.00     0.200 A 
ATOM     72  F   UNL A   1      47.584  28.845  35.687  1.00  0.00    -0.200 F 
ATOM     73  F   UNL A   1      47.014  26.784  37.381  1.00  0.00    -0.200 F 
ENDBRANCH  40  63
ENDBRANCH  14  15
ENDBRANCH   7   9
ENDBRANCH   4   5
ENDBRANCH   3   4
ENDBRANCH   2   3
ENDBRANCH   1   2
BRANCH   1  74
ATOM     74  C   UNL A   1      33.718  29.446  26.523  1.00  0.00     0.021 C 
BRANCH  74  75
ATOM     75  C   UNL A   1      33.732  27.931  26.351  1.00  0.00     0.116 C 
BRANCH  75  76
ATOM     76  N   UNL A   1      32.451  27.332  26.653  1.00  0.00    -0.356 N 
ATOM     77  C   UNL A   1      31.418  26.838  25.942  1.00  0.00     0.224 C 
ATOM     78  H   UNL A   1      32.294  27.270  27.622  1.00  0.00     0.163 HD
ATOM     79  O   UNL A   1      30.496  26.393  26.645  1.00  0.00    -0.275 OA
BRANCH  77  80
ATOM     80  C   UNL A   1      31.279  26.736  24.416  1.00  0.00     0.095 C 
ATOM     81  C   UNL A   1      30.701  28.060  23.876  1.00  0.00     0.041 C 
ATOM     82  C   UNL A   1      32.414  26.193  23.537  1.00  0.00     0.095 C 
ATOM     83  C   UNL A   1      31.748  29.041  23.454  1.00  0.00    -0.030 C 
ATOM     84  C   UNL A   1      33.448  27.248  23.094  1.00  0.00     0.041 C 
ATOM     85  C   UNL A   1      32.985  28.672  23.112  1.00  0.00    -0.030 C 
BRANCH  82  86
ATOM     86  C   UNL A   1      31.807  25.501  22.317  1.00  0.00     0.224 C 
ATOM     87  O   UNL A   1      31.544  26.114  21.282  1.00  0.00    -0.275 OA
ATOM     88  N   UNL A   1      31.505  24.171  22.361  1.00  0.00    -0.344 N 
ATOM     89  H   UNL A   1      31.048  23.835  21.557  1.00  0.00     0.164 HD
BRANCH  88  90
ATOM     90  C   UNL A   1      31.739  23.150  23.388  1.00  0.00     0.172 C 
ATOM     91  C   UNL A   1      30.919  23.346  24.656  1.00  0.00     0.037 C 
ATOM     92  C   UNL A   1      33.249  22.887  23.586  1.00  0.00     0.249 C 
ATOM     93  C   UNL A   1      31.339  22.314  25.687  1.00  0.00     0.025 C 
ATOM     94  N   UNL A   1      33.696  22.612  24.883  1.00  0.00    -0.308 N 
ATOM     95  O   UNL A   1      33.988  22.848  22.597  1.00  0.00    -0.272 OA
ATOM     96  C   UNL A   1      32.802  22.518  26.041  1.00  0.00     0.126 C 
BRANCH  94  97
ATOM     97  C   UNL A   1      35.109  22.596  25.140  1.00  0.00     0.080 A 
ATOM     98  C   UNL A   1      35.821  21.390  25.158  1.00  0.00     0.029 A 
ATOM     99  C   UNL A   1      35.820  23.783  25.386  1.00  0.00     0.146 A 
ATOM    100  C   UNL A   1      37.207  21.385  25.372  1.00  0.00     0.002 A 
ATOM    101  C   UNL A   1      37.195  23.781  25.606  1.00  0.00     0.041 A 
ATOM    102  F   UNL A   1      35.171  24.950  25.521  1.00  0.00    -0.205 F 
ATOM    103  C   UNL A   1      37.893  22.578  25.591  1.00  0.00     0.003 A 
ENDBRANCH  94  97
ENDBRANCH  88  90
ENDBRANCH  82  86
ENDBRANCH  77  80
ENDBRANCH  75  76
ENDBRANCH  74  75
ENDBRANCH   1  74
TORSDOF 16
ENDMDL
MODEL 3
REMARK VINA RESULT:     -13.2      0.411      7.051
REMARK SMILES O=C(NCCCCCCNC(=O)[C@H]1CC=CC[C@@H]1C(=O)N[C@@H]1CCCN(c2ccccc2F)C1=O)c1ccc(-c2c3nc(c(-c4c(F)c(F)c(F)c(F)c4F)c4ccc([nH]4)c(-c4c(F)c(F)c(F)c(F)c4F)c4nc(c(-c5c(F)c(F)c(F)c(F)c5F)c5ccc2[nH]5)C=C4)C=C3)cc1
REMARK SMILES IDX 7 1 6 2 5 3 4 4 3 5 1 6 2 7 36 9 37 10 98 11 38 12 97 13
REMARK SMILES IDX 39 14 40 15 41 16 91 17 42 18 96 19 90 20 92 21 43 22 95 23
REMARK SMILES IDX 89 24 88 25 44 27 76 28 56 29 75 30 57 31 60 32 74 33 93 34
REMARK SMILES IDX 58 35 59 36 73 38 94 39 61 40 45 41 46 42 54 43 47 44 48 45
REMARK SMILES IDX 52 46 55 47 49 48 50 49 53 50 51 51 77 52 78 53 86 54 79 55
REMARK SMILES IDX 80 56 84 57 87 58 81 59 82 60 85 61 83 62 62 63 63 64 71 65
REMARK SMILES IDX 64 66 65 67 69 68 72 69 66 70 67 71 70 72 68 73 8 74 9 75
REMARK SMILES IDX 10 76 11 77 12 79 13 80 14 81 18 82 15 83 17 84 16 85 19 86
REMARK SMILES IDX 20 87 21 88 22 90 23 91 34 92 24 93 26 94 35 95 25 96 27 97
REMARK SMILES IDX 28 98 32 99 29 100 31 101 33 102 30 103
REMARK H PARENT 3 8 92 26 60 37 10 78 21 89
REMARK Flexibility Score: inf
ROOT
ATOM      1  C   UNL A   1      32.320  29.946  27.241  1.00  0.00     0.002 C 
ENDROOT
BRANCH   1   2
ATOM      2  C   UNL A   1      31.551  30.854  26.269  1.00  0.00     0.002 C 
BRANCH   2   3
ATOM      3  C   UNL A   1      31.448  32.322  26.688  1.00  0.00     0.021 C 
BRANCH   3   4
ATOM      4  C   UNL A   1      32.733  32.902  27.263  1.00  0.00     0.116 C 
BRANCH   4   5
ATOM      5  N   UNL A   1      32.549  34.277  27.698  1.00  0.00    -0.352 N 
ATOM      6  O   UNL A   1      32.642  36.003  29.146  1.00  0.00    -0.269 OA
ATOM      7  C   UNL A   1      33.097  34.927  28.773  1.00  0.00     0.251 C 
ATOM      8  H   UNL A   1      31.944  34.818  27.141  1.00  0.00     0.163 HD
BRANCH   7   9
ATOM      9  C   UNL A   1      34.244  34.327  29.484  1.00  0.00     0.039 A 
ATOM     10  C   UNL A   1      34.039  33.506  30.596  1.00  0.00     0.014 A 
ATOM     11  C   UNL A   1      35.536  34.547  28.998  1.00  0.00     0.014 A 
ATOM     12  C   UNL A   1      35.129  32.985  31.283  1.00  0.00     0.010 A 
ATOM     13  C   UNL A   1      36.625  33.959  29.641  1.00  0.00     0.010 A 
ATOM     14  C   UNL A   1      36.430  33.183  30.794  1.00  0.00    -0.014 A 
BRANCH  14  15
ATOM     15  C   UNL A   1      37.566  32.483  31.439  1.00  0.00     0.031 A 
ATOM     16  C   UNL A   1      38.033  32.862  32.812  1.00  0.00     0.074 A 
ATOM     17  C   UNL A   1      38.183  31.502  30.755  1.00  0.00     0.049 A 
ATOM     18  N   UNL A   1      39.026  32.368  33.507  1.00  0.00    -0.248 NA
ATOM     19  C   UNL A   1      37.299  33.940  33.491  1.00  0.00     0.031 C 
ATOM     20  C   UNL A   1      37.820  31.064  29.406  1.00  0.00     0.029 A 
ATOM     21  N   UNL A   1      39.239  30.693  31.093  1.00  0.00    -0.354 N 
ATOM     22  C   UNL A   1      39.049  33.085  34.696  1.00  0.00     0.074 A 
ATOM     23  C   UNL A   1      37.985  34.063  34.620  1.00  0.00     0.031 C 
ATOM     24  C   UNL A   1      38.614  30.049  29.043  1.00  0.00     0.029 A 
ATOM     25  C   UNL A   1      39.585  29.806  30.104  1.00  0.00     0.049 A 
ATOM     26  H   UNL A   1      39.703  30.745  31.959  1.00  0.00     0.167 HD
ATOM     27  C   UNL A   1      39.887  32.931  35.749  1.00  0.00     0.037 A 
ATOM     28  C   UNL A   1      40.588  28.911  30.044  1.00  0.00     0.037 A 
ATOM     29  C   UNL A   1      40.932  31.942  35.812  1.00  0.00     0.049 A 
ATOM     30  C   UNL A   1      41.517  28.778  31.214  1.00  0.00     0.074 A 
ATOM     31  C   UNL A   1      41.788  31.663  36.863  1.00  0.00     0.029 A 
ATOM     32  N   UNL A   1      41.272  31.078  34.780  1.00  0.00    -0.354 N 
ATOM     33  N   UNL A   1      41.503  29.428  32.352  1.00  0.00    -0.248 NA
ATOM     34  C   UNL A   1      42.604  27.799  31.093  1.00  0.00     0.031 C 
ATOM     35  C   UNL A   1      42.687  30.677  36.444  1.00  0.00     0.029 A 
ATOM     36  C   UNL A   1      42.352  30.294  35.155  1.00  0.00     0.049 A 
ATOM     37  H   UNL A   1      40.814  31.030  33.909  1.00  0.00     0.167 HD
ATOM     38  C   UNL A   1      42.567  28.933  33.089  1.00  0.00     0.074 A 
ATOM     39  C   UNL A   1      43.201  27.916  32.273  1.00  0.00     0.031 C 
ATOM     40  C   UNL A   1      42.978  29.291  34.329  1.00  0.00     0.037 A 
BRANCH  27  41
ATOM     41  C   UNL A   1      39.730  33.862  36.916  1.00  0.00     0.064 A 
ATOM     42  C   UNL A   1      38.918  33.500  38.003  1.00  0.00     0.173 A 
ATOM     43  C   UNL A   1      40.321  35.133  36.935  1.00  0.00     0.173 A 
ATOM     44  F   UNL A   1      38.325  32.298  38.035  1.00  0.00    -0.203 F 
ATOM     45  C   UNL A   1      38.695  34.381  39.058  1.00  0.00     0.198 A 
ATOM     46  C   UNL A   1      40.119  36.002  38.005  1.00  0.00     0.198 A 
ATOM     47  F   UNL A   1      41.117  35.523  35.928  1.00  0.00    -0.203 F 
ATOM     48  F   UNL A   1      37.892  34.024  40.070  1.00  0.00    -0.200 F 
ATOM     49  C   UNL A   1      39.300  35.629  39.060  1.00  0.00     0.200 A 
ATOM     50  F   UNL A   1      40.726  37.197  38.021  1.00  0.00    -0.200 F 
ATOM     51  F   UNL A   1      39.096  36.471  40.084  1.00  0.00    -0.200 F 
ENDBRANCH  27  41
BRANCH  28  52
ATOM     52  C   UNL A   1      40.736  28.082  28.822  1.00  0.00     0.064 A 
ATOM     53  C   UNL A   1      41.483  28.538  27.725  1.00  0.00     0.173 A 
ATOM     54  C   UNL A   1      40.057  26.865  28.691  1.00  0.00     0.173 A 
ATOM     55  F   UNL A   1      42.143  29.703  27.799  1.00  0.00    -0.203 F 
ATOM     56  C   UNL A   1      41.514  27.824  26.529  1.00  0.00     0.198 A 
ATOM     57  C   UNL A   1      40.110  26.139  27.503  1.00  0.00     0.198 A 
ATOM     58  F   UNL A   1      39.342  26.384  29.719  1.00  0.00    -0.203 F 
ATOM     59  F   UNL A   1      42.188  28.309  25.478  1.00  0.00    -0.200 F 
ATOM     60  C   UNL A   1      40.826  26.625  26.419  1.00  0.00     0.200 A 
ATOM     61  F   UNL A   1      39.458  24.972  27.404  1.00  0.00    -0.200 F 
ATOM     62  F   UNL A   1      40.850  25.942  25.267  1.00  0.00    -0.200 F 
ENDBRANCH  28  52
BRANCH  40  63
ATOM     63  C   UNL A   1      44.169  28.579  34.899  1.00  0.00     0.064 A 
ATOM     64  C   UNL A   1      44.003  27.397  35.638  1.00  0.00     0.173 A 
ATOM     65  C   UNL A   1      45.460  29.118  34.800  1.00  0.00     0.173 A 
ATOM     66  F   UNL A   1      42.787  26.847  35.767  1.00  0.00    -0.203 F 
ATOM     67  C   UNL A   1      45.083  26.795  36.276  1.00  0.00     0.198 A 
ATOM     68  C   UNL A   1      46.542  28.497  35.417  1.00  0.00     0.198 A 
ATOM     69  F   UNL A   1      45.670  30.239  34.092  1.00  0.00    -0.203 F 
ATOM     70  F   UNL A   1      44.892  25.692  37.013  1.00  0.00    -0.200 F 
ATOM     71  C   UNL A   1      46.351  27.345  36.166  1.00  0.00     0.200 A 
ATOM     72  F   UNL A   1      47.771  29.016  35.291  1.00  0.00    -0.200 F 
ATOM     73  F   UNL A   1      47.390  26.764  36.781  1.00  0.00    -0.200 F 
ENDBRANCH  40  63
ENDBRANCH  14  15
ENDBRANCH   7   9
ENDBRANCH   4   5
ENDBRANCH   3   4
ENDBRANCH   2   3
ENDBRANCH   1   2
BRANCH   1  74
ATOM     74  C   UNL A   1      33.679  29.443  26.740  1.00  0.00     0.021 C 
BRANCH  74  75
ATOM     75  C   UNL A   1      33.693  27.960  26.389  1.00  0.00     0.116 C 
BRANCH  75  76
ATOM     76  N   UNL A   1      32.431  27.315  26.678  1.00  0.00    -0.356 N 
ATOM     77  C   UNL A   1      31.417  26.798  25.955  1.00  0.00     0.224 C 
ATOM     78  H   UNL A   1      32.272  27.235  27.645  1.00  0.00     0.163 HD
ATOM     79  O   UNL A   1      30.508  26.313  26.648  1.00  0.00    -0.275 OA
BRANCH  77  80
ATOM     80  C   UNL A   1      31.287  26.714  24.428  1.00  0.00     0.095 C 
ATOM     81  C   UNL A   1      30.724  28.048  23.898  1.00  0.00     0.041 C 
ATOM     82  C   UNL A   1      32.423  26.169  23.550  1.00  0.00     0.095 C 
ATOM     83  C   UNL A   1      31.782  29.024  23.493  1.00  0.00    -0.030 C 
ATOM     84  C   UNL A   1      33.469  27.220  23.126  1.00  0.00     0.041 C 
ATOM     85  C   UNL A   1      33.019  28.648  23.155  1.00  0.00    -0.030 C 
BRANCH  82  86
ATOM     86  C   UNL A   1      31.819  25.495  22.319  1.00  0.00     0.224 C 
ATOM     87  O   UNL A   1      31.558  26.123  21.292  1.00  0.00    -0.275 OA
ATOM     88  N   UNL A   1      31.515  24.165  22.344  1.00  0.00    -0.344 N 
ATOM     89  H   UNL A   1      31.059  23.841  21.534  1.00  0.00     0.164 HD
BRANCH  88  90
ATOM     90  C   UNL A   1      31.746  23.129  23.357  1.00  0.00     0.172 C 
ATOM     91  C   UNL A   1      30.911  23.298  24.618  1.00  0.00     0.037 C 
ATOM     92  C   UNL A   1      33.255  22.875  23.567  1.00  0.00     0.249 C 
ATOM     93  C   UNL A   1      31.327  22.254  25.637  1.00  0.00     0.025 C 
ATOM     94  N   UNL A   1      33.690  22.583  24.864  1.00  0.00    -0.308 N 
ATOM     95  O   UNL A   1      34.005  22.857  22.586  1.00  0.00    -0.272 OA
ATOM     96  C   UNL A   1      32.785  22.462  26.011  1.00  0.00     0.126 C 
BRANCH  94  97
ATOM     97  C   UNL A   1      35.101  22.572  25.137  1.00  0.00     0.080 A 
ATOM     98  C   UNL A   1      35.817  21.369  25.168  1.00  0.00     0.029 A 
ATOM     99  C   UNL A   1      35.805  23.763  25.384  1.00  0.00     0.146 A 
ATOM    100  C   UNL A   1      37.200  21.371  25.397  1.00  0.00     0.002 A 
ATOM    101  C   UNL A   1      37.177  23.768  25.620  1.00  0.00     0.041 A 
ATOM    102  F   UNL A   1      35.150  24.928  25.508  1.00  0.00    -0.205 F 
ATOM    103  C   UNL A   1      37.880  22.568  25.618  1.00  0.00     0.003 A 
ENDBRANCH  94  97
ENDBRANCH  88  90
ENDBRANCH  82  86
ENDBRANCH  77  80
ENDBRANCH  75  76
ENDBRANCH  74  75
ENDBRANCH   1  74
TORSDOF 16
ENDMDL
