MODEL 1
REMARK VINA RESULT:     -12.7      0.000      0.000
REMARK SMILES CC(C)N1C(=O)c2ccccc2N2C(=O)CC[C@]21C(=O)NCCCCCCNC(=O)c1ccc(-c2c3nc(c(-c4c(F)c(F)c(F)c(F)c4F)c4ccc([nH]4)c(-c4c(F)c(F)c(F)c(F)c4F)c4nc(c(-c5c(F)c(F)c(F)c(F)c5F)c5ccc2[nH]5)C=C4)C=C3)cc1
REMARK SMILES IDX 25 1 24 2 23 3 22 4 21 5 19 6 20 7 18 9 4 10 5 11 7 12 6 13
REMARK SMILES IDX 13 14 17 15 8 16 12 17 14 18 16 19 9 20 11 21 15 22 10 23
REMARK SMILES IDX 2 24 1 25 3 26 26 27 27 28 28 29 29 30 30 32 31 33 32 34
REMARK SMILES IDX 93 35 33 36 92 37 34 38 35 39 36 40 86 41 37 42 91 43 85 44
REMARK SMILES IDX 87 45 38 46 90 47 84 48 83 49 39 51 71 52 51 53 70 54 52 55
REMARK SMILES IDX 55 56 69 57 88 58 53 59 54 60 68 62 89 63 56 64 40 65 41 66
REMARK SMILES IDX 49 67 42 68 43 69 47 70 50 71 44 72 45 73 48 74 46 75 72 76
REMARK SMILES IDX 73 77 81 78 74 79 75 80 79 81 82 82 76 83 77 84 80 85 78 86
REMARK SMILES IDX 57 87 58 88 66 89 59 90 60 91 64 92 67 93 61 94 62 95 65 96
REMARK SMILES IDX 63 97
REMARK H PARENT 21 8 28 31 87 50 55 61
REMARK Flexibility Score: inf
ROOT
ATOM      1  C   UNL A   1      33.818  28.203  24.104  1.00  0.00     0.002 C 
ENDROOT
BRANCH   1   2
ATOM      2  C   UNL A   1      33.490  27.511  22.776  1.00  0.00     0.002 C 
BRANCH   2   3
ATOM      3  C   UNL A   1      32.054  27.003  22.603  1.00  0.00     0.021 C 
BRANCH   3   4
ATOM      4  C   UNL A   1      31.897  25.492  22.478  1.00  0.00     0.116 C 
BRANCH   4   5
ATOM      5  N   UNL A   1      33.131  24.808  22.159  1.00  0.00    -0.352 N 
ATOM      6  C   UNL A   1      33.693  23.690  22.714  1.00  0.00     0.267 C 
ATOM      7  O   UNL A   1      34.594  23.161  22.054  1.00  0.00    -0.270 OA
ATOM      8  H   UNL A   1      33.649  25.212  21.426  1.00  0.00     0.163 HD
BRANCH   6   9
ATOM      9  C   UNL A   1      33.156  23.055  24.082  1.00  0.00     0.203 C 
ATOM     10  N   UNL A   1      33.086  24.115  25.109  1.00  0.00    -0.304 N 
ATOM     11  C   UNL A   1      34.314  24.620  25.563  1.00  0.00     0.258 C 
ATOM     12  C   UNL A   1      35.499  23.727  25.451  1.00  0.00     0.064 A 
ATOM     13  O   UNL A   1      34.444  25.702  26.125  1.00  0.00    -0.269 OA
ATOM     14  N   UNL A   1      34.070  22.016  24.526  1.00  0.00    -0.279 N 
ATOM     15  C   UNL A   1      31.867  22.278  23.744  1.00  0.00     0.072 C 
ATOM     16  C   UNL A   1      36.745  24.178  25.908  1.00  0.00     0.016 A 
ATOM     17  C   UNL A   1      35.326  22.398  25.043  1.00  0.00     0.059 A 
ATOM     18  C   UNL A   1      33.643  20.733  24.221  1.00  0.00     0.229 C 
ATOM     19  C   UNL A   1      32.301  20.832  23.551  1.00  0.00     0.105 C 
ATOM     20  C   UNL A   1      37.826  23.300  25.964  1.00  0.00     0.001 A 
ATOM     21  C   UNL A   1      36.412  21.521  25.126  1.00  0.00     0.027 A 
ATOM     22  O   UNL A   1      34.193  19.671  24.439  1.00  0.00    -0.274 OA
ATOM     23  C   UNL A   1      37.656  21.972  25.581  1.00  0.00     0.002 A 
BRANCH  10  24
ATOM     24  C   UNL A   1      31.867  24.348  25.918  1.00  0.00     0.082 C 
ATOM     25  C   UNL A   1      31.930  23.558  27.232  1.00  0.00     0.031 C 
ATOM     26  C   UNL A   1      31.549  25.815  26.235  1.00  0.00     0.031 C 
ENDBRANCH  10  24
ENDBRANCH   6   9
ENDBRANCH   4   5
ENDBRANCH   3   4
ENDBRANCH   2   3
ENDBRANCH   1   2
BRANCH   1  27
ATOM     27  C   UNL A   1      32.867  29.320  24.537  1.00  0.00     0.021 C 
BRANCH  27  28
ATOM     28  C   UNL A   1      32.650  29.457  26.039  1.00  0.00     0.116 C 
BRANCH  28  29
ATOM     29  N   UNL A   1      32.374  30.821  26.464  1.00  0.00    -0.352 N 
ATOM     30  C   UNL A   1      33.152  31.667  27.221  1.00  0.00     0.251 C 
ATOM     31  H   UNL A   1      31.510  31.189  26.170  1.00  0.00     0.163 HD
ATOM     32  O   UNL A   1      32.724  32.760  27.576  1.00  0.00    -0.269 OA
BRANCH  30  33
ATOM     33  C   UNL A   1      34.498  31.228  27.653  1.00  0.00     0.039 A 
ATOM     34  C   UNL A   1      34.745  29.891  27.968  1.00  0.00     0.014 A 
ATOM     35  C   UNL A   1      35.508  32.185  27.800  1.00  0.00     0.014 A 
ATOM     36  C   UNL A   1      35.935  29.544  28.601  1.00  0.00     0.010 A 
ATOM     37  C   UNL A   1      36.733  31.817  28.365  1.00  0.00     0.010 A 
ATOM     38  C   UNL A   1      36.932  30.507  28.828  1.00  0.00    -0.014 A 
BRANCH  38  39
ATOM     39  C   UNL A   1      38.152  30.130  29.589  1.00  0.00     0.031 A 
ATOM     40  C   UNL A   1      38.356  30.617  31.000  1.00  0.00     0.074 A 
ATOM     41  C   UNL A   1      39.046  29.288  29.036  1.00  0.00     0.049 A 
ATOM     42  N   UNL A   1      39.339  30.363  31.829  1.00  0.00    -0.248 NA
ATOM     43  C   UNL A   1      37.325  31.507  31.556  1.00  0.00     0.031 C 
ATOM     44  C   UNL A   1      38.953  28.734  27.685  1.00  0.00     0.029 A 
ATOM     45  N   UNL A   1      40.189  28.728  29.549  1.00  0.00    -0.354 N 
ATOM     46  C   UNL A   1      39.054  31.072  32.988  1.00  0.00     0.074 A 
ATOM     47  C   UNL A   1      37.819  31.789  32.754  1.00  0.00     0.031 C 
ATOM     48  C   UNL A   1      39.964  27.874  27.494  1.00  0.00     0.029 A 
ATOM     49  C   UNL A   1      40.805  27.855  28.687  1.00  0.00     0.049 A 
ATOM     50  H   UNL A   1      40.533  28.933  30.448  1.00  0.00     0.167 HD
ATOM     51  C   UNL A   1      39.750  31.109  34.149  1.00  0.00     0.037 A 
ATOM     52  C   UNL A   1      41.927  27.126  28.837  1.00  0.00     0.037 A 
ATOM     53  C   UNL A   1      40.962  30.373  34.398  1.00  0.00     0.049 A 
ATOM     54  C   UNL A   1      42.698  27.213  30.122  1.00  0.00     0.074 A 
ATOM     55  C   UNL A   1      41.723  30.328  35.554  1.00  0.00     0.029 A 
ATOM     56  N   UNL A   1      41.589  29.550  33.475  1.00  0.00    -0.354 N 
ATOM     57  N   UNL A   1      42.415  27.886  31.210  1.00  0.00    -0.248 NA
ATOM     58  C   UNL A   1      43.953  26.451  30.195  1.00  0.00     0.031 C 
ATOM     59  C   UNL A   1      42.828  29.505  35.319  1.00  0.00     0.029 A 
ATOM     60  C   UNL A   1      42.737  29.007  34.030  1.00  0.00     0.049 A 
ATOM     61  H   UNL A   1      41.267  29.376  32.561  1.00  0.00     0.167 HD
ATOM     62  C   UNL A   1      43.450  27.627  32.097  1.00  0.00     0.074 A 
ATOM     63  C   UNL A   1      44.357  26.716  31.430  1.00  0.00     0.031 C 
ATOM     64  C   UNL A   1      43.633  28.108  33.351  1.00  0.00     0.037 A 
BRANCH  51  65
ATOM     65  C   UNL A   1      39.225  31.979  35.254  1.00  0.00     0.064 A 
ATOM     66  C   UNL A   1      38.438  31.454  36.288  1.00  0.00     0.173 A 
ATOM     67  C   UNL A   1      39.573  33.336  35.316  1.00  0.00     0.173 A 
ATOM     68  F   UNL A   1      38.069  30.164  36.268  1.00  0.00    -0.203 F 
ATOM     69  C   UNL A   1      38.007  32.260  37.340  1.00  0.00     0.198 A 
ATOM     70  C   UNL A   1      39.160  34.134  36.379  1.00  0.00     0.198 A 
ATOM     71  F   UNL A   1      40.330  33.885  34.353  1.00  0.00    -0.203 F 
ATOM     72  F   UNL A   1      37.232  31.744  38.303  1.00  0.00    -0.200 F 
ATOM     73  C   UNL A   1      38.376  33.597  37.389  1.00  0.00     0.200 A 
ATOM     74  F   UNL A   1      39.525  35.423  36.430  1.00  0.00    -0.200 F 
ATOM     75  F   UNL A   1      37.971  34.367  38.407  1.00  0.00    -0.200 F 
ENDBRANCH  51  65
BRANCH  52  76
ATOM     76  C   UNL A   1      42.375  26.242  27.731  1.00  0.00     0.064 A 
ATOM     77  C   UNL A   1      41.795  24.981  27.541  1.00  0.00     0.173 A 
ATOM     78  C   UNL A   1      43.363  26.654  26.825  1.00  0.00     0.173 A 
ATOM     79  F   UNL A   1      40.860  24.538  28.395  1.00  0.00    -0.203 F 
ATOM     80  C   UNL A   1      42.187  24.164  26.484  1.00  0.00     0.198 A 
ATOM     81  C   UNL A   1      43.737  25.846  25.755  1.00  0.00     0.198 A 
ATOM     82  F   UNL A   1      43.944  27.853  26.967  1.00  0.00    -0.203 F 
ATOM     83  F   UNL A   1      41.634  22.952  26.336  1.00  0.00    -0.200 F 
ATOM     84  C   UNL A   1      43.150  24.600  25.586  1.00  0.00     0.200 A 
ATOM     85  F   UNL A   1      44.656  26.278  24.882  1.00  0.00    -0.200 F 
ATOM     86  F   UNL A   1      43.516  23.819  24.560  1.00  0.00    -0.200 F 
ENDBRANCH  52  76
BRANCH  64  87
ATOM     87  C   UNL A   1      44.860  27.661  34.088  1.00  0.00     0.064 A 
ATOM     88  C   UNL A   1      44.860  26.487  34.853  1.00  0.00     0.173 A 
ATOM     89  C   UNL A   1      46.060  28.377  33.974  1.00  0.00     0.173 A 
ATOM     90  F   UNL A   1      43.732  25.777  35.001  1.00  0.00    -0.203 F 
ATOM     91  C   UNL A   1      46.019  26.051  35.492  1.00  0.00     0.198 A 
ATOM     92  C   UNL A   1      47.222  27.927  34.596  1.00  0.00     0.198 A 
ATOM     93  F   UNL A   1      46.110  29.503  33.247  1.00  0.00    -0.203 F 
ATOM     94  F   UNL A   1      45.991  24.943  36.244  1.00  0.00    -0.200 F 
ATOM     95  C   UNL A   1      47.199  26.767  35.355  1.00  0.00     0.200 A 
ATOM     96  F   UNL A   1      48.365  28.613  34.455  1.00  0.00    -0.200 F 
ATOM     97  F   UNL A   1      48.316  26.340  35.961  1.00  0.00    -0.200 F 
ENDBRANCH  64  87
ENDBRANCH  38  39
ENDBRANCH  30  33
ENDBRANCH  28  29
ENDBRANCH  27  28
ENDBRANCH   1  27
TORSDOF 14
ENDMDL
MODEL 2
REMARK VINA RESULT:     -12.6      3.890      9.355
REMARK SMILES CC(C)N1C(=O)c2ccccc2N2C(=O)CC[C@]21C(=O)NCCCCCCNC(=O)c1ccc(-c2c3nc(c(-c4c(F)c(F)c(F)c(F)c4F)c4ccc([nH]4)c(-c4c(F)c(F)c(F)c(F)c4F)c4nc(c(-c5c(F)c(F)c(F)c(F)c5F)c5ccc2[nH]5)C=C4)C=C3)cc1
REMARK SMILES IDX 25 1 24 2 23 3 22 4 21 5 19 6 20 7 18 9 4 10 5 11 7 12 6 13
REMARK SMILES IDX 13 14 17 15 8 16 12 17 14 18 16 19 9 20 11 21 15 22 10 23
REMARK SMILES IDX 2 24 1 25 3 26 26 27 27 28 28 29 29 30 30 32 31 33 32 34
REMARK SMILES IDX 93 35 33 36 92 37 34 38 35 39 36 40 86 41 37 42 91 43 85 44
REMARK SMILES IDX 87 45 38 46 90 47 84 48 83 49 39 51 71 52 51 53 70 54 52 55
REMARK SMILES IDX 55 56 69 57 88 58 53 59 54 60 68 62 89 63 56 64 40 65 41 66
REMARK SMILES IDX 49 67 42 68 43 69 47 70 50 71 44 72 45 73 48 74 46 75 72 76
REMARK SMILES IDX 73 77 81 78 74 79 75 80 79 81 82 82 76 83 77 84 80 85 78 86
REMARK SMILES IDX 57 87 58 88 66 89 59 90 60 91 64 92 67 93 61 94 62 95 65 96
REMARK SMILES IDX 63 97
REMARK H PARENT 21 8 28 31 87 50 55 61
REMARK Flexibility Score: inf
ROOT
ATOM      1  C   UNL A   1      34.735  22.744  27.001  1.00  0.00     0.002 C 
ENDROOT
BRANCH   1   2
ATOM      2  C   UNL A   1      33.221  22.987  27.022  1.00  0.00     0.002 C 
BRANCH   2   3
ATOM      3  C   UNL A   1      32.413  22.382  25.868  1.00  0.00     0.021 C 
BRANCH   3   4
ATOM      4  C   UNL A   1      31.145  23.135  25.482  1.00  0.00     0.116 C 
BRANCH   4   5
ATOM      5  N   UNL A   1      30.883  24.289  26.315  1.00  0.00    -0.352 N 
ATOM      6  C   UNL A   1      30.805  25.616  25.990  1.00  0.00     0.267 C 
ATOM      7  O   UNL A   1      30.278  26.344  26.840  1.00  0.00    -0.270 OA
ATOM      8  H   UNL A   1      30.737  24.086  27.267  1.00  0.00     0.163 HD
BRANCH   6   9
ATOM      9  C   UNL A   1      31.279  26.177  24.568  1.00  0.00     0.203 C 
ATOM     10  N   UNL A   1      32.653  25.702  24.298  1.00  0.00    -0.304 N 
ATOM     11  C   UNL A   1      33.666  26.246  25.102  1.00  0.00     0.258 C 
ATOM     12  C   UNL A   1      33.412  27.585  25.701  1.00  0.00     0.064 A 
ATOM     13  O   UNL A   1      34.768  25.731  25.260  1.00  0.00    -0.269 OA
ATOM     14  N   UNL A   1      31.269  27.629  24.590  1.00  0.00    -0.279 N 
ATOM     15  C   UNL A   1      30.173  25.825  23.553  1.00  0.00     0.072 C 
ATOM     16  C   UNL A   1      34.400  28.180  26.497  1.00  0.00     0.016 A 
ATOM     17  C   UNL A   1      32.264  28.299  25.333  1.00  0.00     0.059 A 
ATOM     18  C   UNL A   1      30.148  28.186  23.995  1.00  0.00     0.229 C 
ATOM     19  C   UNL A   1      29.301  27.069  23.455  1.00  0.00     0.105 C 
ATOM     20  C   UNL A   1      34.249  29.498  26.926  1.00  0.00     0.001 A 
ATOM     21  C   UNL A   1      32.135  29.627  25.751  1.00  0.00     0.027 A 
ATOM     22  O   UNL A   1      29.845  29.357  23.879  1.00  0.00    -0.274 OA
ATOM     23  C   UNL A   1      33.121  30.221  26.546  1.00  0.00     0.002 A 
BRANCH  10  24
ATOM     24  C   UNL A   1      33.020  25.038  23.026  1.00  0.00     0.082 C 
ATOM     25  C   UNL A   1      33.520  26.066  22.004  1.00  0.00     0.031 C 
ATOM     26  C   UNL A   1      34.053  23.908  23.140  1.00  0.00     0.031 C 
ENDBRANCH  10  24
ENDBRANCH   6   9
ENDBRANCH   4   5
ENDBRANCH   3   4
ENDBRANCH   2   3
ENDBRANCH   1   2
BRANCH   1  27
ATOM     27  C   UNL A   1      35.246  21.752  25.956  1.00  0.00     0.021 C 
BRANCH  27  28
ATOM     28  C   UNL A   1      36.556  22.127  25.275  1.00  0.00     0.116 C 
BRANCH  28  29
ATOM     29  N   UNL A   1      37.568  21.085  25.349  1.00  0.00    -0.352 N 
ATOM     30  C   UNL A   1      38.846  21.151  25.858  1.00  0.00     0.251 C 
ATOM     31  H   UNL A   1      37.303  20.210  24.983  1.00  0.00     0.163 HD
ATOM     32  O   UNL A   1      39.612  20.199  25.753  1.00  0.00    -0.269 OA
BRANCH  30  33
ATOM     33  C   UNL A   1      39.313  22.405  26.493  1.00  0.00     0.039 A 
ATOM     34  C   UNL A   1      38.743  23.632  26.150  1.00  0.00     0.014 A 
ATOM     35  C   UNL A   1      40.376  22.350  27.400  1.00  0.00     0.014 A 
ATOM     36  C   UNL A   1      39.353  24.812  26.567  1.00  0.00     0.010 A 
ATOM     37  C   UNL A   1      40.938  23.537  27.880  1.00  0.00     0.010 A 
ATOM     38  C   UNL A   1      40.471  24.777  27.417  1.00  0.00    -0.014 A 
BRANCH  38  39
ATOM     39  C   UNL A   1      41.159  26.046  27.770  1.00  0.00     0.031 A 
ATOM     40  C   UNL A   1      42.562  26.317  27.292  1.00  0.00     0.074 A 
ATOM     41  C   UNL A   1      40.495  26.990  28.464  1.00  0.00     0.049 A 
ATOM     42  N   UNL A   1      43.307  27.380  27.471  1.00  0.00    -0.248 NA
ATOM     43  C   UNL A   1      43.218  25.257  26.509  1.00  0.00     0.031 C 
ATOM     44  C   UNL A   1      39.129  26.855  28.970  1.00  0.00     0.029 A 
ATOM     45  N   UNL A   1      40.866  28.257  28.838  1.00  0.00    -0.354 N 
ATOM     46  C   UNL A   1      44.516  27.110  26.845  1.00  0.00     0.074 A 
ATOM     47  C   UNL A   1      44.421  25.774  26.299  1.00  0.00     0.031 C 
ATOM     48  C   UNL A   1      38.757  28.011  29.539  1.00  0.00     0.029 A 
ATOM     49  C   UNL A   1      39.875  28.949  29.489  1.00  0.00     0.049 A 
ATOM     50  H   UNL A   1      41.758  28.634  28.657  1.00  0.00     0.167 HD
ATOM     51  C   UNL A   1      45.602  27.910  26.722  1.00  0.00     0.037 A 
ATOM     52  C   UNL A   1      39.867  30.197  29.993  1.00  0.00     0.037 A 
ATOM     53  C   UNL A   1      45.690  29.251  27.236  1.00  0.00     0.049 A 
ATOM     54  C   UNL A   1      41.097  31.049  29.874  1.00  0.00     0.074 A 
ATOM     55  C   UNL A   1      46.741  30.147  27.136  1.00  0.00     0.029 A 
ATOM     56  N   UNL A   1      44.685  29.892  27.947  1.00  0.00    -0.354 N 
ATOM     57  N   UNL A   1      42.232  30.781  29.276  1.00  0.00    -0.248 NA
ATOM     58  C   UNL A   1      41.051  32.373  30.510  1.00  0.00     0.031 C 
ATOM     59  C   UNL A   1      46.386  31.316  27.815  1.00  0.00     0.029 A 
ATOM     60  C   UNL A   1      45.099  31.164  28.305  1.00  0.00     0.049 A 
ATOM     61  H   UNL A   1      43.808  29.500  28.163  1.00  0.00     0.167 HD
ATOM     62  C   UNL A   1      43.032  31.899  29.460  1.00  0.00     0.074 A 
ATOM     63  C   UNL A   1      42.246  32.860  30.205  1.00  0.00     0.031 C 
ATOM     64  C   UNL A   1      44.308  32.106  29.053  1.00  0.00     0.037 A 
BRANCH  51  65
ATOM     65  C   UNL A   1      46.799  27.361  26.002  1.00  0.00     0.064 A 
ATOM     66  C   UNL A   1      46.982  27.563  24.627  1.00  0.00     0.173 A 
ATOM     67  C   UNL A   1      47.807  26.687  26.708  1.00  0.00     0.173 A 
ATOM     68  F   UNL A   1      46.042  28.191  23.905  1.00  0.00    -0.203 F 
ATOM     69  C   UNL A   1      48.128  27.100  23.982  1.00  0.00     0.198 A 
ATOM     70  C   UNL A   1      48.960  26.246  26.065  1.00  0.00     0.198 A 
ATOM     71  F   UNL A   1      47.681  26.474  28.027  1.00  0.00    -0.203 F 
ATOM     72  F   UNL A   1      48.269  27.279  22.661  1.00  0.00    -0.200 F 
ATOM     73  C   UNL A   1      49.119  26.450  24.703  1.00  0.00     0.200 A 
ATOM     74  F   UNL A   1      49.921  25.627  26.766  1.00  0.00    -0.200 F 
ATOM     75  F   UNL A   1      50.224  26.017  24.083  1.00  0.00    -0.200 F 
ENDBRANCH  51  65
BRANCH  52  76
ATOM     76  C   UNL A   1      38.639  30.709  30.652  1.00  0.00     0.064 A 
ATOM     77  C   UNL A   1      37.561  31.181  29.891  1.00  0.00     0.173 A 
ATOM     78  C   UNL A   1      38.505  30.705  32.048  1.00  0.00     0.173 A 
ATOM     79  F   UNL A   1      37.653  31.223  28.554  1.00  0.00    -0.203 F 
ATOM     80  C   UNL A   1      36.393  31.629  30.504  1.00  0.00     0.198 A 
ATOM     81  C   UNL A   1      37.328  31.130  32.658  1.00  0.00     0.198 A 
ATOM     82  F   UNL A   1      39.510  30.260  32.816  1.00  0.00    -0.203 F 
ATOM     83  F   UNL A   1      35.385  32.098  29.756  1.00  0.00    -0.200 F 
ATOM     84  C   UNL A   1      36.274  31.595  31.885  1.00  0.00     0.200 A 
ATOM     85  F   UNL A   1      37.212  31.081  33.991  1.00  0.00    -0.200 F 
ATOM     86  F   UNL A   1      35.144  32.012  32.473  1.00  0.00    -0.200 F 
ENDBRANCH  52  76
BRANCH  64  87
ATOM     87  C   UNL A   1      44.938  33.421  29.402  1.00  0.00     0.064 A 
ATOM     88  C   UNL A   1      45.718  33.568  30.558  1.00  0.00     0.173 A 
ATOM     89  C   UNL A   1      44.815  34.522  28.542  1.00  0.00     0.173 A 
ATOM     90  F   UNL A   1      45.852  32.547  31.416  1.00  0.00    -0.203 F 
ATOM     91  C   UNL A   1      46.342  34.779  30.848  1.00  0.00     0.198 A 
ATOM     92  C   UNL A   1      45.460  35.723  28.824  1.00  0.00     0.198 A 
ATOM     93  F   UNL A   1      44.085  34.426  27.421  1.00  0.00    -0.203 F 
ATOM     94  F   UNL A   1      47.058  34.909  31.973  1.00  0.00    -0.200 F 
ATOM     95  C   UNL A   1      46.219  35.851  29.977  1.00  0.00     0.200 A 
ATOM     96  F   UNL A   1      45.350  36.756  27.977  1.00  0.00    -0.200 F 
ATOM     97  F   UNL A   1      46.831  37.012  30.252  1.00  0.00    -0.200 F 
ENDBRANCH  64  87
ENDBRANCH  38  39
ENDBRANCH  30  33
ENDBRANCH  28  29
ENDBRANCH  27  28
ENDBRANCH   1  27
TORSDOF 14
ENDMDL
MODEL 3
REMARK VINA RESULT:     -12.5      0.294      7.063
REMARK SMILES CC(C)N1C(=O)c2ccccc2N2C(=O)CC[C@]21C(=O)NCCCCCCNC(=O)c1ccc(-c2c3nc(c(-c4c(F)c(F)c(F)c(F)c4F)c4ccc([nH]4)c(-c4c(F)c(F)c(F)c(F)c4F)c4nc(c(-c5c(F)c(F)c(F)c(F)c5F)c5ccc2[nH]5)C=C4)C=C3)cc1
REMARK SMILES IDX 25 1 24 2 23 3 22 4 21 5 19 6 20 7 18 9 4 10 5 11 7 12 6 13
REMARK SMILES IDX 13 14 17 15 8 16 12 17 14 18 16 19 9 20 11 21 15 22 10 23
REMARK SMILES IDX 2 24 1 25 3 26 26 27 27 28 28 29 29 30 30 32 31 33 32 34
REMARK SMILES IDX 93 35 33 36 92 37 34 38 35 39 36 40 86 41 37 42 91 43 85 44
REMARK SMILES IDX 87 45 38 46 90 47 84 48 83 49 39 51 71 52 51 53 70 54 52 55
REMARK SMILES IDX 55 56 69 57 88 58 53 59 54 60 68 62 89 63 56 64 40 65 41 66
REMARK SMILES IDX 49 67 42 68 43 69 47 70 50 71 44 72 45 73 48 74 46 75 72 76
REMARK SMILES IDX 73 77 81 78 74 79 75 80 79 81 82 82 76 83 77 84 80 85 78 86
REMARK SMILES IDX 57 87 58 88 66 89 59 90 60 91 64 92 67 93 61 94 62 95 65 96
REMARK SMILES IDX 63 97
REMARK H PARENT 21 8 28 31 87 50 55 61
REMARK Flexibility Score: inf
ROOT
ATOM      1  C   UNL A   1      33.722  28.096  23.806  1.00  0.00     0.002 C 
ENDROOT
BRANCH   1   2
ATOM      2  C   UNL A   1      33.396  27.612  22.388  1.00  0.00     0.002 C 
BRANCH   2   3
ATOM      3  C   UNL A   1      32.032  26.942  22.188  1.00  0.00     0.021 C 
BRANCH   3   4
ATOM      4  C   UNL A   1      31.977  25.449  22.487  1.00  0.00     0.116 C 
BRANCH   4   5
ATOM      5  N   UNL A   1      33.206  24.752  22.172  1.00  0.00    -0.352 N 
ATOM      6  C   UNL A   1      33.761  23.636  22.738  1.00  0.00     0.267 C 
ATOM      7  O   UNL A   1      34.656  23.093  22.080  1.00  0.00    -0.270 OA
ATOM      8  H   UNL A   1      33.724  25.143  21.432  1.00  0.00     0.163 HD
BRANCH   6   9
ATOM      9  C   UNL A   1      33.226  23.021  24.115  1.00  0.00     0.203 C 
ATOM     10  N   UNL A   1      33.172  24.093  25.132  1.00  0.00    -0.304 N 
ATOM     11  C   UNL A   1      34.408  24.590  25.574  1.00  0.00     0.258 C 
ATOM     12  C   UNL A   1      35.584  23.684  25.464  1.00  0.00     0.064 A 
ATOM     13  O   UNL A   1      34.552  25.677  26.123  1.00  0.00    -0.269 OA
ATOM     14  N   UNL A   1      34.132  21.978  24.565  1.00  0.00    -0.279 N 
ATOM     15  C   UNL A   1      31.927  22.255  23.793  1.00  0.00     0.072 C 
ATOM     16  C   UNL A   1      36.837  24.128  25.909  1.00  0.00     0.016 A 
ATOM     17  C   UNL A   1      35.394  22.353  25.071  1.00  0.00     0.059 A 
ATOM     18  C   UNL A   1      33.690  20.696  24.277  1.00  0.00     0.229 C 
ATOM     19  C   UNL A   1      32.346  20.802  23.613  1.00  0.00     0.105 C 
ATOM     20  C   UNL A   1      37.908  23.239  25.970  1.00  0.00     0.001 A 
ATOM     21  C   UNL A   1      36.472  21.466  25.158  1.00  0.00     0.027 A 
ATOM     22  O   UNL A   1      34.230  19.631  24.503  1.00  0.00    -0.274 OA
ATOM     23  C   UNL A   1      37.723  21.909  25.602  1.00  0.00     0.002 A 
BRANCH  10  24
ATOM     24  C   UNL A   1      31.960  24.347  25.944  1.00  0.00     0.082 C 
ATOM     25  C   UNL A   1      32.012  23.553  27.256  1.00  0.00     0.031 C 
ATOM     26  C   UNL A   1      31.671  25.820  26.265  1.00  0.00     0.031 C 
ENDBRANCH  10  24
ENDBRANCH   6   9
ENDBRANCH   4   5
ENDBRANCH   3   4
ENDBRANCH   2   3
ENDBRANCH   1   2
BRANCH   1  27
ATOM     27  C   UNL A   1      32.890  29.267  24.329  1.00  0.00     0.021 C 
BRANCH  27  28
ATOM     28  C   UNL A   1      32.827  29.407  25.845  1.00  0.00     0.116 C 
BRANCH  28  29
ATOM     29  N   UNL A   1      32.539  30.761  26.292  1.00  0.00    -0.352 N 
ATOM     30  C   UNL A   1      33.268  31.570  27.135  1.00  0.00     0.251 C 
ATOM     31  H   UNL A   1      31.707  31.154  25.942  1.00  0.00     0.163 HD
ATOM     32  O   UNL A   1      32.830  32.658  27.491  1.00  0.00    -0.269 OA
BRANCH  30  33
ATOM     33  C   UNL A   1      34.569  31.093  27.657  1.00  0.00     0.039 A 
ATOM     34  C   UNL A   1      34.756  29.749  27.986  1.00  0.00     0.014 A 
ATOM     35  C   UNL A   1      35.593  32.020  27.873  1.00  0.00     0.014 A 
ATOM     36  C   UNL A   1      35.890  29.369  28.698  1.00  0.00     0.010 A 
ATOM     37  C   UNL A   1      36.766  31.618  28.519  1.00  0.00     0.010 A 
ATOM     38  C   UNL A   1      36.896  30.303  28.993  1.00  0.00    -0.014 A 
BRANCH  38  39
ATOM     39  C   UNL A   1      38.050  29.893  29.835  1.00  0.00     0.031 A 
ATOM     40  C   UNL A   1      39.119  28.986  29.282  1.00  0.00     0.074 A 
ATOM     41  C   UNL A   1      38.175  30.394  31.079  1.00  0.00     0.049 A 
ATOM     42  N   UNL A   1      40.214  28.552  29.856  1.00  0.00    -0.248 NA
ATOM     43  C   UNL A   1      38.938  28.501  27.905  1.00  0.00     0.031 C 
ATOM     44  C   UNL A   1      37.217  31.293  31.722  1.00  0.00     0.029 A 
ATOM     45  N   UNL A   1      39.171  30.244  32.011  1.00  0.00    -0.354 N 
ATOM     46  C   UNL A   1      40.837  27.734  28.923  1.00  0.00     0.074 A 
ATOM     47  C   UNL A   1      39.989  27.709  27.750  1.00  0.00     0.031 C 
ATOM     48  C   UNL A   1      37.696  31.658  32.920  1.00  0.00     0.029 A 
ATOM     49  C   UNL A   1      38.966  30.978  33.153  1.00  0.00     0.049 A 
ATOM     50  H   UNL A   1      39.957  29.666  31.874  1.00  0.00     0.167 HD
ATOM     51  C   UNL A   1      42.016  27.077  29.028  1.00  0.00     0.037 A 
ATOM     52  C   UNL A   1      39.715  31.086  34.267  1.00  0.00     0.037 A 
ATOM     53  C   UNL A   1      42.877  27.124  30.180  1.00  0.00     0.049 A 
ATOM     54  C   UNL A   1      41.000  30.318  34.371  1.00  0.00     0.074 A 
ATOM     55  C   UNL A   1      44.105  26.511  30.366  1.00  0.00     0.029 A 
ATOM     56  N   UNL A   1      42.601  27.828  31.343  1.00  0.00    -0.354 N 
ATOM     57  N   UNL A   1      41.577  29.551  33.479  1.00  0.00    -0.248 NA
ATOM     58  C   UNL A   1      41.733  30.420  35.641  1.00  0.00     0.031 C 
ATOM     59  C   UNL A   1      44.555  26.816  31.654  1.00  0.00     0.029 A 
ATOM     60  C   UNL A   1      43.627  27.650  32.257  1.00  0.00     0.049 A 
ATOM     61  H   UNL A   1      41.796  28.374  31.496  1.00  0.00     0.167 HD
ATOM     62  C   UNL A   1      42.739  29.082  34.075  1.00  0.00     0.074 A 
ATOM     63  C   UNL A   1      42.799  29.670  35.397  1.00  0.00     0.031 C 
ATOM     64  C   UNL A   1      43.669  28.235  33.571  1.00  0.00     0.037 A 
BRANCH  51  65
ATOM     65  C   UNL A   1      42.457  26.238  27.864  1.00  0.00     0.064 A 
ATOM     66  C   UNL A   1      41.948  24.948  27.656  1.00  0.00     0.173 A 
ATOM     67  C   UNL A   1      43.343  26.757  26.908  1.00  0.00     0.173 A 
ATOM     68  F   UNL A   1      41.106  24.402  28.547  1.00  0.00    -0.203 F 
ATOM     69  C   UNL A   1      42.320  24.204  26.539  1.00  0.00     0.198 A 
ATOM     70  C   UNL A   1      43.695  26.020  25.782  1.00  0.00     0.198 A 
ATOM     71  F   UNL A   1      43.853  27.989  27.059  1.00  0.00    -0.203 F 
ATOM     72  F   UNL A   1      41.843  22.962  26.375  1.00  0.00    -0.200 F 
ATOM     73  C   UNL A   1      43.186  24.743  25.599  1.00  0.00     0.200 A 
ATOM     74  F   UNL A   1      44.524  26.546  24.869  1.00  0.00    -0.200 F 
ATOM     75  F   UNL A   1      43.532  24.030  24.519  1.00  0.00    -0.200 F 
ENDBRANCH  51  65
BRANCH  52  76
ATOM     76  C   UNL A   1      39.257  31.969  35.369  1.00  0.00     0.064 A 
ATOM     77  C   UNL A   1      38.461  31.468  36.408  1.00  0.00     0.173 A 
ATOM     78  C   UNL A   1      39.635  33.319  35.425  1.00  0.00     0.173 A 
ATOM     79  F   UNL A   1      38.060  30.188  36.384  1.00  0.00    -0.203 F 
ATOM     80  C   UNL A   1      38.060  32.284  37.462  1.00  0.00     0.198 A 
ATOM     81  C   UNL A   1      39.253  34.128  36.492  1.00  0.00     0.198 A 
ATOM     82  F   UNL A   1      40.398  33.842  34.455  1.00  0.00    -0.203 F 
ATOM     83  F   UNL A   1      37.279  31.787  38.431  1.00  0.00    -0.200 F 
ATOM     84  C   UNL A   1      38.463  33.610  37.508  1.00  0.00     0.200 A 
ATOM     85  F   UNL A   1      39.658  35.403  36.541  1.00  0.00    -0.200 F 
ATOM     86  F   UNL A   1      38.089  34.391  38.531  1.00  0.00    -0.200 F 
ENDBRANCH  52  76
BRANCH  64  87
ATOM     87  C   UNL A   1      44.833  27.888  34.450  1.00  0.00     0.064 A 
ATOM     88  C   UNL A   1      44.807  26.756  35.276  1.00  0.00     0.173 A 
ATOM     89  C   UNL A   1      46.005  28.657  34.417  1.00  0.00     0.173 A 
ATOM     90  F   UNL A   1      43.703  25.999  35.350  1.00  0.00    -0.203 F 
ATOM     91  C   UNL A   1      45.913  26.412  36.051  1.00  0.00     0.198 A 
ATOM     92  C   UNL A   1      47.117  28.296  35.175  1.00  0.00     0.198 A 
ATOM     93  F   UNL A   1      46.080  29.745  33.637  1.00  0.00    -0.203 F 
ATOM     94  F   UNL A   1      45.857  25.343  36.856  1.00  0.00    -0.200 F 
ATOM     95  C   UNL A   1      47.068  27.178  35.992  1.00  0.00     0.200 A 
ATOM     96  F   UNL A   1      48.236  29.030  35.111  1.00  0.00    -0.200 F 
ATOM     97  F   UNL A   1      48.135  26.838  36.729  1.00  0.00    -0.200 F 
ENDBRANCH  64  87
ENDBRANCH  38  39
ENDBRANCH  30  33
ENDBRANCH  28  29
ENDBRANCH  27  28
ENDBRANCH   1  27
TORSDOF 14
ENDMDL
