MODEL 1
REMARK VINA RESULT:     -12.3      0.000      0.000
REMARK SMILES Cc1c(Cl)ccc2c1C=C(C(=O)NCCCCCCNC(=O)c1ccc(-c3c4nc(c(-c5c(F)c(F)c(F)c(F)c5F)c5ccc([nH]5)c(-c5c(F)c(F)c(F)c(F)c5F)c5nc(c(-c6c(F)c(F)c(F)c(F)c6F)c6ccc3[nH]6)C=C5)C=C4)cc1)[C@@H](C(F)(F)F)O2
REMARK SMILES IDX 17 1 16 2 15 3 14 4 13 5 11 6 12 7 10 9 1 10 2 11 3 12 8 13
REMARK SMILES IDX 4 14 5 15 7 16 9 17 6 18 91 19 86 20 87 21 88 22 89 23 90 24
REMARK SMILES IDX 18 25 19 26 20 27 21 28 22 30 23 31 24 32 85 33 25 34 84 35
REMARK SMILES IDX 26 36 27 37 28 38 78 39 29 40 83 41 77 42 79 43 30 44 82 45
REMARK SMILES IDX 76 46 75 47 31 49 63 50 43 51 62 52 44 53 47 54 61 55 80 56
REMARK SMILES IDX 45 57 46 58 60 60 81 61 48 62 32 63 33 64 41 65 34 66 35 67
REMARK SMILES IDX 39 68 42 69 36 70 37 71 40 72 38 73 64 74 65 75 73 76 66 77
REMARK SMILES IDX 67 78 71 79 74 80 68 81 69 82 72 83 70 84 49 85 50 86 58 87
REMARK SMILES IDX 51 88 52 89 56 90 59 91 53 92 54 93 57 94 55 95
REMARK H PARENT 13 8 20 29 79 48 47 59
REMARK Flexibility Score: inf
ROOT
ATOM      1  C   UNL A   1      33.345  28.759  24.411  1.00  0.00     0.002 C 
ENDROOT
BRANCH   1   2
ATOM      2  C   UNL A   1      31.812  28.701  24.373  1.00  0.00     0.002 C 
BRANCH   2   3
ATOM      3  C   UNL A   1      31.178  28.803  22.982  1.00  0.00     0.021 C 
BRANCH   3   4
ATOM      4  C   UNL A   1      30.634  27.484  22.441  1.00  0.00     0.116 C 
BRANCH   4   5
ATOM      5  N   UNL A   1      31.604  26.808  21.603  1.00  0.00    -0.352 N 
ATOM      6  C   UNL A   1      32.561  25.865  21.754  1.00  0.00     0.251 C 
ATOM      7  O   UNL A   1      33.174  25.578  20.720  1.00  0.00    -0.270 OA
ATOM      8  H   UNL A   1      31.551  27.118  20.669  1.00  0.00     0.163 HD
BRANCH   6   9
ATOM      9  C   UNL A   1      32.908  25.169  23.032  1.00  0.00     0.067 C 
ATOM     10  C   UNL A   1      36.719  23.059  23.094  1.00  0.00     0.047 C 
ATOM     11  C   UNL A   1      35.796  23.145  24.285  1.00  0.00    -0.021 A 
ATOM     12  C   UNL A   1      36.161  22.518  25.498  1.00  0.00     0.044 A 
ATOM     13  C   UNL A   1      34.587  23.883  24.247  1.00  0.00     0.022 A 
ATOM     14  Cl  UNL A   1      37.653  21.659  25.677  1.00  0.00    -0.084 Cl
ATOM     15  C   UNL A   1      35.334  22.582  26.623  1.00  0.00     0.024 A 
ATOM     16  C   UNL A   1      33.766  23.917  25.382  1.00  0.00     0.128 A 
ATOM     17  C   UNL A   1      34.152  24.657  23.082  1.00  0.00     0.026 C 
ATOM     18  C   UNL A   1      34.135  23.279  26.563  1.00  0.00     0.048 A 
ATOM     19  O   UNL A   1      32.590  24.605  25.440  1.00  0.00    -0.475 OA
ATOM     20  C   UNL A   1      31.967  24.976  24.183  1.00  0.00     0.314 C 
BRANCH  20  21
ATOM     21  C   UNL A   1      30.823  23.996  23.879  1.00  0.00     0.429 C 
ATOM     22  F   UNL A   1      31.243  23.026  23.027  1.00  0.00    -0.167 F 
ATOM     23  F   UNL A   1      30.374  23.359  24.984  1.00  0.00    -0.167 F 
ATOM     24  F   UNL A   1      29.758  24.603  23.309  1.00  0.00    -0.167 F 
ENDBRANCH  20  21
ENDBRANCH   6   9
ENDBRANCH   4   5
ENDBRANCH   3   4
ENDBRANCH   2   3
ENDBRANCH   1   2
BRANCH   1  25
ATOM     25  C   UNL A   1      34.014  27.880  25.471  1.00  0.00     0.021 C 
BRANCH  25  26
ATOM     26  C   UNL A   1      33.672  28.248  26.909  1.00  0.00     0.116 C 
BRANCH  26  27
ATOM     27  N   UNL A   1      33.502  29.680  27.079  1.00  0.00    -0.352 N 
ATOM     28  C   UNL A   1      34.332  30.565  27.720  1.00  0.00     0.251 C 
ATOM     29  H   UNL A   1      32.687  30.066  26.684  1.00  0.00     0.163 HD
ATOM     30  O   UNL A   1      33.981  31.719  27.935  1.00  0.00    -0.269 OA
BRANCH  28  31
ATOM     31  C   UNL A   1      35.657  30.100  28.167  1.00  0.00     0.039 A 
ATOM     32  C   UNL A   1      36.732  30.160  27.278  1.00  0.00     0.014 A 
ATOM     33  C   UNL A   1      35.833  29.625  29.472  1.00  0.00     0.014 A 
ATOM     34  C   UNL A   1      38.001  29.778  27.711  1.00  0.00     0.010 A 
ATOM     35  C   UNL A   1      37.109  29.293  29.918  1.00  0.00     0.010 A 
ATOM     36  C   UNL A   1      38.199  29.355  29.037  1.00  0.00    -0.014 A 
BRANCH  36  37
ATOM     37  C   UNL A   1      39.537  28.910  29.490  1.00  0.00     0.031 A 
ATOM     38  C   UNL A   1      40.263  29.709  30.533  1.00  0.00     0.074 A 
ATOM     39  C   UNL A   1      40.094  27.804  28.963  1.00  0.00     0.049 A 
ATOM     40  N   UNL A   1      41.427  29.481  31.085  1.00  0.00    -0.248 NA
ATOM     41  C   UNL A   1      39.600  30.932  31.013  1.00  0.00     0.031 C 
ATOM     42  C   UNL A   1      39.491  26.967  27.924  1.00  0.00     0.029 A 
ATOM     43  N   UNL A   1      41.291  27.191  29.234  1.00  0.00    -0.354 N 
ATOM     44  C   UNL A   1      41.624  30.519  31.984  1.00  0.00     0.074 A 
ATOM     45  C   UNL A   1      40.499  31.417  31.857  1.00  0.00     0.031 C 
ATOM     46  C   UNL A   1      40.308  25.931  27.669  1.00  0.00     0.029 A 
ATOM     47  C   UNL A   1      41.497  26.043  28.509  1.00  0.00     0.049 A 
ATOM     48  H   UNL A   1      41.940  27.541  29.886  1.00  0.00     0.167 HD
ATOM     49  C   UNL A   1      42.636  30.687  32.866  1.00  0.00     0.037 A 
ATOM     50  C   UNL A   1      42.529  25.176  28.533  1.00  0.00     0.037 A 
ATOM     51  C   UNL A   1      43.744  29.783  33.005  1.00  0.00     0.049 A 
ATOM     52  C   UNL A   1      43.672  25.421  29.482  1.00  0.00     0.074 A 
ATOM     53  C   UNL A   1      44.796  29.841  33.901  1.00  0.00     0.029 A 
ATOM     54  N   UNL A   1      43.939  28.654  32.223  1.00  0.00    -0.354 N 
ATOM     55  N   UNL A   1      43.816  26.370  30.374  1.00  0.00    -0.248 NA
ATOM     56  C   UNL A   1      44.797  24.476  29.425  1.00  0.00     0.031 C 
ATOM     57  C   UNL A   1      45.648  28.765  33.639  1.00  0.00     0.029 A 
ATOM     58  C   UNL A   1      45.109  28.020  32.601  1.00  0.00     0.049 A 
ATOM     59  H   UNL A   1      43.334  28.350  31.508  1.00  0.00     0.167 HD
ATOM     60  C   UNL A   1      45.030  26.124  31.001  1.00  0.00     0.074 A 
ATOM     61  C   UNL A   1      45.581  24.932  30.394  1.00  0.00     0.031 C 
ATOM     62  C   UNL A   1      45.633  26.826  31.990  1.00  0.00     0.037 A 
BRANCH  49  63
ATOM     63  C   UNL A   1      42.572  31.873  33.778  1.00  0.00     0.064 A 
ATOM     64  C   UNL A   1      41.920  31.799  35.017  1.00  0.00     0.173 A 
ATOM     65  C   UNL A   1      43.216  33.073  33.442  1.00  0.00     0.173 A 
ATOM     66  F   UNL A   1      41.279  30.676  35.375  1.00  0.00    -0.203 F 
ATOM     67  C   UNL A   1      41.900  32.889  35.882  1.00  0.00     0.198 A 
ATOM     68  C   UNL A   1      43.214  34.154  34.320  1.00  0.00     0.198 A 
ATOM     69  F   UNL A   1      43.856  33.192  32.270  1.00  0.00    -0.203 F 
ATOM     70  F   UNL A   1      41.244  32.805  37.047  1.00  0.00    -0.200 F 
ATOM     71  C   UNL A   1      42.554  34.061  35.537  1.00  0.00     0.200 A 
ATOM     72  F   UNL A   1      43.854  35.284  33.989  1.00  0.00    -0.200 F 
ATOM     73  F   UNL A   1      42.546  35.106  36.376  1.00  0.00    -0.200 F 
ENDBRANCH  49  63
BRANCH  50  74
ATOM     74  C   UNL A   1      42.510  23.972  27.663  1.00  0.00     0.064 A 
ATOM     75  C   UNL A   1      42.091  22.734  28.168  1.00  0.00     0.173 A 
ATOM     76  C   UNL A   1      42.913  24.029  26.322  1.00  0.00     0.173 A 
ATOM     77  F   UNL A   1      41.716  22.626  29.451  1.00  0.00    -0.203 F 
ATOM     78  C   UNL A   1      42.087  21.594  27.367  1.00  0.00     0.198 A 
ATOM     79  C   UNL A   1      42.890  22.893  25.516  1.00  0.00     0.198 A 
ATOM     80  F   UNL A   1      43.323  25.191  25.792  1.00  0.00    -0.203 F 
ATOM     81  F   UNL A   1      41.714  20.415  27.885  1.00  0.00    -0.200 F 
ATOM     82  C   UNL A   1      42.482  21.675  26.040  1.00  0.00     0.200 A 
ATOM     83  F   UNL A   1      43.264  22.976  24.232  1.00  0.00    -0.200 F 
ATOM     84  F   UNL A   1      42.477  20.579  25.270  1.00  0.00    -0.200 F 
ENDBRANCH  50  74
BRANCH  62  85
ATOM     85  C   UNL A   1      46.954  26.329  32.493  1.00  0.00     0.064 A 
ATOM     86  C   UNL A   1      47.024  25.345  33.487  1.00  0.00     0.173 A 
ATOM     87  C   UNL A   1      48.149  26.755  31.896  1.00  0.00     0.173 A 
ATOM     88  F   UNL A   1      45.906  24.916  34.092  1.00  0.00    -0.203 F 
ATOM     89  C   UNL A   1      48.248  24.802  33.867  1.00  0.00     0.198 A 
ATOM     90  C   UNL A   1      49.369  26.195  32.262  1.00  0.00     0.198 A 
ATOM     91  F   UNL A   1      48.129  27.690  30.933  1.00  0.00    -0.203 F 
ATOM     92  F   UNL A   1      48.296  23.871  34.829  1.00  0.00    -0.200 F 
ATOM     93  C   UNL A   1      49.417  25.218  33.246  1.00  0.00     0.200 A 
ATOM     94  F   UNL A   1      50.496  26.587  31.651  1.00  0.00    -0.200 F 
ATOM     95  F   UNL A   1      50.592  24.675  33.595  1.00  0.00    -0.200 F 
ENDBRANCH  62  85
ENDBRANCH  36  37
ENDBRANCH  28  31
ENDBRANCH  26  27
ENDBRANCH  25  26
ENDBRANCH   1  25
TORSDOF 14
ENDMDL
MODEL 2
REMARK VINA RESULT:     -12.1      4.316      8.847
REMARK SMILES Cc1c(Cl)ccc2c1C=C(C(=O)NCCCCCCNC(=O)c1ccc(-c3c4nc(c(-c5c(F)c(F)c(F)c(F)c5F)c5ccc([nH]5)c(-c5c(F)c(F)c(F)c(F)c5F)c5nc(c(-c6c(F)c(F)c(F)c(F)c6F)c6ccc3[nH]6)C=C5)C=C4)cc1)[C@@H](C(F)(F)F)O2
REMARK SMILES IDX 17 1 16 2 15 3 14 4 13 5 11 6 12 7 10 9 1 10 2 11 3 12 8 13
REMARK SMILES IDX 4 14 5 15 7 16 9 17 6 18 91 19 86 20 87 21 88 22 89 23 90 24
REMARK SMILES IDX 18 25 19 26 20 27 21 28 22 30 23 31 24 32 85 33 25 34 84 35
REMARK SMILES IDX 26 36 27 37 28 38 78 39 29 40 83 41 77 42 79 43 30 44 82 45
REMARK SMILES IDX 76 46 75 47 31 49 63 50 43 51 62 52 44 53 47 54 61 55 80 56
REMARK SMILES IDX 45 57 46 58 60 60 81 61 48 62 32 63 33 64 41 65 34 66 35 67
REMARK SMILES IDX 39 68 42 69 36 70 37 71 40 72 38 73 64 74 65 75 73 76 66 77
REMARK SMILES IDX 67 78 71 79 74 80 68 81 69 82 72 83 70 84 49 85 50 86 58 87
REMARK SMILES IDX 51 88 52 89 56 90 59 91 53 92 54 93 57 94 55 95
REMARK H PARENT 13 8 20 29 79 48 47 59
REMARK Flexibility Score: inf
ROOT
ATOM      1  C   UNL A   1      36.348  20.702  24.991  1.00  0.00     0.002 C 
ENDROOT
BRANCH   1   2
ATOM      2  C   UNL A   1      36.466  22.190  25.351  1.00  0.00     0.002 C 
BRANCH   2   3
ATOM      3  C   UNL A   1      35.337  22.753  26.222  1.00  0.00     0.021 C 
BRANCH   3   4
ATOM      4  C   UNL A   1      34.805  24.107  25.762  1.00  0.00     0.116 C 
BRANCH   4   5
ATOM      5  N   UNL A   1      33.369  24.205  25.932  1.00  0.00    -0.352 N 
ATOM      6  C   UNL A   1      32.268  23.583  25.452  1.00  0.00     0.251 C 
ATOM      7  O   UNL A   1      31.198  24.014  25.895  1.00  0.00    -0.270 OA
ATOM      8  H   UNL A   1      33.130  24.915  26.572  1.00  0.00     0.163 HD
BRANCH   6   9
ATOM      9  C   UNL A   1      32.260  22.454  24.472  1.00  0.00     0.067 C 
ATOM     10  C   UNL A   1      33.320  18.535  26.051  1.00  0.00     0.047 C 
ATOM     11  C   UNL A   1      32.917  18.772  24.615  1.00  0.00    -0.021 A 
ATOM     12  C   UNL A   1      32.872  17.686  23.713  1.00  0.00     0.044 A 
ATOM     13  C   UNL A   1      32.529  20.052  24.147  1.00  0.00     0.022 A 
ATOM     14  Cl  UNL A   1      33.249  16.069  24.202  1.00  0.00    -0.084 Cl
ATOM     15  C   UNL A   1      32.498  17.868  22.380  1.00  0.00     0.024 A 
ATOM     16  C   UNL A   1      32.175  20.213  22.800  1.00  0.00     0.128 A 
ATOM     17  C   UNL A   1      32.437  21.233  25.009  1.00  0.00     0.026 C 
ATOM     18  C   UNL A   1      32.153  19.132  21.922  1.00  0.00     0.048 A 
ATOM     19  O   UNL A   1      31.783  21.403  22.261  1.00  0.00    -0.475 OA
ATOM     20  C   UNL A   1      32.124  22.612  22.987  1.00  0.00     0.314 C 
BRANCH  20  21
ATOM     21  C   UNL A   1      33.348  23.268  22.328  1.00  0.00     0.429 C 
ATOM     22  F   UNL A   1      33.284  23.141  20.978  1.00  0.00    -0.167 F 
ATOM     23  F   UNL A   1      33.427  24.595  22.579  1.00  0.00    -0.167 F 
ATOM     24  F   UNL A   1      34.514  22.716  22.732  1.00  0.00    -0.167 F 
ENDBRANCH  20  21
ENDBRANCH   6   9
ENDBRANCH   4   5
ENDBRANCH   3   4
ENDBRANCH   2   3
ENDBRANCH   1   2
BRANCH   1  25
ATOM     25  C   UNL A   1      37.673  19.953  24.833  1.00  0.00     0.021 C 
BRANCH  25  26
ATOM     26  C   UNL A   1      38.776  20.406  25.780  1.00  0.00     0.116 C 
BRANCH  26  27
ATOM     27  N   UNL A   1      39.838  19.421  25.891  1.00  0.00    -0.352 N 
ATOM     28  C   UNL A   1      41.173  19.634  26.126  1.00  0.00     0.251 C 
ATOM     29  H   UNL A   1      39.565  18.482  25.786  1.00  0.00     0.163 HD
ATOM     30  O   UNL A   1      41.986  18.721  26.027  1.00  0.00    -0.269 OA
BRANCH  28  31
ATOM     31  C   UNL A   1      41.626  20.990  26.484  1.00  0.00     0.039 A 
ATOM     32  C   UNL A   1      41.879  21.910  25.465  1.00  0.00     0.014 A 
ATOM     33  C   UNL A   1      41.777  21.350  27.828  1.00  0.00     0.014 A 
ATOM     34  C   UNL A   1      42.250  23.213  25.796  1.00  0.00     0.010 A 
ATOM     35  C   UNL A   1      42.096  22.664  28.157  1.00  0.00     0.010 A 
ATOM     36  C   UNL A   1      42.349  23.600  27.144  1.00  0.00    -0.014 A 
BRANCH  36  37
ATOM     37  C   UNL A   1      42.780  24.971  27.500  1.00  0.00     0.031 A 
ATOM     38  C   UNL A   1      44.202  25.383  27.249  1.00  0.00     0.074 A 
ATOM     39  C   UNL A   1      41.904  25.832  28.049  1.00  0.00     0.049 A 
ATOM     40  N   UNL A   1      44.776  26.540  27.463  1.00  0.00    -0.248 NA
ATOM     41  C   UNL A   1      45.102  24.360  26.695  1.00  0.00     0.031 C 
ATOM     42  C   UNL A   1      40.506  25.531  28.363  1.00  0.00     0.029 A 
ATOM     43  N   UNL A   1      42.059  27.140  28.435  1.00  0.00    -0.354 N 
ATOM     44  C   UNL A   1      46.093  26.384  27.055  1.00  0.00     0.074 A 
ATOM     45  C   UNL A   1      46.257  25.007  26.648  1.00  0.00     0.031 C 
ATOM     46  C   UNL A   1      39.923  26.633  28.864  1.00  0.00     0.029 A 
ATOM     47  C   UNL A   1      40.909  27.708  28.926  1.00  0.00     0.049 A 
ATOM     48  H   UNL A   1      42.913  27.623  28.368  1.00  0.00     0.167 HD
ATOM     49  C   UNL A   1      47.068  27.319  26.988  1.00  0.00     0.037 A 
ATOM     50  C   UNL A   1      40.680  28.962  29.364  1.00  0.00     0.037 A 
ATOM     51  C   UNL A   1      46.898  28.692  27.375  1.00  0.00     0.049 A 
ATOM     52  C   UNL A   1      41.801  29.966  29.337  1.00  0.00     0.074 A 
ATOM     53  C   UNL A   1      47.812  29.727  27.302  1.00  0.00     0.029 A 
ATOM     54  N   UNL A   1      45.730  29.219  27.907  1.00  0.00    -0.354 N 
ATOM     55  N   UNL A   1      43.024  29.825  28.887  1.00  0.00    -0.248 NA
ATOM     56  C   UNL A   1      41.512  31.301  29.880  1.00  0.00     0.031 C 
ATOM     57  C   UNL A   1      47.209  30.876  27.823  1.00  0.00     0.029 A 
ATOM     58  C   UNL A   1      45.909  30.562  28.190  1.00  0.00     0.049 A 
ATOM     59  H   UNL A   1      44.899  28.714  28.059  1.00  0.00     0.167 HD
ATOM     60  C   UNL A   1      43.641  31.055  29.068  1.00  0.00     0.074 A 
ATOM     61  C   UNL A   1      42.657  31.935  29.661  1.00  0.00     0.031 C 
ATOM     62  C   UNL A   1      44.911  31.421  28.770  1.00  0.00     0.037 A 
BRANCH  49  63
ATOM     63  C   UNL A   1      48.398  26.897  26.443  1.00  0.00     0.064 A 
ATOM     64  C   UNL A   1      49.360  26.297  27.268  1.00  0.00     0.173 A 
ATOM     65  C   UNL A   1      48.691  27.037  25.079  1.00  0.00     0.173 A 
ATOM     66  F   UNL A   1      49.128  26.155  28.581  1.00  0.00    -0.203 F 
ATOM     67  C   UNL A   1      50.577  25.865  26.750  1.00  0.00     0.198 A 
ATOM     68  C   UNL A   1      49.901  26.582  24.560  1.00  0.00     0.198 A 
ATOM     69  F   UNL A   1      47.802  27.601  24.249  1.00  0.00    -0.203 F 
ATOM     70  F   UNL A   1      51.494  25.323  27.563  1.00  0.00    -0.200 F 
ATOM     71  C   UNL A   1      50.843  25.999  25.396  1.00  0.00     0.200 A 
ATOM     72  F   UNL A   1      50.154  26.704  23.249  1.00  0.00    -0.200 F 
ATOM     73  F   UNL A   1      52.010  25.571  24.895  1.00  0.00    -0.200 F 
ENDBRANCH  49  63
BRANCH  50  74
ATOM     74  C   UNL A   1      39.323  29.353  29.825  1.00  0.00     0.064 A 
ATOM     75  C   UNL A   1      38.958  29.211  31.171  1.00  0.00     0.173 A 
ATOM     76  C   UNL A   1      38.367  29.868  28.940  1.00  0.00     0.173 A 
ATOM     77  F   UNL A   1      39.833  28.703  32.052  1.00  0.00    -0.203 F 
ATOM     78  C   UNL A   1      37.683  29.556  31.612  1.00  0.00     0.198 A 
ATOM     79  C   UNL A   1      37.098  30.233  29.385  1.00  0.00     0.198 A 
ATOM     80  F   UNL A   1      38.667  30.024  27.642  1.00  0.00    -0.203 F 
ATOM     81  F   UNL A   1      37.349  29.377  32.897  1.00  0.00    -0.200 F 
ATOM     82  C   UNL A   1      36.754  30.072  30.720  1.00  0.00     0.200 A 
ATOM     83  F   UNL A   1      36.206  30.739  28.522  1.00  0.00    -0.200 F 
ATOM     84  F   UNL A   1      35.528  30.405  31.144  1.00  0.00    -0.200 F 
ENDBRANCH  50  74
BRANCH  62  85
ATOM     85  C   UNL A   1      45.319  32.832  29.068  1.00  0.00     0.064 A 
ATOM     86  C   UNL A   1      45.093  33.860  28.143  1.00  0.00     0.173 A 
ATOM     87  C   UNL A   1      45.830  33.175  30.328  1.00  0.00     0.173 A 
ATOM     88  F   UNL A   1      44.615  33.575  26.921  1.00  0.00    -0.203 F 
ATOM     89  C   UNL A   1      45.365  35.184  28.469  1.00  0.00     0.198 A 
ATOM     90  C   UNL A   1      46.080  34.503  30.660  1.00  0.00     0.198 A 
ATOM     91  F   UNL A   1      46.054  32.224  31.248  1.00  0.00    -0.203 F 
ATOM     92  F   UNL A   1      45.155  36.152  27.566  1.00  0.00    -0.200 F 
ATOM     93  C   UNL A   1      45.846  35.506  29.730  1.00  0.00     0.200 A 
ATOM     94  F   UNL A   1      46.530  34.814  31.883  1.00  0.00    -0.200 F 
ATOM     95  F   UNL A   1      46.082  36.785  30.052  1.00  0.00    -0.200 F 
ENDBRANCH  62  85
ENDBRANCH  36  37
ENDBRANCH  28  31
ENDBRANCH  26  27
ENDBRANCH  25  26
ENDBRANCH   1  25
TORSDOF 14
ENDMDL
MODEL 3
REMARK VINA RESULT:     -12.1      2.999      8.337
REMARK SMILES Cc1c(Cl)ccc2c1C=C(C(=O)NCCCCCCNC(=O)c1ccc(-c3c4nc(c(-c5c(F)c(F)c(F)c(F)c5F)c5ccc([nH]5)c(-c5c(F)c(F)c(F)c(F)c5F)c5nc(c(-c6c(F)c(F)c(F)c(F)c6F)c6ccc3[nH]6)C=C5)C=C4)cc1)[C@@H](C(F)(F)F)O2
REMARK SMILES IDX 17 1 16 2 15 3 14 4 13 5 11 6 12 7 10 9 1 10 2 11 3 12 8 13
REMARK SMILES IDX 4 14 5 15 7 16 9 17 6 18 91 19 86 20 87 21 88 22 89 23 90 24
REMARK SMILES IDX 18 25 19 26 20 27 21 28 22 30 23 31 24 32 85 33 25 34 84 35
REMARK SMILES IDX 26 36 27 37 28 38 78 39 29 40 83 41 77 42 79 43 30 44 82 45
REMARK SMILES IDX 76 46 75 47 31 49 63 50 43 51 62 52 44 53 47 54 61 55 80 56
REMARK SMILES IDX 45 57 46 58 60 60 81 61 48 62 32 63 33 64 41 65 34 66 35 67
REMARK SMILES IDX 39 68 42 69 36 70 37 71 40 72 38 73 64 74 65 75 73 76 66 77
REMARK SMILES IDX 67 78 71 79 74 80 68 81 69 82 72 83 70 84 49 85 50 86 58 87
REMARK SMILES IDX 51 88 52 89 56 90 59 91 53 92 54 93 57 94 55 95
REMARK H PARENT 13 8 20 29 79 48 47 59
REMARK Flexibility Score: inf
ROOT
ATOM      1  C   UNL A   1      31.501  30.776  26.111  1.00  0.00     0.002 C 
ENDROOT
BRANCH   1   2
ATOM      2  C   UNL A   1      32.159  29.870  27.161  1.00  0.00     0.002 C 
BRANCH   2   3
ATOM      3  C   UNL A   1      32.719  28.543  26.636  1.00  0.00     0.021 C 
BRANCH   3   4
ATOM      4  C   UNL A   1      34.061  28.666  25.921  1.00  0.00     0.116 C 
BRANCH   4   5
ATOM      5  N   UNL A   1      33.928  28.457  24.493  1.00  0.00    -0.352 N 
ATOM      6  C   UNL A   1      33.639  27.429  23.663  1.00  0.00     0.251 C 
ATOM      7  O   UNL A   1      33.636  27.720  22.461  1.00  0.00    -0.270 OA
ATOM      8  H   UNL A   1      34.092  29.288  23.991  1.00  0.00     0.163 HD
BRANCH   6   9
ATOM      9  C   UNL A   1      33.328  26.028  24.082  1.00  0.00     0.067 C 
ATOM     10  C   UNL A   1      36.657  23.220  24.008  1.00  0.00     0.047 C 
ATOM     11  C   UNL A   1      35.267  22.850  24.467  1.00  0.00    -0.021 A 
ATOM     12  C   UNL A   1      35.002  21.532  24.902  1.00  0.00     0.044 A 
ATOM     13  C   UNL A   1      34.219  23.802  24.527  1.00  0.00     0.022 A 
ATOM     14  Cl  UNL A   1      36.230  20.314  24.944  1.00  0.00    -0.084 Cl
ATOM     15  C   UNL A   1      33.729  21.157  25.338  1.00  0.00     0.024 A 
ATOM     16  C   UNL A   1      32.946  23.396  24.951  1.00  0.00     0.128 A 
ATOM     17  C   UNL A   1      34.396  25.219  24.201  1.00  0.00     0.026 C 
ATOM     18  C   UNL A   1      32.700  22.088  25.360  1.00  0.00     0.048 A 
ATOM     19  O   UNL A   1      31.880  24.241  25.047  1.00  0.00    -0.475 OA
ATOM     20  C   UNL A   1      31.947  25.491  24.313  1.00  0.00     0.314 C 
BRANCH  20  21
ATOM     21  C   UNL A   1      31.117  25.365  23.025  1.00  0.00     0.429 C 
ATOM     22  F   UNL A   1      30.473  26.530  22.760  1.00  0.00    -0.167 F 
ATOM     23  F   UNL A   1      31.878  25.099  21.938  1.00  0.00    -0.167 F 
ATOM     24  F   UNL A   1      30.182  24.393  23.103  1.00  0.00    -0.167 F 
ENDBRANCH  20  21
ENDBRANCH   6   9
ENDBRANCH   4   5
ENDBRANCH   3   4
ENDBRANCH   2   3
ENDBRANCH   1   2
BRANCH   1  25
ATOM     25  C   UNL A   1      31.379  32.253  26.495  1.00  0.00     0.021 C 
BRANCH  25  26
ATOM     26  C   UNL A   1      32.591  32.823  27.221  1.00  0.00     0.116 C 
BRANCH  26  27
ATOM     27  N   UNL A   1      32.397  34.212  27.596  1.00  0.00    -0.352 N 
ATOM     28  C   UNL A   1      33.012  34.915  28.602  1.00  0.00     0.251 C 
ATOM     29  H   UNL A   1      31.743  34.715  27.060  1.00  0.00     0.163 HD
ATOM     30  O   UNL A   1      32.629  36.036  28.915  1.00  0.00    -0.269 OA
BRANCH  28  31
ATOM     31  C   UNL A   1      34.138  34.291  29.320  1.00  0.00     0.039 A 
ATOM     32  C   UNL A   1      33.869  33.461  30.410  1.00  0.00     0.014 A 
ATOM     33  C   UNL A   1      35.453  34.514  28.897  1.00  0.00     0.014 A 
ATOM     34  C   UNL A   1      34.924  32.819  31.058  1.00  0.00     0.010 A 
ATOM     35  C   UNL A   1      36.499  33.833  29.512  1.00  0.00     0.010 A 
ATOM     36  C   UNL A   1      36.243  32.992  30.605  1.00  0.00    -0.014 A 
BRANCH  36  37
ATOM     37  C   UNL A   1      37.369  32.344  31.315  1.00  0.00     0.031 A 
ATOM     38  C   UNL A   1      38.113  31.224  30.646  1.00  0.00     0.074 A 
ATOM     39  C   UNL A   1      37.714  32.755  32.549  1.00  0.00     0.049 A 
ATOM     40  N   UNL A   1      39.142  30.542  31.081  1.00  0.00    -0.248 NA
ATOM     41  C   UNL A   1      37.633  30.806  29.320  1.00  0.00     0.031 C 
ATOM     42  C   UNL A   1      37.044  33.814  33.305  1.00  0.00     0.029 A 
ATOM     43  N   UNL A   1      38.719  32.333  33.383  1.00  0.00    -0.354 N 
ATOM     44  C   UNL A   1      39.438  29.632  30.076  1.00  0.00     0.074 A 
ATOM     45  C   UNL A   1      38.442  29.796  29.041  1.00  0.00     0.031 C 
ATOM     46  C   UNL A   1      37.677  33.981  34.479  1.00  0.00     0.029 A 
ATOM     47  C   UNL A   1      38.781  33.029  34.565  1.00  0.00     0.049 A 
ATOM     48  H   UNL A   1      39.336  31.601  33.155  1.00  0.00     0.167 HD
ATOM     49  C   UNL A   1      40.473  28.764  30.006  1.00  0.00     0.037 A 
ATOM     50  C   UNL A   1      39.642  32.913  35.595  1.00  0.00     0.037 A 
ATOM     51  C   UNL A   1      41.473  28.616  31.027  1.00  0.00     0.049 A 
ATOM     52  C   UNL A   1      40.748  31.895  35.517  1.00  0.00     0.074 A 
ATOM     53  C   UNL A   1      42.587  27.797  31.029  1.00  0.00     0.029 A 
ATOM     54  N   UNL A   1      41.477  29.309  32.228  1.00  0.00    -0.354 N 
ATOM     55  N   UNL A   1      41.058  31.086  34.534  1.00  0.00    -0.248 NA
ATOM     56  C   UNL A   1      41.623  31.772  36.692  1.00  0.00     0.031 C 
ATOM     57  C   UNL A   1      43.248  27.967  32.248  1.00  0.00     0.029 A 
ATOM     58  C   UNL A   1      42.563  28.916  32.991  1.00  0.00     0.049 A 
ATOM     59  H   UNL A   1      40.808  29.979  32.497  1.00  0.00     0.167 HD
ATOM     60  C   UNL A   1      42.174  30.379  34.958  1.00  0.00     0.074 A 
ATOM     61  C   UNL A   1      42.495  30.858  36.286  1.00  0.00     0.031 C 
ATOM     62  C   UNL A   1      42.869  29.416  34.306  1.00  0.00     0.037 A 
BRANCH  49  63
ATOM     63  C   UNL A   1      40.598  27.932  28.767  1.00  0.00     0.064 A 
ATOM     64  C   UNL A   1      39.913  26.714  28.641  1.00  0.00     0.173 A 
ATOM     65  C   UNL A   1      41.357  28.378  27.675  1.00  0.00     0.173 A 
ATOM     66  F   UNL A   1      39.186  26.241  29.664  1.00  0.00    -0.203 F 
ATOM     67  C   UNL A   1      39.995  25.965  27.472  1.00  0.00     0.198 A 
ATOM     68  C   UNL A   1      41.418  27.637  26.498  1.00  0.00     0.198 A 
ATOM     69  F   UNL A   1      42.027  29.538  27.746  1.00  0.00    -0.203 F 
ATOM     70  F   UNL A   1      39.357  24.790  27.386  1.00  0.00    -0.200 F 
ATOM     71  C   UNL A   1      40.739  26.430  26.398  1.00  0.00     0.200 A 
ATOM     72  F   UNL A   1      42.130  28.092  25.458  1.00  0.00    -0.200 F 
ATOM     73  F   UNL A   1      40.807  25.715  25.268  1.00  0.00    -0.200 F 
ENDBRANCH  49  63
BRANCH  50  74
ATOM     74  C   UNL A   1      39.522  33.814  36.771  1.00  0.00     0.064 A 
ATOM     75  C   UNL A   1      40.165  35.059  36.784  1.00  0.00     0.173 A 
ATOM     76  C   UNL A   1      38.775  33.451  37.900  1.00  0.00     0.173 A 
ATOM     77  F   UNL A   1      40.908  35.440  35.735  1.00  0.00    -0.203 F 
ATOM     78  C   UNL A   1      40.076  35.903  37.888  1.00  0.00     0.198 A 
ATOM     79  C   UNL A   1      38.669  34.305  38.996  1.00  0.00     0.198 A 
ATOM     80  F   UNL A   1      38.141  32.270  37.936  1.00  0.00    -0.203 F 
ATOM     81  F   UNL A   1      40.729  37.073  37.889  1.00  0.00    -0.200 F 
ATOM     82  C   UNL A   1      39.323  35.529  38.992  1.00  0.00     0.200 A 
ATOM     83  F   UNL A   1      37.935  33.944  40.056  1.00  0.00    -0.200 F 
ATOM     84  F   UNL A   1      39.237  36.341  40.054  1.00  0.00    -0.200 F 
ENDBRANCH  50  74
BRANCH  62  85
ATOM     85  C   UNL A   1      44.052  28.816  35.002  1.00  0.00     0.064 A 
ATOM     86  C   UNL A   1      45.311  29.426  34.944  1.00  0.00     0.173 A 
ATOM     87  C   UNL A   1      43.898  27.690  35.825  1.00  0.00     0.173 A 
ATOM     88  F   UNL A   1      45.505  30.499  34.161  1.00  0.00    -0.203 F 
ATOM     89  C   UNL A   1      46.378  28.931  35.687  1.00  0.00     0.198 A 
ATOM     90  C   UNL A   1      44.961  27.211  36.584  1.00  0.00     0.198 A 
ATOM     91  F   UNL A   1      42.708  27.078  35.918  1.00  0.00    -0.203 F 
ATOM     92  F   UNL A   1      47.578  29.521  35.609  1.00  0.00    -0.200 F 
ATOM     93  C   UNL A   1      46.199  27.833  36.515  1.00  0.00     0.200 A 
ATOM     94  F   UNL A   1      44.783  26.159  37.395  1.00  0.00    -0.200 F 
ATOM     95  F   UNL A   1      47.221  27.373  37.251  1.00  0.00    -0.200 F 
ENDBRANCH  62  85
ENDBRANCH  36  37
ENDBRANCH  28  31
ENDBRANCH  26  27
ENDBRANCH  25  26
ENDBRANCH   1  25
TORSDOF 14
ENDMDL
