MODEL 1
REMARK VINA RESULT:     -11.4      0.000      0.000
REMARK SMILES CC(C)(C[NH2+]C[C@@H]1C[C@H]2CC[C@@H]1C2)C(=O)NCCCCCCNC(=O)c1ccc(-c2c3nc(c(-c4c(F)c(F)c(F)c(F)c4F)c4ccc([nH]4)c(-c4c(F)c(F)c(F)c(F)c4F)c4nc(c(-c5c(F)c(F)c(F)c(F)c5F)c5ccc2[nH]5)C=C4)C=C3)cc1
REMARK SMILES IDX 18 1 17 2 16 3 14 4 15 5 2 7 1 8 3 9 4 10 5 11 6 14 7 15
REMARK SMILES IDX 8 16 12 17 9 18 11 19 13 20 10 21 19 22 20 23 21 24 22 25
REMARK SMILES IDX 23 26 24 27 25 29 26 30 27 31 88 32 28 33 87 34 29 35 30 36
REMARK SMILES IDX 31 37 81 38 32 39 86 40 80 41 82 42 33 43 85 44 79 45 78 46
REMARK SMILES IDX 34 48 66 49 46 50 65 51 47 52 50 53 64 54 83 55 48 56 49 57
REMARK SMILES IDX 63 59 84 60 51 61 35 62 36 63 44 64 37 65 38 66 42 67 45 68
REMARK SMILES IDX 39 69 40 70 43 71 41 72 67 73 68 74 76 75 69 76 70 77 74 78
REMARK SMILES IDX 77 79 71 80 72 81 75 82 73 83 52 84 53 85 61 86 54 87 55 88
REMARK SMILES IDX 59 89 62 90 56 91 57 92 60 93 58 94
REMARK H PARENT 16 6 5 12 5 13 23 28 82 47 50 58
REMARK Flexibility Score: inf
ROOT
ATOM      1  C   UNL A   1      33.576  29.350  26.156  1.00  0.00     0.021 C 
ENDROOT
BRANCH   1   2
ATOM      2  C   UNL A   1      33.634  27.823  26.167  1.00  0.00     0.116 C 
BRANCH   2   3
ATOM      3  N   UNL A   1      32.354  27.248  26.521  1.00  0.00    -0.355 N 
ATOM      4  C   UNL A   1      31.470  26.475  25.841  1.00  0.00     0.231 C 
ATOM      5  O   UNL A   1      30.431  26.197  26.452  1.00  0.00    -0.274 OA
ATOM      6  H   UNL A   1      32.068  27.460  27.439  1.00  0.00     0.163 HD
BRANCH   4   7
ATOM      7  C   UNL A   1      31.753  25.889  24.445  1.00  0.00     0.092 C 
ATOM      8  C   UNL A   1      30.522  25.058  24.003  1.00  0.00     0.027 C 
ATOM      9  C   UNL A   1      32.936  24.901  24.544  1.00  0.00     0.027 C 
BRANCH   7  10
ATOM     10  C   UNL A   1      32.050  26.945  23.354  1.00  0.00     0.276 C 
BRANCH  10  11
ATOM     11  N   UNL A   1      30.888  27.452  22.615  1.00  0.00    -0.345 N 
ATOM     12  H   UNL A   1      30.044  27.241  23.145  1.00  0.00     0.346 HD
ATOM     13  H   UNL A   1      30.881  26.999  21.700  1.00  0.00     0.346 HD
BRANCH  11  14
ATOM     14  C   UNL A   1      30.952  28.906  22.390  1.00  0.00     0.264 C 
BRANCH  14  15
ATOM     15  C   UNL A   1      29.814  29.692  23.051  1.00  0.00     0.047 C 
ATOM     16  C   UNL A   1      28.509  28.882  23.198  1.00  0.00     0.013 C 
ATOM     17  C   UNL A   1      29.350  30.942  22.257  1.00  0.00    -0.002 C 
ATOM     18  C   UNL A   1      27.444  29.882  22.724  1.00  0.00    -0.010 C 
ATOM     19  C   UNL A   1      28.673  31.895  23.254  1.00  0.00     0.004 C 
ATOM     20  C   UNL A   1      28.129  30.440  21.478  1.00  0.00     0.007 C 
ATOM     21  C   UNL A   1      27.419  31.107  23.665  1.00  0.00     0.004 C 
ENDBRANCH  14  15
ENDBRANCH  11  14
ENDBRANCH  10  11
ENDBRANCH   7  10
ENDBRANCH   4   7
ENDBRANCH   2   3
ENDBRANCH   1   2
BRANCH   1  22
ATOM     22  C   UNL A   1      32.369  29.939  26.896  1.00  0.00     0.002 C 
BRANCH  22  23
ATOM     23  C   UNL A   1      31.436  30.806  26.043  1.00  0.00     0.002 C 
BRANCH  23  24
ATOM     24  C   UNL A   1      31.301  32.264  26.494  1.00  0.00     0.021 C 
BRANCH  24  25
ATOM     25  C   UNL A   1      32.510  32.816  27.241  1.00  0.00     0.116 C 
BRANCH  25  26
ATOM     26  N   UNL A   1      32.336  34.210  27.616  1.00  0.00    -0.352 N 
ATOM     27  C   UNL A   1      32.979  34.939  28.582  1.00  0.00     0.251 C 
ATOM     28  H   UNL A   1      31.656  34.702  27.102  1.00  0.00     0.163 HD
ATOM     29  O   UNL A   1      32.574  36.061  28.882  1.00  0.00    -0.269 OA
BRANCH  27  30
ATOM     30  C   UNL A   1      34.151  34.375  29.284  1.00  0.00     0.039 A 
ATOM     31  C   UNL A   1      33.950  33.677  30.478  1.00  0.00     0.014 A 
ATOM     32  C   UNL A   1      35.445  34.550  28.784  1.00  0.00     0.014 A 
ATOM     33  C   UNL A   1      35.039  33.110  31.143  1.00  0.00     0.010 A 
ATOM     34  C   UNL A   1      36.522  33.930  29.412  1.00  0.00     0.010 A 
ATOM     35  C   UNL A   1      36.330  33.208  30.601  1.00  0.00    -0.014 A 
BRANCH  35  36
ATOM     36  C   UNL A   1      37.493  32.570  31.267  1.00  0.00     0.031 A 
ATOM     37  C   UNL A   1      38.219  31.437  30.599  1.00  0.00     0.074 A 
ATOM     38  C   UNL A   1      37.856  32.972  32.500  1.00  0.00     0.049 A 
ATOM     39  N   UNL A   1      39.212  30.709  31.047  1.00  0.00    -0.248 NA
ATOM     40  C   UNL A   1      37.750  31.050  29.260  1.00  0.00     0.031 C 
ATOM     41  C   UNL A   1      37.203  34.030  33.271  1.00  0.00     0.029 A 
ATOM     42  N   UNL A   1      38.859  32.530  33.326  1.00  0.00    -0.354 N 
ATOM     43  C   UNL A   1      39.474  29.775  30.054  1.00  0.00     0.074 A 
ATOM     44  C   UNL A   1      38.506  29.993  29.002  1.00  0.00     0.031 C 
ATOM     45  C   UNL A   1      37.832  34.169  34.449  1.00  0.00     0.029 A 
ATOM     46  C   UNL A   1      38.911  33.188  34.530  1.00  0.00     0.049 A 
ATOM     47  H   UNL A   1      39.483  31.809  33.078  1.00  0.00     0.167 HD
ATOM     48  C   UNL A   1      40.449  28.836  30.014  1.00  0.00     0.037 A 
ATOM     49  C   UNL A   1      39.733  33.017  35.582  1.00  0.00     0.037 A 
ATOM     50  C   UNL A   1      41.429  28.640  31.050  1.00  0.00     0.049 A 
ATOM     51  C   UNL A   1      40.810  31.969  35.511  1.00  0.00     0.074 A 
ATOM     52  C   UNL A   1      42.493  27.756  31.077  1.00  0.00     0.029 A 
ATOM     53  N   UNL A   1      41.464  29.343  32.246  1.00  0.00    -0.354 N 
ATOM     54  N   UNL A   1      41.089  31.135  34.539  1.00  0.00    -0.248 NA
ATOM     55  C   UNL A   1      41.692  31.846  36.680  1.00  0.00     0.031 C 
ATOM     56  C   UNL A   1      43.148  27.894  32.306  1.00  0.00     0.029 A 
ATOM     57  C   UNL A   1      42.521  28.899  33.025  1.00  0.00     0.049 A 
ATOM     58  H   UNL A   1      40.832  30.053  32.502  1.00  0.00     0.167 HD
ATOM     59  C   UNL A   1      42.193  30.409  34.965  1.00  0.00     0.074 A 
ATOM     60  C   UNL A   1      42.541  30.911  36.279  1.00  0.00     0.031 C 
ATOM     61  C   UNL A   1      42.858  29.415  34.327  1.00  0.00     0.037 A 
BRANCH  48  62
ATOM     62  C   UNL A   1      40.507  27.947  28.805  1.00  0.00     0.064 A 
ATOM     63  C   UNL A   1      41.285  28.277  27.686  1.00  0.00     0.173 A 
ATOM     64  C   UNL A   1      39.805  26.733  28.780  1.00  0.00     0.173 A 
ATOM     65  F   UNL A   1      41.967  29.433  27.655  1.00  0.00    -0.203 F 
ATOM     66  C   UNL A   1      41.335  27.440  26.574  1.00  0.00     0.198 A 
ATOM     67  C   UNL A   1      39.881  25.883  27.679  1.00  0.00     0.198 A 
ATOM     68  F   UNL A   1      39.049  26.365  29.826  1.00  0.00    -0.203 F 
ATOM     69  F   UNL A   1      42.046  27.801  25.497  1.00  0.00    -0.200 F 
ATOM     70  C   UNL A   1      40.639  26.241  26.574  1.00  0.00     0.200 A 
ATOM     71  F   UNL A   1      39.217  24.719  27.685  1.00  0.00    -0.200 F 
ATOM     72  F   UNL A   1      40.694  25.433  25.506  1.00  0.00    -0.200 F 
ENDBRANCH  48  62
BRANCH  49  73
ATOM     73  C   UNL A   1      39.586  33.877  36.785  1.00  0.00     0.064 A 
ATOM     74  C   UNL A   1      38.815  33.457  37.878  1.00  0.00     0.173 A 
ATOM     75  C   UNL A   1      40.208  35.131  36.868  1.00  0.00     0.173 A 
ATOM     76  F   UNL A   1      38.185  32.274  37.837  1.00  0.00    -0.203 F 
ATOM     77  C   UNL A   1      38.654  34.267  38.999  1.00  0.00     0.198 A 
ATOM     78  C   UNL A   1      40.068  35.929  38.001  1.00  0.00     0.198 A 
ATOM     79  F   UNL A   1      40.959  35.577  35.851  1.00  0.00    -0.203 F 
ATOM     80  F   UNL A   1      37.876  33.861  40.011  1.00  0.00    -0.200 F 
ATOM     81  C   UNL A   1      39.286  35.501  39.063  1.00  0.00     0.200 A 
ATOM     82  F   UNL A   1      40.691  37.114  38.063  1.00  0.00    -0.200 F 
ATOM     83  F   UNL A   1      39.133  36.278  40.143  1.00  0.00    -0.200 F 
ENDBRANCH  49  73
BRANCH  61  84
ATOM     84  C   UNL A   1      44.052  28.829  35.023  1.00  0.00     0.064 A 
ATOM     85  C   UNL A   1      43.934  27.724  35.880  1.00  0.00     0.173 A 
ATOM     86  C   UNL A   1      45.332  29.358  34.801  1.00  0.00     0.173 A 
ATOM     87  F   UNL A   1      42.730  27.193  36.135  1.00  0.00    -0.203 F 
ATOM     88  C   UNL A   1      45.054  27.187  36.508  1.00  0.00     0.198 A 
ATOM     89  C   UNL A   1      46.453  28.800  35.409  1.00  0.00     0.198 A 
ATOM     90  F   UNL A   1      45.497  30.410  33.987  1.00  0.00    -0.203 F 
ATOM     91  F   UNL A   1      44.914  26.161  37.359  1.00  0.00    -0.200 F 
ATOM     92  C   UNL A   1      46.312  27.719  36.268  1.00  0.00     0.200 A 
ATOM     93  F   UNL A   1      47.669  29.308  35.166  1.00  0.00    -0.200 F 
ATOM     94  F   UNL A   1      47.389  27.196  36.870  1.00  0.00    -0.200 F 
ENDBRANCH  61  84
ENDBRANCH  35  36
ENDBRANCH  27  30
ENDBRANCH  25  26
ENDBRANCH  24  25
ENDBRANCH  23  24
ENDBRANCH  22  23
ENDBRANCH   1  22
TORSDOF 17
ENDMDL
MODEL 2
REMARK VINA RESULT:     -11.2      1.112      7.562
REMARK SMILES CC(C)(C[NH2+]C[C@@H]1C[C@H]2CC[C@@H]1C2)C(=O)NCCCCCCNC(=O)c1ccc(-c2c3nc(c(-c4c(F)c(F)c(F)c(F)c4F)c4ccc([nH]4)c(-c4c(F)c(F)c(F)c(F)c4F)c4nc(c(-c5c(F)c(F)c(F)c(F)c5F)c5ccc2[nH]5)C=C4)C=C3)cc1
REMARK SMILES IDX 18 1 17 2 16 3 14 4 15 5 2 7 1 8 3 9 4 10 5 11 6 14 7 15
REMARK SMILES IDX 8 16 12 17 9 18 11 19 13 20 10 21 19 22 20 23 21 24 22 25
REMARK SMILES IDX 23 26 24 27 25 29 26 30 27 31 88 32 28 33 87 34 29 35 30 36
REMARK SMILES IDX 31 37 81 38 32 39 86 40 80 41 82 42 33 43 85 44 79 45 78 46
REMARK SMILES IDX 34 48 66 49 46 50 65 51 47 52 50 53 64 54 83 55 48 56 49 57
REMARK SMILES IDX 63 59 84 60 51 61 35 62 36 63 44 64 37 65 38 66 42 67 45 68
REMARK SMILES IDX 39 69 40 70 43 71 41 72 67 73 68 74 76 75 69 76 70 77 74 78
REMARK SMILES IDX 77 79 71 80 72 81 75 82 73 83 52 84 53 85 61 86 54 87 55 88
REMARK SMILES IDX 59 89 62 90 56 91 57 92 60 93 58 94
REMARK H PARENT 16 6 5 12 5 13 23 28 82 47 50 58
REMARK Flexibility Score: inf
ROOT
ATOM      1  C   UNL A   1      33.816  29.547  26.922  1.00  0.00     0.021 C 
ENDROOT
BRANCH   1   2
ATOM      2  C   UNL A   1      34.093  28.364  25.996  1.00  0.00     0.116 C 
BRANCH   2   3
ATOM      3  N   UNL A   1      34.127  28.776  24.608  1.00  0.00    -0.355 N 
ATOM      4  C   UNL A   1      33.811  28.144  23.450  1.00  0.00     0.231 C 
ATOM      5  O   UNL A   1      34.010  28.798  22.418  1.00  0.00    -0.274 OA
ATOM      6  H   UNL A   1      34.445  29.700  24.480  1.00  0.00     0.163 HD
BRANCH   4   7
ATOM      7  C   UNL A   1      33.157  26.751  23.395  1.00  0.00     0.092 C 
ATOM      8  C   UNL A   1      33.953  25.800  24.325  1.00  0.00     0.027 C 
ATOM      9  C   UNL A   1      33.297  26.184  21.966  1.00  0.00     0.027 C 
BRANCH   7  10
ATOM     10  C   UNL A   1      31.670  26.722  23.821  1.00  0.00     0.276 C 
BRANCH  10  11
ATOM     11  N   UNL A   1      30.979  28.017  23.837  1.00  0.00    -0.345 N 
ATOM     12  H   UNL A   1      31.669  28.758  23.727  1.00  0.00     0.346 HD
ATOM     13  H   UNL A   1      30.484  28.093  24.727  1.00  0.00     0.346 HD
BRANCH  11  14
ATOM     14  C   UNL A   1      29.980  28.138  22.762  1.00  0.00     0.264 C 
BRANCH  14  15
ATOM     15  C   UNL A   1      29.593  29.583  22.427  1.00  0.00     0.047 C 
ATOM     16  C   UNL A   1      29.602  30.523  23.651  1.00  0.00     0.013 C 
ATOM     17  C   UNL A   1      28.150  29.752  21.880  1.00  0.00    -0.002 C 
ATOM     18  C   UNL A   1      28.286  31.297  23.482  1.00  0.00    -0.010 C 
ATOM     19  C   UNL A   1      28.113  31.065  21.082  1.00  0.00     0.004 C 
ATOM     20  C   UNL A   1      27.342  30.154  23.118  1.00  0.00     0.007 C 
ATOM     21  C   UNL A   1      28.327  32.122  22.177  1.00  0.00     0.004 C 
ENDBRANCH  14  15
ENDBRANCH  11  14
ENDBRANCH  10  11
ENDBRANCH   7  10
ENDBRANCH   4   7
ENDBRANCH   2   3
ENDBRANCH   1   2
BRANCH   1  22
ATOM     22  C   UNL A   1      32.332  29.759  27.246  1.00  0.00     0.002 C 
BRANCH  22  23
ATOM     23  C   UNL A   1      31.584  30.707  26.302  1.00  0.00     0.002 C 
BRANCH  23  24
ATOM     24  C   UNL A   1      31.416  32.142  26.812  1.00  0.00     0.021 C 
BRANCH  24  25
ATOM     25  C   UNL A   1      32.708  32.945  26.896  1.00  0.00     0.116 C 
BRANCH  25  26
ATOM     26  N   UNL A   1      32.532  34.200  27.610  1.00  0.00    -0.352 N 
ATOM     27  C   UNL A   1      33.157  34.654  28.742  1.00  0.00     0.251 C 
ATOM     28  H   UNL A   1      31.865  34.812  27.224  1.00  0.00     0.163 HD
ATOM     29  O   UNL A   1      32.749  35.666  29.308  1.00  0.00    -0.269 OA
BRANCH  27  30
ATOM     30  C   UNL A   1      34.312  33.919  29.300  1.00  0.00     0.039 A 
ATOM     31  C   UNL A   1      35.602  34.355  28.987  1.00  0.00     0.014 A 
ATOM     32  C   UNL A   1      34.128  32.793  30.108  1.00  0.00     0.014 A 
ATOM     33  C   UNL A   1      36.707  33.693  29.526  1.00  0.00     0.010 A 
ATOM     34  C   UNL A   1      35.228  32.175  30.697  1.00  0.00     0.010 A 
ATOM     35  C   UNL A   1      36.528  32.616  30.408  1.00  0.00    -0.014 A 
BRANCH  35  36
ATOM     36  C   UNL A   1      37.690  31.933  31.030  1.00  0.00     0.031 A 
ATOM     37  C   UNL A   1      38.141  32.314  32.412  1.00  0.00     0.074 A 
ATOM     38  C   UNL A   1      38.374  31.009  30.327  1.00  0.00     0.049 A 
ATOM     39  N   UNL A   1      39.170  31.881  33.097  1.00  0.00    -0.248 NA
ATOM     40  C   UNL A   1      37.348  33.340  33.105  1.00  0.00     0.031 C 
ATOM     41  C   UNL A   1      38.062  30.585  28.962  1.00  0.00     0.029 A 
ATOM     42  N   UNL A   1      39.480  30.269  30.660  1.00  0.00    -0.354 N 
ATOM     43  C   UNL A   1      39.153  32.589  34.291  1.00  0.00     0.074 A 
ATOM     44  C   UNL A   1      38.045  33.516  34.218  1.00  0.00     0.031 C 
ATOM     45  C   UNL A   1      38.944  29.647  28.580  1.00  0.00     0.029 A 
ATOM     46  C   UNL A   1      39.902  29.428  29.660  1.00  0.00     0.049 A 
ATOM     47  H   UNL A   1      39.930  30.335  31.534  1.00  0.00     0.167 HD
ATOM     48  C   UNL A   1      39.975  32.462  35.361  1.00  0.00     0.037 A 
ATOM     49  C   UNL A   1      40.947  28.580  29.617  1.00  0.00     0.037 A 
ATOM     50  C   UNL A   1      41.059  31.519  35.441  1.00  0.00     0.049 A 
ATOM     51  C   UNL A   1      41.842  28.454  30.820  1.00  0.00     0.074 A 
ATOM     52  C   UNL A   1      41.912  31.272  36.503  1.00  0.00     0.029 A 
ATOM     53  N   UNL A   1      41.441  30.667  34.416  1.00  0.00    -0.354 N 
ATOM     54  N   UNL A   1      41.777  29.083  31.968  1.00  0.00    -0.248 NA
ATOM     55  C   UNL A   1      42.950  27.494  30.723  1.00  0.00     0.031 C 
ATOM     56  C   UNL A   1      42.835  30.299  36.107  1.00  0.00     0.029 A 
ATOM     57  C   UNL A   1      42.529  29.904  34.814  1.00  0.00     0.049 A 
ATOM     58  H   UNL A   1      41.005  30.610  33.536  1.00  0.00     0.167 HD
ATOM     59  C   UNL A   1      42.814  28.577  32.739  1.00  0.00     0.074 A 
ATOM     60  C   UNL A   1      43.485  27.578  31.933  1.00  0.00     0.031 C 
ATOM     61  C   UNL A   1      43.179  28.909  34.002  1.00  0.00     0.037 A 
BRANCH  48  62
ATOM     62  C   UNL A   1      39.729  33.364  36.535  1.00  0.00     0.064 A 
ATOM     63  C   UNL A   1      38.848  33.006  37.566  1.00  0.00     0.173 A 
ATOM     64  C   UNL A   1      40.410  34.585  36.651  1.00  0.00     0.173 A 
ATOM     65  F   UNL A   1      38.163  31.853  37.499  1.00  0.00    -0.203 F 
ATOM     66  C   UNL A   1      38.635  33.849  38.654  1.00  0.00     0.198 A 
ATOM     67  C   UNL A   1      40.218  35.412  37.754  1.00  0.00     0.198 A 
ATOM     68  F   UNL A   1      41.269  34.975  35.696  1.00  0.00    -0.203 F 
ATOM     69  F   UNL A   1      37.751  33.508  39.601  1.00  0.00    -0.200 F 
ATOM     70  C   UNL A   1      39.324  35.048  38.750  1.00  0.00     0.200 A 
ATOM     71  F   UNL A   1      40.895  36.565  37.852  1.00  0.00    -0.200 F 
ATOM     72  F   UNL A   1      39.124  35.855  39.801  1.00  0.00    -0.200 F 
ENDBRANCH  48  62
BRANCH  49  73
ATOM     73  C   UNL A   1      41.187  27.761  28.401  1.00  0.00     0.064 A 
ATOM     74  C   UNL A   1      42.059  28.207  27.396  1.00  0.00     0.173 A 
ATOM     75  C   UNL A   1      40.554  26.524  28.215  1.00  0.00     0.173 A 
ATOM     76  F   UNL A   1      42.671  29.393  27.521  1.00  0.00    -0.203 F 
ATOM     77  C   UNL A   1      42.272  27.457  26.243  1.00  0.00     0.198 A 
ATOM     78  C   UNL A   1      40.789  25.762  27.072  1.00  0.00     0.198 A 
ATOM     79  F   UNL A   1      39.715  26.052  29.147  1.00  0.00    -0.203 F 
ATOM     80  F   UNL A   1      43.074  27.926  25.279  1.00  0.00    -0.200 F 
ATOM     81  C   UNL A   1      41.641  26.231  26.084  1.00  0.00     0.200 A 
ATOM     82  F   UNL A   1      40.188  24.572  26.929  1.00  0.00    -0.200 F 
ATOM     83  F   UNL A   1      41.849  25.508  24.976  1.00  0.00    -0.200 F 
ENDBRANCH  49  73
BRANCH  61  84
ATOM     84  C   UNL A   1      44.334  28.162  34.603  1.00  0.00     0.064 A 
ATOM     85  C   UNL A   1      44.152  26.947  35.279  1.00  0.00     0.173 A 
ATOM     86  C   UNL A   1      45.642  28.651  34.467  1.00  0.00     0.173 A 
ATOM     87  F   UNL A   1      42.919  26.446  35.448  1.00  0.00    -0.203 F 
ATOM     88  C   UNL A   1      45.236  26.261  35.820  1.00  0.00     0.198 A 
ATOM     89  C   UNL A   1      46.726  27.948  34.984  1.00  0.00     0.198 A 
ATOM     90  F   UNL A   1      45.869  29.805  33.824  1.00  0.00    -0.203 F 
ATOM     91  F   UNL A   1      45.035  25.126  36.503  1.00  0.00    -0.200 F 
ATOM     92  C   UNL A   1      46.522  26.758  35.666  1.00  0.00     0.200 A 
ATOM     93  F   UNL A   1      47.969  28.424  34.824  1.00  0.00    -0.200 F 
ATOM     94  F   UNL A   1      47.565  26.093  36.182  1.00  0.00    -0.200 F 
ENDBRANCH  61  84
ENDBRANCH  35  36
ENDBRANCH  27  30
ENDBRANCH  25  26
ENDBRANCH  24  25
ENDBRANCH  23  24
ENDBRANCH  22  23
ENDBRANCH   1  22
TORSDOF 17
ENDMDL
MODEL 3
REMARK VINA RESULT:     -11.2      0.720      7.466
REMARK SMILES CC(C)(C[NH2+]C[C@@H]1C[C@H]2CC[C@@H]1C2)C(=O)NCCCCCCNC(=O)c1ccc(-c2c3nc(c(-c4c(F)c(F)c(F)c(F)c4F)c4ccc([nH]4)c(-c4c(F)c(F)c(F)c(F)c4F)c4nc(c(-c5c(F)c(F)c(F)c(F)c5F)c5ccc2[nH]5)C=C4)C=C3)cc1
REMARK SMILES IDX 18 1 17 2 16 3 14 4 15 5 2 7 1 8 3 9 4 10 5 11 6 14 7 15
REMARK SMILES IDX 8 16 12 17 9 18 11 19 13 20 10 21 19 22 20 23 21 24 22 25
REMARK SMILES IDX 23 26 24 27 25 29 26 30 27 31 88 32 28 33 87 34 29 35 30 36
REMARK SMILES IDX 31 37 81 38 32 39 86 40 80 41 82 42 33 43 85 44 79 45 78 46
REMARK SMILES IDX 34 48 66 49 46 50 65 51 47 52 50 53 64 54 83 55 48 56 49 57
REMARK SMILES IDX 63 59 84 60 51 61 35 62 36 63 44 64 37 65 38 66 42 67 45 68
REMARK SMILES IDX 39 69 40 70 43 71 41 72 67 73 68 74 76 75 69 76 70 77 74 78
REMARK SMILES IDX 77 79 71 80 72 81 75 82 73 83 52 84 53 85 61 86 54 87 55 88
REMARK SMILES IDX 59 89 62 90 56 91 57 92 60 93 58 94
REMARK H PARENT 16 6 5 12 5 13 23 28 82 47 50 58
REMARK Flexibility Score: inf
ROOT
ATOM      1  C   UNL A   1      32.978  28.712  26.687  1.00  0.00     0.021 C 
ENDROOT
BRANCH   1   2
ATOM      2  C   UNL A   1      32.368  28.329  25.340  1.00  0.00     0.116 C 
BRANCH   2   3
ATOM      3  N   UNL A   1      31.240  27.438  25.504  1.00  0.00    -0.355 N 
ATOM      4  C   UNL A   1      30.804  26.362  24.800  1.00  0.00     0.231 C 
ATOM      5  O   UNL A   1      29.752  25.854  25.208  1.00  0.00    -0.274 OA
ATOM      6  H   UNL A   1      30.676  27.656  26.281  1.00  0.00     0.163 HD
BRANCH   4   7
ATOM      7  C   UNL A   1      31.590  25.736  23.634  1.00  0.00     0.092 C 
ATOM      8  C   UNL A   1      30.819  24.487  23.137  1.00  0.00     0.027 C 
ATOM      9  C   UNL A   1      32.952  25.229  24.158  1.00  0.00     0.027 C 
BRANCH   7  10
ATOM     10  C   UNL A   1      31.818  26.682  22.432  1.00  0.00     0.276 C 
BRANCH  10  11
ATOM     11  N   UNL A   1      30.672  27.509  22.035  1.00  0.00    -0.345 N 
ATOM     12  H   UNL A   1      29.879  27.277  22.632  1.00  0.00     0.346 HD
ATOM     13  H   UNL A   1      30.473  27.312  21.053  1.00  0.00     0.346 HD
BRANCH  11  14
ATOM     14  C   UNL A   1      30.946  28.950  22.153  1.00  0.00     0.264 C 
BRANCH  14  15
ATOM     15  C   UNL A   1      29.857  29.737  22.893  1.00  0.00     0.047 C 
ATOM     16  C   UNL A   1      28.578  28.916  23.161  1.00  0.00     0.013 C 
ATOM     17  C   UNL A   1      29.315  30.969  22.121  1.00  0.00    -0.002 C 
ATOM     18  C   UNL A   1      27.467  29.897  22.761  1.00  0.00    -0.010 C 
ATOM     19  C   UNL A   1      28.713  31.931  23.156  1.00  0.00     0.004 C 
ATOM     20  C   UNL A   1      28.041  30.441  21.454  1.00  0.00     0.007 C 
ATOM     21  C   UNL A   1      27.506  31.137  23.681  1.00  0.00     0.004 C 
ENDBRANCH  14  15
ENDBRANCH  11  14
ENDBRANCH  10  11
ENDBRANCH   7  10
ENDBRANCH   4   7
ENDBRANCH   2   3
ENDBRANCH   1   2
BRANCH   1  22
ATOM     22  C   UNL A   1      32.477  30.050  27.248  1.00  0.00     0.002 C 
BRANCH  22  23
ATOM     23  C   UNL A   1      31.430  30.769  26.390  1.00  0.00     0.002 C 
BRANCH  23  24
ATOM     24  C   UNL A   1      31.410  32.295  26.523  1.00  0.00     0.021 C 
BRANCH  24  25
ATOM     25  C   UNL A   1      32.707  32.909  27.036  1.00  0.00     0.116 C 
BRANCH  25  26
ATOM     26  N   UNL A   1      32.502  34.225  27.618  1.00  0.00    -0.352 N 
ATOM     27  C   UNL A   1      33.104  34.800  28.708  1.00  0.00     0.251 C 
ATOM     28  H   UNL A   1      31.832  34.785  27.164  1.00  0.00     0.163 HD
ATOM     29  O   UNL A   1      32.673  35.857  29.165  1.00  0.00    -0.269 OA
BRANCH  27  30
ATOM     30  C   UNL A   1      34.260  34.143  29.351  1.00  0.00     0.039 A 
ATOM     31  C   UNL A   1      34.027  33.217  30.372  1.00  0.00     0.014 A 
ATOM     32  C   UNL A   1      35.570  34.452  28.970  1.00  0.00     0.014 A 
ATOM     33  C   UNL A   1      35.104  32.563  30.975  1.00  0.00     0.010 A 
ATOM     34  C   UNL A   1      36.638  33.752  29.526  1.00  0.00     0.010 A 
ATOM     35  C   UNL A   1      36.415  32.805  30.537  1.00  0.00    -0.014 A 
BRANCH  35  36
ATOM     36  C   UNL A   1      37.568  32.082  31.131  1.00  0.00     0.031 A 
ATOM     37  C   UNL A   1      38.050  32.430  32.511  1.00  0.00     0.074 A 
ATOM     38  C   UNL A   1      38.217  31.153  30.403  1.00  0.00     0.049 A 
ATOM     39  N   UNL A   1      39.077  31.959  33.174  1.00  0.00    -0.248 NA
ATOM     40  C   UNL A   1      37.294  33.465  33.233  1.00  0.00     0.031 C 
ATOM     41  C   UNL A   1      37.874  30.758  29.037  1.00  0.00     0.029 A 
ATOM     42  N   UNL A   1      39.309  30.379  30.708  1.00  0.00    -0.354 N 
ATOM     43  C   UNL A   1      39.097  32.649  34.379  1.00  0.00     0.074 A 
ATOM     44  C   UNL A   1      38.012  33.605  34.337  1.00  0.00     0.031 C 
ATOM     45  C   UNL A   1      38.724  29.804  28.627  1.00  0.00     0.029 A 
ATOM     46  C   UNL A   1      39.693  29.543  29.689  1.00  0.00     0.049 A 
ATOM     47  H   UNL A   1      39.773  30.419  31.576  1.00  0.00     0.167 HD
ATOM     48  C   UNL A   1      39.931  32.484  35.434  1.00  0.00     0.037 A 
ATOM     49  C   UNL A   1      40.714  28.669  29.617  1.00  0.00     0.037 A 
ATOM     50  C   UNL A   1      40.991  31.512  35.483  1.00  0.00     0.049 A 
ATOM     51  C   UNL A   1      41.624  28.501  30.804  1.00  0.00     0.074 A 
ATOM     52  C   UNL A   1      41.853  31.226  36.528  1.00  0.00     0.029 A 
ATOM     53  N   UNL A   1      41.335  30.666  34.439  1.00  0.00    -0.354 N 
ATOM     54  N   UNL A   1      41.593  29.113  31.962  1.00  0.00    -0.248 NA
ATOM     55  C   UNL A   1      42.705  27.514  30.675  1.00  0.00     0.031 C 
ATOM     56  C   UNL A   1      42.745  30.236  36.102  1.00  0.00     0.029 A 
ATOM     57  C   UNL A   1      42.408  29.870  34.809  1.00  0.00     0.049 A 
ATOM     58  H   UNL A   1      40.884  30.635  33.565  1.00  0.00     0.167 HD
ATOM     59  C   UNL A   1      42.628  28.568  32.710  1.00  0.00     0.074 A 
ATOM     60  C   UNL A   1      43.260  27.565  31.877  1.00  0.00     0.031 C 
ATOM     61  C   UNL A   1      43.021  28.871  33.972  1.00  0.00     0.037 A 
BRANCH  48  62
ATOM     62  C   UNL A   1      39.726  33.374  36.625  1.00  0.00     0.064 A 
ATOM     63  C   UNL A   1      38.821  33.042  37.644  1.00  0.00     0.173 A 
ATOM     64  C   UNL A   1      40.471  34.554  36.770  1.00  0.00     0.173 A 
ATOM     65  F   UNL A   1      38.076  31.930  37.549  1.00  0.00    -0.203 F 
ATOM     66  C   UNL A   1      38.646  33.873  38.748  1.00  0.00     0.198 A 
ATOM     67  C   UNL A   1      40.316  35.367  37.889  1.00  0.00     0.198 A 
ATOM     68  F   UNL A   1      41.355  34.916  35.828  1.00  0.00    -0.203 F 
ATOM     69  F   UNL A   1      37.739  33.560  39.684  1.00  0.00    -0.200 F 
ATOM     70  C   UNL A   1      39.399  35.031  38.873  1.00  0.00     0.200 A 
ATOM     71  F   UNL A   1      41.053  36.480  38.015  1.00  0.00    -0.200 F 
ATOM     72  F   UNL A   1      39.235  35.826  39.940  1.00  0.00    -0.200 F 
ENDBRANCH  48  62
BRANCH  49  73
ATOM     73  C   UNL A   1      40.915  27.864  28.385  1.00  0.00     0.064 A 
ATOM     74  C   UNL A   1      40.297  26.613  28.235  1.00  0.00     0.173 A 
ATOM     75  C   UNL A   1      41.726  28.321  27.336  1.00  0.00     0.173 A 
ATOM     76  F   UNL A   1      39.529  26.125  29.219  1.00  0.00    -0.203 F 
ATOM     77  C   UNL A   1      40.499  25.843  27.092  1.00  0.00     0.198 A 
ATOM     78  C   UNL A   1      41.905  27.562  26.182  1.00  0.00     0.198 A 
ATOM     79  F   UNL A   1      42.336  29.512  27.429  1.00  0.00    -0.203 F 
ATOM     80  F   UNL A   1      39.933  24.633  26.993  1.00  0.00    -0.200 F 
ATOM     81  C   UNL A   1      41.299  26.320  26.063  1.00  0.00     0.200 A 
ATOM     82  F   UNL A   1      42.668  28.033  25.186  1.00  0.00    -0.200 F 
ATOM     83  F   UNL A   1      41.490  25.581  24.964  1.00  0.00    -0.200 F 
ENDBRANCH  49  73
BRANCH  61  84
ATOM     84  C   UNL A   1      44.164  28.085  34.543  1.00  0.00     0.064 A 
ATOM     85  C   UNL A   1      45.488  28.538  34.447  1.00  0.00     0.173 A 
ATOM     86  C   UNL A   1      43.926  26.882  35.225  1.00  0.00     0.173 A 
ATOM     87  F   UNL A   1      45.768  29.674  33.792  1.00  0.00    -0.203 F 
ATOM     88  C   UNL A   1      46.535  27.800  34.993  1.00  0.00     0.198 A 
ATOM     89  C   UNL A   1      44.973  26.163  35.795  1.00  0.00     0.198 A 
ATOM     90  F   UNL A   1      42.677  26.410  35.348  1.00  0.00    -0.203 F 
ATOM     91  F   UNL A   1      47.798  28.227  34.850  1.00  0.00    -0.200 F 
ATOM     92  C   UNL A   1      46.278  26.619  35.672  1.00  0.00     0.200 A 
ATOM     93  F   UNL A   1      44.720  25.028  36.460  1.00  0.00    -0.200 F 
ATOM     94  F   UNL A   1      47.286  25.914  36.202  1.00  0.00    -0.200 F 
ENDBRANCH  61  84
ENDBRANCH  35  36
ENDBRANCH  27  30
ENDBRANCH  25  26
ENDBRANCH  24  25
ENDBRANCH  23  24
ENDBRANCH  22  23
ENDBRANCH   1  22
TORSDOF 17
ENDMDL
