MODEL 1
REMARK VINA RESULT:     -10.7      0.000      0.000
REMARK SMILES Cc1noc(C)c1CNC(=O)N(CC(=O)NCCCCCCNC(=O)c1ccc(-c2c3nc(c(-c4c(F)c(F)c(F)c(F)c4F)c4ccc([nH]4)c(-c4c(F)c(F)c(F)c(F)c4F)c4nc(c(-c5c(F)c(F)c(F)c(F)c5F)c5ccc2[nH]5)C=C4)C=C3)cc1)CC(C)C
REMARK SMILES IDX 18 1 17 2 16 3 14 4 15 5 13 7 12 8 10 9 9 10 11 12 8 13 7 14
REMARK SMILES IDX 1 15 2 16 3 17 4 18 5 19 6 20 89 21 90 22 91 23 92 24 19 25
REMARK SMILES IDX 20 26 21 27 22 28 23 29 24 30 25 32 26 33 27 34 88 35 28 36
REMARK SMILES IDX 87 37 29 38 30 39 31 40 81 41 32 42 86 43 80 44 82 45 33 46
REMARK SMILES IDX 85 47 79 48 78 49 34 51 66 52 46 53 65 54 47 55 50 56 64 57
REMARK SMILES IDX 83 58 48 59 49 60 63 62 84 63 51 64 35 65 36 66 44 67 37 68
REMARK SMILES IDX 38 69 42 70 45 71 39 72 40 73 43 74 41 75 67 76 68 77 76 78
REMARK SMILES IDX 69 79 70 80 74 81 77 82 71 83 72 84 75 85 73 86 52 87 53 88
REMARK SMILES IDX 61 89 54 90 55 91 59 92 62 93 56 94 57 95 60 96 58 97
REMARK H PARENT 16 6 9 11 23 31 82 50 50 61
REMARK Flexibility Score: inf
ROOT
ATOM      1  C   UNL A   1      33.998  29.216  26.314  1.00  0.00     0.021 C 
ENDROOT
BRANCH   1   2
ATOM      2  C   UNL A   1      33.340  27.961  25.749  1.00  0.00     0.116 C 
BRANCH   2   3
ATOM      3  N   UNL A   1      34.168  26.786  25.909  1.00  0.00    -0.355 N 
ATOM      4  C   UNL A   1      34.108  25.552  25.342  1.00  0.00     0.239 C 
ATOM      5  O   UNL A   1      35.043  24.786  25.604  1.00  0.00    -0.273 OA
ATOM      6  H   UNL A   1      34.911  26.900  26.544  1.00  0.00     0.163 HD
BRANCH   4   7
ATOM      7  C   UNL A   1      33.073  25.150  24.278  1.00  0.00     0.221 C 
BRANCH   7   8
ATOM      8  N   UNL A   1      31.678  24.913  24.668  1.00  0.00    -0.315 N 
BRANCH   8   9
ATOM      9  C   UNL A   1      30.584  24.814  23.857  1.00  0.00     0.318 C 
ATOM     10  N   UNL A   1      29.635  25.749  23.732  1.00  0.00    -0.334 N 
ATOM     11  H   UNL A   1      28.970  25.475  23.059  1.00  0.00     0.165 HD
ATOM     12  O   UNL A   1      30.385  23.814  23.158  1.00  0.00    -0.249 OA
BRANCH  10  13
ATOM     13  C   UNL A   1      29.289  27.039  24.284  1.00  0.00     0.159 C 
BRANCH  13  14
ATOM     14  C   UNL A   1      29.290  28.072  23.214  1.00  0.00     0.037 A 
ATOM     15  C   UNL A   1      26.792  28.898  23.073  1.00  0.00     0.071 C 
ATOM     16  C   UNL A   1      28.225  28.869  22.692  1.00  0.00     0.086 A 
ATOM     17  N   UNL A   1      28.658  29.691  21.729  1.00  0.00    -0.085 NA
ATOM     18  O   UNL A   1      30.005  29.448  21.596  1.00  0.00    -0.361 OA
ATOM     19  C   UNL A   1      30.382  28.485  22.474  1.00  0.00     0.138 A 
ATOM     20  C   UNL A   1      31.808  28.106  22.444  1.00  0.00     0.091 C 
ENDBRANCH  13  14
ENDBRANCH  10  13
ENDBRANCH   8   9
BRANCH   8  21
ATOM     21  C   UNL A   1      31.498  24.501  26.077  1.00  0.00     0.125 C 
BRANCH  21  22
ATOM     22  C   UNL A   1      31.617  22.987  26.333  1.00  0.00     0.002 C 
ATOM     23  C   UNL A   1      32.549  22.652  27.500  1.00  0.00     0.009 C 
ATOM     24  C   UNL A   1      30.236  22.387  26.613  1.00  0.00     0.009 C 
ENDBRANCH  21  22
ENDBRANCH   8  21
ENDBRANCH   7   8
ENDBRANCH   4   7
ENDBRANCH   2   3
ENDBRANCH   1   2
BRANCH   1  25
ATOM     25  C   UNL A   1      33.127  30.038  27.264  1.00  0.00     0.002 C 
BRANCH  25  26
ATOM     26  C   UNL A   1      31.783  30.484  26.688  1.00  0.00     0.002 C 
BRANCH  26  27
ATOM     27  C   UNL A   1      31.438  31.959  26.904  1.00  0.00     0.021 C 
BRANCH  27  28
ATOM     28  C   UNL A   1      32.620  32.921  26.818  1.00  0.00     0.116 C 
BRANCH  28  29
ATOM     29  N   UNL A   1      32.389  34.153  27.552  1.00  0.00    -0.352 N 
ATOM     30  C   UNL A   1      33.043  34.638  28.661  1.00  0.00     0.251 C 
ATOM     31  H   UNL A   1      31.663  34.721  27.208  1.00  0.00     0.163 HD
ATOM     32  O   UNL A   1      32.621  35.614  29.260  1.00  0.00    -0.269 OA
BRANCH  30  33
ATOM     33  C   UNL A   1      34.255  33.940  29.142  1.00  0.00     0.039 A 
ATOM     34  C   UNL A   1      35.508  34.472  28.831  1.00  0.00     0.014 A 
ATOM     35  C   UNL A   1      34.148  32.782  29.916  1.00  0.00     0.014 A 
ATOM     36  C   UNL A   1      36.657  33.885  29.363  1.00  0.00     0.010 A 
ATOM     37  C   UNL A   1      35.289  32.235  30.497  1.00  0.00     0.010 A 
ATOM     38  C   UNL A   1      36.552  32.788  30.235  1.00  0.00    -0.014 A 
BRANCH  38  39
ATOM     39  C   UNL A   1      37.747  32.212  30.901  1.00  0.00     0.031 A 
ATOM     40  C   UNL A   1      38.535  31.126  30.223  1.00  0.00     0.074 A 
ATOM     41  C   UNL A   1      38.076  32.613  32.144  1.00  0.00     0.049 A 
ATOM     42  N   UNL A   1      39.531  30.414  30.685  1.00  0.00    -0.248 NA
ATOM     43  C   UNL A   1      38.135  30.781  28.850  1.00  0.00     0.031 C 
ATOM     44  C   UNL A   1      37.376  33.641  32.914  1.00  0.00     0.029 A 
ATOM     45  N   UNL A   1      39.074  32.190  32.987  1.00  0.00    -0.354 N 
ATOM     46  C   UNL A   1      39.872  29.538  29.665  1.00  0.00     0.074 A 
ATOM     47  C   UNL A   1      38.946  29.769  28.579  1.00  0.00     0.031 C 
ATOM     48  C   UNL A   1      37.974  33.781  34.109  1.00  0.00     0.029 A 
ATOM     49  C   UNL A   1      39.068  32.821  34.208  1.00  0.00     0.049 A 
ATOM     50  H   UNL A   1      39.734  31.502  32.739  1.00  0.00     0.167 HD
ATOM     51  C   UNL A   1      40.884  28.638  29.630  1.00  0.00     0.037 A 
ATOM     52  C   UNL A   1      39.845  32.629  35.291  1.00  0.00     0.037 A 
ATOM     53  C   UNL A   1      41.813  28.419  30.707  1.00  0.00     0.049 A 
ATOM     54  C   UNL A   1      40.923  31.578  35.245  1.00  0.00     0.074 A 
ATOM     55  C   UNL A   1      42.893  27.555  30.754  1.00  0.00     0.029 A 
ATOM     56  N   UNL A   1      41.768  29.070  31.931  1.00  0.00    -0.354 N 
ATOM     57  N   UNL A   1      41.269  30.790  34.257  1.00  0.00    -0.248 NA
ATOM     58  C   UNL A   1      41.716  31.388  36.468  1.00  0.00     0.031 C 
ATOM     59  C   UNL A   1      43.478  27.653  32.020  1.00  0.00     0.029 A 
ATOM     60  C   UNL A   1      42.789  28.610  32.748  1.00  0.00     0.049 A 
ATOM     61  H   UNL A   1      41.109  29.757  32.182  1.00  0.00     0.167 HD
ATOM     62  C   UNL A   1      42.333  30.034  34.727  1.00  0.00     0.074 A 
ATOM     63  C   UNL A   1      42.588  30.467  36.084  1.00  0.00     0.031 C 
ATOM     64  C   UNL A   1      43.036  29.064  34.092  1.00  0.00     0.037 A 
BRANCH  51  65
ATOM     65  C   UNL A   1      41.049  27.827  28.379  1.00  0.00     0.064 A 
ATOM     66  C   UNL A   1      41.862  28.268  27.324  1.00  0.00     0.173 A 
ATOM     67  C   UNL A   1      40.431  26.572  28.251  1.00  0.00     0.173 A 
ATOM     68  F   UNL A   1      42.465  29.465  27.393  1.00  0.00    -0.203 F 
ATOM     69  C   UNL A   1      42.033  27.496  26.179  1.00  0.00     0.198 A 
ATOM     70  C   UNL A   1      40.628  25.790  27.116  1.00  0.00     0.198 A 
ATOM     71  F   UNL A   1      39.649  26.101  29.233  1.00  0.00    -0.203 F 
ATOM     72  F   UNL A   1      42.782  27.957  25.167  1.00  0.00    -0.200 F 
ATOM     73  C   UNL A   1      41.423  26.255  26.079  1.00  0.00     0.200 A 
ATOM     74  F   UNL A   1      40.048  24.585  27.026  1.00  0.00    -0.200 F 
ATOM     75  F   UNL A   1      41.598  25.506  24.981  1.00  0.00    -0.200 F 
ENDBRANCH  51  65
BRANCH  52  76
ATOM     76  C   UNL A   1      39.640  33.445  36.516  1.00  0.00     0.064 A 
ATOM     77  C   UNL A   1      38.745  33.031  37.513  1.00  0.00     0.173 A 
ATOM     78  C   UNL A   1      40.305  34.666  36.703  1.00  0.00     0.173 A 
ATOM     79  F   UNL A   1      38.068  31.882  37.369  1.00  0.00    -0.203 F 
ATOM     80  C   UNL A   1      38.504  33.818  38.638  1.00  0.00     0.198 A 
ATOM     81  C   UNL A   1      40.086  35.437  37.843  1.00  0.00     0.198 A 
ATOM     82  F   UNL A   1      41.173  35.107  35.783  1.00  0.00    -0.203 F 
ATOM     83  F   UNL A   1      37.605  33.423  39.548  1.00  0.00    -0.200 F 
ATOM     84  C   UNL A   1      39.178  35.018  38.804  1.00  0.00     0.200 A 
ATOM     85  F   UNL A   1      40.750  36.589  38.007  1.00  0.00    -0.200 F 
ATOM     86  F   UNL A   1      38.945  35.776  39.885  1.00  0.00    -0.200 F 
ENDBRANCH  52  76
BRANCH  64  87
ATOM     87  C   UNL A   1      44.168  28.428  34.843  1.00  0.00     0.064 A 
ATOM     88  C   UNL A   1      43.990  27.248  35.579  1.00  0.00     0.173 A 
ATOM     89  C   UNL A   1      45.458  28.978  34.782  1.00  0.00     0.173 A 
ATOM     90  F   UNL A   1      42.771  26.695  35.681  1.00  0.00    -0.203 F 
ATOM     91  C   UNL A   1      45.058  26.649  36.240  1.00  0.00     0.198 A 
ATOM     92  C   UNL A   1      46.529  28.362  35.421  1.00  0.00     0.198 A 
ATOM     93  F   UNL A   1      45.682  30.104  34.088  1.00  0.00    -0.203 F 
ATOM     94  F   UNL A   1      44.857  25.544  36.969  1.00  0.00    -0.200 F 
ATOM     95  C   UNL A   1      46.328  27.201  36.153  1.00  0.00     0.200 A 
ATOM     96  F   UNL A   1      47.758  28.889  35.325  1.00  0.00    -0.200 F 
ATOM     97  F   UNL A   1      47.358  26.617  36.780  1.00  0.00    -0.200 F 
ENDBRANCH  64  87
ENDBRANCH  38  39
ENDBRANCH  30  33
ENDBRANCH  28  29
ENDBRANCH  27  28
ENDBRANCH  26  27
ENDBRANCH  25  26
ENDBRANCH   1  25
TORSDOF 19
ENDMDL
MODEL 2
REMARK VINA RESULT:     -10.4      1.483      2.768
REMARK SMILES Cc1noc(C)c1CNC(=O)N(CC(=O)NCCCCCCNC(=O)c1ccc(-c2c3nc(c(-c4c(F)c(F)c(F)c(F)c4F)c4ccc([nH]4)c(-c4c(F)c(F)c(F)c(F)c4F)c4nc(c(-c5c(F)c(F)c(F)c(F)c5F)c5ccc2[nH]5)C=C4)C=C3)cc1)CC(C)C
REMARK SMILES IDX 18 1 17 2 16 3 14 4 15 5 13 7 12 8 10 9 9 10 11 12 8 13 7 14
REMARK SMILES IDX 1 15 2 16 3 17 4 18 5 19 6 20 89 21 90 22 91 23 92 24 19 25
REMARK SMILES IDX 20 26 21 27 22 28 23 29 24 30 25 32 26 33 27 34 88 35 28 36
REMARK SMILES IDX 87 37 29 38 30 39 31 40 81 41 32 42 86 43 80 44 82 45 33 46
REMARK SMILES IDX 85 47 79 48 78 49 34 51 66 52 46 53 65 54 47 55 50 56 64 57
REMARK SMILES IDX 83 58 48 59 49 60 63 62 84 63 51 64 35 65 36 66 44 67 37 68
REMARK SMILES IDX 38 69 42 70 45 71 39 72 40 73 43 74 41 75 67 76 68 77 76 78
REMARK SMILES IDX 69 79 70 80 74 81 77 82 71 83 72 84 75 85 73 86 52 87 53 88
REMARK SMILES IDX 61 89 54 90 55 91 59 92 62 93 56 94 57 95 60 96 58 97
REMARK H PARENT 16 6 9 11 23 31 82 50 50 61
REMARK Flexibility Score: inf
ROOT
ATOM      1  C   UNL A   1      33.457  29.057  27.270  1.00  0.00     0.021 C 
ENDROOT
BRANCH   1   2
ATOM      2  C   UNL A   1      33.474  27.768  26.456  1.00  0.00     0.116 C 
BRANCH   2   3
ATOM      3  N   UNL A   1      33.030  27.972  25.094  1.00  0.00    -0.355 N 
ATOM      4  C   UNL A   1      33.308  27.307  23.942  1.00  0.00     0.239 C 
ATOM      5  O   UNL A   1      32.673  27.661  22.941  1.00  0.00    -0.273 OA
ATOM      6  H   UNL A   1      32.412  28.731  24.981  1.00  0.00     0.163 HD
BRANCH   4   7
ATOM      7  C   UNL A   1      34.198  26.055  23.872  1.00  0.00     0.221 C 
BRANCH   7   8
ATOM      8  N   UNL A   1      33.634  24.780  23.415  1.00  0.00    -0.315 N 
BRANCH   8   9
ATOM      9  C   UNL A   1      32.741  24.571  22.403  1.00  0.00     0.318 C 
ATOM     10  N   UNL A   1      31.506  24.079  22.559  1.00  0.00    -0.334 N 
ATOM     11  H   UNL A   1      31.034  24.058  21.696  1.00  0.00     0.165 HD
ATOM     12  O   UNL A   1      33.024  24.827  21.228  1.00  0.00    -0.249 OA
BRANCH  10  13
ATOM     13  C   UNL A   1      30.655  23.570  23.610  1.00  0.00     0.159 C 
BRANCH  13  14
ATOM     14  C   UNL A   1      30.649  24.506  24.765  1.00  0.00     0.037 A 
ATOM     15  C   UNL A   1      29.411  26.658  23.883  1.00  0.00     0.071 C 
ATOM     16  C   UNL A   1      30.120  25.827  24.887  1.00  0.00     0.086 A 
ATOM     17  N   UNL A   1      30.321  26.323  26.114  1.00  0.00    -0.085 NA
ATOM     18  O   UNL A   1      30.988  25.345  26.815  1.00  0.00    -0.361 OA
ATOM     19  C   UNL A   1      31.187  24.267  26.017  1.00  0.00     0.138 A 
ATOM     20  C   UNL A   1      31.902  23.132  26.630  1.00  0.00     0.091 C 
ENDBRANCH  13  14
ENDBRANCH  10  13
ENDBRANCH   8   9
BRANCH   8  21
ATOM     21  C   UNL A   1      34.302  23.583  23.968  1.00  0.00     0.125 C 
BRANCH  21  22
ATOM     22  C   UNL A   1      35.788  23.772  24.327  1.00  0.00     0.002 C 
ATOM     23  C   UNL A   1      36.079  23.515  25.808  1.00  0.00     0.009 C 
ATOM     24  C   UNL A   1      36.661  22.841  23.481  1.00  0.00     0.009 C 
ENDBRANCH  21  22
ENDBRANCH   8  21
ENDBRANCH   7   8
ENDBRANCH   4   7
ENDBRANCH   2   3
ENDBRANCH   1   2
BRANCH   1  25
ATOM     25  C   UNL A   1      34.833  29.620  27.628  1.00  0.00     0.002 C 
BRANCH  25  26
ATOM     26  C   UNL A   1      34.836  31.075  28.098  1.00  0.00     0.002 C 
BRANCH  26  27
ATOM     27  C   UNL A   1      33.493  31.799  27.985  1.00  0.00     0.021 C 
BRANCH  27  28
ATOM     28  C   UNL A   1      33.536  33.135  27.249  1.00  0.00     0.116 C 
BRANCH  28  29
ATOM     29  N   UNL A   1      32.919  34.209  28.010  1.00  0.00    -0.352 N 
ATOM     30  C   UNL A   1      33.250  34.691  29.255  1.00  0.00     0.251 C 
ATOM     31  H   UNL A   1      32.159  34.655  27.573  1.00  0.00     0.163 HD
ATOM     32  O   UNL A   1      32.529  35.492  29.828  1.00  0.00    -0.269 OA
BRANCH  30  33
ATOM     33  C   UNL A   1      34.482  34.201  29.911  1.00  0.00     0.039 A 
ATOM     34  C   UNL A   1      34.367  33.410  31.057  1.00  0.00     0.014 A 
ATOM     35  C   UNL A   1      35.738  34.502  29.380  1.00  0.00     0.014 A 
ATOM     36  C   UNL A   1      35.513  32.854  31.627  1.00  0.00     0.010 A 
ATOM     37  C   UNL A   1      36.873  33.896  29.912  1.00  0.00     0.010 A 
ATOM     38  C   UNL A   1      36.770  33.059  31.033  1.00  0.00    -0.014 A 
BRANCH  38  39
ATOM     39  C   UNL A   1      37.990  32.392  31.554  1.00  0.00     0.031 A 
ATOM     40  C   UNL A   1      38.580  31.223  30.817  1.00  0.00     0.074 A 
ATOM     41  C   UNL A   1      38.518  32.790  32.727  1.00  0.00     0.049 A 
ATOM     42  N   UNL A   1      39.564  30.435  31.167  1.00  0.00    -0.248 NA
ATOM     43  C   UNL A   1      37.969  30.884  29.522  1.00  0.00     0.031 C 
ATOM     44  C   UNL A   1      38.021  33.896  33.547  1.00  0.00     0.029 A 
ATOM     45  N   UNL A   1      39.580  32.299  33.444  1.00  0.00    -0.354 N 
ATOM     46  C   UNL A   1      39.687  29.507  30.143  1.00  0.00     0.074 A 
ATOM     47  C   UNL A   1      38.645  29.796  29.182  1.00  0.00     0.031 C 
ATOM     48  C   UNL A   1      38.785  34.009  34.645  1.00  0.00     0.029 A 
ATOM     49  C   UNL A   1      39.795  32.956  34.632  1.00  0.00     0.049 A 
ATOM     50  H   UNL A   1      40.138  31.548  33.136  1.00  0.00     0.167 HD
ATOM     51  C   UNL A   1      40.602  28.518  30.005  1.00  0.00     0.037 A 
ATOM     52  C   UNL A   1      40.692  32.719  35.609  1.00  0.00     0.037 A 
ATOM     53  C   UNL A   1      41.645  28.241  30.956  1.00  0.00     0.049 A 
ATOM     54  C   UNL A   1      41.658  31.575  35.457  1.00  0.00     0.074 A 
ATOM     55  C   UNL A   1      42.643  27.283  30.890  1.00  0.00     0.029 A 
ATOM     56  N   UNL A   1      41.825  28.922  32.152  1.00  0.00    -0.354 N 
ATOM     57  N   UNL A   1      41.797  30.735  34.460  1.00  0.00    -0.248 NA
ATOM     58  C   UNL A   1      42.590  31.342  36.570  1.00  0.00     0.031 C 
ATOM     59  C   UNL A   1      43.400  27.358  32.063  1.00  0.00     0.029 A 
ATOM     60  C   UNL A   1      42.902  28.391  32.841  1.00  0.00     0.049 A 
ATOM     61  H   UNL A   1      41.268  29.672  32.464  1.00  0.00     0.167 HD
ATOM     62  C   UNL A   1      42.845  29.896  34.811  1.00  0.00     0.074 A 
ATOM     63  C   UNL A   1      43.318  30.336  36.106  1.00  0.00     0.031 C 
ATOM     64  C   UNL A   1      43.369  28.852  34.123  1.00  0.00     0.037 A 
BRANCH  51  65
ATOM     65  C   UNL A   1      40.524  27.666  28.773  1.00  0.00     0.064 A 
ATOM     66  C   UNL A   1      41.278  27.967  27.628  1.00  0.00     0.173 A 
ATOM     67  C   UNL A   1      39.729  26.509  28.750  1.00  0.00     0.173 A 
ATOM     68  F   UNL A   1      42.045  29.067  27.596  1.00  0.00    -0.203 F 
ATOM     69  C   UNL A   1      41.223  27.154  26.500  1.00  0.00     0.198 A 
ATOM     70  C   UNL A   1      39.698  25.684  27.629  1.00  0.00     0.198 A 
ATOM     71  F   UNL A   1      38.993  26.173  29.821  1.00  0.00    -0.203 F 
ATOM     72  F   UNL A   1      41.921  27.484  25.404  1.00  0.00    -0.200 F 
ATOM     73  C   UNL A   1      40.440  26.010  26.504  1.00  0.00     0.200 A 
ATOM     74  F   UNL A   1      38.951  24.571  27.639  1.00  0.00    -0.200 F 
ATOM     75  F   UNL A   1      40.396  25.222  25.420  1.00  0.00    -0.200 F 
ENDBRANCH  51  65
BRANCH  52  76
ATOM     76  C   UNL A   1      40.727  33.580  36.820  1.00  0.00     0.064 A 
ATOM     77  C   UNL A   1      41.628  34.651  36.914  1.00  0.00     0.173 A 
ATOM     78  C   UNL A   1      39.887  33.337  37.916  1.00  0.00     0.173 A 
ATOM     79  F   UNL A   1      42.467  34.909  35.900  1.00  0.00    -0.203 F 
ATOM     80  C   UNL A   1      41.706  35.428  38.068  1.00  0.00     0.198 A 
ATOM     81  C   UNL A   1      39.945  34.134  39.058  1.00  0.00     0.198 A 
ATOM     82  F   UNL A   1      39.005  32.329  37.878  1.00  0.00    -0.203 F 
ATOM     83  F   UNL A   1      42.613  36.410  38.150  1.00  0.00    -0.200 F 
ATOM     84  C   UNL A   1      40.862  35.172  39.138  1.00  0.00     0.200 A 
ATOM     85  F   UNL A   1      39.118  33.893  40.084  1.00  0.00    -0.200 F 
ATOM     86  F   UNL A   1      40.938  35.918  40.248  1.00  0.00    -0.200 F 
ENDBRANCH  52  76
BRANCH  64  87
ATOM     87  C   UNL A   1      44.532  28.134  34.739  1.00  0.00     0.064 A 
ATOM     88  C   UNL A   1      45.850  28.576  34.555  1.00  0.00     0.173 A 
ATOM     89  C   UNL A   1      44.321  27.022  35.569  1.00  0.00     0.173 A 
ATOM     90  F   UNL A   1      46.103  29.625  33.756  1.00  0.00    -0.203 F 
ATOM     91  C   UNL A   1      46.916  27.922  35.165  1.00  0.00     0.198 A 
ATOM     92  C   UNL A   1      45.387  26.386  36.199  1.00  0.00     0.198 A 
ATOM     93  F   UNL A   1      43.079  26.561  35.781  1.00  0.00    -0.203 F 
ATOM     94  F   UNL A   1      48.170  28.338  34.942  1.00  0.00    -0.200 F 
ATOM     95  C   UNL A   1      46.683  26.834  35.993  1.00  0.00     0.200 A 
ATOM     96  F   UNL A   1      45.159  25.344  37.009  1.00  0.00    -0.200 F 
ATOM     97  F   UNL A   1      47.710  26.212  36.589  1.00  0.00    -0.200 F 
ENDBRANCH  64  87
ENDBRANCH  38  39
ENDBRANCH  30  33
ENDBRANCH  28  29
ENDBRANCH  27  28
ENDBRANCH  26  27
ENDBRANCH  25  26
ENDBRANCH   1  25
TORSDOF 19
ENDMDL
MODEL 3
REMARK VINA RESULT:     -10.3      1.792      7.620
REMARK SMILES Cc1noc(C)c1CNC(=O)N(CC(=O)NCCCCCCNC(=O)c1ccc(-c2c3nc(c(-c4c(F)c(F)c(F)c(F)c4F)c4ccc([nH]4)c(-c4c(F)c(F)c(F)c(F)c4F)c4nc(c(-c5c(F)c(F)c(F)c(F)c5F)c5ccc2[nH]5)C=C4)C=C3)cc1)CC(C)C
REMARK SMILES IDX 18 1 17 2 16 3 14 4 15 5 13 7 12 8 10 9 9 10 11 12 8 13 7 14
REMARK SMILES IDX 1 15 2 16 3 17 4 18 5 19 6 20 89 21 90 22 91 23 92 24 19 25
REMARK SMILES IDX 20 26 21 27 22 28 23 29 24 30 25 32 26 33 27 34 88 35 28 36
REMARK SMILES IDX 87 37 29 38 30 39 31 40 81 41 32 42 86 43 80 44 82 45 33 46
REMARK SMILES IDX 85 47 79 48 78 49 34 51 66 52 46 53 65 54 47 55 50 56 64 57
REMARK SMILES IDX 83 58 48 59 49 60 63 62 84 63 51 64 35 65 36 66 44 67 37 68
REMARK SMILES IDX 38 69 42 70 45 71 39 72 40 73 43 74 41 75 67 76 68 77 76 78
REMARK SMILES IDX 69 79 70 80 74 81 77 82 71 83 72 84 75 85 73 86 52 87 53 88
REMARK SMILES IDX 61 89 54 90 55 91 59 92 62 93 56 94 57 95 60 96 58 97
REMARK H PARENT 16 6 9 11 23 31 82 50 50 61
REMARK Flexibility Score: inf
ROOT
ATOM      1  C   UNL A   1      34.996  30.804  27.457  1.00  0.00     0.021 C 
ENDROOT
BRANCH   1   2
ATOM      2  C   UNL A   1      34.475  29.472  26.927  1.00  0.00     0.116 C 
BRANCH   2   3
ATOM      3  N   UNL A   1      33.248  29.066  27.576  1.00  0.00    -0.355 N 
ATOM      4  C   UNL A   1      32.357  28.079  27.291  1.00  0.00     0.239 C 
ATOM      5  O   UNL A   1      31.450  27.910  28.115  1.00  0.00    -0.273 OA
ATOM      6  H   UNL A   1      33.015  29.600  28.369  1.00  0.00     0.163 HD
BRANCH   4   7
ATOM      7  C   UNL A   1      32.532  27.077  26.137  1.00  0.00     0.221 C 
BRANCH   7   8
ATOM      8  N   UNL A   1      31.824  25.793  26.171  1.00  0.00    -0.315 N 
BRANCH   8   9
ATOM      9  C   UNL A   1      30.526  25.538  25.832  1.00  0.00     0.318 C 
ATOM     10  N   UNL A   1      30.053  25.501  24.581  1.00  0.00    -0.334 N 
ATOM     11  H   UNL A   1      29.099  25.258  24.582  1.00  0.00     0.165 HD
ATOM     12  O   UNL A   1      29.665  25.320  26.691  1.00  0.00    -0.249 OA
BRANCH  10  13
ATOM     13  C   UNL A   1      30.517  25.710  23.228  1.00  0.00     0.159 C 
BRANCH  13  14
ATOM     14  C   UNL A   1      30.629  27.165  22.943  1.00  0.00     0.037 A 
ATOM     15  C   UNL A   1      28.177  28.094  23.202  1.00  0.00     0.071 C 
ATOM     16  C   UNL A   1      29.632  28.188  22.929  1.00  0.00     0.086 A 
ATOM     17  N   UNL A   1      30.160  29.380  22.627  1.00  0.00    -0.085 NA
ATOM     18  O   UNL A   1      31.505  29.164  22.432  1.00  0.00    -0.361 OA
ATOM     19  C   UNL A   1      31.785  27.849  22.615  1.00  0.00     0.138 A 
ATOM     20  C   UNL A   1      33.195  27.459  22.430  1.00  0.00     0.091 C 
ENDBRANCH  13  14
ENDBRANCH  10  13
ENDBRANCH   8   9
BRANCH   8  21
ATOM     21  C   UNL A   1      32.701  24.617  26.367  1.00  0.00     0.125 C 
BRANCH  21  22
ATOM     22  C   UNL A   1      34.013  24.640  25.562  1.00  0.00     0.002 C 
ATOM     23  C   UNL A   1      35.083  23.711  26.139  1.00  0.00     0.009 C 
ATOM     24  C   UNL A   1      33.748  24.247  24.106  1.00  0.00     0.009 C 
ENDBRANCH  21  22
ENDBRANCH   8  21
ENDBRANCH   7   8
ENDBRANCH   4   7
ENDBRANCH   2   3
ENDBRANCH   1   2
BRANCH   1  25
ATOM     25  C   UNL A   1      34.027  31.574  28.354  1.00  0.00     0.002 C 
BRANCH  25  26
ATOM     26  C   UNL A   1      34.098  33.096  28.228  1.00  0.00     0.002 C 
BRANCH  26  27
ATOM     27  C   UNL A   1      33.697  33.873  29.484  1.00  0.00     0.021 C 
BRANCH  27  28
ATOM     28  C   UNL A   1      33.495  35.373  29.281  1.00  0.00     0.116 C 
BRANCH  28  29
ATOM     29  N   UNL A   1      32.673  35.969  30.322  1.00  0.00    -0.352 N 
ATOM     30  C   UNL A   1      32.767  35.831  31.687  1.00  0.00     0.251 C 
ATOM     31  H   UNL A   1      31.948  36.553  30.005  1.00  0.00     0.163 HD
ATOM     32  O   UNL A   1      31.897  36.269  32.422  1.00  0.00    -0.269 OA
BRANCH  30  33
ATOM     33  C   UNL A   1      33.928  35.114  32.258  1.00  0.00     0.039 A 
ATOM     34  C   UNL A   1      33.728  33.859  32.836  1.00  0.00     0.014 A 
ATOM     35  C   UNL A   1      35.208  35.672  32.198  1.00  0.00     0.014 A 
ATOM     36  C   UNL A   1      34.827  33.125  33.285  1.00  0.00     0.010 A 
ATOM     37  C   UNL A   1      36.307  34.914  32.589  1.00  0.00     0.010 A 
ATOM     38  C   UNL A   1      36.128  33.630  33.126  1.00  0.00    -0.014 A 
BRANCH  38  39
ATOM     39  C   UNL A   1      37.321  32.826  33.495  1.00  0.00     0.031 A 
ATOM     40  C   UNL A   1      38.053  33.112  34.776  1.00  0.00     0.074 A 
ATOM     41  C   UNL A   1      37.786  31.893  32.642  1.00  0.00     0.049 A 
ATOM     42  N   UNL A   1      39.176  32.608  35.218  1.00  0.00    -0.248 NA
ATOM     43  C   UNL A   1      37.450  34.114  35.669  1.00  0.00     0.031 C 
ATOM     44  C   UNL A   1      37.177  31.540  31.359  1.00  0.00     0.029 A 
ATOM     45  N   UNL A   1      38.891  31.082  32.718  1.00  0.00    -0.354 N 
ATOM     46  C   UNL A   1      39.417  33.232  36.434  1.00  0.00     0.074 A 
ATOM     47  C   UNL A   1      38.352  34.190  36.637  1.00  0.00     0.031 C 
ATOM     48  C   UNL A   1      37.906  30.575  30.776  1.00  0.00     0.029 A 
ATOM     49  C   UNL A   1      39.058  30.274  31.619  1.00  0.00     0.049 A 
ATOM     50  H   UNL A   1      39.505  31.077  33.488  1.00  0.00     0.167 HD
ATOM     51  C   UNL A   1      40.423  33.009  37.312  1.00  0.00     0.037 A 
ATOM     52  C   UNL A   1      40.043  29.406  31.317  1.00  0.00     0.037 A 
ATOM     53  C   UNL A   1      41.474  32.046  37.113  1.00  0.00     0.049 A 
ATOM     54  C   UNL A   1      41.181  29.222  32.285  1.00  0.00     0.074 A 
ATOM     55  C   UNL A   1      42.519  31.720  37.961  1.00  0.00     0.029 A 
ATOM     56  N   UNL A   1      41.615  31.253  35.983  1.00  0.00    -0.354 N 
ATOM     57  N   UNL A   1      41.372  29.782  33.455  1.00  0.00    -0.248 NA
ATOM     58  C   UNL A   1      42.245  28.288  31.888  1.00  0.00     0.031 C 
ATOM     59  C   UNL A   1      43.314  30.761  37.327  1.00  0.00     0.029 A 
ATOM     60  C   UNL A   1      42.741  30.456  36.102  1.00  0.00     0.049 A 
ATOM     61  H   UNL A   1      41.004  31.257  35.211  1.00  0.00     0.167 HD
ATOM     62  C   UNL A   1      42.557  29.249  33.944  1.00  0.00     0.074 A 
ATOM     63  C   UNL A   1      43.035  28.310  32.952  1.00  0.00     0.031 C 
ATOM     64  C   UNL A   1      43.194  29.516  35.111  1.00  0.00     0.037 A 
BRANCH  51  65
ATOM     65  C   UNL A   1      40.431  33.812  38.579  1.00  0.00     0.064 A 
ATOM     66  C   UNL A   1      39.690  33.413  39.702  1.00  0.00     0.173 A 
ATOM     67  C   UNL A   1      41.226  34.964  38.692  1.00  0.00     0.173 A 
ATOM     68  F   UNL A   1      38.906  32.326  39.641  1.00  0.00    -0.203 F 
ATOM     69  C   UNL A   1      39.727  34.149  40.883  1.00  0.00     0.198 A 
ATOM     70  C   UNL A   1      41.281  35.681  39.884  1.00  0.00     0.198 A 
ATOM     71  F   UNL A   1      41.958  35.385  37.650  1.00  0.00    -0.203 F 
ATOM     72  F   UNL A   1      38.979  33.770  41.929  1.00  0.00    -0.200 F 
ATOM     73  C   UNL A   1      40.528  35.276  40.976  1.00  0.00     0.200 A 
ATOM     74  F   UNL A   1      42.066  36.764  39.977  1.00  0.00    -0.200 F 
ATOM     75  F   UNL A   1      40.571  35.978  42.117  1.00  0.00    -0.200 F 
ENDBRANCH  51  65
BRANCH  52  76
ATOM     76  C   UNL A   1      40.003  28.639  30.045  1.00  0.00     0.064 A 
ATOM     77  C   UNL A   1      39.411  27.368  29.991  1.00  0.00     0.173 A 
ATOM     78  C   UNL A   1      40.578  29.140  28.868  1.00  0.00     0.173 A 
ATOM     79  F   UNL A   1      38.868  26.837  31.097  1.00  0.00    -0.203 F 
ATOM     80  C   UNL A   1      39.419  26.618  28.817  1.00  0.00     0.198 A 
ATOM     81  C   UNL A   1      40.558  28.401  27.686  1.00  0.00     0.198 A 
ATOM     82  F   UNL A   1      41.154  30.350  28.863  1.00  0.00    -0.203 F 
ATOM     83  F   UNL A   1      38.894  25.386  28.809  1.00  0.00    -0.200 F 
ATOM     84  C   UNL A   1      39.988  27.136  27.664  1.00  0.00     0.200 A 
ATOM     85  F   UNL A   1      41.097  28.912  26.571  1.00  0.00    -0.200 F 
ATOM     86  F   UNL A   1      39.997  26.415  26.535  1.00  0.00    -0.200 F 
ENDBRANCH  52  76
BRANCH  64  87
ATOM     87  C   UNL A   1      44.459  28.760  35.394  1.00  0.00     0.064 A 
ATOM     88  C   UNL A   1      45.714  29.266  35.027  1.00  0.00     0.173 A 
ATOM     89  C   UNL A   1      44.416  27.542  36.088  1.00  0.00     0.173 A 
ATOM     90  F   UNL A   1      45.803  30.419  34.346  1.00  0.00    -0.203 F 
ATOM     91  C   UNL A   1      46.881  28.572  35.331  1.00  0.00     0.198 A 
ATOM     92  C   UNL A   1      45.587  26.864  36.415  1.00  0.00     0.198 A 
ATOM     93  F   UNL A   1      43.241  27.018  36.465  1.00  0.00    -0.203 F 
ATOM     94  F   UNL A   1      48.067  29.054  34.936  1.00  0.00    -0.200 F 
ATOM     95  C   UNL A   1      46.817  27.376  36.032  1.00  0.00     0.200 A 
ATOM     96  F   UNL A   1      45.525  25.716  37.104  1.00  0.00    -0.200 F 
ATOM     97  F   UNL A   1      47.943  26.715  36.334  1.00  0.00    -0.200 F 
ENDBRANCH  64  87
ENDBRANCH  38  39
ENDBRANCH  30  33
ENDBRANCH  28  29
ENDBRANCH  27  28
ENDBRANCH  26  27
ENDBRANCH  25  26
ENDBRANCH   1  25
TORSDOF 19
ENDMDL
