MODEL 1
REMARK VINA RESULT:     -11.9      0.000      0.000
REMARK SMILES O=C(C[C@H]([NH2+]Cc1ccccc1C1CC1)c1cccs1)NCCCCCCNC(=O)c1ccc(-c2c3nc(c(-c4c(F)c(F)c(F)c(F)c4F)c4ccc([nH]4)c(-c4c(F)c(F)c(F)c(F)c4F)c4nc(c(-c5c(F)c(F)c(F)c(F)c5F)c5ccc2[nH]5)C=C4)C=C3)cc1
REMARK SMILES IDX 23 1 22 2 21 3 1 4 2 5 3 7 4 8 16 9 17 10 20 11 18 12 19 13
REMARK SMILES IDX 5 14 6 17 7 18 8 19 12 20 9 21 11 22 10 23 13 24 14 25 15 26
REMARK SMILES IDX 24 27 25 28 26 29 27 30 28 31 29 32 30 34 31 35 32 36 93 37
REMARK SMILES IDX 33 38 92 39 34 40 35 41 36 42 86 43 37 44 91 45 85 46 87 47
REMARK SMILES IDX 38 48 90 49 84 50 83 51 39 53 71 54 51 55 70 56 52 57 55 58
REMARK SMILES IDX 69 59 88 60 53 61 54 62 68 64 89 65 56 66 40 67 41 68 49 69
REMARK SMILES IDX 42 70 43 71 47 72 50 73 44 74 45 75 48 76 46 77 72 78 73 79
REMARK SMILES IDX 81 80 74 81 75 82 79 83 82 84 76 85 77 86 80 87 78 88 57 89
REMARK SMILES IDX 58 90 66 91 59 92 60 93 64 94 67 95 61 96 62 97 65 98 63 99
REMARK H PARENT 21 6 5 15 5 16 28 33 87 52 55 63
REMARK Flexibility Score: inf
ROOT
ATOM      1  C   UNL A   1      32.880  28.276  27.038  1.00  0.00     0.021 C 
ENDROOT
BRANCH   1   2
ATOM      2  C   UNL A   1      31.537  27.680  27.462  1.00  0.00     0.116 C 
BRANCH   2   3
ATOM      3  N   UNL A   1      30.915  26.985  26.355  1.00  0.00    -0.356 N 
ATOM      4  O   UNL A   1      31.707  24.903  26.888  1.00  0.00    -0.275 OA
ATOM      5  C   UNL A   1      31.084  25.640  26.130  1.00  0.00     0.226 C 
ATOM      6  H   UNL A   1      30.345  27.499  25.738  1.00  0.00     0.163 HD
BRANCH   5   7
ATOM      7  C   UNL A   1      30.508  25.146  24.824  1.00  0.00     0.171 C 
BRANCH   7   8
ATOM      8  C   UNL A   1      31.499  25.189  23.649  1.00  0.00     0.233 C 
BRANCH   8   9
ATOM      9  C   UNL A   1      31.727  26.638  23.259  1.00  0.00     0.062 A 
ATOM     10  C   UNL A   1      30.792  27.572  22.852  1.00  0.00     0.021 A 
ATOM     11  S   UNL A   1      33.299  27.325  23.337  1.00  0.00    -0.143 S 
ATOM     12  C   UNL A   1      31.351  28.872  22.702  1.00  0.00     0.012 A 
ATOM     13  C   UNL A   1      32.703  28.884  22.963  1.00  0.00     0.065 A 
ENDBRANCH   8   9
BRANCH   8  14
ATOM     14  N   UNL A   1      32.784  24.548  24.003  1.00  0.00    -0.335 N 
ATOM     15  H   UNL A   1      32.697  24.126  24.929  1.00  0.00     0.347 HD
ATOM     16  H   UNL A   1      33.510  25.264  23.993  1.00  0.00     0.347 HD
BRANCH  14  17
ATOM     17  C   UNL A   1      33.158  23.502  23.037  1.00  0.00     0.298 C 
BRANCH  17  18
ATOM     18  C   UNL A   1      33.379  22.144  23.671  1.00  0.00     0.010 A 
ATOM     19  C   UNL A   1      32.301  21.228  23.535  1.00  0.00     0.010 A 
ATOM     20  C   UNL A   1      34.571  21.735  24.333  1.00  0.00    -0.036 A 
ATOM     21  C   UNL A   1      32.356  19.939  24.054  1.00  0.00     0.001 A 
ATOM     22  C   UNL A   1      34.567  20.411  24.853  1.00  0.00     0.004 A 
ATOM     23  C   UNL A   1      33.494  19.530  24.721  1.00  0.00     0.000 A 
BRANCH  20  24
ATOM     24  C   UNL A   1      35.868  22.509  24.602  1.00  0.00     0.020 C 
ATOM     25  C   UNL A   1      37.290  22.042  24.470  1.00  0.00     0.009 C 
ATOM     26  C   UNL A   1      36.710  22.981  23.446  1.00  0.00     0.009 C 
ENDBRANCH  20  24
ENDBRANCH  17  18
ENDBRANCH  14  17
ENDBRANCH   8  14
ENDBRANCH   7   8
ENDBRANCH   5   7
ENDBRANCH   2   3
ENDBRANCH   1   2
BRANCH   1  27
ATOM     27  C   UNL A   1      32.929  29.811  27.070  1.00  0.00     0.002 C 
BRANCH  27  28
ATOM     28  C   UNL A   1      31.820  30.514  26.281  1.00  0.00     0.002 C 
BRANCH  28  29
ATOM     29  C   UNL A   1      31.531  31.950  26.716  1.00  0.00     0.021 C 
BRANCH  29  30
ATOM     30  C   UNL A   1      32.717  32.677  27.344  1.00  0.00     0.116 C 
BRANCH  30  31
ATOM     31  N   UNL A   1      32.419  34.071  27.640  1.00  0.00    -0.352 N 
ATOM     32  C   UNL A   1      32.988  34.909  28.568  1.00  0.00     0.251 C 
ATOM     33  H   UNL A   1      31.705  34.471  27.095  1.00  0.00     0.163 HD
ATOM     34  O   UNL A   1      32.491  36.003  28.800  1.00  0.00    -0.269 OA
BRANCH  32  35
ATOM     35  C   UNL A   1      34.189  34.472  29.313  1.00  0.00     0.039 A 
ATOM     36  C   UNL A   1      34.031  33.961  30.604  1.00  0.00     0.014 A 
ATOM     37  C   UNL A   1      35.460  34.551  28.738  1.00  0.00     0.014 A 
ATOM     38  C   UNL A   1      35.139  33.453  31.286  1.00  0.00     0.010 A 
ATOM     39  C   UNL A   1      36.549  33.976  29.388  1.00  0.00     0.010 A 
ATOM     40  C   UNL A   1      36.397  33.412  30.663  1.00  0.00    -0.014 A 
BRANCH  40  41
ATOM     41  C   UNL A   1      37.551  32.737  31.312  1.00  0.00     0.031 A 
ATOM     42  C   UNL A   1      38.227  31.571  30.652  1.00  0.00     0.074 A 
ATOM     43  C   UNL A   1      37.939  33.133  32.540  1.00  0.00     0.049 A 
ATOM     44  N   UNL A   1      39.199  30.816  31.098  1.00  0.00    -0.248 NA
ATOM     45  C   UNL A   1      37.727  31.186  29.324  1.00  0.00     0.031 C 
ATOM     46  C   UNL A   1      37.326  34.217  33.309  1.00  0.00     0.029 A 
ATOM     47  N   UNL A   1      38.928  32.658  33.365  1.00  0.00    -0.354 N 
ATOM     48  C   UNL A   1      39.425  29.868  30.109  1.00  0.00     0.074 A 
ATOM     49  C   UNL A   1      38.446  30.103  29.069  1.00  0.00     0.031 C 
ATOM     50  C   UNL A   1      37.959  34.333  34.486  1.00  0.00     0.029 A 
ATOM     51  C   UNL A   1      38.990  33.303  34.575  1.00  0.00     0.049 A 
ATOM     52  H   UNL A   1      39.535  31.926  33.113  1.00  0.00     0.167 HD
ATOM     53  C   UNL A   1      40.378  28.904  30.064  1.00  0.00     0.037 A 
ATOM     54  C   UNL A   1      39.775  33.080  35.647  1.00  0.00     0.037 A 
ATOM     55  C   UNL A   1      41.344  28.672  31.106  1.00  0.00     0.049 A 
ATOM     56  C   UNL A   1      40.802  31.985  35.589  1.00  0.00     0.074 A 
ATOM     57  C   UNL A   1      42.382  27.756  31.133  1.00  0.00     0.029 A 
ATOM     58  N   UNL A   1      41.382  29.351  32.317  1.00  0.00    -0.354 N 
ATOM     59  N   UNL A   1      41.062  31.145  34.617  1.00  0.00    -0.248 NA
ATOM     60  C   UNL A   1      41.650  31.808  36.776  1.00  0.00     0.031 C 
ATOM     61  C   UNL A   1      43.007  27.839  32.382  1.00  0.00     0.029 A 
ATOM     62  C   UNL A   1      42.402  28.849  33.112  1.00  0.00     0.049 A 
ATOM     63  H   UNL A   1      40.774  30.082  32.573  1.00  0.00     0.167 HD
ATOM     64  C   UNL A   1      42.109  30.351  35.065  1.00  0.00     0.074 A 
ATOM     65  C   UNL A   1      42.453  30.827  36.389  1.00  0.00     0.031 C 
ATOM     66  C   UNL A   1      42.726  29.321  34.436  1.00  0.00     0.037 A 
BRANCH  53  67
ATOM     67  C   UNL A   1      40.409  28.024  28.845  1.00  0.00     0.064 A 
ATOM     68  C   UNL A   1      39.707  26.809  28.796  1.00  0.00     0.173 A 
ATOM     69  C   UNL A   1      41.138  28.403  27.708  1.00  0.00     0.173 A 
ATOM     70  F   UNL A   1      39.000  26.393  29.857  1.00  0.00    -0.203 F 
ATOM     71  C   UNL A   1      39.773  25.986  27.674  1.00  0.00     0.198 A 
ATOM     72  C   UNL A   1      41.170  27.596  26.573  1.00  0.00     0.198 A 
ATOM     73  F   UNL A   1      41.818  29.559  27.693  1.00  0.00    -0.203 F 
ATOM     74  F   UNL A   1      39.150  24.799  27.678  1.00  0.00    -0.200 F 
ATOM     75  C   UNL A   1      40.500  26.383  26.562  1.00  0.00     0.200 A 
ATOM     76  F   UNL A   1      41.860  27.988  25.493  1.00  0.00    -0.200 F 
ATOM     77  F   UNL A   1      40.562  25.590  25.483  1.00  0.00    -0.200 F 
ENDBRANCH  53  67
BRANCH  54  78
ATOM     78  C   UNL A   1      39.609  33.921  36.862  1.00  0.00     0.064 A 
ATOM     79  C   UNL A   1      40.220  35.177  36.964  1.00  0.00     0.173 A 
ATOM     80  C   UNL A   1      38.812  33.493  37.936  1.00  0.00     0.173 A 
ATOM     81  F   UNL A   1      41.007  35.621  35.972  1.00  0.00    -0.203 F 
ATOM     82  C   UNL A   1      40.049  35.970  38.097  1.00  0.00     0.198 A 
ATOM     83  C   UNL A   1      38.616  34.301  39.054  1.00  0.00     0.198 A 
ATOM     84  F   UNL A   1      38.199  32.302  37.885  1.00  0.00    -0.203 F 
ATOM     85  F   UNL A   1      40.675  37.153  38.184  1.00  0.00    -0.200 F 
ATOM     86  C   UNL A   1      39.241  35.536  39.137  1.00  0.00     0.200 A 
ATOM     87  F   UNL A   1      37.819  33.885  40.047  1.00  0.00    -0.200 F 
ATOM     88  F   UNL A   1      39.065  36.306  40.218  1.00  0.00    -0.200 F 
ENDBRANCH  54  78
BRANCH  66  89
ATOM     89  C   UNL A   1      43.848  28.640  35.169  1.00  0.00     0.064 A 
ATOM     90  C   UNL A   1      45.172  29.094  35.073  1.00  0.00     0.173 A 
ATOM     91  C   UNL A   1      43.589  27.545  36.009  1.00  0.00     0.173 A 
ATOM     92  F   UNL A   1      45.476  30.125  34.272  1.00  0.00    -0.203 F 
ATOM     93  C   UNL A   1      46.198  28.462  35.772  1.00  0.00     0.198 A 
ATOM     94  C   UNL A   1      44.612  26.938  36.732  1.00  0.00     0.198 A 
ATOM     95  F   UNL A   1      42.340  27.074  36.140  1.00  0.00    -0.203 F 
ATOM     96  F   UNL A   1      47.462  28.883  35.628  1.00  0.00    -0.200 F 
ATOM     97  C   UNL A   1      45.916  27.391  36.608  1.00  0.00     0.200 A 
ATOM     98  F   UNL A   1      44.334  25.913  37.549  1.00  0.00    -0.200 F 
ATOM     99  F   UNL A   1      46.903  26.793  37.288  1.00  0.00    -0.200 F 
ENDBRANCH  66  89
ENDBRANCH  40  41
ENDBRANCH  32  35
ENDBRANCH  30  31
ENDBRANCH  29  30
ENDBRANCH  28  29
ENDBRANCH  27  28
ENDBRANCH   1  27
TORSDOF 19
ENDMDL
MODEL 2
REMARK VINA RESULT:     -11.9      0.182      1.568
REMARK SMILES O=C(C[C@H]([NH2+]Cc1ccccc1C1CC1)c1cccs1)NCCCCCCNC(=O)c1ccc(-c2c3nc(c(-c4c(F)c(F)c(F)c(F)c4F)c4ccc([nH]4)c(-c4c(F)c(F)c(F)c(F)c4F)c4nc(c(-c5c(F)c(F)c(F)c(F)c5F)c5ccc2[nH]5)C=C4)C=C3)cc1
REMARK SMILES IDX 23 1 22 2 21 3 1 4 2 5 3 7 4 8 16 9 17 10 20 11 18 12 19 13
REMARK SMILES IDX 5 14 6 17 7 18 8 19 12 20 9 21 11 22 10 23 13 24 14 25 15 26
REMARK SMILES IDX 24 27 25 28 26 29 27 30 28 31 29 32 30 34 31 35 32 36 93 37
REMARK SMILES IDX 33 38 92 39 34 40 35 41 36 42 86 43 37 44 91 45 85 46 87 47
REMARK SMILES IDX 38 48 90 49 84 50 83 51 39 53 71 54 51 55 70 56 52 57 55 58
REMARK SMILES IDX 69 59 88 60 53 61 54 62 68 64 89 65 56 66 40 67 41 68 49 69
REMARK SMILES IDX 42 70 43 71 47 72 50 73 44 74 45 75 48 76 46 77 72 78 73 79
REMARK SMILES IDX 81 80 74 81 75 82 79 83 82 84 76 85 77 86 80 87 78 88 57 89
REMARK SMILES IDX 58 90 66 91 59 92 60 93 64 94 67 95 61 96 62 97 65 98 63 99
REMARK H PARENT 21 6 5 15 5 16 28 33 87 52 55 63
REMARK Flexibility Score: inf
ROOT
ATOM      1  C   UNL A   1      33.084  28.232  26.932  1.00  0.00     0.021 C 
ENDROOT
BRANCH   1   2
ATOM      2  C   UNL A   1      31.736  27.705  27.422  1.00  0.00     0.116 C 
BRANCH   2   3
ATOM      3  N   UNL A   1      31.025  27.043  26.349  1.00  0.00    -0.356 N 
ATOM      4  O   UNL A   1      31.659  24.912  26.902  1.00  0.00    -0.275 OA
ATOM      5  C   UNL A   1      31.076  25.684  26.147  1.00  0.00     0.226 C 
ATOM      6  H   UNL A   1      30.480  27.590  25.737  1.00  0.00     0.163 HD
BRANCH   5   7
ATOM      7  C   UNL A   1      30.422  25.216  24.869  1.00  0.00     0.171 C 
BRANCH   7   8
ATOM      8  C   UNL A   1      31.373  25.175  23.661  1.00  0.00     0.233 C 
BRANCH   8   9
ATOM      9  C   UNL A   1      31.640  26.597  23.205  1.00  0.00     0.062 A 
ATOM     10  C   UNL A   1      30.726  27.551  22.793  1.00  0.00     0.021 A 
ATOM     11  S   UNL A   1      33.238  27.226  23.202  1.00  0.00    -0.143 S 
ATOM     12  C   UNL A   1      31.328  28.821  22.572  1.00  0.00     0.012 A 
ATOM     13  C   UNL A   1      32.688  28.790  22.786  1.00  0.00     0.065 A 
ENDBRANCH   8   9
BRANCH   8  14
ATOM     14  N   UNL A   1      32.644  24.499  23.997  1.00  0.00    -0.335 N 
ATOM     15  H   UNL A   1      32.571  24.110  24.938  1.00  0.00     0.347 HD
ATOM     16  H   UNL A   1      33.394  25.188  23.942  1.00  0.00     0.347 HD
BRANCH  14  17
ATOM     17  C   UNL A   1      32.951  23.410  23.055  1.00  0.00     0.298 C 
BRANCH  17  18
ATOM     18  C   UNL A   1      33.280  22.096  23.734  1.00  0.00     0.010 A 
ATOM     19  C   UNL A   1      32.260  21.109  23.672  1.00  0.00     0.010 A 
ATOM     20  C   UNL A   1      34.515  21.792  24.371  1.00  0.00    -0.036 A 
ATOM     21  C   UNL A   1      32.415  19.849  24.240  1.00  0.00     0.001 A 
ATOM     22  C   UNL A   1      34.615  20.494  24.943  1.00  0.00     0.004 A 
ATOM     23  C   UNL A   1      33.597  19.541  24.884  1.00  0.00     0.000 A 
BRANCH  20  24
ATOM     24  C   UNL A   1      35.767  22.658  24.565  1.00  0.00     0.020 C 
ATOM     25  C   UNL A   1      37.210  22.239  24.584  1.00  0.00     0.009 C 
ATOM     26  C   UNL A   1      36.655  22.962  23.387  1.00  0.00     0.009 C 
ENDBRANCH  20  24
ENDBRANCH  17  18
ENDBRANCH  14  17
ENDBRANCH   8  14
ENDBRANCH   7   8
ENDBRANCH   5   7
ENDBRANCH   2   3
ENDBRANCH   1   2
BRANCH   1  27
ATOM     27  C   UNL A   1      33.146  29.758  26.770  1.00  0.00     0.002 C 
BRANCH  27  28
ATOM     28  C   UNL A   1      31.927  30.390  26.090  1.00  0.00     0.002 C 
BRANCH  28  29
ATOM     29  C   UNL A   1      31.622  31.825  26.519  1.00  0.00     0.021 C 
BRANCH  29  30
ATOM     30  C   UNL A   1      32.719  32.490  27.345  1.00  0.00     0.116 C 
BRANCH  30  31
ATOM     31  N   UNL A   1      32.442  33.896  27.605  1.00  0.00    -0.352 N 
ATOM     32  C   UNL A   1      33.013  34.745  28.521  1.00  0.00     0.251 C 
ATOM     33  H   UNL A   1      31.742  34.296  27.041  1.00  0.00     0.163 HD
ATOM     34  O   UNL A   1      32.533  35.853  28.721  1.00  0.00    -0.269 OA
BRANCH  32  35
ATOM     35  C   UNL A   1      34.197  34.305  29.292  1.00  0.00     0.039 A 
ATOM     36  C   UNL A   1      34.000  33.659  30.515  1.00  0.00     0.014 A 
ATOM     37  C   UNL A   1      35.490  34.514  28.806  1.00  0.00     0.014 A 
ATOM     38  C   UNL A   1      35.098  33.149  31.211  1.00  0.00     0.010 A 
ATOM     39  C   UNL A   1      36.576  33.940  29.463  1.00  0.00     0.010 A 
ATOM     40  C   UNL A   1      36.389  33.242  30.665  1.00  0.00    -0.014 A 
BRANCH  40  41
ATOM     41  C   UNL A   1      37.546  32.573  31.315  1.00  0.00     0.031 A 
ATOM     42  C   UNL A   1      38.218  31.400  30.662  1.00  0.00     0.074 A 
ATOM     43  C   UNL A   1      37.939  32.979  32.537  1.00  0.00     0.049 A 
ATOM     44  N   UNL A   1      39.192  30.649  31.110  1.00  0.00    -0.248 NA
ATOM     45  C   UNL A   1      37.712  31.004  29.340  1.00  0.00     0.031 C 
ATOM     46  C   UNL A   1      37.330  34.070  33.299  1.00  0.00     0.029 A 
ATOM     47  N   UNL A   1      38.932  32.511  33.363  1.00  0.00    -0.354 N 
ATOM     48  C   UNL A   1      39.413  29.692  30.129  1.00  0.00     0.074 A 
ATOM     49  C   UNL A   1      38.430  29.919  29.092  1.00  0.00     0.031 C 
ATOM     50  C   UNL A   1      37.968  34.196  34.472  1.00  0.00     0.029 A 
ATOM     51  C   UNL A   1      39.000  33.167  34.566  1.00  0.00     0.049 A 
ATOM     52  H   UNL A   1      39.537  31.776  33.114  1.00  0.00     0.167 HD
ATOM     53  C   UNL A   1      40.365  28.728  30.088  1.00  0.00     0.037 A 
ATOM     54  C   UNL A   1      39.789  32.954  35.637  1.00  0.00     0.037 A 
ATOM     55  C   UNL A   1      41.336  28.504  31.127  1.00  0.00     0.049 A 
ATOM     56  C   UNL A   1      40.816  31.857  35.584  1.00  0.00     0.074 A 
ATOM     57  C   UNL A   1      42.374  27.588  31.158  1.00  0.00     0.029 A 
ATOM     58  N   UNL A   1      41.380  29.194  32.333  1.00  0.00    -0.354 N 
ATOM     59  N   UNL A   1      41.070  31.008  34.618  1.00  0.00    -0.248 NA
ATOM     60  C   UNL A   1      41.669  31.691  36.769  1.00  0.00     0.031 C 
ATOM     61  C   UNL A   1      43.005  27.682  32.404  1.00  0.00     0.029 A 
ATOM     62  C   UNL A   1      42.403  28.698  33.127  1.00  0.00     0.049 A 
ATOM     63  H   UNL A   1      40.773  29.927  32.585  1.00  0.00     0.167 HD
ATOM     64  C   UNL A   1      42.119  30.218  35.068  1.00  0.00     0.074 A 
ATOM     65  C   UNL A   1      42.469  30.705  36.387  1.00  0.00     0.031 C 
ATOM     66  C   UNL A   1      42.733  29.183  34.445  1.00  0.00     0.037 A 
BRANCH  53  67
ATOM     67  C   UNL A   1      40.390  27.837  28.877  1.00  0.00     0.064 A 
ATOM     68  C   UNL A   1      41.152  28.157  27.742  1.00  0.00     0.173 A 
ATOM     69  C   UNL A   1      39.654  26.643  28.853  1.00  0.00     0.173 A 
ATOM     70  F   UNL A   1      41.870  29.290  27.707  1.00  0.00    -0.203 F 
ATOM     71  C   UNL A   1      41.138  27.341  26.613  1.00  0.00     0.198 A 
ATOM     72  C   UNL A   1      39.672  25.809  27.736  1.00  0.00     0.198 A 
ATOM     73  F   UNL A   1      38.916  26.280  29.913  1.00  0.00    -0.203 F 
ATOM     74  F   UNL A   1      41.819  27.704  25.518  1.00  0.00    -0.200 F 
ATOM     75  C   UNL A   1      40.402  26.165  26.614  1.00  0.00     0.200 A 
ATOM     76  F   UNL A   1      38.974  24.666  27.745  1.00  0.00    -0.200 F 
ATOM     77  F   UNL A   1      40.389  25.381  25.527  1.00  0.00    -0.200 F 
ENDBRANCH  53  67
BRANCH  54  78
ATOM     78  C   UNL A   1      39.629  33.805  36.845  1.00  0.00     0.064 A 
ATOM     79  C   UNL A   1      40.241  35.062  36.933  1.00  0.00     0.173 A 
ATOM     80  C   UNL A   1      38.837  33.387  37.926  1.00  0.00     0.173 A 
ATOM     81  F   UNL A   1      41.023  35.497  35.933  1.00  0.00    -0.203 F 
ATOM     82  C   UNL A   1      40.076  35.865  38.059  1.00  0.00     0.198 A 
ATOM     83  C   UNL A   1      38.647  34.204  39.038  1.00  0.00     0.198 A 
ATOM     84  F   UNL A   1      38.223  32.195  37.889  1.00  0.00    -0.203 F 
ATOM     85  F   UNL A   1      40.701  37.048  38.133  1.00  0.00    -0.200 F 
ATOM     86  C   UNL A   1      39.272  35.440  39.106  1.00  0.00     0.200 A 
ATOM     87  F   UNL A   1      37.854  33.798  40.039  1.00  0.00    -0.200 F 
ATOM     88  F   UNL A   1      39.101  36.220  40.182  1.00  0.00    -0.200 F 
ENDBRANCH  54  78
BRANCH  66  89
ATOM     89  C   UNL A   1      43.858  28.507  35.179  1.00  0.00     0.064 A 
ATOM     90  C   UNL A   1      43.649  27.345  35.937  1.00  0.00     0.173 A 
ATOM     91  C   UNL A   1      45.168  29.004  35.090  1.00  0.00     0.173 A 
ATOM     92  F   UNL A   1      42.415  26.837  36.068  1.00  0.00    -0.203 F 
ATOM     93  C   UNL A   1      44.705  26.720  36.597  1.00  0.00     0.198 A 
ATOM     94  C   UNL A   1      46.225  28.358  35.723  1.00  0.00     0.198 A 
ATOM     95  F   UNL A   1      45.423  30.111  34.375  1.00  0.00    -0.203 F 
ATOM     96  F   UNL A   1      44.473  25.640  37.354  1.00  0.00    -0.200 F 
ATOM     97  C   UNL A   1      45.993  27.222  36.483  1.00  0.00     0.200 A 
ATOM     98  F   UNL A   1      47.471  28.837  35.599  1.00  0.00    -0.200 F 
ATOM     99  F   UNL A   1      47.008  26.613  37.109  1.00  0.00    -0.200 F 
ENDBRANCH  66  89
ENDBRANCH  40  41
ENDBRANCH  32  35
ENDBRANCH  30  31
ENDBRANCH  29  30
ENDBRANCH  28  29
ENDBRANCH  27  28
ENDBRANCH   1  27
TORSDOF 19
ENDMDL
MODEL 3
REMARK VINA RESULT:     -11.7      0.653      7.106
REMARK SMILES O=C(C[C@H]([NH2+]Cc1ccccc1C1CC1)c1cccs1)NCCCCCCNC(=O)c1ccc(-c2c3nc(c(-c4c(F)c(F)c(F)c(F)c4F)c4ccc([nH]4)c(-c4c(F)c(F)c(F)c(F)c4F)c4nc(c(-c5c(F)c(F)c(F)c(F)c5F)c5ccc2[nH]5)C=C4)C=C3)cc1
REMARK SMILES IDX 23 1 22 2 21 3 1 4 2 5 3 7 4 8 16 9 17 10 20 11 18 12 19 13
REMARK SMILES IDX 5 14 6 17 7 18 8 19 12 20 9 21 11 22 10 23 13 24 14 25 15 26
REMARK SMILES IDX 24 27 25 28 26 29 27 30 28 31 29 32 30 34 31 35 32 36 93 37
REMARK SMILES IDX 33 38 92 39 34 40 35 41 36 42 86 43 37 44 91 45 85 46 87 47
REMARK SMILES IDX 38 48 90 49 84 50 83 51 39 53 71 54 51 55 70 56 52 57 55 58
REMARK SMILES IDX 69 59 88 60 53 61 54 62 68 64 89 65 56 66 40 67 41 68 49 69
REMARK SMILES IDX 42 70 43 71 47 72 50 73 44 74 45 75 48 76 46 77 72 78 73 79
REMARK SMILES IDX 81 80 74 81 75 82 79 83 82 84 76 85 77 86 80 87 78 88 57 89
REMARK SMILES IDX 58 90 66 91 59 92 60 93 64 94 67 95 61 96 62 97 65 98 63 99
REMARK H PARENT 21 6 5 15 5 16 28 33 87 52 55 63
REMARK Flexibility Score: inf
ROOT
ATOM      1  C   UNL A   1      32.815  28.568  27.205  1.00  0.00     0.021 C 
ENDROOT
BRANCH   1   2
ATOM      2  C   UNL A   1      31.396  28.044  27.424  1.00  0.00     0.116 C 
BRANCH   2   3
ATOM      3  N   UNL A   1      30.930  27.327  26.257  1.00  0.00    -0.356 N 
ATOM      4  O   UNL A   1      31.417  25.229  27.038  1.00  0.00    -0.275 OA
ATOM      5  C   UNL A   1      31.015  25.960  26.138  1.00  0.00     0.226 C 
ATOM      6  H   UNL A   1      30.533  27.840  25.516  1.00  0.00     0.163 HD
BRANCH   5   7
ATOM      7  C   UNL A   1      30.649  25.426  24.773  1.00  0.00     0.171 C 
BRANCH   7   8
ATOM      8  C   UNL A   1      31.852  25.243  23.832  1.00  0.00     0.233 C 
BRANCH   8   9
ATOM      9  C   UNL A   1      32.482  26.600  23.580  1.00  0.00     0.062 A 
ATOM     10  C   UNL A   1      33.741  27.042  23.947  1.00  0.00     0.021 A 
ATOM     11  S   UNL A   1      31.634  27.805  22.698  1.00  0.00    -0.143 S 
ATOM     12  C   UNL A   1      34.042  28.328  23.418  1.00  0.00     0.012 A 
ATOM     13  C   UNL A   1      32.990  28.846  22.696  1.00  0.00     0.065 A 
ENDBRANCH   8   9
BRANCH   8  14
ATOM     14  N   UNL A   1      32.850  24.315  24.406  1.00  0.00    -0.335 N 
ATOM     15  H   UNL A   1      32.406  23.770  25.146  1.00  0.00     0.347 HD
ATOM     16  H   UNL A   1      33.624  24.869  24.773  1.00  0.00     0.347 HD
BRANCH  14  17
ATOM     17  C   UNL A   1      33.387  23.392  23.392  1.00  0.00     0.298 C 
BRANCH  17  18
ATOM     18  C   UNL A   1      33.589  21.981  23.905  1.00  0.00     0.010 A 
ATOM     19  C   UNL A   1      32.538  21.073  23.611  1.00  0.00     0.010 A 
ATOM     20  C   UNL A   1      34.742  21.522  24.602  1.00  0.00    -0.036 A 
ATOM     21  C   UNL A   1      32.580  19.739  24.006  1.00  0.00     0.001 A 
ATOM     22  C   UNL A   1      34.728  20.154  24.989  1.00  0.00     0.004 A 
ATOM     23  C   UNL A   1      33.680  19.279  24.704  1.00  0.00     0.000 A 
BRANCH  20  24
ATOM     24  C   UNL A   1      36.006  22.280  25.028  1.00  0.00     0.020 C 
ATOM     25  C   UNL A   1      36.389  23.707  24.753  1.00  0.00     0.009 C 
ATOM     26  C   UNL A   1      35.928  23.305  26.128  1.00  0.00     0.009 C 
ENDBRANCH  20  24
ENDBRANCH  17  18
ENDBRANCH  14  17
ENDBRANCH   8  14
ENDBRANCH   7   8
ENDBRANCH   5   7
ENDBRANCH   2   3
ENDBRANCH   1   2
BRANCH   1  27
ATOM     27  C   UNL A   1      32.887  30.048  26.802  1.00  0.00     0.002 C 
BRANCH  27  28
ATOM     28  C   UNL A   1      31.554  30.673  26.379  1.00  0.00     0.002 C 
BRANCH  28  29
ATOM     29  C   UNL A   1      31.423  32.169  26.667  1.00  0.00     0.021 C 
BRANCH  29  30
ATOM     30  C   UNL A   1      32.676  32.818  27.249  1.00  0.00     0.116 C 
BRANCH  30  31
ATOM     31  N   UNL A   1      32.456  34.206  27.627  1.00  0.00    -0.352 N 
ATOM     32  C   UNL A   1      33.052  34.948  28.617  1.00  0.00     0.251 C 
ATOM     33  H   UNL A   1      31.780  34.683  27.094  1.00  0.00     0.163 HD
ATOM     34  O   UNL A   1      32.617  36.055  28.909  1.00  0.00    -0.269 OA
BRANCH  32  35
ATOM     35  C   UNL A   1      34.208  34.392  29.356  1.00  0.00     0.039 A 
ATOM     36  C   UNL A   1      33.975  33.708  30.551  1.00  0.00     0.014 A 
ATOM     37  C   UNL A   1      35.509  34.532  28.866  1.00  0.00     0.014 A 
ATOM     38  C   UNL A   1      35.039  33.092  31.213  1.00  0.00     0.010 A 
ATOM     39  C   UNL A   1      36.556  33.855  29.486  1.00  0.00     0.010 A 
ATOM     40  C   UNL A   1      36.330  33.119  30.658  1.00  0.00    -0.014 A 
BRANCH  40  41
ATOM     41  C   UNL A   1      37.441  32.343  31.266  1.00  0.00     0.031 A 
ATOM     42  C   UNL A   1      37.969  32.699  32.626  1.00  0.00     0.074 A 
ATOM     43  C   UNL A   1      38.026  31.362  30.554  1.00  0.00     0.049 A 
ATOM     44  N   UNL A   1      38.976  32.182  33.284  1.00  0.00    -0.248 NA
ATOM     45  C   UNL A   1      37.292  33.799  33.328  1.00  0.00     0.031 C 
ATOM     46  C   UNL A   1      37.640  30.958  29.201  1.00  0.00     0.029 A 
ATOM     47  N   UNL A   1      39.081  30.537  30.858  1.00  0.00    -0.354 N 
ATOM     48  C   UNL A   1      39.054  32.894  34.474  1.00  0.00     0.074 A 
ATOM     49  C   UNL A   1      38.035  33.919  34.418  1.00  0.00     0.031 C 
ATOM     50  C   UNL A   1      38.436  29.957  28.797  1.00  0.00     0.029 A 
ATOM     51  C   UNL A   1      39.418  29.679  29.841  1.00  0.00     0.049 A 
ATOM     52  H   UNL A   1      39.550  30.559  31.723  1.00  0.00     0.167 HD
ATOM     53  C   UNL A   1      39.885  32.693  35.526  1.00  0.00     0.037 A 
ATOM     54  C   UNL A   1      40.417  28.781  29.748  1.00  0.00     0.037 A 
ATOM     55  C   UNL A   1      40.902  31.674  35.572  1.00  0.00     0.049 A 
ATOM     56  C   UNL A   1      41.349  28.598  30.913  1.00  0.00     0.074 A 
ATOM     57  C   UNL A   1      41.760  31.356  36.610  1.00  0.00     0.029 A 
ATOM     58  N   UNL A   1      41.211  30.816  34.524  1.00  0.00    -0.354 N 
ATOM     59  N   UNL A   1      41.365  29.221  32.066  1.00  0.00    -0.248 NA
ATOM     60  C   UNL A   1      42.402  27.582  30.766  1.00  0.00     0.031 C 
ATOM     61  C   UNL A   1      42.627  30.349  36.170  1.00  0.00     0.029 A 
ATOM     62  C   UNL A   1      42.270  29.995  34.879  1.00  0.00     0.049 A 
ATOM     63  H   UNL A   1      40.746  30.795  33.657  1.00  0.00     0.167 HD
ATOM     64  C   UNL A   1      42.413  28.666  32.788  1.00  0.00     0.074 A 
ATOM     65  C   UNL A   1      42.996  27.639  31.950  1.00  0.00     0.031 C 
ATOM     66  C   UNL A   1      42.852  28.984  34.030  1.00  0.00     0.037 A 
BRANCH  53  67
ATOM     67  C   UNL A   1      39.730  33.607  36.710  1.00  0.00     0.064 A 
ATOM     68  C   UNL A   1      38.867  33.296  37.773  1.00  0.00     0.173 A 
ATOM     69  C   UNL A   1      40.458  34.803  36.790  1.00  0.00     0.173 A 
ATOM     70  F   UNL A   1      38.140  32.169  37.746  1.00  0.00    -0.203 F 
ATOM     71  C   UNL A   1      38.706  34.168  38.847  1.00  0.00     0.198 A 
ATOM     72  C   UNL A   1      40.323  35.656  37.884  1.00  0.00     0.198 A 
ATOM     73  F   UNL A   1      41.306  35.148  35.808  1.00  0.00    -0.203 F 
ATOM     74  F   UNL A   1      37.825  33.880  39.816  1.00  0.00    -0.200 F 
ATOM     75  C   UNL A   1      39.438  35.345  38.903  1.00  0.00     0.200 A 
ATOM     76  F   UNL A   1      41.043  36.784  37.945  1.00  0.00    -0.200 F 
ATOM     77  F   UNL A   1      39.281  36.184  39.937  1.00  0.00    -0.200 F 
ENDBRANCH  53  67
BRANCH  54  78
ATOM     78  C   UNL A   1      40.578  27.991  28.499  1.00  0.00     0.064 A 
ATOM     79  C   UNL A   1      41.369  28.459  27.442  1.00  0.00     0.173 A 
ATOM     80  C   UNL A   1      39.962  26.738  28.349  1.00  0.00     0.173 A 
ATOM     81  F   UNL A   1      41.962  29.660  27.530  1.00  0.00    -0.203 F 
ATOM     82  C   UNL A   1      41.531  27.710  26.278  1.00  0.00     0.198 A 
ATOM     83  C   UNL A   1      40.151  25.976  27.198  1.00  0.00     0.198 A 
ATOM     84  F   UNL A   1      39.200  26.242  29.335  1.00  0.00    -0.203 F 
ATOM     85  F   UNL A   1      42.264  28.197  25.267  1.00  0.00    -0.200 F 
ATOM     86  C   UNL A   1      40.930  26.466  26.161  1.00  0.00     0.200 A 
ATOM     87  F   UNL A   1      39.584  24.766  27.098  1.00  0.00    -0.200 F 
ATOM     88  F   UNL A   1      41.100  25.739  25.049  1.00  0.00    -0.200 F 
ENDBRANCH  54  78
BRANCH  66  89
ATOM     89  C   UNL A   1      44.019  28.203  34.568  1.00  0.00     0.064 A 
ATOM     90  C   UNL A   1      45.337  28.666  34.437  1.00  0.00     0.173 A 
ATOM     91  C   UNL A   1      43.813  26.997  35.258  1.00  0.00     0.173 A 
ATOM     92  F   UNL A   1      45.590  29.803  33.774  1.00  0.00    -0.203 F 
ATOM     93  C   UNL A   1      46.406  27.939  34.957  1.00  0.00     0.198 A 
ATOM     94  C   UNL A   1      44.881  26.292  35.804  1.00  0.00     0.198 A 
ATOM     95  F   UNL A   1      42.572  26.512  35.415  1.00  0.00    -0.203 F 
ATOM     96  F   UNL A   1      47.660  28.376  34.777  1.00  0.00    -0.200 F 
ATOM     97  C   UNL A   1      46.177  26.758  35.647  1.00  0.00     0.200 A 
ATOM     98  F   UNL A   1      44.655  25.159  36.484  1.00  0.00    -0.200 F 
ATOM     99  F   UNL A   1      47.206  26.068  36.155  1.00  0.00    -0.200 F 
ENDBRANCH  66  89
ENDBRANCH  40  41
ENDBRANCH  32  35
ENDBRANCH  30  31
ENDBRANCH  29  30
ENDBRANCH  28  29
ENDBRANCH  27  28
ENDBRANCH   1  27
TORSDOF 19
ENDMDL
