MODEL 1
REMARK VINA RESULT:     -11.1      0.000      0.000
REMARK SMILES C[NH2+]CCC(=O)N1CC[C@@H](C(=O)NCCCCCCNC(=O)c2ccc(-c3c4nc(c(-c5c(F)c(F)c(F)c(F)c5F)c5ccc([nH]5)c(-c5c(F)c(F)c(F)c(F)c5F)c5nc(c(-c6c(F)c(F)c(F)c(F)c6F)c6ccc3[nH]6)C=C5)C=C4)cc2)[C@@H]1C
REMARK SMILES IDX 15 1 14 2 13 3 11 4 12 5 10 7 7 8 8 9 86 10 9 11 87 12 5 13
REMARK SMILES IDX 6 14 4 15 3 16 2 17 1 18 16 21 17 22 18 23 19 24 20 25 21 26
REMARK SMILES IDX 22 28 23 29 24 30 85 31 25 32 84 33 26 34 27 35 28 36 78 37
REMARK SMILES IDX 29 38 83 39 77 40 79 41 30 42 82 43 76 44 75 45 31 47 63 48
REMARK SMILES IDX 43 49 62 50 44 51 47 52 61 53 80 54 45 55 46 56 60 58 81 59
REMARK SMILES IDX 48 60 32 61 33 62 41 63 34 64 35 65 39 66 42 67 36 68 37 69
REMARK SMILES IDX 40 70 38 71 64 72 65 73 73 74 66 75 67 76 71 77 74 78 68 79
REMARK SMILES IDX 69 80 72 81 70 82 49 83 50 84 58 85 51 86 52 87 56 88 59 89
REMARK SMILES IDX 53 90 54 91 57 92 55 93
REMARK H PARENT 13 6 2 19 2 20 20 27 79 46 47 57
REMARK Flexibility Score: inf
ROOT
ATOM      1  C   UNL A   1      32.314  28.098  26.407  1.00  0.00     0.021 C 
ENDROOT
BRANCH   1   2
ATOM      2  C   UNL A   1      31.168  27.248  25.866  1.00  0.00     0.116 C 
BRANCH   2   3
ATOM      3  N   UNL A   1      31.002  26.044  26.658  1.00  0.00    -0.356 N 
ATOM      4  C   UNL A   1      31.512  24.794  26.512  1.00  0.00     0.225 C 
ATOM      5  O   UNL A   1      31.114  23.934  27.304  1.00  0.00    -0.275 OA
ATOM      6  H   UNL A   1      30.416  26.153  27.440  1.00  0.00     0.163 HD
BRANCH   4   7
ATOM      7  C   UNL A   1      32.514  24.416  25.433  1.00  0.00     0.102 C 
ATOM      8  N   UNL A   1      33.290  25.589  23.515  1.00  0.00    -0.339 N 
ATOM      9  C   UNL A   1      34.471  25.189  24.251  1.00  0.00     0.120 C 
ATOM     10  C   UNL A   1      32.113  24.887  24.023  1.00  0.00     0.094 C 
ATOM     11  C   UNL A   1      33.947  24.913  25.654  1.00  0.00     0.037 C 
ATOM     12  C   UNL A   1      31.821  23.667  23.137  1.00  0.00     0.032 C 
BRANCH   8  13
ATOM     13  C   UNL A   1      33.391  26.375  22.387  1.00  0.00     0.228 C 
ATOM     14  O   UNL A   1      33.439  25.879  21.261  1.00  0.00    -0.275 OA
BRANCH  13  15
ATOM     15  C   UNL A   1      33.658  27.860  22.578  1.00  0.00     0.161 C 
BRANCH  15  16
ATOM     16  C   UNL A   1      32.465  28.782  22.825  1.00  0.00     0.270 C 
BRANCH  16  17
ATOM     17  N   UNL A   1      31.298  28.660  21.947  1.00  0.00    -0.348 N 
ATOM     18  C   UNL A   1      30.043  28.404  22.628  1.00  0.00     0.330 C 
ATOM     19  H   UNL A   1      31.201  29.532  21.425  1.00  0.00     0.346 HD
ATOM     20  H   UNL A   1      31.470  27.850  21.353  1.00  0.00     0.346 HD
ENDBRANCH  16  17
ENDBRANCH  15  16
ENDBRANCH  13  15
ENDBRANCH   8  13
ENDBRANCH   4   7
ENDBRANCH   2   3
ENDBRANCH   1   2
BRANCH   1  21
ATOM     21  C   UNL A   1      31.910  29.444  27.014  1.00  0.00     0.002 C 
BRANCH  21  22
ATOM     22  C   UNL A   1      31.471  30.521  26.020  1.00  0.00     0.002 C 
BRANCH  22  23
ATOM     23  C   UNL A   1      31.380  31.944  26.573  1.00  0.00     0.021 C 
BRANCH  23  24
ATOM     24  C   UNL A   1      32.698  32.557  27.039  1.00  0.00     0.116 C 
BRANCH  24  25
ATOM     25  N   UNL A   1      32.540  33.910  27.548  1.00  0.00    -0.352 N 
ATOM     26  C   UNL A   1      33.195  34.546  28.569  1.00  0.00     0.251 C 
ATOM     27  H   UNL A   1      31.859  34.451  27.088  1.00  0.00     0.163 HD
ATOM     28  O   UNL A   1      32.801  35.646  28.962  1.00  0.00    -0.269 OA
BRANCH  26  29
ATOM     29  C   UNL A   1      34.357  33.912  29.225  1.00  0.00     0.039 A 
ATOM     30  C   UNL A   1      34.131  32.973  30.234  1.00  0.00     0.014 A 
ATOM     31  C   UNL A   1      35.664  34.254  28.865  1.00  0.00     0.014 A 
ATOM     32  C   UNL A   1      35.214  32.329  30.838  1.00  0.00     0.010 A 
ATOM     33  C   UNL A   1      36.739  33.560  29.417  1.00  0.00     0.010 A 
ATOM     34  C   UNL A   1      36.525  32.592  30.410  1.00  0.00    -0.014 A 
BRANCH  34  35
ATOM     35  C   UNL A   1      37.684  31.869  30.997  1.00  0.00     0.031 A 
ATOM     36  C   UNL A   1      38.154  32.201  32.387  1.00  0.00     0.074 A 
ATOM     37  C   UNL A   1      38.341  30.949  30.264  1.00  0.00     0.049 A 
ATOM     38  N   UNL A   1      39.187  31.737  33.046  1.00  0.00    -0.248 NA
ATOM     39  C   UNL A   1      37.371  33.201  33.130  1.00  0.00     0.031 C 
ATOM     40  C   UNL A   1      38.002  30.559  28.894  1.00  0.00     0.029 A 
ATOM     41  N   UNL A   1      39.436  30.177  30.566  1.00  0.00    -0.354 N 
ATOM     42  C   UNL A   1      39.177  32.386  34.273  1.00  0.00     0.074 A 
ATOM     43  C   UNL A   1      38.073  33.321  34.248  1.00  0.00     0.031 C 
ATOM     44  C   UNL A   1      38.858  29.609  28.482  1.00  0.00     0.029 A 
ATOM     45  C   UNL A   1      39.829  29.351  29.540  1.00  0.00     0.049 A 
ATOM     46  H   UNL A   1      39.897  30.213  31.435  1.00  0.00     0.167 HD
ATOM     47  C   UNL A   1      39.994  32.199  35.337  1.00  0.00     0.037 A 
ATOM     48  C   UNL A   1      40.864  28.492  29.461  1.00  0.00     0.037 A 
ATOM     49  C   UNL A   1      41.083  31.259  35.368  1.00  0.00     0.049 A 
ATOM     50  C   UNL A   1      41.780  28.336  30.647  1.00  0.00     0.074 A 
ATOM     51  C   UNL A   1      41.959  30.986  36.404  1.00  0.00     0.029 A 
ATOM     52  N   UNL A   1      41.443  30.434  34.313  1.00  0.00    -0.354 N 
ATOM     53  N   UNL A   1      41.729  28.922  31.818  1.00  0.00    -0.248 NA
ATOM     54  C   UNL A   1      42.897  27.392  30.499  1.00  0.00     0.031 C 
ATOM     55  C   UNL A   1      42.871  30.020  35.965  1.00  0.00     0.029 A 
ATOM     56  C   UNL A   1      42.533  29.658  34.672  1.00  0.00     0.049 A 
ATOM     57  H   UNL A   1      40.990  30.404  33.439  1.00  0.00     0.167 HD
ATOM     58  C   UNL A   1      42.777  28.389  32.557  1.00  0.00     0.074 A 
ATOM     59  C   UNL A   1      43.438  27.422  31.708  1.00  0.00     0.031 C 
ATOM     60  C   UNL A   1      43.160  28.677  33.825  1.00  0.00     0.037 A 
BRANCH  47  61
ATOM     61  C   UNL A   1      39.729  33.013  36.570  1.00  0.00     0.064 A 
ATOM     62  C   UNL A   1      40.401  34.222  36.802  1.00  0.00     0.173 A 
ATOM     63  C   UNL A   1      38.752  32.618  37.496  1.00  0.00     0.173 A 
ATOM     64  F   UNL A   1      41.352  34.640  35.953  1.00  0.00    -0.203 F 
ATOM     65  C   UNL A   1      40.120  34.996  37.925  1.00  0.00     0.198 A 
ATOM     66  C   UNL A   1      38.452  33.407  38.603  1.00  0.00     0.198 A 
ATOM     67  F   UNL A   1      38.076  31.472  37.319  1.00  0.00    -0.203 F 
ATOM     68  F   UNL A   1      40.802  36.127  38.145  1.00  0.00    -0.200 F 
ATOM     69  C   UNL A   1      39.139  34.593  38.819  1.00  0.00     0.200 A 
ATOM     70  F   UNL A   1      37.495  33.025  39.458  1.00  0.00    -0.200 F 
ATOM     71  F   UNL A   1      38.859  35.346  39.891  1.00  0.00    -0.200 F 
ENDBRANCH  47  61
BRANCH  48  72
ATOM     72  C   UNL A   1      41.094  27.697  28.224  1.00  0.00     0.064 A 
ATOM     73  C   UNL A   1      40.607  26.387  28.110  1.00  0.00     0.173 A 
ATOM     74  C   UNL A   1      41.846  28.207  27.156  1.00  0.00     0.173 A 
ATOM     75  F   UNL A   1      39.901  25.846  29.114  1.00  0.00    -0.203 F 
ATOM     76  C   UNL A   1      40.898  25.604  26.995  1.00  0.00     0.198 A 
ATOM     77  C   UNL A   1      42.108  27.435  26.026  1.00  0.00     0.198 A 
ATOM     78  F   UNL A   1      42.331  29.456  27.210  1.00  0.00    -0.203 F 
ATOM     79  F   UNL A   1      40.478  24.332  26.944  1.00  0.00    -0.200 F 
ATOM     80  C   UNL A   1      41.646  26.130  25.952  1.00  0.00     0.200 A 
ATOM     81  F   UNL A   1      42.818  27.951  25.015  1.00  0.00    -0.200 F 
ATOM     82  F   UNL A   1      41.933  25.373  24.884  1.00  0.00    -0.200 F 
ENDBRANCH  48  72
BRANCH  60  83
ATOM     83  C   UNL A   1      44.309  27.895  34.393  1.00  0.00     0.064 A 
ATOM     84  C   UNL A   1      45.629  28.363  34.320  1.00  0.00     0.173 A 
ATOM     85  C   UNL A   1      44.078  26.676  35.049  1.00  0.00     0.173 A 
ATOM     86  F   UNL A   1      45.904  29.515  33.690  1.00  0.00    -0.203 F 
ATOM     87  C   UNL A   1      46.679  27.625  34.859  1.00  0.00     0.198 A 
ATOM     88  C   UNL A   1      45.127  25.956  35.614  1.00  0.00     0.198 A 
ATOM     89  F   UNL A   1      42.833  26.188  35.151  1.00  0.00    -0.203 F 
ATOM     90  F   UNL A   1      47.939  28.065  34.732  1.00  0.00    -0.200 F 
ATOM     91  C   UNL A   1      46.427  26.427  35.511  1.00  0.00     0.200 A 
ATOM     92  F   UNL A   1      44.880  24.807  36.256  1.00  0.00    -0.200 F 
ATOM     93  F   UNL A   1      47.440  25.722  36.034  1.00  0.00    -0.200 F 
ENDBRANCH  60  83
ENDBRANCH  34  35
ENDBRANCH  26  29
ENDBRANCH  24  25
ENDBRANCH  23  24
ENDBRANCH  22  23
ENDBRANCH  21  22
ENDBRANCH   1  21
TORSDOF 17
ENDMDL
MODEL 2
REMARK VINA RESULT:     -11.0      1.294      2.811
REMARK SMILES C[NH2+]CCC(=O)N1CC[C@@H](C(=O)NCCCCCCNC(=O)c2ccc(-c3c4nc(c(-c5c(F)c(F)c(F)c(F)c5F)c5ccc([nH]5)c(-c5c(F)c(F)c(F)c(F)c5F)c5nc(c(-c6c(F)c(F)c(F)c(F)c6F)c6ccc3[nH]6)C=C5)C=C4)cc2)[C@@H]1C
REMARK SMILES IDX 15 1 14 2 13 3 11 4 12 5 10 7 7 8 8 9 86 10 9 11 87 12 5 13
REMARK SMILES IDX 6 14 4 15 3 16 2 17 1 18 16 21 17 22 18 23 19 24 20 25 21 26
REMARK SMILES IDX 22 28 23 29 24 30 85 31 25 32 84 33 26 34 27 35 28 36 78 37
REMARK SMILES IDX 29 38 83 39 77 40 79 41 30 42 82 43 76 44 75 45 31 47 63 48
REMARK SMILES IDX 43 49 62 50 44 51 47 52 61 53 80 54 45 55 46 56 60 58 81 59
REMARK SMILES IDX 48 60 32 61 33 62 41 63 34 64 35 65 39 66 42 67 36 68 37 69
REMARK SMILES IDX 40 70 38 71 64 72 65 73 73 74 66 75 67 76 71 77 74 78 68 79
REMARK SMILES IDX 69 80 72 81 70 82 49 83 50 84 58 85 51 86 52 87 56 88 59 89
REMARK SMILES IDX 53 90 54 91 57 92 55 93
REMARK H PARENT 13 6 2 19 2 20 20 27 79 46 47 57
REMARK Flexibility Score: inf
ROOT
ATOM      1  C   UNL A   1      32.297  28.056  26.691  1.00  0.00     0.021 C 
ENDROOT
BRANCH   1   2
ATOM      2  C   UNL A   1      31.175  27.147  26.198  1.00  0.00     0.116 C 
BRANCH   2   3
ATOM      3  N   UNL A   1      31.209  25.869  26.885  1.00  0.00    -0.356 N 
ATOM      4  C   UNL A   1      31.499  24.619  26.445  1.00  0.00     0.225 C 
ATOM      5  O   UNL A   1      31.352  23.695  27.253  1.00  0.00    -0.275 OA
ATOM      6  H   UNL A   1      30.979  25.919  27.841  1.00  0.00     0.163 HD
BRANCH   4   7
ATOM      7  C   UNL A   1      31.972  24.313  25.033  1.00  0.00     0.102 C 
ATOM      8  N   UNL A   1      33.892  23.167  24.222  1.00  0.00    -0.339 N 
ATOM      9  C   UNL A   1      32.750  22.541  23.592  1.00  0.00     0.120 C 
ATOM     10  C   UNL A   1      33.498  24.425  24.854  1.00  0.00     0.094 C 
ATOM     11  C   UNL A   1      31.581  22.937  24.484  1.00  0.00     0.037 C 
ATOM     12  C   UNL A   1      33.821  25.595  23.913  1.00  0.00     0.032 C 
BRANCH   8  13
ATOM     13  C   UNL A   1      35.165  22.672  24.033  1.00  0.00     0.228 C 
ATOM     14  O   UNL A   1      35.844  23.002  23.060  1.00  0.00    -0.275 OA
BRANCH  13  15
ATOM     15  C   UNL A   1      35.631  21.544  24.940  1.00  0.00     0.161 C 
BRANCH  15  16
ATOM     16  C   UNL A   1      37.090  21.100  24.848  1.00  0.00     0.270 C 
BRANCH  16  17
ATOM     17  N   UNL A   1      38.137  22.087  25.124  1.00  0.00    -0.348 N 
ATOM     18  C   UNL A   1      39.238  21.602  25.934  1.00  0.00     0.330 C 
ATOM     19  H   UNL A   1      38.517  22.404  24.232  1.00  0.00     0.346 HD
ATOM     20  H   UNL A   1      37.693  22.831  25.662  1.00  0.00     0.346 HD
ENDBRANCH  16  17
ENDBRANCH  15  16
ENDBRANCH  13  15
ENDBRANCH   8  13
ENDBRANCH   4   7
ENDBRANCH   2   3
ENDBRANCH   1   2
BRANCH   1  21
ATOM     21  C   UNL A   1      31.857  29.422  27.222  1.00  0.00     0.002 C 
BRANCH  21  22
ATOM     22  C   UNL A   1      31.559  30.486  26.163  1.00  0.00     0.002 C 
BRANCH  22  23
ATOM     23  C   UNL A   1      31.421  31.920  26.676  1.00  0.00     0.021 C 
BRANCH  23  24
ATOM     24  C   UNL A   1      32.729  32.627  27.022  1.00  0.00     0.116 C 
BRANCH  24  25
ATOM     25  N   UNL A   1      32.523  33.974  27.526  1.00  0.00    -0.352 N 
ATOM     26  C   UNL A   1      33.139  34.628  28.561  1.00  0.00     0.251 C 
ATOM     27  H   UNL A   1      31.836  34.496  27.053  1.00  0.00     0.163 HD
ATOM     28  O   UNL A   1      32.707  35.717  28.945  1.00  0.00    -0.269 OA
BRANCH  26  29
ATOM     29  C   UNL A   1      34.305  34.027  29.240  1.00  0.00     0.039 A 
ATOM     30  C   UNL A   1      34.085  33.108  30.268  1.00  0.00     0.014 A 
ATOM     31  C   UNL A   1      35.610  34.381  28.882  1.00  0.00     0.014 A 
ATOM     32  C   UNL A   1      35.172  32.494  30.895  1.00  0.00     0.010 A 
ATOM     33  C   UNL A   1      36.691  33.715  29.458  1.00  0.00     0.010 A 
ATOM     34  C   UNL A   1      36.483  32.767  30.471  1.00  0.00    -0.014 A 
BRANCH  34  35
ATOM     35  C   UNL A   1      37.648  32.076  31.084  1.00  0.00     0.031 A 
ATOM     36  C   UNL A   1      38.123  32.469  32.456  1.00  0.00     0.074 A 
ATOM     37  C   UNL A   1      38.305  31.127  30.389  1.00  0.00     0.049 A 
ATOM     38  N   UNL A   1      39.161  32.039  33.129  1.00  0.00    -0.248 NA
ATOM     39  C   UNL A   1      37.338  33.498  33.158  1.00  0.00     0.031 C 
ATOM     40  C   UNL A   1      37.962  30.676  29.039  1.00  0.00     0.029 A 
ATOM     41  N   UNL A   1      39.405  30.374  30.719  1.00  0.00    -0.354 N 
ATOM     42  C   UNL A   1      39.153  32.742  34.327  1.00  0.00     0.074 A 
ATOM     43  C   UNL A   1      38.045  33.670  34.267  1.00  0.00     0.031 C 
ATOM     44  C   UNL A   1      38.820  29.712  28.665  1.00  0.00     0.029 A 
ATOM     45  C   UNL A   1      39.797  29.505  29.729  1.00  0.00     0.049 A 
ATOM     46  H   UNL A   1      39.870  30.449  31.583  1.00  0.00     0.167 HD
ATOM     47  C   UNL A   1      39.976  32.604  35.395  1.00  0.00     0.037 A 
ATOM     48  C   UNL A   1      40.835  28.648  29.682  1.00  0.00     0.037 A 
ATOM     49  C   UNL A   1      41.070  31.671  35.461  1.00  0.00     0.049 A 
ATOM     50  C   UNL A   1      41.757  28.547  30.870  1.00  0.00     0.074 A 
ATOM     51  C   UNL A   1      41.951  31.447  36.504  1.00  0.00     0.029 A 
ATOM     52  N   UNL A   1      41.427  30.802  34.442  1.00  0.00    -0.354 N 
ATOM     53  N   UNL A   1      41.709  29.184  32.014  1.00  0.00    -0.248 NA
ATOM     54  C   UNL A   1      42.877  27.602  30.758  1.00  0.00     0.031 C 
ATOM     55  C   UNL A   1      42.865  30.467  36.104  1.00  0.00     0.029 A 
ATOM     56  C   UNL A   1      42.523  30.046  34.829  1.00  0.00     0.049 A 
ATOM     57  H   UNL A   1      40.971  30.732  33.572  1.00  0.00     0.167 HD
ATOM     58  C   UNL A   1      42.763  28.688  32.770  1.00  0.00     0.074 A 
ATOM     59  C   UNL A   1      43.424  27.687  31.961  1.00  0.00     0.031 C 
ATOM     60  C   UNL A   1      43.150  29.032  34.023  1.00  0.00     0.037 A 
BRANCH  47  61
ATOM     61  C   UNL A   1      39.713  33.470  36.592  1.00  0.00     0.064 A 
ATOM     62  C   UNL A   1      40.327  34.724  36.732  1.00  0.00     0.173 A 
ATOM     63  C   UNL A   1      38.795  33.076  37.576  1.00  0.00     0.173 A 
ATOM     64  F   UNL A   1      41.221  35.143  35.824  1.00  0.00    -0.203 F 
ATOM     65  C   UNL A   1      40.046  35.543  37.822  1.00  0.00     0.198 A 
ATOM     66  C   UNL A   1      38.494  33.910  38.651  1.00  0.00     0.198 A 
ATOM     67  F   UNL A   1      38.176  31.889  37.487  1.00  0.00    -0.203 F 
ATOM     68  F   UNL A   1      40.673  36.719  37.955  1.00  0.00    -0.200 F 
ATOM     69  C   UNL A   1      39.123  35.140  38.776  1.00  0.00     0.200 A 
ATOM     70  F   UNL A   1      37.591  33.525  39.563  1.00  0.00    -0.200 F 
ATOM     71  F   UNL A   1      38.842  35.935  39.817  1.00  0.00    -0.200 F 
ENDBRANCH  47  61
BRANCH  48  72
ATOM     72  C   UNL A   1      41.063  27.800  28.480  1.00  0.00     0.064 A 
ATOM     73  C   UNL A   1      41.923  28.220  27.456  1.00  0.00     0.173 A 
ATOM     74  C   UNL A   1      40.389  26.583  28.306  1.00  0.00     0.173 A 
ATOM     75  F   UNL A   1      42.574  29.388  27.566  1.00  0.00    -0.203 F 
ATOM     76  C   UNL A   1      42.070  27.477  26.286  1.00  0.00     0.198 A 
ATOM     77  C   UNL A   1      40.562  25.823  27.150  1.00  0.00     0.198 A 
ATOM     78  F   UNL A   1      39.559  26.130  29.256  1.00  0.00    -0.203 F 
ATOM     79  F   UNL A   1      42.845  27.937  25.295  1.00  0.00    -0.200 F 
ATOM     80  C   UNL A   1      41.391  26.277  26.136  1.00  0.00     0.200 A 
ATOM     81  F   UNL A   1      39.916  24.657  27.014  1.00  0.00    -0.200 F 
ATOM     82  F   UNL A   1      41.525  25.567  25.007  1.00  0.00    -0.200 F 
ENDBRANCH  48  72
BRANCH  60  83
ATOM     83  C   UNL A   1      44.305  28.281  34.619  1.00  0.00     0.064 A 
ATOM     84  C   UNL A   1      44.123  27.083  35.325  1.00  0.00     0.173 A 
ATOM     85  C   UNL A   1      45.616  28.751  34.449  1.00  0.00     0.173 A 
ATOM     86  F   UNL A   1      42.888  26.599  35.528  1.00  0.00    -0.203 F 
ATOM     87  C   UNL A   1      45.209  26.399  35.863  1.00  0.00     0.198 A 
ATOM     88  C   UNL A   1      46.702  28.048  34.961  1.00  0.00     0.198 A 
ATOM     89  F   UNL A   1      45.845  29.889  33.775  1.00  0.00    -0.203 F 
ATOM     90  F   UNL A   1      45.008  25.284  36.580  1.00  0.00    -0.200 F 
ATOM     91  C   UNL A   1      46.498  26.877  35.675  1.00  0.00     0.200 A 
ATOM     92  F   UNL A   1      47.947  28.504  34.766  1.00  0.00    -0.200 F 
ATOM     93  F   UNL A   1      47.542  26.213  36.189  1.00  0.00    -0.200 F 
ENDBRANCH  60  83
ENDBRANCH  34  35
ENDBRANCH  26  29
ENDBRANCH  24  25
ENDBRANCH  23  24
ENDBRANCH  22  23
ENDBRANCH  21  22
ENDBRANCH   1  21
TORSDOF 17
ENDMDL
MODEL 3
REMARK VINA RESULT:     -10.9      6.160     11.717
REMARK SMILES C[NH2+]CCC(=O)N1CC[C@@H](C(=O)NCCCCCCNC(=O)c2ccc(-c3c4nc(c(-c5c(F)c(F)c(F)c(F)c5F)c5ccc([nH]5)c(-c5c(F)c(F)c(F)c(F)c5F)c5nc(c(-c6c(F)c(F)c(F)c(F)c6F)c6ccc3[nH]6)C=C5)C=C4)cc2)[C@@H]1C
REMARK SMILES IDX 15 1 14 2 13 3 11 4 12 5 10 7 7 8 8 9 86 10 9 11 87 12 5 13
REMARK SMILES IDX 6 14 4 15 3 16 2 17 1 18 16 21 17 22 18 23 19 24 20 25 21 26
REMARK SMILES IDX 22 28 23 29 24 30 85 31 25 32 84 33 26 34 27 35 28 36 78 37
REMARK SMILES IDX 29 38 83 39 77 40 79 41 30 42 82 43 76 44 75 45 31 47 63 48
REMARK SMILES IDX 43 49 62 50 44 51 47 52 61 53 80 54 45 55 46 56 60 58 81 59
REMARK SMILES IDX 48 60 32 61 33 62 41 63 34 64 35 65 39 66 42 67 36 68 37 69
REMARK SMILES IDX 40 70 38 71 64 72 65 73 73 74 66 75 67 76 71 77 74 78 68 79
REMARK SMILES IDX 69 80 72 81 70 82 49 83 50 84 58 85 51 86 52 87 56 88 59 89
REMARK SMILES IDX 53 90 54 91 57 92 55 93
REMARK H PARENT 13 6 2 19 2 20 20 27 79 46 47 57
REMARK Flexibility Score: inf
ROOT
ATOM      1  C   UNL A   1      40.149  22.526  27.139  1.00  0.00     0.021 C 
ENDROOT
BRANCH   1   2
ATOM      2  C   UNL A   1      39.248  21.823  26.126  1.00  0.00     0.116 C 
BRANCH   2   3
ATOM      3  N   UNL A   1      38.401  22.781  25.441  1.00  0.00    -0.356 N 
ATOM      4  C   UNL A   1      37.067  22.781  25.187  1.00  0.00     0.225 C 
ATOM      5  O   UNL A   1      36.633  23.703  24.489  1.00  0.00    -0.275 OA
ATOM      6  H   UNL A   1      38.878  23.570  25.099  1.00  0.00     0.163 HD
BRANCH   4   7
ATOM      7  C   UNL A   1      36.113  21.714  25.699  1.00  0.00     0.102 C 
ATOM      8  N   UNL A   1      33.886  21.154  25.079  1.00  0.00    -0.339 N 
ATOM      9  C   UNL A   1      34.650  19.927  25.001  1.00  0.00     0.120 C 
ATOM     10  C   UNL A   1      34.649  22.183  25.784  1.00  0.00     0.094 C 
ATOM     11  C   UNL A   1      36.094  20.404  24.906  1.00  0.00     0.037 C 
ATOM     12  C   UNL A   1      34.208  22.231  27.255  1.00  0.00     0.032 C 
BRANCH   8  13
ATOM     13  C   UNL A   1      32.565  21.192  24.689  1.00  0.00     0.228 C 
ATOM     14  O   UNL A   1      31.778  20.298  25.000  1.00  0.00    -0.275 OA
BRANCH  13  15
ATOM     15  C   UNL A   1      32.152  22.255  23.683  1.00  0.00     0.161 C 
BRANCH  15  16
ATOM     16  C   UNL A   1      31.189  23.349  24.143  1.00  0.00     0.270 C 
BRANCH  16  17
ATOM     17  N   UNL A   1      30.532  23.195  25.444  1.00  0.00    -0.348 N 
ATOM     18  C   UNL A   1      31.053  24.045  26.498  1.00  0.00     0.330 C 
ATOM     19  H   UNL A   1      29.541  23.410  25.327  1.00  0.00     0.346 HD
ATOM     20  H   UNL A   1      30.706  22.235  25.740  1.00  0.00     0.346 HD
ENDBRANCH  16  17
ENDBRANCH  15  16
ENDBRANCH  13  15
ENDBRANCH   8  13
ENDBRANCH   4   7
ENDBRANCH   2   3
ENDBRANCH   1   2
BRANCH   1  21
ATOM     21  C   UNL A   1      40.989  21.606  28.027  1.00  0.00     0.002 C 
BRANCH  21  22
ATOM     22  C   UNL A   1      42.310  21.120  27.426  1.00  0.00     0.002 C 
BRANCH  22  23
ATOM     23  C   UNL A   1      42.351  19.653  26.998  1.00  0.00     0.021 C 
BRANCH  23  24
ATOM     24  C   UNL A   1      42.228  19.398  25.498  1.00  0.00     0.116 C 
BRANCH  24  25
ATOM     25  N   UNL A   1      43.440  18.841  24.921  1.00  0.00    -0.352 N 
ATOM     26  C   UNL A   1      44.615  19.458  24.581  1.00  0.00     0.251 C 
ATOM     27  H   UNL A   1      43.413  17.872  24.749  1.00  0.00     0.163 HD
ATOM     28  O   UNL A   1      45.473  18.841  23.945  1.00  0.00    -0.269 OA
BRANCH  26  29
ATOM     29  C   UNL A   1      44.854  20.869  24.948  1.00  0.00     0.039 A 
ATOM     30  C   UNL A   1      44.407  21.873  24.086  1.00  0.00     0.014 A 
ATOM     31  C   UNL A   1      45.534  21.204  26.122  1.00  0.00     0.014 A 
ATOM     32  C   UNL A   1      44.583  23.215  24.433  1.00  0.00     0.010 A 
ATOM     33  C   UNL A   1      45.645  22.541  26.502  1.00  0.00     0.010 A 
ATOM     34  C   UNL A   1      45.173  23.559  25.660  1.00  0.00    -0.014 A 
BRANCH  34  35
ATOM     35  C   UNL A   1      45.311  24.981  26.074  1.00  0.00     0.031 A 
ATOM     36  C   UNL A   1      46.646  25.667  25.981  1.00  0.00     0.074 A 
ATOM     37  C   UNL A   1      44.247  25.639  26.575  1.00  0.00     0.049 A 
ATOM     38  N   UNL A   1      46.986  26.874  26.360  1.00  0.00    -0.248 NA
ATOM     39  C   UNL A   1      47.753  24.888  25.403  1.00  0.00     0.031 C 
ATOM     40  C   UNL A   1      42.906  25.075  26.744  1.00  0.00     0.029 A 
ATOM     41  N   UNL A   1      44.127  26.925  27.042  1.00  0.00    -0.354 N 
ATOM     42  C   UNL A   1      48.338  26.997  26.067  1.00  0.00     0.074 A 
ATOM     43  C   UNL A   1      48.773  25.723  25.536  1.00  0.00     0.031 C 
ATOM     44  C   UNL A   1      42.095  26.016  27.257  1.00  0.00     0.029 A 
ATOM     45  C   UNL A   1      42.865  27.233  27.491  1.00  0.00     0.049 A 
ATOM     46  H   UNL A   1      44.874  27.565  27.054  1.00  0.00     0.167 HD
ATOM     47  C   UNL A   1      49.138  28.081  26.200  1.00  0.00     0.037 A 
ATOM     48  C   UNL A   1      42.388  28.367  28.040  1.00  0.00     0.037 A 
ATOM     49  C   UNL A   1      48.702  29.353  26.715  1.00  0.00     0.049 A 
ATOM     50  C   UNL A   1      43.314  29.544  28.213  1.00  0.00     0.074 A 
ATOM     51  C   UNL A   1      49.435  30.516  26.876  1.00  0.00     0.029 A 
ATOM     52  N   UNL A   1      47.415  29.628  27.150  1.00  0.00    -0.354 N 
ATOM     53  N   UNL A   1      44.578  29.660  27.887  1.00  0.00    -0.248 NA
ATOM     54  C   UNL A   1      42.741  30.750  28.826  1.00  0.00     0.031 C 
ATOM     55  C   UNL A   1      48.600  31.486  27.439  1.00  0.00     0.029 A 
ATOM     56  C   UNL A   1      47.335  30.941  27.586  1.00  0.00     0.049 A 
ATOM     57  H   UNL A   1      46.668  28.986  27.148  1.00  0.00     0.167 HD
ATOM     58  C   UNL A   1      44.939  30.960  28.217  1.00  0.00     0.074 A 
ATOM     59  C   UNL A   1      43.756  31.598  28.754  1.00  0.00     0.031 C 
ATOM     60  C   UNL A   1      46.142  31.570  28.089  1.00  0.00     0.037 A 
BRANCH  47  61
ATOM     61  C   UNL A   1      50.567  27.950  25.761  1.00  0.00     0.064 A 
ATOM     62  C   UNL A   1      51.595  27.720  26.688  1.00  0.00     0.173 A 
ATOM     63  C   UNL A   1      50.908  27.991  24.401  1.00  0.00     0.173 A 
ATOM     64  F   UNL A   1      51.325  27.684  28.001  1.00  0.00    -0.203 F 
ATOM     65  C   UNL A   1      52.913  27.555  26.271  1.00  0.00     0.198 A 
ATOM     66  C   UNL A   1      52.222  27.796  23.985  1.00  0.00     0.198 A 
ATOM     67  F   UNL A   1      49.962  28.202  23.473  1.00  0.00    -0.203 F 
ATOM     68  F   UNL A   1      53.884  27.375  27.177  1.00  0.00    -0.200 F 
ATOM     69  C   UNL A   1      53.225  27.583  24.920  1.00  0.00     0.200 A 
ATOM     70  F   UNL A   1      52.519  27.809  22.678  1.00  0.00    -0.200 F 
ATOM     71  F   UNL A   1      54.491  27.409  24.519  1.00  0.00    -0.200 F 
ENDBRANCH  47  61
BRANCH  48  72
ATOM     72  C   UNL A   1      40.964  28.464  28.460  1.00  0.00     0.064 A 
ATOM     73  C   UNL A   1      39.987  28.959  27.583  1.00  0.00     0.173 A 
ATOM     74  C   UNL A   1      40.558  28.116  29.756  1.00  0.00     0.173 A 
ATOM     75  F   UNL A   1      40.330  29.326  26.339  1.00  0.00    -0.203 F 
ATOM     76  C   UNL A   1      38.670  29.140  27.998  1.00  0.00     0.198 A 
ATOM     77  C   UNL A   1      39.233  28.265  30.160  1.00  0.00     0.198 A 
ATOM     78  F   UNL A   1      41.449  27.632  30.633  1.00  0.00    -0.203 F 
ATOM     79  F   UNL A   1      37.774  29.680  27.161  1.00  0.00    -0.200 F 
ATOM     80  C   UNL A   1      38.293  28.791  29.287  1.00  0.00     0.200 A 
ATOM     81  F   UNL A   1      38.870  27.913  31.401  1.00  0.00    -0.200 F 
ATOM     82  F   UNL A   1      37.028  28.974  29.689  1.00  0.00    -0.200 F 
ENDBRANCH  48  72
BRANCH  60  83
ATOM     83  C   UNL A   1      46.227  33.017  28.481  1.00  0.00     0.064 A 
ATOM     84  C   UNL A   1      45.953  34.047  27.569  1.00  0.00     0.173 A 
ATOM     85  C   UNL A   1      46.552  33.374  29.798  1.00  0.00     0.173 A 
ATOM     86  F   UNL A   1      45.652  33.759  26.294  1.00  0.00    -0.203 F 
ATOM     87  C   UNL A   1      46.032  35.382  27.955  1.00  0.00     0.198 A 
ATOM     88  C   UNL A   1      46.599  34.709  30.189  1.00  0.00     0.198 A 
ATOM     89  F   UNL A   1      46.816  32.426  30.710  1.00  0.00    -0.203 F 
ATOM     90  F   UNL A   1      45.818  36.352  27.054  1.00  0.00    -0.200 F 
ATOM     91  C   UNL A   1      46.347  35.712  29.265  1.00  0.00     0.200 A 
ATOM     92  F   UNL A   1      46.888  35.025  31.458  1.00  0.00    -0.200 F 
ATOM     93  F   UNL A   1      46.414  36.998  29.636  1.00  0.00    -0.200 F 
ENDBRANCH  60  83
ENDBRANCH  34  35
ENDBRANCH  26  29
ENDBRANCH  24  25
ENDBRANCH  23  24
ENDBRANCH  22  23
ENDBRANCH  21  22
ENDBRANCH   1  21
TORSDOF 17
ENDMDL
