MODEL 1
REMARK VINA RESULT:     -11.5      0.000      0.000
REMARK SMILES CCCC[C@H](C(=O)NCCCCCCNC(=O)c1ccc(-c2c3nc(c(-c4c(F)c(F)c(F)c(F)c4F)c4ccc([nH]4)c(-c4c(F)c(F)c(F)c(F)c4F)c4nc(c(-c5c(F)c(F)c(F)c(F)c5F)c5ccc2[nH]5)C=C4)C=C3)cc1)[C@]1(O)CCc2ccc(OC)cc21
REMARK SMILES IDX 11 1 10 2 9 3 8 4 6 5 7 6 5 8 4 9 3 10 2 11 1 12 81 13 83 14
REMARK SMILES IDX 92 15 84 16 85 17 91 18 86 19 88 20 87 21 82 22 89 24 90 25
REMARK SMILES IDX 12 26 13 27 14 28 15 29 16 30 17 32 18 33 19 34 80 35 20 36
REMARK SMILES IDX 79 37 21 38 22 39 23 40 73 41 24 42 78 43 72 44 74 45 25 46
REMARK SMILES IDX 77 47 71 48 70 49 26 51 58 52 38 53 57 54 39 55 42 56 56 57
REMARK SMILES IDX 75 58 40 59 41 60 55 62 76 63 43 64 27 65 28 66 36 67 29 68
REMARK SMILES IDX 30 69 34 70 37 71 31 72 32 73 35 74 33 75 59 76 60 77 68 78
REMARK SMILES IDX 61 79 62 80 66 81 69 82 63 83 64 84 67 85 65 86 44 87 45 88
REMARK SMILES IDX 53 89 46 90 47 91 51 92 54 93 48 94 49 95 52 96 50 97
REMARK H PARENT 8 7 82 23 15 31 74 50 42 61
REMARK Flexibility Score: inf
ROOT
ATOM      1  C   UNL A   1      29.877  27.210  23.907  1.00  0.00     0.002 C 
ENDROOT
BRANCH   1   2
ATOM      2  C   UNL A   1      29.950  25.753  24.401  1.00  0.00     0.021 C 
BRANCH   2   3
ATOM      3  C   UNL A   1      30.285  24.645  23.402  1.00  0.00     0.116 C 
BRANCH   3   4
ATOM      4  N   UNL A   1      31.246  24.912  22.330  1.00  0.00    -0.356 N 
ATOM      5  C   UNL A   1      32.635  24.753  22.405  1.00  0.00     0.226 C 
ATOM      6  O   UNL A   1      33.356  25.222  21.526  1.00  0.00    -0.275 OA
ATOM      7  H   UNL A   1      30.881  25.235  21.475  1.00  0.00     0.163 HD
BRANCH   5   8
ATOM      8  C   UNL A   1      33.191  23.958  23.592  1.00  0.00     0.115 C 
BRANCH   8   9
ATOM      9  C   UNL A   1      33.473  22.475  23.183  1.00  0.00     0.017 C 
BRANCH   9  10
ATOM     10  C   UNL A   1      32.776  21.283  23.816  1.00  0.00     0.001 C 
BRANCH  10  11
ATOM     11  C   UNL A   1      33.645  20.245  24.504  1.00  0.00    -0.003 C 
ATOM     12  C   UNL A   1      32.898  19.389  25.511  1.00  0.00     0.004 C 
ENDBRANCH  10  11
ENDBRANCH   9  10
ENDBRANCH   8   9
BRANCH   8  13
ATOM     13  C   UNL A   1      34.333  24.580  24.528  1.00  0.00     0.102 C 
ATOM     14  C   UNL A   1      35.746  23.940  24.460  1.00  0.00     0.046 C 
ATOM     15  C   UNL A   1      33.922  24.278  25.983  1.00  0.00    -0.009 A 
ATOM     16  C   UNL A   1      36.089  23.326  25.837  1.00  0.00     0.039 C 
ATOM     17  C   UNL A   1      34.765  23.298  26.519  1.00  0.00    -0.042 A 
ATOM     18  C   UNL A   1      32.628  24.466  26.471  1.00  0.00     0.053 A 
ATOM     19  C   UNL A   1      34.262  22.349  27.397  1.00  0.00     0.008 A 
ATOM     20  C   UNL A   1      32.078  23.447  27.248  1.00  0.00     0.119 A 
ATOM     21  C   UNL A   1      32.895  22.401  27.717  1.00  0.00     0.047 A 
BRANCH  13  22
ATOM     22  O   UNL A   1      34.408  25.995  24.401  1.00  0.00    -0.384 OA
ATOM     23  H   UNL A   1      35.316  26.288  24.573  1.00  0.00     0.211 HD
ENDBRANCH  13  22
BRANCH  20  24
ATOM     24  O   UNL A   1      30.733  23.299  27.476  1.00  0.00    -0.497 OA
ATOM     25  C   UNL A   1      30.012  22.554  26.494  1.00  0.00     0.278 C 
ENDBRANCH  20  24
ENDBRANCH   8  13
ENDBRANCH   5   8
ENDBRANCH   3   4
ENDBRANCH   2   3
ENDBRANCH   1   2
BRANCH   1  26
ATOM     26  C   UNL A   1      31.088  28.152  24.009  1.00  0.00     0.002 C 
BRANCH  26  27
ATOM     27  C   UNL A   1      31.781  28.385  25.353  1.00  0.00     0.021 C 
BRANCH  27  28
ATOM     28  C   UNL A   1      32.909  29.411  25.403  1.00  0.00     0.116 C 
BRANCH  28  29
ATOM     29  N   UNL A   1      32.508  30.704  25.933  1.00  0.00    -0.352 N 
ATOM     30  C   UNL A   1      33.076  31.483  26.906  1.00  0.00     0.251 C 
ATOM     31  H   UNL A   1      31.697  31.083  25.525  1.00  0.00     0.163 HD
ATOM     32  O   UNL A   1      32.512  32.541  27.230  1.00  0.00    -0.269 OA
BRANCH  30  33
ATOM     33  C   UNL A   1      34.319  31.094  27.612  1.00  0.00     0.039 A 
ATOM     34  C   UNL A   1      35.270  32.086  27.882  1.00  0.00     0.014 A 
ATOM     35  C   UNL A   1      34.593  29.771  27.969  1.00  0.00     0.014 A 
ATOM     36  C   UNL A   1      36.453  31.769  28.558  1.00  0.00     0.010 A 
ATOM     37  C   UNL A   1      35.745  29.465  28.700  1.00  0.00     0.010 A 
ATOM     38  C   UNL A   1      36.688  30.459  29.002  1.00  0.00    -0.014 A 
BRANCH  38  39
ATOM     39  C   UNL A   1      37.909  30.122  29.784  1.00  0.00     0.031 A 
ATOM     40  C   UNL A   1      38.936  29.173  29.230  1.00  0.00     0.074 A 
ATOM     41  C   UNL A   1      38.071  30.634  31.021  1.00  0.00     0.049 A 
ATOM     42  N   UNL A   1      40.033  28.719  29.786  1.00  0.00    -0.248 NA
ATOM     43  C   UNL A   1      38.687  28.646  27.879  1.00  0.00     0.031 C 
ATOM     44  C   UNL A   1      37.134  31.536  31.691  1.00  0.00     0.029 A 
ATOM     45  N   UNL A   1      39.078  30.461  31.939  1.00  0.00    -0.354 N 
ATOM     46  C   UNL A   1      40.596  27.850  28.860  1.00  0.00     0.074 A 
ATOM     47  C   UNL A   1      39.696  27.800  27.728  1.00  0.00     0.031 C 
ATOM     48  C   UNL A   1      37.618  31.853  32.902  1.00  0.00     0.029 A 
ATOM     49  C   UNL A   1      38.879  31.148  33.112  1.00  0.00     0.049 A 
ATOM     50  H   UNL A   1      39.869  29.898  31.772  1.00  0.00     0.167 HD
ATOM     51  C   UNL A   1      41.768  27.172  28.937  1.00  0.00     0.037 A 
ATOM     52  C   UNL A   1      39.622  31.196  34.235  1.00  0.00     0.037 A 
ATOM     53  C   UNL A   1      42.672  27.237  30.056  1.00  0.00     0.049 A 
ATOM     54  C   UNL A   1      40.908  30.418  34.303  1.00  0.00     0.074 A 
ATOM     55  C   UNL A   1      43.908  26.629  30.203  1.00  0.00     0.029 A 
ATOM     56  N   UNL A   1      42.437  27.948  31.224  1.00  0.00    -0.354 N 
ATOM     57  N   UNL A   1      41.462  29.653  33.394  1.00  0.00    -0.248 NA
ATOM     58  C   UNL A   1      41.677  30.516  35.552  1.00  0.00     0.031 C 
ATOM     59  C   UNL A   1      44.397  26.931  31.479  1.00  0.00     0.029 A 
ATOM     60  C   UNL A   1      43.493  27.773  32.105  1.00  0.00     0.049 A 
ATOM     61  H   UNL A   1      41.639  28.496  31.400  1.00  0.00     0.167 HD
ATOM     62  C   UNL A   1      42.654  29.202  33.949  1.00  0.00     0.074 A 
ATOM     63  C   UNL A   1      42.751  29.794  35.266  1.00  0.00     0.031 C 
ATOM     64  C   UNL A   1      43.582  28.373  33.413  1.00  0.00     0.037 A 
BRANCH  51  65
ATOM     65  C   UNL A   1      42.142  26.296  27.775  1.00  0.00     0.064 A 
ATOM     66  C   UNL A   1      43.043  26.726  26.788  1.00  0.00     0.173 A 
ATOM     67  C   UNL A   1      41.629  24.994  27.669  1.00  0.00     0.173 A 
ATOM     68  F   UNL A   1      43.557  27.965  26.837  1.00  0.00    -0.203 F 
ATOM     69  C   UNL A   1      43.390  25.900  25.723  1.00  0.00     0.198 A 
ATOM     70  C   UNL A   1      42.004  24.158  26.620  1.00  0.00     0.198 A 
ATOM     71  F   UNL A   1      40.771  24.527  28.589  1.00  0.00    -0.203 F 
ATOM     72  F   UNL A   1      44.212  26.351  24.766  1.00  0.00    -0.200 F 
ATOM     73  C   UNL A   1      42.876  24.614  25.644  1.00  0.00     0.200 A 
ATOM     74  F   UNL A   1      41.517  22.911  26.552  1.00  0.00    -0.200 F 
ATOM     75  F   UNL A   1      43.217  23.817  24.622  1.00  0.00    -0.200 F 
ENDBRANCH  51  65
BRANCH  52  76
ATOM     76  C   UNL A   1      39.178  32.028  35.385  1.00  0.00     0.064 A 
ATOM     77  C   UNL A   1      38.404  31.479  36.417  1.00  0.00     0.173 A 
ATOM     78  C   UNL A   1      39.506  33.389  35.472  1.00  0.00     0.173 A 
ATOM     79  F   UNL A   1      38.045  30.186  36.368  1.00  0.00    -0.203 F 
ATOM     80  C   UNL A   1      37.958  32.261  37.479  1.00  0.00     0.198 A 
ATOM     81  C   UNL A   1      39.084  34.165  36.549  1.00  0.00     0.198 A 
ATOM     82  F   UNL A   1      40.246  33.965  34.512  1.00  0.00    -0.203 F 
ATOM     83  F   UNL A   1      37.178  31.720  38.426  1.00  0.00    -0.200 F 
ATOM     84  C   UNL A   1      38.304  33.602  37.548  1.00  0.00     0.200 A 
ATOM     85  F   UNL A   1      39.432  35.457  36.620  1.00  0.00    -0.200 F 
ATOM     86  F   UNL A   1      37.876  34.354  38.572  1.00  0.00    -0.200 F 
ENDBRANCH  52  76
BRANCH  64  87
ATOM     87  C   UNL A   1      44.805  28.082  34.236  1.00  0.00     0.064 A 
ATOM     88  C   UNL A   1      45.939  28.905  34.188  1.00  0.00     0.173 A 
ATOM     89  C   UNL A   1      44.826  26.986  35.113  1.00  0.00     0.173 A 
ATOM     90  F   UNL A   1      45.975  29.957  33.356  1.00  0.00    -0.203 F 
ATOM     91  C   UNL A   1      47.060  28.626  34.967  1.00  0.00     0.198 A 
ATOM     92  C   UNL A   1      45.937  26.728  35.912  1.00  0.00     0.198 A 
ATOM     93  F   UNL A   1      43.765  26.170  35.202  1.00  0.00    -0.203 F 
ATOM     94  F   UNL A   1      48.151  29.398  34.867  1.00  0.00    -0.200 F 
ATOM     95  C   UNL A   1      47.054  27.544  35.834  1.00  0.00     0.200 A 
ATOM     96  F   UNL A   1      45.923  25.690  36.760  1.00  0.00    -0.200 F 
ATOM     97  F   UNL A   1      48.131  27.281  36.587  1.00  0.00    -0.200 F 
ENDBRANCH  64  87
ENDBRANCH  38  39
ENDBRANCH  30  33
ENDBRANCH  28  29
ENDBRANCH  27  28
ENDBRANCH  26  27
ENDBRANCH   1  26
TORSDOF 19
ENDMDL
MODEL 2
REMARK VINA RESULT:     -11.4      2.752      7.617
REMARK SMILES CCCC[C@H](C(=O)NCCCCCCNC(=O)c1ccc(-c2c3nc(c(-c4c(F)c(F)c(F)c(F)c4F)c4ccc([nH]4)c(-c4c(F)c(F)c(F)c(F)c4F)c4nc(c(-c5c(F)c(F)c(F)c(F)c5F)c5ccc2[nH]5)C=C4)C=C3)cc1)[C@]1(O)CCc2ccc(OC)cc21
REMARK SMILES IDX 11 1 10 2 9 3 8 4 6 5 7 6 5 8 4 9 3 10 2 11 1 12 81 13 83 14
REMARK SMILES IDX 92 15 84 16 85 17 91 18 86 19 88 20 87 21 82 22 89 24 90 25
REMARK SMILES IDX 12 26 13 27 14 28 15 29 16 30 17 32 18 33 19 34 80 35 20 36
REMARK SMILES IDX 79 37 21 38 22 39 23 40 73 41 24 42 78 43 72 44 74 45 25 46
REMARK SMILES IDX 77 47 71 48 70 49 26 51 58 52 38 53 57 54 39 55 42 56 56 57
REMARK SMILES IDX 75 58 40 59 41 60 55 62 76 63 43 64 27 65 28 66 36 67 29 68
REMARK SMILES IDX 30 69 34 70 37 71 31 72 32 73 35 74 33 75 59 76 60 77 68 78
REMARK SMILES IDX 61 79 62 80 66 81 69 82 63 83 64 84 67 85 65 86 44 87 45 88
REMARK SMILES IDX 53 89 46 90 47 91 51 92 54 93 48 94 49 95 52 96 50 97
REMARK H PARENT 8 7 82 23 15 31 74 50 42 61
REMARK Flexibility Score: inf
ROOT
ATOM      1  C   UNL A   1      31.218  27.696  24.108  1.00  0.00     0.002 C 
ENDROOT
BRANCH   1   2
ATOM      2  C   UNL A   1      30.180  26.581  24.339  1.00  0.00     0.021 C 
BRANCH   2   3
ATOM      3  C   UNL A   1      30.420  25.202  23.721  1.00  0.00     0.116 C 
BRANCH   3   4
ATOM      4  N   UNL A   1      31.206  25.094  22.491  1.00  0.00    -0.356 N 
ATOM      5  C   UNL A   1      32.514  24.608  22.385  1.00  0.00     0.226 C 
ATOM      6  O   UNL A   1      33.150  24.776  21.346  1.00  0.00    -0.275 OA
ATOM      7  H   UNL A   1      30.773  25.393  21.658  1.00  0.00     0.163 HD
BRANCH   5   8
ATOM      8  C   UNL A   1      33.085  23.848  23.589  1.00  0.00     0.115 C 
BRANCH   8   9
ATOM      9  C   UNL A   1      33.312  22.342  23.235  1.00  0.00     0.017 C 
BRANCH   9  10
ATOM     10  C   UNL A   1      32.652  21.195  23.983  1.00  0.00     0.001 C 
BRANCH  10  11
ATOM     11  C   UNL A   1      33.547  20.073  24.481  1.00  0.00    -0.003 C 
ATOM     12  C   UNL A   1      32.882  19.164  25.498  1.00  0.00     0.004 C 
ENDBRANCH  10  11
ENDBRANCH   9  10
ENDBRANCH   8   9
BRANCH   8  13
ATOM     13  C   UNL A   1      34.271  24.475  24.462  1.00  0.00     0.102 C 
ATOM     14  C   UNL A   1      35.688  23.861  24.298  1.00  0.00     0.046 C 
ATOM     15  C   UNL A   1      33.956  24.144  25.934  1.00  0.00    -0.009 A 
ATOM     16  C   UNL A   1      36.125  23.232  25.641  1.00  0.00     0.039 C 
ATOM     17  C   UNL A   1      34.847  23.172  26.402  1.00  0.00    -0.042 A 
ATOM     18  C   UNL A   1      32.691  24.303  26.504  1.00  0.00     0.053 A 
ATOM     19  C   UNL A   1      34.414  22.200  27.294  1.00  0.00     0.008 A 
ATOM     20  C   UNL A   1      32.208  23.263  27.297  1.00  0.00     0.119 A 
ATOM     21  C   UNL A   1      33.069  22.224  27.699  1.00  0.00     0.047 A 
BRANCH  13  22
ATOM     22  O   UNL A   1      34.315  25.894  24.353  1.00  0.00    -0.384 OA
ATOM     23  H   UNL A   1      33.430  26.230  24.148  1.00  0.00     0.211 HD
ENDBRANCH  13  22
BRANCH  20  24
ATOM     24  O   UNL A   1      30.882  23.088  27.605  1.00  0.00    -0.497 OA
ATOM     25  C   UNL A   1      30.042  22.667  26.530  1.00  0.00     0.278 C 
ENDBRANCH  20  24
ENDBRANCH   8  13
ENDBRANCH   5   8
ENDBRANCH   3   4
ENDBRANCH   2   3
ENDBRANCH   1   2
BRANCH   1  26
ATOM     26  C   UNL A   1      31.804  28.500  25.280  1.00  0.00     0.002 C 
BRANCH  26  27
ATOM     27  C   UNL A   1      32.379  27.783  26.504  1.00  0.00     0.021 C 
BRANCH  27  28
ATOM     28  C   UNL A   1      33.662  28.338  27.116  1.00  0.00     0.116 C 
BRANCH  28  29
ATOM     29  N   UNL A   1      33.578  29.737  27.500  1.00  0.00    -0.352 N 
ATOM     30  C   UNL A   1      34.506  30.559  28.082  1.00  0.00     0.251 C 
ATOM     31  H   UNL A   1      32.712  30.164  27.312  1.00  0.00     0.163 HD
ATOM     32  O   UNL A   1      34.179  31.722  28.369  1.00  0.00    -0.269 OA
BRANCH  30  33
ATOM     33  C   UNL A   1      35.877  30.103  28.411  1.00  0.00     0.039 A 
ATOM     34  C   UNL A   1      36.872  30.222  27.433  1.00  0.00     0.014 A 
ATOM     35  C   UNL A   1      36.194  29.517  29.640  1.00  0.00     0.014 A 
ATOM     36  C   UNL A   1      38.184  29.817  27.702  1.00  0.00     0.010 A 
ATOM     37  C   UNL A   1      37.517  29.172  29.932  1.00  0.00     0.010 A 
ATOM     38  C   UNL A   1      38.526  29.317  28.968  1.00  0.00    -0.014 A 
BRANCH  38  39
ATOM     39  C   UNL A   1      39.932  28.950  29.292  1.00  0.00     0.031 A 
ATOM     40  C   UNL A   1      40.806  29.887  30.079  1.00  0.00     0.074 A 
ATOM     41  C   UNL A   1      40.441  27.788  28.834  1.00  0.00     0.049 A 
ATOM     42  N   UNL A   1      42.068  29.764  30.411  1.00  0.00    -0.248 NA
ATOM     43  C   UNL A   1      40.186  31.140  30.538  1.00  0.00     0.031 C 
ATOM     44  C   UNL A   1      39.713  26.807  28.029  1.00  0.00     0.029 A 
ATOM     45  N   UNL A   1      41.693  27.241  28.972  1.00  0.00    -0.354 N 
ATOM     46  C   UNL A   1      42.394  30.923  31.105  1.00  0.00     0.074 A 
ATOM     47  C   UNL A   1      41.213  31.759  31.103  1.00  0.00     0.031 C 
ATOM     48  C   UNL A   1      40.522  25.770  27.761  1.00  0.00     0.029 A 
ATOM     49  C   UNL A   1      41.837  26.029  28.340  1.00  0.00     0.049 A 
ATOM     50  H   UNL A   1      42.419  27.675  29.476  1.00  0.00     0.167 HD
ATOM     51  C   UNL A   1      43.563  31.250  31.707  1.00  0.00     0.037 A 
ATOM     52  C   UNL A   1      42.910  25.221  28.231  1.00  0.00     0.037 A 
ATOM     53  C   UNL A   1      44.732  30.409  31.725  1.00  0.00     0.049 A 
ATOM     54  C   UNL A   1      44.203  25.617  28.891  1.00  0.00     0.074 A 
ATOM     55  C   UNL A   1      45.945  30.631  32.354  1.00  0.00     0.029 A 
ATOM     56  N   UNL A   1      44.836  29.186  31.078  1.00  0.00    -0.354 N 
ATOM     57  N   UNL A   1      44.477  26.685  29.601  1.00  0.00    -0.248 NA
ATOM     58  C   UNL A   1      45.335  24.692  28.742  1.00  0.00     0.031 C 
ATOM     59  C   UNL A   1      46.801  29.567  32.047  1.00  0.00     0.029 A 
ATOM     60  C   UNL A   1      46.102  28.654  31.273  1.00  0.00     0.049 A 
ATOM     61  H   UNL A   1      44.119  28.759  30.559  1.00  0.00     0.167 HD
ATOM     62  C   UNL A   1      45.799  26.547  30.004  1.00  0.00     0.074 A 
ATOM     63  C   UNL A   1      46.266  25.283  29.475  1.00  0.00     0.031 C 
ATOM     64  C   UNL A   1      46.556  27.392  30.746  1.00  0.00     0.037 A 
BRANCH  51  65
ATOM     65  C   UNL A   1      43.639  32.581  32.402  1.00  0.00     0.064 A 
ATOM     66  C   UNL A   1      43.305  32.725  33.757  1.00  0.00     0.173 A 
ATOM     67  C   UNL A   1      44.093  33.718  31.715  1.00  0.00     0.173 A 
ATOM     68  F   UNL A   1      42.858  31.672  34.458  1.00  0.00    -0.203 F 
ATOM     69  C   UNL A   1      43.392  33.962  34.391  1.00  0.00     0.198 A 
ATOM     70  C   UNL A   1      44.210  34.947  32.360  1.00  0.00     0.198 A 
ATOM     71  F   UNL A   1      44.435  33.637  30.420  1.00  0.00    -0.203 F 
ATOM     72  F   UNL A   1      43.019  34.085  35.671  1.00  0.00    -0.200 F 
ATOM     73  C   UNL A   1      43.851  35.070  33.693  1.00  0.00     0.200 A 
ATOM     74  F   UNL A   1      44.666  36.013  31.690  1.00  0.00    -0.200 F 
ATOM     75  F   UNL A   1      43.941  36.258  34.307  1.00  0.00    -0.200 F 
ENDBRANCH  51  65
BRANCH  52  76
ATOM     76  C   UNL A   1      42.804  23.942  27.479  1.00  0.00     0.064 A 
ATOM     77  C   UNL A   1      43.129  23.877  26.117  1.00  0.00     0.173 A 
ATOM     78  C   UNL A   1      42.365  22.763  28.101  1.00  0.00     0.173 A 
ATOM     79  F   UNL A   1      43.532  24.983  25.472  1.00  0.00    -0.203 F 
ATOM     80  C   UNL A   1      43.000  22.689  25.401  1.00  0.00     0.198 A 
ATOM     81  C   UNL A   1      42.265  21.569  27.391  1.00  0.00     0.198 A 
ATOM     82  F   UNL A   1      42.044  22.770  29.403  1.00  0.00    -0.203 F 
ATOM     83  F   UNL A   1      43.271  22.668  24.088  1.00  0.00    -0.200 F 
ATOM     84  C   UNL A   1      42.575  21.534  26.040  1.00  0.00     0.200 A 
ATOM     85  F   UNL A   1      41.866  20.452  28.015  1.00  0.00    -0.200 F 
ATOM     86  F   UNL A   1      42.453  20.392  25.351  1.00  0.00    -0.200 F 
ENDBRANCH  52  76
BRANCH  64  87
ATOM     87  C   UNL A   1      47.961  26.963  31.062  1.00  0.00     0.064 A 
ATOM     88  C   UNL A   1      49.049  27.362  30.273  1.00  0.00     0.173 A 
ATOM     89  C   UNL A   1      48.224  26.173  32.192  1.00  0.00     0.173 A 
ATOM     90  F   UNL A   1      48.849  28.105  29.174  1.00  0.00    -0.203 F 
ATOM     91  C   UNL A   1      50.346  26.964  30.588  1.00  0.00     0.198 A 
ATOM     92  C   UNL A   1      49.525  25.803  32.520  1.00  0.00     0.198 A 
ATOM     93  F   UNL A   1      47.220  25.769  32.984  1.00  0.00    -0.203 F 
ATOM     94  F   UNL A   1      51.364  27.316  29.790  1.00  0.00    -0.200 F 
ATOM     95  C   UNL A   1      50.583  26.192  31.715  1.00  0.00     0.200 A 
ATOM     96  F   UNL A   1      49.754  25.069  33.619  1.00  0.00    -0.200 F 
ATOM     97  F   UNL A   1      51.833  25.816  32.020  1.00  0.00    -0.200 F 
ENDBRANCH  64  87
ENDBRANCH  38  39
ENDBRANCH  30  33
ENDBRANCH  28  29
ENDBRANCH  27  28
ENDBRANCH  26  27
ENDBRANCH   1  26
TORSDOF 19
ENDMDL
MODEL 3
REMARK VINA RESULT:     -11.4      0.523      7.290
REMARK SMILES CCCC[C@H](C(=O)NCCCCCCNC(=O)c1ccc(-c2c3nc(c(-c4c(F)c(F)c(F)c(F)c4F)c4ccc([nH]4)c(-c4c(F)c(F)c(F)c(F)c4F)c4nc(c(-c5c(F)c(F)c(F)c(F)c5F)c5ccc2[nH]5)C=C4)C=C3)cc1)[C@]1(O)CCc2ccc(OC)cc21
REMARK SMILES IDX 11 1 10 2 9 3 8 4 6 5 7 6 5 8 4 9 3 10 2 11 1 12 81 13 83 14
REMARK SMILES IDX 92 15 84 16 85 17 91 18 86 19 88 20 87 21 82 22 89 24 90 25
REMARK SMILES IDX 12 26 13 27 14 28 15 29 16 30 17 32 18 33 19 34 80 35 20 36
REMARK SMILES IDX 79 37 21 38 22 39 23 40 73 41 24 42 78 43 72 44 74 45 25 46
REMARK SMILES IDX 77 47 71 48 70 49 26 51 58 52 38 53 57 54 39 55 42 56 56 57
REMARK SMILES IDX 75 58 40 59 41 60 55 62 76 63 43 64 27 65 28 66 36 67 29 68
REMARK SMILES IDX 30 69 34 70 37 71 31 72 32 73 35 74 33 75 59 76 60 77 68 78
REMARK SMILES IDX 61 79 62 80 66 81 69 82 63 83 64 84 67 85 65 86 44 87 45 88
REMARK SMILES IDX 53 89 46 90 47 91 51 92 54 93 48 94 49 95 52 96 50 97
REMARK H PARENT 8 7 82 23 15 31 74 50 42 61
REMARK Flexibility Score: inf
ROOT
ATOM      1  C   UNL A   1      30.435  27.334  23.916  1.00  0.00     0.002 C 
ENDROOT
BRANCH   1   2
ATOM      2  C   UNL A   1      29.963  25.880  24.113  1.00  0.00     0.021 C 
BRANCH   2   3
ATOM      3  C   UNL A   1      30.351  24.826  23.075  1.00  0.00     0.116 C 
BRANCH   3   4
ATOM      4  N   UNL A   1      31.424  25.117  22.122  1.00  0.00    -0.356 N 
ATOM      5  C   UNL A   1      32.795  24.943  22.342  1.00  0.00     0.226 C 
ATOM      6  O   UNL A   1      33.609  25.432  21.562  1.00  0.00    -0.275 OA
ATOM      7  H   UNL A   1      31.155  25.469  21.243  1.00  0.00     0.163 HD
BRANCH   5   8
ATOM      8  C   UNL A   1      33.215  24.108  23.558  1.00  0.00     0.115 C 
BRANCH   8   9
ATOM      9  C   UNL A   1      33.427  22.611  23.154  1.00  0.00     0.017 C 
BRANCH   9  10
ATOM     10  C   UNL A   1      32.381  21.530  23.366  1.00  0.00     0.001 C 
BRANCH  10  11
ATOM     11  C   UNL A   1      32.746  20.368  24.274  1.00  0.00    -0.003 C 
ATOM     12  C   UNL A   1      34.234  20.253  24.555  1.00  0.00     0.004 C 
ENDBRANCH  10  11
ENDBRANCH   9  10
ENDBRANCH   8   9
BRANCH   8  13
ATOM     13  C   UNL A   1      34.327  24.648  24.574  1.00  0.00     0.102 C 
ATOM     14  C   UNL A   1      35.694  23.910  24.605  1.00  0.00     0.046 C 
ATOM     15  C   UNL A   1      33.793  24.377  25.995  1.00  0.00    -0.009 A 
ATOM     16  C   UNL A   1      35.893  23.275  26.001  1.00  0.00     0.039 C 
ATOM     17  C   UNL A   1      34.525  23.341  26.586  1.00  0.00    -0.042 A 
ATOM     18  C   UNL A   1      32.484  24.657  26.391  1.00  0.00     0.053 A 
ATOM     19  C   UNL A   1      33.895  22.430  27.423  1.00  0.00     0.008 A 
ATOM     20  C   UNL A   1      31.810  23.680  27.122  1.00  0.00     0.119 A 
ATOM     21  C   UNL A   1      32.516  22.579  27.645  1.00  0.00     0.047 A 
BRANCH  13  22
ATOM     22  O   UNL A   1      34.511  26.055  24.459  1.00  0.00    -0.384 OA
ATOM     23  H   UNL A   1      33.728  26.451  24.047  1.00  0.00     0.211 HD
ENDBRANCH  13  22
BRANCH  20  24
ATOM     24  O   UNL A   1      30.445  23.627  27.254  1.00  0.00    -0.497 OA
ATOM     25  C   UNL A   1      29.811  22.465  26.716  1.00  0.00     0.278 C 
ENDBRANCH  20  24
ENDBRANCH   8  13
ENDBRANCH   5   8
ENDBRANCH   3   4
ENDBRANCH   2   3
ENDBRANCH   1   2
BRANCH   1  26
ATOM     26  C   UNL A   1      31.583  27.922  24.753  1.00  0.00     0.002 C 
BRANCH  26  27
ATOM     27  C   UNL A   1      31.466  29.324  25.357  1.00  0.00     0.021 C 
BRANCH  27  28
ATOM     28  C   UNL A   1      32.745  29.999  25.841  1.00  0.00     0.116 C 
BRANCH  28  29
ATOM     29  N   UNL A   1      32.547  31.344  26.354  1.00  0.00    -0.352 N 
ATOM     30  C   UNL A   1      33.261  32.059  27.279  1.00  0.00     0.251 C 
ATOM     31  H   UNL A   1      31.774  31.819  25.975  1.00  0.00     0.163 HD
ATOM     32  O   UNL A   1      32.860  33.190  27.600  1.00  0.00    -0.269 OA
BRANCH  30  33
ATOM     33  C   UNL A   1      34.476  31.522  27.935  1.00  0.00     0.039 A 
ATOM     34  C   UNL A   1      35.577  32.372  28.098  1.00  0.00     0.014 A 
ATOM     35  C   UNL A   1      34.574  30.191  28.350  1.00  0.00     0.014 A 
ATOM     36  C   UNL A   1      36.741  31.914  28.724  1.00  0.00     0.010 A 
ATOM     37  C   UNL A   1      35.712  29.750  29.032  1.00  0.00     0.010 A 
ATOM     38  C   UNL A   1      36.808  30.605  29.227  1.00  0.00    -0.014 A 
BRANCH  38  39
ATOM     39  C   UNL A   1      38.012  30.126  29.958  1.00  0.00     0.031 A 
ATOM     40  C   UNL A   1      38.299  30.602  31.356  1.00  0.00     0.074 A 
ATOM     41  C   UNL A   1      38.879  29.296  29.344  1.00  0.00     0.049 A 
ATOM     42  N   UNL A   1      39.323  30.337  32.130  1.00  0.00    -0.248 NA
ATOM     43  C   UNL A   1      37.314  31.513  31.958  1.00  0.00     0.031 C 
ATOM     44  C   UNL A   1      38.740  28.788  27.979  1.00  0.00     0.029 A 
ATOM     45  N   UNL A   1      40.056  28.741  29.786  1.00  0.00    -0.354 N 
ATOM     46  C   UNL A   1      39.111  31.055  33.300  1.00  0.00     0.074 A 
ATOM     47  C   UNL A   1      37.888  31.806  33.117  1.00  0.00     0.031 C 
ATOM     48  C   UNL A   1      39.777  27.982  27.701  1.00  0.00     0.029 A 
ATOM     49  C   UNL A   1      40.675  27.946  28.851  1.00  0.00     0.049 A 
ATOM     50  H   UNL A   1      40.421  28.897  30.686  1.00  0.00     0.167 HD
ATOM     51  C   UNL A   1      39.856  31.070  34.432  1.00  0.00     0.037 A 
ATOM     52  C   UNL A   1      41.840  27.272  28.910  1.00  0.00     0.037 A 
ATOM     53  C   UNL A   1      41.064  30.308  34.621  1.00  0.00     0.049 A 
ATOM     54  C   UNL A   1      42.659  27.321  30.171  1.00  0.00     0.074 A 
ATOM     55  C   UNL A   1      41.859  30.216  35.751  1.00  0.00     0.029 A 
ATOM     56  N   UNL A   1      41.656  29.510  33.652  1.00  0.00    -0.354 N 
ATOM     57  N   UNL A   1      42.413  27.951  31.294  1.00  0.00    -0.248 NA
ATOM     58  C   UNL A   1      43.916  26.560  30.175  1.00  0.00     0.031 C 
ATOM     59  C   UNL A   1      42.958  29.404  35.451  1.00  0.00     0.029 A 
ATOM     60  C   UNL A   1      42.819  28.943  34.152  1.00  0.00     0.049 A 
ATOM     61  H   UNL A   1      41.302  29.367  32.746  1.00  0.00     0.167 HD
ATOM     62  C   UNL A   1      43.466  27.640  32.146  1.00  0.00     0.074 A 
ATOM     63  C   UNL A   1      44.344  26.752  31.414  1.00  0.00     0.031 C 
ATOM     64  C   UNL A   1      43.683  28.055  33.417  1.00  0.00     0.037 A 
BRANCH  51  65
ATOM     65  C   UNL A   1      39.386  31.942  35.563  1.00  0.00     0.064 A 
ATOM     66  C   UNL A   1      38.513  31.461  36.550  1.00  0.00     0.173 A 
ATOM     67  C   UNL A   1      39.850  33.261  35.686  1.00  0.00     0.173 A 
ATOM     68  F   UNL A   1      38.033  30.210  36.476  1.00  0.00    -0.203 F 
ATOM     69  C   UNL A   1      38.095  32.276  37.599  1.00  0.00     0.198 A 
ATOM     70  C   UNL A   1      39.456  34.064  36.754  1.00  0.00     0.198 A 
ATOM     71  F   UNL A   1      40.694  33.770  34.776  1.00  0.00    -0.203 F 
ATOM     72  F   UNL A   1      37.220  31.811  38.500  1.00  0.00    -0.200 F 
ATOM     73  C   UNL A   1      38.572  33.574  37.703  1.00  0.00     0.200 A 
ATOM     74  F   UNL A   1      39.929  35.312  36.861  1.00  0.00    -0.200 F 
ATOM     75  F   UNL A   1      38.175  34.355  38.717  1.00  0.00    -0.200 F 
ENDBRANCH  51  65
BRANCH  52  76
ATOM     76  C   UNL A   1      42.295  26.472  27.741  1.00  0.00     0.064 A 
ATOM     77  C   UNL A   1      41.837  25.163  27.540  1.00  0.00     0.173 A 
ATOM     78  C   UNL A   1      43.205  26.993  26.809  1.00  0.00     0.173 A 
ATOM     79  F   UNL A   1      40.983  24.611  28.417  1.00  0.00    -0.203 F 
ATOM     80  C   UNL A   1      42.286  24.398  26.466  1.00  0.00     0.198 A 
ATOM     81  C   UNL A   1      43.631  26.239  25.719  1.00  0.00     0.198 A 
ATOM     82  F   UNL A   1      43.674  28.242  26.953  1.00  0.00    -0.203 F 
ATOM     83  F   UNL A   1      41.868  23.132  26.326  1.00  0.00    -0.200 F 
ATOM     84  C   UNL A   1      43.177  24.939  25.552  1.00  0.00     0.200 A 
ATOM     85  F   UNL A   1      44.482  26.769  24.830  1.00  0.00    -0.200 F 
ATOM     86  F   UNL A   1      43.607  24.204  24.517  1.00  0.00    -0.200 F 
ENDBRANCH  52  76
BRANCH  64  87
ATOM     87  C   UNL A   1      44.903  27.524  34.117  1.00  0.00     0.064 A 
ATOM     88  C   UNL A   1      44.873  26.326  34.845  1.00  0.00     0.173 A 
ATOM     89  C   UNL A   1      46.126  28.207  34.026  1.00  0.00     0.173 A 
ATOM     90  F   UNL A   1      43.725  25.643  34.974  1.00  0.00    -0.203 F 
ATOM     91  C   UNL A   1      46.015  25.844  35.477  1.00  0.00     0.198 A 
ATOM     92  C   UNL A   1      47.273  27.706  34.635  1.00  0.00     0.198 A 
ATOM     93  F   UNL A   1      46.211  29.355  33.338  1.00  0.00    -0.203 F 
ATOM     94  F   UNL A   1      45.951  24.723  36.209  1.00  0.00    -0.200 F 
ATOM     95  C   UNL A   1      47.216  26.530  35.365  1.00  0.00     0.200 A 
ATOM     96  F   UNL A   1      48.435  28.362  34.512  1.00  0.00    -0.200 F 
ATOM     97  F   UNL A   1      48.317  26.060  35.969  1.00  0.00    -0.200 F 
ENDBRANCH  64  87
ENDBRANCH  38  39
ENDBRANCH  30  33
ENDBRANCH  28  29
ENDBRANCH  27  28
ENDBRANCH  26  27
ENDBRANCH   1  26
TORSDOF 19
ENDMDL
