MODEL 1
REMARK VINA RESULT:     -13.7      0.000      0.000
REMARK SMILES Cc1ccc(NC(=O)NC2CCCC2)cc1/C=C/C(=O)NCCCCCCNC(=O)c1ccc(-c2c3nc(c(-c4c(F)c(F)c(F)c(F)c4F)c4ccc([nH]4)c(-c4c(F)c(F)c(F)c(F)c4F)c4nc(c(-c5c(F)c(F)c(F)c(F)c5F)c5ccc2[nH]5)C=C4)C=C3)cc1
REMARK SMILES IDX 24 1 23 2 22 3 21 4 19 5 20 6 18 8 17 9 16 10 1 11 2 12 3 13
REMARK SMILES IDX 4 14 15 15 5 16 6 17 7 18 8 20 9 21 10 23 11 24 14 25 12 26
REMARK SMILES IDX 13 27 25 28 26 29 27 30 28 31 29 32 30 34 31 35 32 36 93 37
REMARK SMILES IDX 33 38 92 39 34 40 35 41 36 42 86 43 37 44 91 45 85 46 87 47
REMARK SMILES IDX 38 48 90 49 84 50 83 51 39 53 71 54 51 55 70 56 52 57 55 58
REMARK SMILES IDX 69 59 88 60 53 61 54 62 68 64 89 65 56 66 40 67 41 68 49 69
REMARK SMILES IDX 42 70 43 71 47 72 50 73 44 74 45 75 48 76 46 77 72 78 73 79
REMARK SMILES IDX 81 80 74 81 75 82 79 83 82 84 76 85 77 86 80 87 78 88 57 89
REMARK SMILES IDX 58 90 66 91 59 92 60 93 64 94 67 95 61 96 62 97 65 98 63 99
REMARK H PARENT 21 7 6 19 9 22 28 33 87 52 55 63
REMARK Flexibility Score: inf
ROOT
ATOM      1  C   UNL A   1      33.375  28.879  25.064  1.00  0.00     0.002 C 
ENDROOT
BRANCH   1   2
ATOM      2  C   UNL A   1      33.619  27.912  23.899  1.00  0.00     0.021 C 
BRANCH   2   3
ATOM      3  C   UNL A   1      32.448  27.796  22.926  1.00  0.00     0.116 C 
BRANCH   3   4
ATOM      4  N   UNL A   1      32.869  27.253  21.650  1.00  0.00    -0.353 N 
ATOM      5  C   UNL A   1      32.903  25.960  21.225  1.00  0.00     0.243 C 
ATOM      6  O   UNL A   1      33.164  25.699  20.055  1.00  0.00    -0.270 OA
ATOM      7  H   UNL A   1      33.176  27.919  20.992  1.00  0.00     0.163 HD
BRANCH   5   8
ATOM      8  C   UNL A   1      32.518  24.877  22.150  1.00  0.00     0.072 C 
ATOM      9  C   UNL A   1      33.374  24.260  22.980  1.00  0.00     0.014 C 
BRANCH   9  10
ATOM     10  C   UNL A   1      32.878  23.241  23.911  1.00  0.00    -0.020 A 
ATOM     11  C   UNL A   1      32.418  24.970  25.735  1.00  0.00     0.045 C 
ATOM     12  C   UNL A   1      32.310  23.588  25.154  1.00  0.00    -0.044 A 
ATOM     13  C   UNL A   1      31.687  22.590  25.914  1.00  0.00     0.006 A 
ATOM     14  C   UNL A   1      31.778  21.254  25.535  1.00  0.00     0.026 A 
ATOM     15  C   UNL A   1      32.988  21.888  23.557  1.00  0.00     0.034 A 
ATOM     16  C   UNL A   1      32.553  20.899  24.439  1.00  0.00     0.043 A 
BRANCH  16  17
ATOM     17  N   UNL A   1      32.964  19.583  24.211  1.00  0.00    -0.308 N 
ATOM     18  C   UNL A   1      34.053  18.899  24.630  1.00  0.00     0.319 C 
ATOM     19  H   UNL A   1      32.350  19.060  23.646  1.00  0.00     0.171 HD
ATOM     20  O   UNL A   1      34.041  17.667  24.559  1.00  0.00    -0.248 OA
ATOM     21  N   UNL A   1      35.211  19.491  25.001  1.00  0.00    -0.335 N 
ATOM     22  H   UNL A   1      35.884  18.856  25.338  1.00  0.00     0.165 HD
BRANCH  21  23
ATOM     23  C   UNL A   1      35.668  20.867  25.006  1.00  0.00     0.083 C 
ATOM     24  C   UNL A   1      35.386  21.616  26.307  1.00  0.00     0.025 C 
ATOM     25  C   UNL A   1      37.175  21.069  24.874  1.00  0.00     0.025 C 
ATOM     26  C   UNL A   1      36.179  22.911  26.121  1.00  0.00     0.002 C 
ATOM     27  C   UNL A   1      37.358  22.548  25.214  1.00  0.00     0.002 C 
ENDBRANCH  21  23
ENDBRANCH  16  17
ENDBRANCH   9  10
ENDBRANCH   5   8
ENDBRANCH   3   4
ENDBRANCH   2   3
ENDBRANCH   1   2
BRANCH   1  28
ATOM     28  C   UNL A   1      33.923  28.441  26.435  1.00  0.00     0.002 C 
BRANCH  28  29
ATOM     29  C   UNL A   1      33.772  29.453  27.576  1.00  0.00     0.021 C 
BRANCH  29  30
ATOM     30  C   UNL A   1      34.443  30.792  27.302  1.00  0.00     0.116 C 
BRANCH  30  31
ATOM     31  N   UNL A   1      34.896  31.487  28.501  1.00  0.00    -0.352 N 
ATOM     32  C   UNL A   1      35.892  31.136  29.394  1.00  0.00     0.251 C 
ATOM     33  H   UNL A   1      34.425  32.327  28.704  1.00  0.00     0.163 HD
ATOM     34  O   UNL A   1      36.106  31.818  30.385  1.00  0.00    -0.269 OA
BRANCH  32  35
ATOM     35  C   UNL A   1      36.781  29.992  29.075  1.00  0.00     0.039 A 
ATOM     36  C   UNL A   1      37.027  29.047  30.078  1.00  0.00     0.014 A 
ATOM     37  C   UNL A   1      37.493  29.947  27.880  1.00  0.00     0.014 A 
ATOM     38  C   UNL A   1      38.142  28.216  29.976  1.00  0.00     0.010 A 
ATOM     39  C   UNL A   1      38.649  29.192  27.817  1.00  0.00     0.010 A 
ATOM     40  C   UNL A   1      39.009  28.377  28.895  1.00  0.00    -0.014 A 
BRANCH  40  41
ATOM     41  C   UNL A   1      40.361  27.828  28.862  1.00  0.00     0.031 A 
ATOM     42  C   UNL A   1      40.598  26.410  28.519  1.00  0.00     0.074 A 
ATOM     43  C   UNL A   1      41.411  28.654  29.066  1.00  0.00     0.049 A 
ATOM     44  N   UNL A   1      41.682  25.766  28.794  1.00  0.00    -0.248 NA
ATOM     45  C   UNL A   1      39.594  25.588  27.855  1.00  0.00     0.031 C 
ATOM     46  C   UNL A   1      42.824  28.378  28.821  1.00  0.00     0.029 A 
ATOM     47  N   UNL A   1      41.413  29.872  29.768  1.00  0.00    -0.354 N 
ATOM     48  C   UNL A   1      41.625  24.544  28.165  1.00  0.00     0.074 A 
ATOM     49  C   UNL A   1      40.289  24.470  27.616  1.00  0.00     0.031 C 
ATOM     50  C   UNL A   1      43.560  29.178  29.609  1.00  0.00     0.029 A 
ATOM     51  C   UNL A   1      42.639  29.887  30.478  1.00  0.00     0.049 A 
ATOM     52  H   UNL A   1      40.713  30.565  29.766  1.00  0.00     0.167 HD
ATOM     53  C   UNL A   1      42.747  23.771  28.100  1.00  0.00     0.037 A 
ATOM     54  C   UNL A   1      42.655  29.855  31.843  1.00  0.00     0.037 A 
ATOM     55  C   UNL A   1      43.854  24.358  28.848  1.00  0.00     0.049 A 
ATOM     56  C   UNL A   1      43.367  28.661  32.442  1.00  0.00     0.074 A 
ATOM     57  C   UNL A   1      44.943  25.144  28.507  1.00  0.00     0.029 A 
ATOM     58  N   UNL A   1      43.766  24.402  30.226  1.00  0.00    -0.354 N 
ATOM     59  N   UNL A   1      43.813  27.648  31.753  1.00  0.00    -0.248 NA
ATOM     60  C   UNL A   1      43.531  28.470  33.885  1.00  0.00     0.031 C 
ATOM     61  C   UNL A   1      45.490  25.686  29.705  1.00  0.00     0.029 A 
ATOM     62  C   UNL A   1      44.733  25.226  30.767  1.00  0.00     0.049 A 
ATOM     63  H   UNL A   1      43.098  23.909  30.756  1.00  0.00     0.167 HD
ATOM     64  C   UNL A   1      44.262  26.684  32.614  1.00  0.00     0.074 A 
ATOM     65  C   UNL A   1      44.067  27.240  33.937  1.00  0.00     0.031 C 
ATOM     66  C   UNL A   1      44.726  25.476  32.193  1.00  0.00     0.037 A 
BRANCH  53  67
ATOM     67  C   UNL A   1      42.904  22.579  27.186  1.00  0.00     0.064 A 
ATOM     68  C   UNL A   1      42.124  21.417  27.378  1.00  0.00     0.173 A 
ATOM     69  C   UNL A   1      43.828  22.503  26.130  1.00  0.00     0.173 A 
ATOM     70  F   UNL A   1      41.137  21.378  28.282  1.00  0.00    -0.203 F 
ATOM     71  C   UNL A   1      42.339  20.243  26.653  1.00  0.00     0.198 A 
ATOM     72  C   UNL A   1      44.087  21.310  25.447  1.00  0.00     0.198 A 
ATOM     73  F   UNL A   1      44.472  23.592  25.690  1.00  0.00    -0.203 F 
ATOM     74  F   UNL A   1      41.569  19.169  26.883  1.00  0.00    -0.200 F 
ATOM     75  C   UNL A   1      43.348  20.176  25.716  1.00  0.00     0.200 A 
ATOM     76  F   UNL A   1      45.058  21.269  24.523  1.00  0.00    -0.200 F 
ATOM     77  F   UNL A   1      43.592  19.034  25.060  1.00  0.00    -0.200 F 
ENDBRANCH  53  67
BRANCH  54  78
ATOM     78  C   UNL A   1      41.476  30.527  32.453  1.00  0.00     0.064 A 
ATOM     79  C   UNL A   1      41.436  31.935  32.469  1.00  0.00     0.173 A 
ATOM     80  C   UNL A   1      40.277  29.843  32.677  1.00  0.00     0.173 A 
ATOM     81  F   UNL A   1      42.558  32.641  32.258  1.00  0.00    -0.203 F 
ATOM     82  C   UNL A   1      40.229  32.623  32.577  1.00  0.00     0.198 A 
ATOM     83  C   UNL A   1      39.074  30.536  32.811  1.00  0.00     0.198 A 
ATOM     84  F   UNL A   1      40.242  28.502  32.655  1.00  0.00    -0.203 F 
ATOM     85  F   UNL A   1      40.210  33.958  32.463  1.00  0.00    -0.200 F 
ATOM     86  C   UNL A   1      39.047  31.921  32.723  1.00  0.00     0.200 A 
ATOM     87  F   UNL A   1      37.925  29.855  32.926  1.00  0.00    -0.200 F 
ATOM     88  F   UNL A   1      37.876  32.572  32.735  1.00  0.00    -0.200 F 
ENDBRANCH  54  78
BRANCH  66  89
ATOM     89  C   UNL A   1      45.226  24.434  33.136  1.00  0.00     0.064 A 
ATOM     90  C   UNL A   1      46.542  24.446  33.619  1.00  0.00     0.173 A 
ATOM     91  C   UNL A   1      44.430  23.326  33.485  1.00  0.00     0.173 A 
ATOM     92  F   UNL A   1      47.373  25.452  33.307  1.00  0.00    -0.203 F 
ATOM     93  C   UNL A   1      47.029  23.417  34.425  1.00  0.00     0.198 A 
ATOM     94  C   UNL A   1      44.932  22.280  34.254  1.00  0.00     0.198 A 
ATOM     95  F   UNL A   1      43.147  23.249  33.102  1.00  0.00    -0.203 F 
ATOM     96  F   UNL A   1      48.280  23.480  34.901  1.00  0.00    -0.200 F 
ATOM     97  C   UNL A   1      46.229  22.328  34.730  1.00  0.00     0.200 A 
ATOM     98  F   UNL A   1      44.152  21.225  34.532  1.00  0.00    -0.200 F 
ATOM     99  F   UNL A   1      46.706  21.330  35.485  1.00  0.00    -0.200 F 
ENDBRANCH  66  89
ENDBRANCH  40  41
ENDBRANCH  32  35
ENDBRANCH  30  31
ENDBRANCH  29  30
ENDBRANCH  28  29
ENDBRANCH   1  28
TORSDOF 16
ENDMDL
MODEL 2
REMARK VINA RESULT:     -13.6      1.132      2.054
REMARK SMILES Cc1ccc(NC(=O)NC2CCCC2)cc1/C=C/C(=O)NCCCCCCNC(=O)c1ccc(-c2c3nc(c(-c4c(F)c(F)c(F)c(F)c4F)c4ccc([nH]4)c(-c4c(F)c(F)c(F)c(F)c4F)c4nc(c(-c5c(F)c(F)c(F)c(F)c5F)c5ccc2[nH]5)C=C4)C=C3)cc1
REMARK SMILES IDX 24 1 23 2 22 3 21 4 19 5 20 6 18 8 17 9 16 10 1 11 2 12 3 13
REMARK SMILES IDX 4 14 15 15 5 16 6 17 7 18 8 20 9 21 10 23 11 24 14 25 12 26
REMARK SMILES IDX 13 27 25 28 26 29 27 30 28 31 29 32 30 34 31 35 32 36 93 37
REMARK SMILES IDX 33 38 92 39 34 40 35 41 36 42 86 43 37 44 91 45 85 46 87 47
REMARK SMILES IDX 38 48 90 49 84 50 83 51 39 53 71 54 51 55 70 56 52 57 55 58
REMARK SMILES IDX 69 59 88 60 53 61 54 62 68 64 89 65 56 66 40 67 41 68 49 69
REMARK SMILES IDX 42 70 43 71 47 72 50 73 44 74 45 75 48 76 46 77 72 78 73 79
REMARK SMILES IDX 81 80 74 81 75 82 79 83 82 84 76 85 77 86 80 87 78 88 57 89
REMARK SMILES IDX 58 90 66 91 59 92 60 93 64 94 67 95 61 96 62 97 65 98 63 99
REMARK H PARENT 21 7 6 19 9 22 28 33 87 52 55 63
REMARK Flexibility Score: inf
ROOT
ATOM      1  C   UNL A   1      31.157  29.444  25.347  1.00  0.00     0.002 C 
ENDROOT
BRANCH   1   2
ATOM      2  C   UNL A   1      30.550  29.582  23.945  1.00  0.00     0.021 C 
BRANCH   2   3
ATOM      3  C   UNL A   1      30.868  28.418  23.009  1.00  0.00     0.116 C 
BRANCH   3   4
ATOM      4  N   UNL A   1      32.133  28.615  22.329  1.00  0.00    -0.353 N 
ATOM      5  C   UNL A   1      33.270  27.868  22.378  1.00  0.00     0.243 C 
ATOM      6  O   UNL A   1      34.206  28.113  21.624  1.00  0.00    -0.270 OA
ATOM      7  H   UNL A   1      32.176  29.406  21.744  1.00  0.00     0.163 HD
BRANCH   5   8
ATOM      8  C   UNL A   1      33.332  26.692  23.267  1.00  0.00     0.072 C 
ATOM      9  C   UNL A   1      33.725  26.742  24.550  1.00  0.00     0.014 C 
BRANCH   9  10
ATOM     10  C   UNL A   1      33.686  25.527  25.370  1.00  0.00    -0.020 A 
ATOM     11  C   UNL A   1      31.487  26.207  26.478  1.00  0.00     0.045 C 
ATOM     12  C   UNL A   1      32.574  25.213  26.178  1.00  0.00    -0.044 A 
ATOM     13  C   UNL A   1      32.516  23.955  26.790  1.00  0.00     0.006 A 
ATOM     14  C   UNL A   1      33.611  23.096  26.744  1.00  0.00     0.026 A 
ATOM     15  C   UNL A   1      34.793  24.665  25.356  1.00  0.00     0.034 A 
ATOM     16  C   UNL A   1      34.795  23.519  26.152  1.00  0.00     0.043 A 
BRANCH  16  17
ATOM     17  N   UNL A   1      36.010  22.866  26.368  1.00  0.00    -0.308 N 
ATOM     18  C   UNL A   1      36.572  21.794  25.762  1.00  0.00     0.319 C 
ATOM     19  H   UNL A   1      36.557  23.255  27.089  1.00  0.00     0.171 HD
ATOM     20  O   UNL A   1      37.780  21.594  25.915  1.00  0.00    -0.248 OA
ATOM     21  N   UNL A   1      35.861  20.850  25.105  1.00  0.00    -0.335 N 
ATOM     22  H   UNL A   1      36.424  20.170  24.668  1.00  0.00     0.165 HD
BRANCH  21  23
ATOM     23  C   UNL A   1      34.441  20.630  24.908  1.00  0.00     0.083 C 
ATOM     24  C   UNL A   1      33.860  21.344  23.689  1.00  0.00     0.025 C 
ATOM     25  C   UNL A   1      34.023  19.189  24.628  1.00  0.00     0.025 C 
ATOM     26  C   UNL A   1      32.457  20.743  23.592  1.00  0.00     0.002 C 
ATOM     27  C   UNL A   1      32.570  19.331  24.175  1.00  0.00     0.002 C 
ENDBRANCH  21  23
ENDBRANCH  16  17
ENDBRANCH   9  10
ENDBRANCH   5   8
ENDBRANCH   3   4
ENDBRANCH   2   3
ENDBRANCH   1   2
BRANCH   1  28
ATOM     28  C   UNL A   1      32.613  29.922  25.505  1.00  0.00     0.002 C 
BRANCH  28  29
ATOM     29  C   UNL A   1      32.942  30.666  26.803  1.00  0.00     0.021 C 
BRANCH  29  30
ATOM     30  C   UNL A   1      34.182  30.141  27.515  1.00  0.00     0.116 C 
BRANCH  30  31
ATOM     31  N   UNL A   1      34.760  31.077  28.471  1.00  0.00    -0.352 N 
ATOM     32  C   UNL A   1      35.901  30.950  29.242  1.00  0.00     0.251 C 
ATOM     33  H   UNL A   1      34.267  31.921  28.585  1.00  0.00     0.163 HD
ATOM     34  O   UNL A   1      36.212  31.823  30.038  1.00  0.00    -0.269 OA
BRANCH  32  35
ATOM     35  C   UNL A   1      36.810  29.802  29.007  1.00  0.00     0.039 A 
ATOM     36  C   UNL A   1      37.122  28.972  30.091  1.00  0.00     0.014 A 
ATOM     37  C   UNL A   1      37.477  29.651  27.795  1.00  0.00     0.014 A 
ATOM     38  C   UNL A   1      38.256  28.164  30.029  1.00  0.00     0.010 A 
ATOM     39  C   UNL A   1      38.651  28.922  27.763  1.00  0.00     0.010 A 
ATOM     40  C   UNL A   1      39.076  28.233  28.903  1.00  0.00    -0.014 A 
BRANCH  40  41
ATOM     41  C   UNL A   1      40.441  27.718  28.872  1.00  0.00     0.031 A 
ATOM     42  C   UNL A   1      40.719  26.326  28.460  1.00  0.00     0.074 A 
ATOM     43  C   UNL A   1      41.467  28.556  29.142  1.00  0.00     0.049 A 
ATOM     44  N   UNL A   1      41.812  25.693  28.725  1.00  0.00    -0.248 NA
ATOM     45  C   UNL A   1      39.750  25.517  27.732  1.00  0.00     0.031 C 
ATOM     46  C   UNL A   1      42.891  28.325  28.915  1.00  0.00     0.029 A 
ATOM     47  N   UNL A   1      41.425  29.735  29.907  1.00  0.00    -0.354 N 
ATOM     48  C   UNL A   1      41.798  24.505  28.032  1.00  0.00     0.074 A 
ATOM     49  C   UNL A   1      40.477  24.430  27.450  1.00  0.00     0.031 C 
ATOM     50  C   UNL A   1      43.591  29.099  29.760  1.00  0.00     0.029 A 
ATOM     51  C   UNL A   1      42.634  29.740  30.644  1.00  0.00     0.049 A 
ATOM     52  H   UNL A   1      40.708  30.410  29.926  1.00  0.00     0.167 HD
ATOM     53  C   UNL A   1      42.940  23.762  27.951  1.00  0.00     0.037 A 
ATOM     54  C   UNL A   1      42.622  29.636  32.005  1.00  0.00     0.037 A 
ATOM     55  C   UNL A   1      44.017  24.335  28.754  1.00  0.00     0.049 A 
ATOM     56  C   UNL A   1      43.350  28.429  32.557  1.00  0.00     0.074 A 
ATOM     57  C   UNL A   1      45.093  25.162  28.479  1.00  0.00     0.029 A 
ATOM     58  N   UNL A   1      43.898  24.303  30.130  1.00  0.00    -0.354 N 
ATOM     59  N   UNL A   1      43.834  27.464  31.826  1.00  0.00    -0.248 NA
ATOM     60  C   UNL A   1      43.488  28.166  33.991  1.00  0.00     0.031 C 
ATOM     61  C   UNL A   1      45.602  25.652  29.716  1.00  0.00     0.029 A 
ATOM     62  C   UNL A   1      44.833  25.120  30.735  1.00  0.00     0.049 A 
ATOM     63  H   UNL A   1      43.231  23.768  30.618  1.00  0.00     0.167 HD
ATOM     64  C   UNL A   1      44.288  26.467  32.645  1.00  0.00     0.074 A 
ATOM     65  C   UNL A   1      44.052  26.947  33.991  1.00  0.00     0.031 C 
ATOM     66  C   UNL A   1      44.791  25.294  32.171  1.00  0.00     0.037 A 
BRANCH  53  67
ATOM     67  C   UNL A   1      43.144  22.625  26.981  1.00  0.00     0.064 A 
ATOM     68  C   UNL A   1      42.426  21.418  27.124  1.00  0.00     0.173 A 
ATOM     69  C   UNL A   1      44.059  22.645  25.913  1.00  0.00     0.173 A 
ATOM     70  F   UNL A   1      41.453  21.286  28.035  1.00  0.00    -0.203 F 
ATOM     71  C   UNL A   1      42.690  20.291  26.342  1.00  0.00     0.198 A 
ATOM     72  C   UNL A   1      44.368  21.501  25.171  1.00  0.00     0.198 A 
ATOM     73  F   UNL A   1      44.642  23.785  25.519  1.00  0.00    -0.203 F 
ATOM     74  F   UNL A   1      41.977  19.171  26.527  1.00  0.00    -0.200 F 
ATOM     75  C   UNL A   1      43.690  20.319  25.393  1.00  0.00     0.200 A 
ATOM     76  F   UNL A   1      45.329  21.552  24.237  1.00  0.00    -0.200 F 
ATOM     77  F   UNL A   1      43.982  19.223  24.680  1.00  0.00    -0.200 F 
ENDBRANCH  53  67
BRANCH  54  78
ATOM     78  C   UNL A   1      41.414  30.248  32.623  1.00  0.00     0.064 A 
ATOM     79  C   UNL A   1      41.288  31.651  32.611  1.00  0.00     0.173 A 
ATOM     80  C   UNL A   1      40.264  29.496  32.884  1.00  0.00     0.173 A 
ATOM     81  F   UNL A   1      42.361  32.420  32.364  1.00  0.00    -0.203 F 
ATOM     82  C   UNL A   1      40.043  32.266  32.727  1.00  0.00     0.198 A 
ATOM     83  C   UNL A   1      39.023  30.118  33.026  1.00  0.00     0.198 A 
ATOM     84  F   UNL A   1      40.312  28.156  32.891  1.00  0.00    -0.203 F 
ATOM     85  F   UNL A   1      39.939  33.594  32.585  1.00  0.00    -0.200 F 
ATOM     86  C   UNL A   1      38.909  31.495  32.910  1.00  0.00     0.200 A 
ATOM     87  F   UNL A   1      37.920  29.370  33.177  1.00  0.00    -0.200 F 
ATOM     88  F   UNL A   1      37.700  32.073  32.930  1.00  0.00    -0.200 F 
ENDBRANCH  54  78
BRANCH  66  89
ATOM     89  C   UNL A   1      45.295  24.215  33.070  1.00  0.00     0.064 A 
ATOM     90  C   UNL A   1      44.483  23.143  33.464  1.00  0.00     0.173 A 
ATOM     91  C   UNL A   1      46.574  24.293  33.654  1.00  0.00     0.173 A 
ATOM     92  F   UNL A   1      43.240  23.014  32.974  1.00  0.00    -0.203 F 
ATOM     93  C   UNL A   1      44.931  22.189  34.377  1.00  0.00     0.198 A 
ATOM     94  C   UNL A   1      47.003  23.364  34.598  1.00  0.00     0.198 A 
ATOM     95  F   UNL A   1      47.435  25.261  33.307  1.00  0.00    -0.203 F 
ATOM     96  F   UNL A   1      44.142  21.156  34.702  1.00  0.00    -0.200 F 
ATOM     97  C   UNL A   1      46.184  22.308  34.955  1.00  0.00     0.200 A 
ATOM     98  F   UNL A   1      48.214  23.496  35.160  1.00  0.00    -0.200 F 
ATOM     99  F   UNL A   1      46.605  21.404  35.849  1.00  0.00    -0.200 F 
ENDBRANCH  66  89
ENDBRANCH  40  41
ENDBRANCH  32  35
ENDBRANCH  30  31
ENDBRANCH  29  30
ENDBRANCH  28  29
ENDBRANCH   1  28
TORSDOF 16
ENDMDL
MODEL 3
REMARK VINA RESULT:     -13.6      3.724     10.234
REMARK SMILES Cc1ccc(NC(=O)NC2CCCC2)cc1/C=C/C(=O)NCCCCCCNC(=O)c1ccc(-c2c3nc(c(-c4c(F)c(F)c(F)c(F)c4F)c4ccc([nH]4)c(-c4c(F)c(F)c(F)c(F)c4F)c4nc(c(-c5c(F)c(F)c(F)c(F)c5F)c5ccc2[nH]5)C=C4)C=C3)cc1
REMARK SMILES IDX 24 1 23 2 22 3 21 4 19 5 20 6 18 8 17 9 16 10 1 11 2 12 3 13
REMARK SMILES IDX 4 14 15 15 5 16 6 17 7 18 8 20 9 21 10 23 11 24 14 25 12 26
REMARK SMILES IDX 13 27 25 28 26 29 27 30 28 31 29 32 30 34 31 35 32 36 93 37
REMARK SMILES IDX 33 38 92 39 34 40 35 41 36 42 86 43 37 44 91 45 85 46 87 47
REMARK SMILES IDX 38 48 90 49 84 50 83 51 39 53 71 54 51 55 70 56 52 57 55 58
REMARK SMILES IDX 69 59 88 60 53 61 54 62 68 64 89 65 56 66 40 67 41 68 49 69
REMARK SMILES IDX 42 70 43 71 47 72 50 73 44 74 45 75 48 76 46 77 72 78 73 79
REMARK SMILES IDX 81 80 74 81 75 82 79 83 82 84 76 85 77 86 80 87 78 88 57 89
REMARK SMILES IDX 58 90 66 91 59 92 60 93 64 94 67 95 61 96 62 97 65 98 63 99
REMARK H PARENT 21 7 6 19 9 22 28 33 87 52 55 63
REMARK Flexibility Score: inf
ROOT
ATOM      1  C   UNL A   1      35.471  22.638  25.505  1.00  0.00     0.002 C 
ENDROOT
BRANCH   1   2
ATOM      2  C   UNL A   1      34.315  22.663  26.512  1.00  0.00     0.021 C 
BRANCH   2   3
ATOM      3  C   UNL A   1      33.071  21.904  26.055  1.00  0.00     0.116 C 
BRANCH   3   4
ATOM      4  N   UNL A   1      31.956  22.121  26.956  1.00  0.00    -0.353 N 
ATOM      5  C   UNL A   1      30.920  22.998  26.860  1.00  0.00     0.243 C 
ATOM      6  O   UNL A   1      29.987  22.947  27.656  1.00  0.00    -0.270 OA
ATOM      7  H   UNL A   1      31.947  21.547  27.757  1.00  0.00     0.163 HD
BRANCH   5   8
ATOM      8  C   UNL A   1      30.867  23.943  25.728  1.00  0.00     0.072 C 
ATOM      9  C   UNL A   1      31.714  24.973  25.570  1.00  0.00     0.014 C 
BRANCH   9  10
ATOM     10  C   UNL A   1      31.621  25.815  24.373  1.00  0.00    -0.020 A 
ATOM     11  C   UNL A   1      33.866  24.986  23.477  1.00  0.00     0.045 C 
ATOM     12  C   UNL A   1      32.565  25.726  23.330  1.00  0.00    -0.044 A 
ATOM     13  C   UNL A   1      32.321  26.417  22.137  1.00  0.00     0.006 A 
ATOM     14  C   UNL A   1      31.257  27.311  22.043  1.00  0.00     0.026 A 
ATOM     15  C   UNL A   1      30.571  26.741  24.276  1.00  0.00     0.034 A 
ATOM     16  C   UNL A   1      30.479  27.575  23.163  1.00  0.00     0.043 A 
BRANCH  16  17
ATOM     17  N   UNL A   1      29.637  28.687  23.238  1.00  0.00    -0.308 N 
ATOM     18  C   UNL A   1      29.848  29.942  23.699  1.00  0.00     0.319 C 
ATOM     19  H   UNL A   1      28.728  28.531  22.893  1.00  0.00     0.171 HD
ATOM     20  O   UNL A   1      29.055  30.832  23.377  1.00  0.00    -0.248 OA
ATOM     21  N   UNL A   1      30.803  30.255  24.603  1.00  0.00    -0.335 N 
ATOM     22  H   UNL A   1      30.866  31.220  24.787  1.00  0.00     0.165 HD
BRANCH  21  23
ATOM     23  C   UNL A   1      31.756  29.464  25.359  1.00  0.00     0.083 C 
ATOM     24  C   UNL A   1      33.127  29.336  24.697  1.00  0.00     0.025 C 
ATOM     25  C   UNL A   1      32.144  30.017  26.727  1.00  0.00     0.025 C 
ATOM     26  C   UNL A   1      33.967  28.692  25.801  1.00  0.00     0.002 C 
ATOM     27  C   UNL A   1      33.346  29.159  27.121  1.00  0.00     0.002 C 
ENDBRANCH  21  23
ENDBRANCH  16  17
ENDBRANCH   9  10
ENDBRANCH   5   8
ENDBRANCH   3   4
ENDBRANCH   2   3
ENDBRANCH   1   2
BRANCH   1  28
ATOM     28  C   UNL A   1      36.630  23.615  25.779  1.00  0.00     0.002 C 
BRANCH  28  29
ATOM     29  C   UNL A   1      38.026  23.139  25.364  1.00  0.00     0.021 C 
BRANCH  29  30
ATOM     30  C   UNL A   1      38.865  22.615  26.522  1.00  0.00     0.116 C 
BRANCH  30  31
ATOM     31  N   UNL A   1      40.299  22.817  26.356  1.00  0.00    -0.352 N 
ATOM     32  C   UNL A   1      41.034  23.988  26.422  1.00  0.00     0.251 C 
ATOM     33  H   UNL A   1      40.821  22.004  26.170  1.00  0.00     0.163 HD
ATOM     34  O   UNL A   1      42.235  23.980  26.204  1.00  0.00    -0.269 OA
BRANCH  32  35
ATOM     35  C   UNL A   1      40.371  25.234  26.880  1.00  0.00     0.039 A 
ATOM     36  C   UNL A   1      40.681  26.429  26.220  1.00  0.00     0.014 A 
ATOM     37  C   UNL A   1      39.602  25.253  28.040  1.00  0.00     0.014 A 
ATOM     38  C   UNL A   1      40.424  27.645  26.850  1.00  0.00     0.010 A 
ATOM     39  C   UNL A   1      39.430  26.450  28.709  1.00  0.00     0.010 A 
ATOM     40  C   UNL A   1      39.903  27.639  28.144  1.00  0.00    -0.014 A 
BRANCH  40  41
ATOM     41  C   UNL A   1      39.923  28.805  29.023  1.00  0.00     0.031 A 
ATOM     42  C   UNL A   1      38.873  29.842  28.934  1.00  0.00     0.074 A 
ATOM     43  C   UNL A   1      40.869  28.886  29.985  1.00  0.00     0.049 A 
ATOM     44  N   UNL A   1      38.991  31.037  29.406  1.00  0.00    -0.248 NA
ATOM     45  C   UNL A   1      37.600  29.611  28.264  1.00  0.00     0.031 C 
ATOM     46  C   UNL A   1      40.914  29.810  31.115  1.00  0.00     0.029 A 
ATOM     47  N   UNL A   1      42.131  28.267  29.993  1.00  0.00    -0.354 N 
ATOM     48  C   UNL A   1      37.766  31.656  29.314  1.00  0.00     0.074 A 
ATOM     49  C   UNL A   1      36.939  30.734  28.567  1.00  0.00     0.031 C 
ATOM     50  C   UNL A   1      42.192  29.948  31.505  1.00  0.00     0.029 A 
ATOM     51  C   UNL A   1      43.011  29.229  30.546  1.00  0.00     0.049 A 
ATOM     52  H   UNL A   1      42.354  27.360  29.681  1.00  0.00     0.167 HD
ATOM     53  C   UNL A   1      37.562  32.839  29.961  1.00  0.00     0.037 A 
ATOM     54  C   UNL A   1      44.012  29.773  29.795  1.00  0.00     0.037 A 
ATOM     55  C   UNL A   1      38.784  33.332  30.589  1.00  0.00     0.049 A 
ATOM     56  C   UNL A   1      43.933  31.275  29.623  1.00  0.00     0.074 A 
ATOM     57  C   UNL A   1      39.311  33.261  31.868  1.00  0.00     0.029 A 
ATOM     58  N   UNL A   1      39.812  33.766  29.774  1.00  0.00    -0.354 N 
ATOM     59  N   UNL A   1      42.930  32.009  30.018  1.00  0.00    -0.248 NA
ATOM     60  C   UNL A   1      44.937  32.049  28.891  1.00  0.00     0.031 C 
ATOM     61  C   UNL A   1      40.684  33.632  31.802  1.00  0.00     0.029 A 
ATOM     62  C   UNL A   1      40.984  33.928  30.485  1.00  0.00     0.049 A 
ATOM     63  H   UNL A   1      39.721  33.938  28.808  1.00  0.00     0.167 HD
ATOM     64  C   UNL A   1      43.112  33.290  29.575  1.00  0.00     0.074 A 
ATOM     65  C   UNL A   1      44.380  33.271  28.874  1.00  0.00     0.031 C 
ATOM     66  C   UNL A   1      42.196  34.277  29.773  1.00  0.00     0.037 A 
BRANCH  53  67
ATOM     67  C   UNL A   1      36.203  33.452  30.199  1.00  0.00     0.064 A 
ATOM     68  C   UNL A   1      35.450  33.975  29.125  1.00  0.00     0.173 A 
ATOM     69  C   UNL A   1      35.603  33.590  31.463  1.00  0.00     0.173 A 
ATOM     70  F   UNL A   1      35.848  33.830  27.855  1.00  0.00    -0.203 F 
ATOM     71  C   UNL A   1      34.260  34.681  29.318  1.00  0.00     0.198 A 
ATOM     72  C   UNL A   1      34.446  34.349  31.664  1.00  0.00     0.198 A 
ATOM     73  F   UNL A   1      36.089  32.951  32.536  1.00  0.00    -0.203 F 
ATOM     74  F   UNL A   1      33.591  35.157  28.258  1.00  0.00    -0.200 F 
ATOM     75  C   UNL A   1      33.779  34.904  30.591  1.00  0.00     0.200 A 
ATOM     76  F   UNL A   1      33.981  34.537  32.908  1.00  0.00    -0.200 F 
ATOM     77  F   UNL A   1      32.668  35.628  30.781  1.00  0.00    -0.200 F 
ENDBRANCH  53  67
BRANCH  54  78
ATOM     78  C   UNL A   1      44.544  28.835  28.770  1.00  0.00     0.064 A 
ATOM     79  C   UNL A   1      45.375  27.777  29.191  1.00  0.00     0.173 A 
ATOM     80  C   UNL A   1      43.979  28.745  27.494  1.00  0.00     0.173 A 
ATOM     81  F   UNL A   1      45.942  27.812  30.408  1.00  0.00    -0.203 F 
ATOM     82  C   UNL A   1      45.528  26.627  28.420  1.00  0.00     0.198 A 
ATOM     83  C   UNL A   1      44.156  27.602  26.714  1.00  0.00     0.198 A 
ATOM     84  F   UNL A   1      43.163  29.708  27.041  1.00  0.00    -0.203 F 
ATOM     85  F   UNL A   1      46.222  25.588  28.903  1.00  0.00    -0.200 F 
ATOM     86  C   UNL A   1      44.897  26.532  27.192  1.00  0.00     0.200 A 
ATOM     87  F   UNL A   1      43.524  27.499  25.536  1.00  0.00    -0.200 F 
ATOM     88  F   UNL A   1      44.965  25.394  26.489  1.00  0.00    -0.200 F 
ENDBRANCH  54  78
BRANCH  66  89
ATOM     89  C   UNL A   1      42.406  35.676  29.298  1.00  0.00     0.064 A 
ATOM     90  C   UNL A   1      41.865  36.133  28.088  1.00  0.00     0.173 A 
ATOM     91  C   UNL A   1      43.256  36.560  29.989  1.00  0.00     0.173 A 
ATOM     92  F   UNL A   1      41.068  35.340  27.356  1.00  0.00    -0.203 F 
ATOM     93  C   UNL A   1      42.143  37.411  27.606  1.00  0.00     0.198 A 
ATOM     94  C   UNL A   1      43.566  37.819  29.484  1.00  0.00     0.198 A 
ATOM     95  F   UNL A   1      43.786  36.224  31.174  1.00  0.00    -0.203 F 
ATOM     96  F   UNL A   1      41.578  37.830  26.465  1.00  0.00    -0.200 F 
ATOM     97  C   UNL A   1      43.004  38.248  28.296  1.00  0.00     0.200 A 
ATOM     98  F   UNL A   1      44.411  38.616  30.155  1.00  0.00    -0.200 F 
ATOM     99  F   UNL A   1      43.288  39.468  27.819  1.00  0.00    -0.200 F 
ENDBRANCH  66  89
ENDBRANCH  40  41
ENDBRANCH  32  35
ENDBRANCH  30  31
ENDBRANCH  29  30
ENDBRANCH  28  29
ENDBRANCH   1  28
TORSDOF 16
ENDMDL
