MODEL 1
REMARK VINA RESULT:     -13.0      0.000      0.000
REMARK SMILES Cc1cc(C)cc(N(C)S(=O)(=O)c2ccc(F)c(C(=O)NCCCCCCNC(=O)c3ccc(-c4c5nc(c(-c6c(F)c(F)c(F)c(F)c6F)c6ccc([nH]6)c(-c6c(F)c(F)c(F)c(F)c6F)c6nc(c(-c7c(F)c(F)c(F)c(F)c7F)c7ccc4[nH]7)C=C6)C=C5)cc3)c2)c1
REMARK SMILES IDX 24 1 23 2 22 3 21 4 19 5 20 6 18 8 13 9 14 10 94 11 15 12
REMARK SMILES IDX 16 13 17 14 10 15 11 16 12 17 8 18 9 19 7 20 1 21 2 22 3 23
REMARK SMILES IDX 95 24 4 25 5 26 6 27 25 28 26 29 27 30 28 31 29 32 30 34
REMARK SMILES IDX 31 35 32 36 93 37 33 38 92 39 34 40 35 41 36 42 86 43 37 44
REMARK SMILES IDX 91 45 85 46 87 47 38 48 90 49 84 50 83 51 39 53 71 54 51 55
REMARK SMILES IDX 70 56 52 57 55 58 69 59 88 60 53 61 54 62 68 64 89 65 56 66
REMARK SMILES IDX 40 67 41 68 49 69 42 70 43 71 47 72 50 73 44 74 45 75 48 76
REMARK SMILES IDX 46 77 72 78 73 79 81 80 74 81 75 82 79 83 82 84 76 85 77 86
REMARK SMILES IDX 80 87 78 88 57 89 58 90 66 91 59 92 60 93 64 94 67 95 61 96
REMARK SMILES IDX 62 97 65 98 63 99
REMARK H PARENT 21 7 28 33 87 52 55 63
REMARK Flexibility Score: inf
ROOT
ATOM      1  C   UNL A   1      32.152  29.781  27.119  1.00  0.00     0.002 C 
ENDROOT
BRANCH   1   2
ATOM      2  C   UNL A   1      33.671  29.587  27.112  1.00  0.00     0.021 C 
BRANCH   2   3
ATOM      3  C   UNL A   1      34.217  28.533  26.158  1.00  0.00     0.116 C 
BRANCH   3   4
ATOM      4  N   UNL A   1      34.239  28.971  24.783  1.00  0.00    -0.352 N 
ATOM      5  C   UNL A   1      33.365  28.751  23.758  1.00  0.00     0.254 C 
ATOM      6  O   UNL A   1      33.637  29.244  22.661  1.00  0.00    -0.269 OA
ATOM      7  H   UNL A   1      35.018  29.525  24.544  1.00  0.00     0.163 HD
BRANCH   5   8
ATOM      8  C   UNL A   1      32.151  27.898  23.860  1.00  0.00     0.076 A 
ATOM      9  C   UNL A   1      31.372  25.584  23.946  1.00  0.00     0.089 A 
ATOM     10  C   UNL A   1      30.047  26.051  23.910  1.00  0.00     0.025 A 
ATOM     11  C   UNL A   1      32.400  26.517  23.991  1.00  0.00     0.039 A 
ATOM     12  C   UNL A   1      29.781  27.418  23.800  1.00  0.00     0.041 A 
ATOM     13  C   UNL A   1      30.835  28.326  23.710  1.00  0.00     0.136 A 
ATOM     14  F   UNL A   1      30.531  29.597  23.417  1.00  0.00    -0.206 F 
BRANCH   9  15
ATOM     15  S   UNL A   1      31.574  23.822  23.670  1.00  0.00     0.264 S 
ATOM     16  O   UNL A   1      32.776  23.738  22.860  1.00  0.00    -0.201 OA
ATOM     17  O   UNL A   1      30.295  23.401  23.125  1.00  0.00    -0.201 OA
BRANCH  15  18
ATOM     18  N   UNL A   1      31.854  22.882  25.104  1.00  0.00    -0.269 N 
ATOM     19  C   UNL A   1      32.118  23.648  26.344  1.00  0.00     0.164 C 
BRANCH  18  20
ATOM     20  C   UNL A   1      32.733  21.690  24.907  1.00  0.00     0.052 A 
ATOM     21  C   UNL A   1      32.525  17.935  24.150  1.00  0.00     0.044 C 
ATOM     22  C   UNL A   1      33.089  19.293  24.458  1.00  0.00    -0.049 A 
ATOM     23  C   UNL A   1      34.465  19.447  24.626  1.00  0.00     0.007 A 
ATOM     24  C   UNL A   1      32.243  20.408  24.607  1.00  0.00     0.030 A 
ATOM     25  C   UNL A   1      34.991  20.690  24.970  1.00  0.00    -0.049 A 
ATOM     26  C   UNL A   1      36.470  20.854  25.164  1.00  0.00     0.044 C 
ATOM     27  C   UNL A   1      34.118  21.777  25.153  1.00  0.00     0.030 A 
ENDBRANCH  18  20
ENDBRANCH  15  18
ENDBRANCH   9  15
ENDBRANCH   5   8
ENDBRANCH   3   4
ENDBRANCH   2   3
ENDBRANCH   1   2
BRANCH   1  28
ATOM     28  C   UNL A   1      31.596  30.871  26.202  1.00  0.00     0.002 C 
BRANCH  28  29
ATOM     29  C   UNL A   1      31.402  32.251  26.833  1.00  0.00     0.021 C 
BRANCH  29  30
ATOM     30  C   UNL A   1      32.681  32.963  27.253  1.00  0.00     0.116 C 
BRANCH  30  31
ATOM     31  N   UNL A   1      32.448  34.342  27.642  1.00  0.00    -0.352 N 
ATOM     32  C   UNL A   1      33.024  35.068  28.655  1.00  0.00     0.251 C 
ATOM     33  H   UNL A   1      31.783  34.827  27.101  1.00  0.00     0.163 HD
ATOM     34  O   UNL A   1      32.583  36.170  28.955  1.00  0.00    -0.269 OA
BRANCH  32  35
ATOM     35  C   UNL A   1      34.169  34.504  29.403  1.00  0.00     0.039 A 
ATOM     36  C   UNL A   1      33.933  33.903  30.641  1.00  0.00     0.014 A 
ATOM     37  C   UNL A   1      35.468  34.572  28.890  1.00  0.00     0.014 A 
ATOM     38  C   UNL A   1      34.992  33.322  31.340  1.00  0.00     0.010 A 
ATOM     39  C   UNL A   1      36.509  33.924  29.550  1.00  0.00     0.010 A 
ATOM     40  C   UNL A   1      36.283  33.299  30.785  1.00  0.00    -0.014 A 
BRANCH  40  41
ATOM     41  C   UNL A   1      37.406  32.628  31.484  1.00  0.00     0.031 A 
ATOM     42  C   UNL A   1      38.112  31.468  30.841  1.00  0.00     0.074 A 
ATOM     43  C   UNL A   1      37.756  33.030  32.721  1.00  0.00     0.049 A 
ATOM     44  N   UNL A   1      39.078  30.721  31.316  1.00  0.00    -0.248 NA
ATOM     45  C   UNL A   1      37.658  31.076  29.498  1.00  0.00     0.031 C 
ATOM     46  C   UNL A   1      37.118  34.118  33.463  1.00  0.00     0.029 A 
ATOM     47  N   UNL A   1      38.728  32.570  33.574  1.00  0.00    -0.354 N 
ATOM     48  C   UNL A   1      39.337  29.773  30.337  1.00  0.00     0.074 A 
ATOM     49  C   UNL A   1      38.390  29.996  29.268  1.00  0.00     0.031 C 
ATOM     50  C   UNL A   1      37.735  34.263  34.645  1.00  0.00     0.029 A 
ATOM     51  C   UNL A   1      38.783  33.252  34.764  1.00  0.00     0.049 A 
ATOM     52  H   UNL A   1      39.329  31.823  33.352  1.00  0.00     0.167 HD
ATOM     53  C   UNL A   1      40.297  28.818  30.323  1.00  0.00     0.037 A 
ATOM     54  C   UNL A   1      39.584  33.081  35.834  1.00  0.00     0.037 A 
ATOM     55  C   UNL A   1      41.251  28.616  31.381  1.00  0.00     0.049 A 
ATOM     56  C   UNL A   1      40.629  32.000  35.804  1.00  0.00     0.074 A 
ATOM     57  C   UNL A   1      42.299  27.714  31.435  1.00  0.00     0.029 A 
ATOM     58  N   UNL A   1      41.271  29.323  32.576  1.00  0.00    -0.354 N 
ATOM     59  N   UNL A   1      40.904  31.147  34.849  1.00  0.00    -0.248 NA
ATOM     60  C   UNL A   1      41.477  31.862  36.996  1.00  0.00     0.031 C 
ATOM     61  C   UNL A   1      42.915  27.833  32.683  1.00  0.00     0.029 A 
ATOM     62  C   UNL A   1      42.294  28.855  33.384  1.00  0.00     0.049 A 
ATOM     63  H   UNL A   1      40.650  30.048  32.813  1.00  0.00     0.167 HD
ATOM     64  C   UNL A   1      41.967  30.384  35.311  1.00  0.00     0.074 A 
ATOM     65  C   UNL A   1      42.296  30.885  36.630  1.00  0.00     0.031 C 
ATOM     66  C   UNL A   1      42.612  29.362  34.696  1.00  0.00     0.037 A 
BRANCH  53  67
ATOM     67  C   UNL A   1      40.374  27.919  29.121  1.00  0.00     0.064 A 
ATOM     68  C   UNL A   1      41.141  28.286  28.005  1.00  0.00     0.173 A 
ATOM     69  C   UNL A   1      39.643  26.723  29.048  1.00  0.00     0.173 A 
ATOM     70  F   UNL A   1      41.855  29.422  28.018  1.00  0.00    -0.203 F 
ATOM     71  C   UNL A   1      41.165  27.496  26.859  1.00  0.00     0.198 A 
ATOM     72  C   UNL A   1      39.696  25.917  27.913  1.00  0.00     0.198 A 
ATOM     73  F   UNL A   1      38.903  26.319  30.091  1.00  0.00    -0.203 F 
ATOM     74  F   UNL A   1      41.878  27.884  25.793  1.00  0.00    -0.200 F 
ATOM     75  C   UNL A   1      40.448  26.310  26.816  1.00  0.00     0.200 A 
ATOM     76  F   UNL A   1      39.025  24.758  27.885  1.00  0.00    -0.200 F 
ATOM     77  F   UNL A   1      40.485  25.541  25.719  1.00  0.00    -0.200 F 
ENDBRANCH  53  67
BRANCH  54  78
ATOM     78  C   UNL A   1      39.440  33.989  37.002  1.00  0.00     0.064 A 
ATOM     79  C   UNL A   1      40.088  35.232  37.047  1.00  0.00     0.173 A 
ATOM     80  C   UNL A   1      38.696  33.601  38.124  1.00  0.00     0.173 A 
ATOM     81  F   UNL A   1      40.818  35.646  36.000  1.00  0.00    -0.203 F 
ATOM     82  C   UNL A   1      40.021  36.039  38.181  1.00  0.00     0.198 A 
ATOM     83  C   UNL A   1      38.607  34.420  39.247  1.00  0.00     0.198 A 
ATOM     84  F   UNL A   1      38.043  32.429  38.121  1.00  0.00    -0.203 F 
ATOM     85  F   UNL A   1      40.687  37.200  38.214  1.00  0.00    -0.200 F 
ATOM     86  C   UNL A   1      39.279  35.633  39.279  1.00  0.00     0.200 A 
ATOM     87  F   UNL A   1      37.871  34.034  40.299  1.00  0.00    -0.200 F 
ATOM     88  F   UNL A   1      39.212  36.410  40.369  1.00  0.00    -0.200 F 
ENDBRANCH  54  78
BRANCH  66  89
ATOM     89  C   UNL A   1      43.756  28.715  35.424  1.00  0.00     0.064 A 
ATOM     90  C   UNL A   1      43.514  27.704  36.367  1.00  0.00     0.173 A 
ATOM     91  C   UNL A   1      45.075  29.159  35.258  1.00  0.00     0.173 A 
ATOM     92  F   UNL A   1      42.269  27.250  36.570  1.00  0.00    -0.203 F 
ATOM     93  C   UNL A   1      44.551  27.178  37.133  1.00  0.00     0.198 A 
ATOM     94  C   UNL A   1      46.114  28.607  36.005  1.00  0.00     0.198 A 
ATOM     95  F   UNL A   1      45.360  30.114  34.361  1.00  0.00    -0.203 F 
ATOM     96  F   UNL A   1      44.289  26.245  38.060  1.00  0.00    -0.200 F 
ATOM     97  C   UNL A   1      45.849  27.627  36.950  1.00  0.00     0.200 A 
ATOM     98  F   UNL A   1      47.372  29.026  35.810  1.00  0.00    -0.200 F 
ATOM     99  F   UNL A   1      46.846  27.116  37.685  1.00  0.00    -0.200 F 
ENDBRANCH  66  89
ENDBRANCH  40  41
ENDBRANCH  32  35
ENDBRANCH  30  31
ENDBRANCH  29  30
ENDBRANCH  28  29
ENDBRANCH   1  28
TORSDOF 16
ENDMDL
MODEL 2
REMARK VINA RESULT:     -12.8      6.073     10.793
REMARK SMILES Cc1cc(C)cc(N(C)S(=O)(=O)c2ccc(F)c(C(=O)NCCCCCCNC(=O)c3ccc(-c4c5nc(c(-c6c(F)c(F)c(F)c(F)c6F)c6ccc([nH]6)c(-c6c(F)c(F)c(F)c(F)c6F)c6nc(c(-c7c(F)c(F)c(F)c(F)c7F)c7ccc4[nH]7)C=C6)C=C5)cc3)c2)c1
REMARK SMILES IDX 24 1 23 2 22 3 21 4 19 5 20 6 18 8 13 9 14 10 94 11 15 12
REMARK SMILES IDX 16 13 17 14 10 15 11 16 12 17 8 18 9 19 7 20 1 21 2 22 3 23
REMARK SMILES IDX 95 24 4 25 5 26 6 27 25 28 26 29 27 30 28 31 29 32 30 34
REMARK SMILES IDX 31 35 32 36 93 37 33 38 92 39 34 40 35 41 36 42 86 43 37 44
REMARK SMILES IDX 91 45 85 46 87 47 38 48 90 49 84 50 83 51 39 53 71 54 51 55
REMARK SMILES IDX 70 56 52 57 55 58 69 59 88 60 53 61 54 62 68 64 89 65 56 66
REMARK SMILES IDX 40 67 41 68 49 69 42 70 43 71 47 72 50 73 44 74 45 75 48 76
REMARK SMILES IDX 46 77 72 78 73 79 81 80 74 81 75 82 79 83 82 84 76 85 77 86
REMARK SMILES IDX 80 87 78 88 57 89 58 90 66 91 59 92 60 93 64 94 67 95 61 96
REMARK SMILES IDX 62 97 65 98 63 99
REMARK H PARENT 21 7 28 33 87 52 55 63
REMARK Flexibility Score: inf
ROOT
ATOM      1  C   UNL A   1      39.347  21.667  26.053  1.00  0.00     0.002 C 
ENDROOT
BRANCH   1   2
ATOM      2  C   UNL A   1      38.966  23.080  26.501  1.00  0.00     0.021 C 
BRANCH   2   3
ATOM      3  C   UNL A   1      37.609  23.596  26.041  1.00  0.00     0.116 C 
BRANCH   3   4
ATOM      4  N   UNL A   1      37.447  23.561  24.607  1.00  0.00    -0.352 N 
ATOM      5  C   UNL A   1      36.509  22.948  23.826  1.00  0.00     0.254 C 
ATOM      6  O   UNL A   1      36.615  23.075  22.604  1.00  0.00    -0.269 OA
ATOM      7  H   UNL A   1      38.129  24.065  24.107  1.00  0.00     0.163 HD
BRANCH   5   8
ATOM      8  C   UNL A   1      35.419  22.083  24.348  1.00  0.00     0.076 A 
ATOM      9  C   UNL A   1      33.114  22.094  25.160  1.00  0.00     0.089 A 
ATOM     10  C   UNL A   1      33.239  20.730  25.471  1.00  0.00     0.025 A 
ATOM     11  C   UNL A   1      34.182  22.731  24.539  1.00  0.00     0.039 A 
ATOM     12  C   UNL A   1      34.452  20.066  25.270  1.00  0.00     0.041 A 
ATOM     13  C   UNL A   1      35.552  20.763  24.771  1.00  0.00     0.136 A 
ATOM     14  F   UNL A   1      36.734  20.135  24.775  1.00  0.00    -0.206 F 
BRANCH   9  15
ATOM     15  S   UNL A   1      31.668  22.909  25.842  1.00  0.00     0.264 S 
ATOM     16  O   UNL A   1      32.160  23.510  27.069  1.00  0.00    -0.201 OA
ATOM     17  O   UNL A   1      30.663  21.862  25.893  1.00  0.00    -0.201 OA
BRANCH  15  18
ATOM     18  N   UNL A   1      31.020  24.192  24.865  1.00  0.00    -0.269 N 
ATOM     19  C   UNL A   1      30.782  23.869  23.439  1.00  0.00     0.164 C 
BRANCH  18  20
ATOM     20  C   UNL A   1      31.634  25.533  25.108  1.00  0.00     0.052 A 
ATOM     21  C   UNL A   1      31.585  28.409  27.646  1.00  0.00     0.044 C 
ATOM     22  C   UNL A   1      31.920  27.594  26.429  1.00  0.00    -0.049 A 
ATOM     23  C   UNL A   1      32.780  28.115  25.463  1.00  0.00     0.007 A 
ATOM     24  C   UNL A   1      31.354  26.319  26.238  1.00  0.00     0.030 A 
ATOM     25  C   UNL A   1      33.049  27.391  24.305  1.00  0.00    -0.049 A 
ATOM     26  C   UNL A   1      33.965  27.957  23.259  1.00  0.00     0.044 C 
ATOM     27  C   UNL A   1      32.437  26.138  24.121  1.00  0.00     0.030 A 
ENDBRANCH  18  20
ENDBRANCH  15  18
ENDBRANCH   9  15
ENDBRANCH   5   8
ENDBRANCH   3   4
ENDBRANCH   2   3
ENDBRANCH   1   2
BRANCH   1  28
ATOM     28  C   UNL A   1      40.754  21.188  26.418  1.00  0.00     0.002 C 
BRANCH  28  29
ATOM     29  C   UNL A   1      41.095  19.745  26.043  1.00  0.00     0.021 C 
BRANCH  29  30
ATOM     30  C   UNL A   1      42.478  19.269  26.469  1.00  0.00     0.116 C 
BRANCH  30  31
ATOM     31  N   UNL A   1      43.307  18.886  25.340  1.00  0.00    -0.352 N 
ATOM     32  C   UNL A   1      44.137  19.660  24.570  1.00  0.00     0.251 C 
ATOM     33  H   UNL A   1      43.269  17.932  25.094  1.00  0.00     0.163 HD
ATOM     34  O   UNL A   1      44.630  19.208  23.544  1.00  0.00    -0.269 OA
BRANCH  32  35
ATOM     35  C   UNL A   1      44.418  21.057  24.969  1.00  0.00     0.039 A 
ATOM     36  C   UNL A   1      43.835  22.095  24.240  1.00  0.00     0.014 A 
ATOM     37  C   UNL A   1      45.256  21.342  26.051  1.00  0.00     0.014 A 
ATOM     38  C   UNL A   1      44.048  23.418  24.630  1.00  0.00     0.010 A 
ATOM     39  C   UNL A   1      45.405  22.656  26.486  1.00  0.00     0.010 A 
ATOM     40  C   UNL A   1      44.809  23.708  25.775  1.00  0.00    -0.014 A 
BRANCH  40  41
ATOM     41  C   UNL A   1      44.990  25.105  26.242  1.00  0.00     0.031 A 
ATOM     42  C   UNL A   1      46.344  25.754  26.179  1.00  0.00     0.074 A 
ATOM     43  C   UNL A   1      43.946  25.770  26.772  1.00  0.00     0.049 A 
ATOM     44  N   UNL A   1      46.710  26.944  26.587  1.00  0.00    -0.248 NA
ATOM     45  C   UNL A   1      47.437  24.955  25.606  1.00  0.00     0.031 C 
ATOM     46  C   UNL A   1      42.594  25.230  26.922  1.00  0.00     0.029 A 
ATOM     47  N   UNL A   1      43.857  27.040  27.285  1.00  0.00    -0.354 N 
ATOM     48  C   UNL A   1      48.071  27.028  26.328  1.00  0.00     0.074 A 
ATOM     49  C   UNL A   1      48.480  25.752  25.785  1.00  0.00     0.031 C 
ATOM     50  C   UNL A   1      41.804  26.172  27.459  1.00  0.00     0.029 A 
ATOM     51  C   UNL A   1      42.600  27.365  27.732  1.00  0.00     0.049 A 
ATOM     52  H   UNL A   1      44.622  27.658  27.328  1.00  0.00     0.167 HD
ATOM     53  C   UNL A   1      48.898  28.085  26.505  1.00  0.00     0.037 A 
ATOM     54  C   UNL A   1      42.140  28.497  28.300  1.00  0.00     0.037 A 
ATOM     55  C   UNL A   1      48.478  29.360  27.025  1.00  0.00     0.049 A 
ATOM     56  C   UNL A   1      43.081  29.651  28.506  1.00  0.00     0.074 A 
ATOM     57  C   UNL A   1      49.228  30.512  27.187  1.00  0.00     0.029 A 
ATOM     58  N   UNL A   1      47.197  29.650  27.474  1.00  0.00    -0.354 N 
ATOM     59  N   UNL A   1      44.353  29.741  28.203  1.00  0.00    -0.248 NA
ATOM     60  C   UNL A   1      42.525  30.861  29.126  1.00  0.00     0.031 C 
ATOM     61  C   UNL A   1      48.417  31.479  27.787  1.00  0.00     0.029 A 
ATOM     62  C   UNL A   1      47.144  30.954  27.940  1.00  0.00     0.049 A 
ATOM     63  H   UNL A   1      46.439  29.023  27.461  1.00  0.00     0.167 HD
ATOM     64  C   UNL A   1      44.746  31.019  28.575  1.00  0.00     0.074 A 
ATOM     65  C   UNL A   1      43.572  31.675  29.115  1.00  0.00     0.031 C 
ATOM     66  C   UNL A   1      45.969  31.596  28.476  1.00  0.00     0.037 A 
BRANCH  53  67
ATOM     67  C   UNL A   1      50.342  27.917  26.126  1.00  0.00     0.064 A 
ATOM     68  C   UNL A   1      51.320  27.728  27.114  1.00  0.00     0.173 A 
ATOM     69  C   UNL A   1      50.768  28.002  24.791  1.00  0.00     0.173 A 
ATOM     70  F   UNL A   1      50.970  27.645  28.407  1.00  0.00    -0.203 F 
ATOM     71  C   UNL A   1      52.669  27.641  26.781  1.00  0.00     0.198 A 
ATOM     72  C   UNL A   1      52.114  27.881  24.458  1.00  0.00     0.198 A 
ATOM     73  F   UNL A   1      49.873  28.172  23.806  1.00  0.00    -0.203 F 
ATOM     74  F   UNL A   1      53.588  27.493  27.745  1.00  0.00    -0.200 F 
ATOM     75  C   UNL A   1      53.064  27.711  25.454  1.00  0.00     0.200 A 
ATOM     76  F   UNL A   1      52.491  27.920  23.173  1.00  0.00    -0.200 F 
ATOM     77  F   UNL A   1      54.362  27.609  25.133  1.00  0.00    -0.200 F 
ENDBRANCH  53  67
BRANCH  54  78
ATOM     78  C   UNL A   1      40.705  28.590  28.675  1.00  0.00     0.064 A 
ATOM     79  C   UNL A   1      39.741  29.058  27.770  1.00  0.00     0.173 A 
ATOM     80  C   UNL A   1      40.280  28.267  29.971  1.00  0.00     0.173 A 
ATOM     81  F   UNL A   1      40.098  29.387  26.519  1.00  0.00    -0.203 F 
ATOM     82  C   UNL A   1      38.413  29.227  28.156  1.00  0.00     0.198 A 
ATOM     83  C   UNL A   1      38.947  28.410  30.348  1.00  0.00     0.198 A 
ATOM     84  F   UNL A   1      41.162  27.798  30.866  1.00  0.00    -0.203 F 
ATOM     85  F   UNL A   1      37.522  29.719  27.285  1.00  0.00    -0.200 F 
ATOM     86  C   UNL A   1      38.017  28.901  29.444  1.00  0.00     0.200 A 
ATOM     87  F   UNL A   1      38.563  28.074  31.588  1.00  0.00    -0.200 F 
ATOM     88  F   UNL A   1      36.738  29.060  29.814  1.00  0.00    -0.200 F 
ENDBRANCH  54  78
BRANCH  66  89
ATOM     89  C   UNL A   1      46.115  33.016  28.941  1.00  0.00     0.064 A 
ATOM     90  C   UNL A   1      45.929  34.079  28.043  1.00  0.00     0.173 A 
ATOM     91  C   UNL A   1      46.528  33.322  30.245  1.00  0.00     0.173 A 
ATOM     92  F   UNL A   1      45.542  33.839  26.781  1.00  0.00    -0.203 F 
ATOM     93  C   UNL A   1      46.174  35.394  28.429  1.00  0.00     0.198 A 
ATOM     94  C   UNL A   1      46.741  34.642  30.636  1.00  0.00     0.198 A 
ATOM     95  F   UNL A   1      46.708  32.343  31.145  1.00  0.00    -0.203 F 
ATOM     96  F   UNL A   1      46.033  36.388  27.540  1.00  0.00    -0.200 F 
ATOM     97  C   UNL A   1      46.577  35.675  29.725  1.00  0.00     0.200 A 
ATOM     98  F   UNL A   1      47.108  34.914  31.897  1.00  0.00    -0.200 F 
ATOM     99  F   UNL A   1      46.807  36.941  30.097  1.00  0.00    -0.200 F 
ENDBRANCH  66  89
ENDBRANCH  40  41
ENDBRANCH  32  35
ENDBRANCH  30  31
ENDBRANCH  29  30
ENDBRANCH  28  29
ENDBRANCH   1  28
TORSDOF 16
ENDMDL
MODEL 3
REMARK VINA RESULT:     -12.7      1.874      7.454
REMARK SMILES Cc1cc(C)cc(N(C)S(=O)(=O)c2ccc(F)c(C(=O)NCCCCCCNC(=O)c3ccc(-c4c5nc(c(-c6c(F)c(F)c(F)c(F)c6F)c6ccc([nH]6)c(-c6c(F)c(F)c(F)c(F)c6F)c6nc(c(-c7c(F)c(F)c(F)c(F)c7F)c7ccc4[nH]7)C=C6)C=C5)cc3)c2)c1
REMARK SMILES IDX 24 1 23 2 22 3 21 4 19 5 20 6 18 8 13 9 14 10 94 11 15 12
REMARK SMILES IDX 16 13 17 14 10 15 11 16 12 17 8 18 9 19 7 20 1 21 2 22 3 23
REMARK SMILES IDX 95 24 4 25 5 26 6 27 25 28 26 29 27 30 28 31 29 32 30 34
REMARK SMILES IDX 31 35 32 36 93 37 33 38 92 39 34 40 35 41 36 42 86 43 37 44
REMARK SMILES IDX 91 45 85 46 87 47 38 48 90 49 84 50 83 51 39 53 71 54 51 55
REMARK SMILES IDX 70 56 52 57 55 58 69 59 88 60 53 61 54 62 68 64 89 65 56 66
REMARK SMILES IDX 40 67 41 68 49 69 42 70 43 71 47 72 50 73 44 74 45 75 48 76
REMARK SMILES IDX 46 77 72 78 73 79 81 80 74 81 75 82 79 83 82 84 76 85 77 86
REMARK SMILES IDX 80 87 78 88 57 89 58 90 66 91 59 92 60 93 64 94 67 95 61 96
REMARK SMILES IDX 62 97 65 98 63 99
REMARK H PARENT 21 7 28 33 87 52 55 63
REMARK Flexibility Score: inf
ROOT
ATOM      1  C   UNL A   1      34.446  32.523  29.142  1.00  0.00     0.002 C 
ENDROOT
BRANCH   1   2
ATOM      2  C   UNL A   1      35.067  31.485  28.203  1.00  0.00     0.021 C 
BRANCH   2   3
ATOM      3  C   UNL A   1      34.123  30.439  27.625  1.00  0.00     0.116 C 
BRANCH   3   4
ATOM      4  N   UNL A   1      33.006  31.016  26.917  1.00  0.00    -0.352 N 
ATOM      5  C   UNL A   1      31.959  30.430  26.263  1.00  0.00     0.254 C 
ATOM      6  O   UNL A   1      31.136  31.174  25.725  1.00  0.00    -0.269 OA
ATOM      7  H   UNL A   1      32.996  32.000  26.902  1.00  0.00     0.163 HD
BRANCH   5   8
ATOM      8  C   UNL A   1      31.790  28.962  26.098  1.00  0.00     0.076 A 
ATOM      9  C   UNL A   1      31.605  27.175  24.442  1.00  0.00     0.089 A 
ATOM     10  C   UNL A   1      31.351  26.266  25.482  1.00  0.00     0.025 A 
ATOM     11  C   UNL A   1      31.889  28.495  24.772  1.00  0.00     0.039 A 
ATOM     12  C   UNL A   1      31.269  26.708  26.805  1.00  0.00     0.041 A 
ATOM     13  C   UNL A   1      31.424  28.063  27.096  1.00  0.00     0.136 A 
ATOM     14  F   UNL A   1      31.150  28.461  28.345  1.00  0.00    -0.206 F 
BRANCH   9  15
ATOM     15  S   UNL A   1      31.275  26.563  22.788  1.00  0.00     0.264 S 
ATOM     16  O   UNL A   1      30.976  27.764  22.030  1.00  0.00    -0.201 OA
ATOM     17  O   UNL A   1      30.253  25.549  22.984  1.00  0.00    -0.201 OA
BRANCH  15  18
ATOM     18  N   UNL A   1      32.622  25.787  22.010  1.00  0.00    -0.269 N 
ATOM     19  C   UNL A   1      32.508  25.600  20.545  1.00  0.00     0.164 C 
BRANCH  18  20
ATOM     20  C   UNL A   1      33.177  24.613  22.749  1.00  0.00     0.052 A 
ATOM     21  C   UNL A   1      32.475  20.894  23.377  1.00  0.00     0.044 C 
ATOM     22  C   UNL A   1      33.125  22.247  23.438  1.00  0.00    -0.049 A 
ATOM     23  C   UNL A   1      34.243  22.440  24.249  1.00  0.00     0.007 A 
ATOM     24  C   UNL A   1      32.603  23.331  22.707  1.00  0.00     0.030 A 
ATOM     25  C   UNL A   1      34.817  23.704  24.357  1.00  0.00    -0.049 A 
ATOM     26  C   UNL A   1      36.013  23.915  25.239  1.00  0.00     0.044 C 
ATOM     27  C   UNL A   1      34.249  24.778  23.648  1.00  0.00     0.030 A 
ENDBRANCH  18  20
ENDBRANCH  15  18
ENDBRANCH   9  15
ENDBRANCH   5   8
ENDBRANCH   3   4
ENDBRANCH   2   3
ENDBRANCH   1   2
BRANCH   1  28
ATOM     28  C   UNL A   1      34.581  33.989  28.727  1.00  0.00     0.002 C 
BRANCH  28  29
ATOM     29  C   UNL A   1      33.310  34.836  28.816  1.00  0.00     0.021 C 
BRANCH  29  30
ATOM     30  C   UNL A   1      33.449  36.145  29.582  1.00  0.00     0.116 C 
BRANCH  30  31
ATOM     31  N   UNL A   1      32.498  36.256  30.673  1.00  0.00    -0.352 N 
ATOM     32  C   UNL A   1      32.544  35.697  31.925  1.00  0.00     0.251 C 
ATOM     33  H   UNL A   1      31.707  36.813  30.488  1.00  0.00     0.163 HD
ATOM     34  O   UNL A   1      31.568  35.751  32.663  1.00  0.00    -0.269 OA
BRANCH  32  35
ATOM     35  C   UNL A   1      33.772  35.005  32.375  1.00  0.00     0.039 A 
ATOM     36  C   UNL A   1      33.670  33.693  32.843  1.00  0.00     0.014 A 
ATOM     37  C   UNL A   1      35.013  35.646  32.343  1.00  0.00     0.014 A 
ATOM     38  C   UNL A   1      34.823  33.005  33.227  1.00  0.00     0.010 A 
ATOM     39  C   UNL A   1      36.169  34.934  32.651  1.00  0.00     0.010 A 
ATOM     40  C   UNL A   1      36.085  33.610  33.104  1.00  0.00    -0.014 A 
BRANCH  40  41
ATOM     41  C   UNL A   1      37.326  32.870  33.444  1.00  0.00     0.031 A 
ATOM     42  C   UNL A   1      38.055  33.165  34.725  1.00  0.00     0.074 A 
ATOM     43  C   UNL A   1      37.824  31.971  32.575  1.00  0.00     0.049 A 
ATOM     44  N   UNL A   1      39.180  32.662  35.170  1.00  0.00    -0.248 NA
ATOM     45  C   UNL A   1      37.459  34.175  35.611  1.00  0.00     0.031 C 
ATOM     46  C   UNL A   1      37.226  31.630  31.283  1.00  0.00     0.029 A 
ATOM     47  N   UNL A   1      38.946  31.183  32.641  1.00  0.00    -0.354 N 
ATOM     48  C   UNL A   1      39.426  33.300  36.377  1.00  0.00     0.074 A 
ATOM     49  C   UNL A   1      38.369  34.268  36.569  1.00  0.00     0.031 C 
ATOM     50  C   UNL A   1      37.968  30.680  30.694  1.00  0.00     0.029 A 
ATOM     51  C   UNL A   1      39.117  30.376  31.543  1.00  0.00     0.049 A 
ATOM     52  H   UNL A   1      39.568  31.195  33.404  1.00  0.00     0.167 HD
ATOM     53  C   UNL A   1      40.430  33.078  37.258  1.00  0.00     0.037 A 
ATOM     54  C   UNL A   1      40.091  29.492  31.251  1.00  0.00     0.037 A 
ATOM     55  C   UNL A   1      41.465  32.097  37.071  1.00  0.00     0.049 A 
ATOM     56  C   UNL A   1      41.207  29.277  32.236  1.00  0.00     0.074 A 
ATOM     57  C   UNL A   1      42.493  31.755  37.933  1.00  0.00     0.029 A 
ATOM     58  N   UNL A   1      41.609  31.302  35.942  1.00  0.00    -0.354 N 
ATOM     59  N   UNL A   1      41.398  29.843  33.402  1.00  0.00    -0.248 NA
ATOM     60  C   UNL A   1      42.240  28.299  31.867  1.00  0.00     0.031 C 
ATOM     61  C   UNL A   1      43.292  30.798  37.302  1.00  0.00     0.029 A 
ATOM     62  C   UNL A   1      42.727  30.494  36.074  1.00  0.00     0.049 A 
ATOM     63  H   UNL A   1      41.007  31.311  35.165  1.00  0.00     0.167 HD
ATOM     64  C   UNL A   1      42.556  29.279  33.917  1.00  0.00     0.074 A 
ATOM     65  C   UNL A   1      43.020  28.314  32.940  1.00  0.00     0.031 C 
ATOM     66  C   UNL A   1      43.178  29.537  35.094  1.00  0.00     0.037 A 
BRANCH  53  67
ATOM     67  C   UNL A   1      40.457  33.905  38.513  1.00  0.00     0.064 A 
ATOM     68  C   UNL A   1      41.267  35.048  38.595  1.00  0.00     0.173 A 
ATOM     69  C   UNL A   1      39.729  33.534  39.655  1.00  0.00     0.173 A 
ATOM     70  F   UNL A   1      41.988  35.444  37.536  1.00  0.00    -0.203 F 
ATOM     71  C   UNL A   1      41.354  35.782  39.775  1.00  0.00     0.198 A 
ATOM     72  C   UNL A   1      39.793  34.290  40.823  1.00  0.00     0.198 A 
ATOM     73  F   UNL A   1      38.932  32.457  39.627  1.00  0.00    -0.203 F 
ATOM     74  F   UNL A   1      42.159  36.851  39.839  1.00  0.00    -0.200 F 
ATOM     75  C   UNL A   1      40.613  35.406  40.885  1.00  0.00     0.200 A 
ATOM     76  F   UNL A   1      39.054  33.942  41.885  1.00  0.00    -0.200 F 
ATOM     77  F   UNL A   1      40.685  36.124  42.015  1.00  0.00    -0.200 F 
ENDBRANCH  53  67
BRANCH  54  78
ATOM     78  C   UNL A   1      40.018  28.724  29.981  1.00  0.00     0.064 A 
ATOM     79  C   UNL A   1      39.431  27.450  29.929  1.00  0.00     0.173 A 
ATOM     80  C   UNL A   1      40.589  29.228  28.805  1.00  0.00     0.173 A 
ATOM     81  F   UNL A   1      38.876  26.921  31.029  1.00  0.00    -0.203 F 
ATOM     82  C   UNL A   1      39.445  26.699  28.755  1.00  0.00     0.198 A 
ATOM     83  C   UNL A   1      40.578  28.488  27.626  1.00  0.00     0.198 A 
ATOM     84  F   UNL A   1      41.145  30.448  28.801  1.00  0.00    -0.203 F 
ATOM     85  F   UNL A   1      38.919  25.468  28.745  1.00  0.00    -0.200 F 
ATOM     86  C   UNL A   1      40.017  27.219  27.604  1.00  0.00     0.200 A 
ATOM     87  F   UNL A   1      41.114  29.001  26.509  1.00  0.00    -0.200 F 
ATOM     88  F   UNL A   1      40.028  26.498  26.474  1.00  0.00    -0.200 F 
ENDBRANCH  54  78
BRANCH  66  89
ATOM     89  C   UNL A   1      44.422  28.758  35.415  1.00  0.00     0.064 A 
ATOM     90  C   UNL A   1      44.341  27.567  36.153  1.00  0.00     0.173 A 
ATOM     91  C   UNL A   1      45.695  29.237  35.077  1.00  0.00     0.173 A 
ATOM     92  F   UNL A   1      43.147  27.070  36.509  1.00  0.00    -0.203 F 
ATOM     93  C   UNL A   1      45.492  26.897  36.559  1.00  0.00     0.198 A 
ATOM     94  C   UNL A   1      46.843  28.547  35.458  1.00  0.00     0.198 A 
ATOM     95  F   UNL A   1      45.825  30.365  34.363  1.00  0.00    -0.203 F 
ATOM     96  F   UNL A   1      45.391  25.785  37.301  1.00  0.00    -0.200 F 
ATOM     97  C   UNL A   1      46.741  27.385  36.209  1.00  0.00     0.200 A 
ATOM     98  F   UNL A   1      48.049  29.008  35.099  1.00  0.00    -0.200 F 
ATOM     99  F   UNL A   1      47.848  26.736  36.596  1.00  0.00    -0.200 F 
ENDBRANCH  66  89
ENDBRANCH  40  41
ENDBRANCH  32  35
ENDBRANCH  30  31
ENDBRANCH  29  30
ENDBRANCH  28  29
ENDBRANCH   1  28
TORSDOF 16
ENDMDL
