MODEL 1
REMARK VINA RESULT:     -12.1      0.000      0.000
REMARK SMILES C[NH+]1CC[NH+](CC[C@H]2CCC[C@@]2([NH3+])C(=O)NCCCCCCNC(=O)c2ccc(-c3c4nc(c(-c5c(F)c(F)c(F)c(F)c5F)c5ccc([nH]5)c(-c5c(F)c(F)c(F)c(F)c5F)c5nc(c(-c6c(F)c(F)c(F)c(F)c6F)c6ccc3[nH]6)C=C5)C=C4)cc2)CC1
REMARK SMILES IDX 19 1 18 2 17 3 16 4 14 5 15 6 12 8 8 9 9 10 10 11 11 12 7 13
REMARK SMILES IDX 6 14 5 15 1 16 2 17 3 18 90 19 4 21 89 22 13 24 20 28 21 29
REMARK SMILES IDX 22 30 23 31 24 32 25 34 26 35 27 36 88 37 28 38 87 39 29 40
REMARK SMILES IDX 30 41 31 42 81 43 32 44 86 45 80 46 82 47 33 48 85 49 79 50
REMARK SMILES IDX 78 51 34 53 66 54 46 55 65 56 47 57 50 58 64 59 83 60 48 61
REMARK SMILES IDX 49 62 63 64 84 65 51 66 35 67 36 68 44 69 37 70 38 71 42 72
REMARK SMILES IDX 45 73 39 74 40 75 43 76 41 77 67 78 68 79 76 80 69 81 70 82
REMARK SMILES IDX 74 83 77 84 71 85 72 86 75 87 73 88 52 89 53 90 61 91 54 92
REMARK SMILES IDX 55 93 59 94 62 95 56 96 57 97 60 98 58 99
REMARK H PARENT 16 7 2 20 5 23 13 25 13 26 13 27 23 33 82 52 50 63
REMARK Flexibility Score: inf
ROOT
ATOM      1  C   UNL A   1      32.787  29.818  27.057  1.00  0.00     0.002 C 
ENDROOT
BRANCH   1   2
ATOM      2  C   UNL A   1      32.188  28.480  27.490  1.00  0.00     0.021 C 
BRANCH   2   3
ATOM      3  C   UNL A   1      31.701  27.542  26.373  1.00  0.00     0.116 C 
BRANCH   3   4
ATOM      4  N   UNL A   1      31.297  26.232  26.838  1.00  0.00    -0.351 N 
ATOM      5  C   UNL A   1      31.327  24.985  26.293  1.00  0.00     0.281 C 
ATOM      6  O   UNL A   1      30.953  24.092  27.070  1.00  0.00    -0.268 OA
ATOM      7  H   UNL A   1      30.916  26.246  27.746  1.00  0.00     0.163 HD
BRANCH   5   8
ATOM      8  C   UNL A   1      31.783  24.626  24.819  1.00  0.00     0.177 C 
ATOM      9  C   UNL A   1      33.294  24.694  24.366  1.00  0.00     0.066 C 
ATOM     10  C   UNL A   1      33.494  23.419  23.500  1.00  0.00     0.011 C 
ATOM     11  C   UNL A   1      32.104  22.867  23.204  1.00  0.00     0.008 C 
ATOM     12  C   UNL A   1      31.310  23.214  24.450  1.00  0.00     0.079 C 
BRANCH   9  13
ATOM     13  C   UNL A   1      34.323  24.791  25.493  1.00  0.00     0.072 C 
BRANCH  13  14
ATOM     14  C   UNL A   1      35.600  23.941  25.495  1.00  0.00     0.263 C 
BRANCH  14  15
ATOM     15  N   UNL A   1      35.667  22.734  26.322  1.00  0.00    -0.326 N 
ATOM     16  C   UNL A   1      32.893  19.540  25.394  1.00  0.00     0.333 C 
ATOM     17  N   UNL A   1      33.955  20.294  26.064  1.00  0.00    -0.328 N 
ATOM     18  C   UNL A   1      33.431  21.575  26.563  1.00  0.00     0.324 C 
ATOM     19  C   UNL A   1      35.088  20.521  25.151  1.00  0.00     0.324 C 
ATOM     20  H   UNL A   1      34.289  19.747  26.857  1.00  0.00     0.348 HD
ATOM     21  C   UNL A   1      34.515  22.476  27.181  1.00  0.00     0.324 C 
ATOM     22  C   UNL A   1      36.165  21.487  25.715  1.00  0.00     0.324 C 
ATOM     23  H   UNL A   1      36.435  23.041  26.919  1.00  0.00     0.348 HD
ENDBRANCH  14  15
ENDBRANCH  13  14
ENDBRANCH   9  13
BRANCH   8  24
ATOM     24  N   UNL A   1      31.027  25.530  23.892  1.00  0.00    -0.345 N 
ATOM     25  H   UNL A   1      30.108  25.731  24.287  1.00  0.00     0.345 HD
ATOM     26  H   UNL A   1      30.917  25.074  22.986  1.00  0.00     0.345 HD
ATOM     27  H   UNL A   1      31.543  26.402  23.773  1.00  0.00     0.345 HD
ENDBRANCH   8  24
ENDBRANCH   5   8
ENDBRANCH   3   4
ENDBRANCH   2   3
ENDBRANCH   1   2
BRANCH   1  28
ATOM     28  C   UNL A   1      31.878  30.676  26.183  1.00  0.00     0.002 C 
BRANCH  28  29
ATOM     29  C   UNL A   1      31.527  32.038  26.780  1.00  0.00     0.021 C 
BRANCH  29  30
ATOM     30  C   UNL A   1      32.695  32.753  27.450  1.00  0.00     0.116 C 
BRANCH  30  31
ATOM     31  N   UNL A   1      32.434  34.170  27.630  1.00  0.00    -0.352 N 
ATOM     32  C   UNL A   1      32.989  35.020  28.552  1.00  0.00     0.251 C 
ATOM     33  H   UNL A   1      31.778  34.569  27.014  1.00  0.00     0.163 HD
ATOM     34  O   UNL A   1      32.524  36.140  28.744  1.00  0.00    -0.269 OA
BRANCH  32  35
ATOM     35  C   UNL A   1      34.148  34.551  29.334  1.00  0.00     0.039 A 
ATOM     36  C   UNL A   1      33.939  33.968  30.583  1.00  0.00     0.014 A 
ATOM     37  C   UNL A   1      35.433  34.632  28.789  1.00  0.00     0.014 A 
ATOM     38  C   UNL A   1      35.020  33.405  31.265  1.00  0.00     0.010 A 
ATOM     39  C   UNL A   1      36.489  33.995  29.428  1.00  0.00     0.010 A 
ATOM     40  C   UNL A   1      36.295  33.381  30.676  1.00  0.00    -0.014 A 
BRANCH  40  41
ATOM     41  C   UNL A   1      37.451  32.735  31.347  1.00  0.00     0.031 A 
ATOM     42  C   UNL A   1      38.162  31.597  30.672  1.00  0.00     0.074 A 
ATOM     43  C   UNL A   1      37.810  33.119  32.586  1.00  0.00     0.049 A 
ATOM     44  N   UNL A   1      39.124  30.833  31.123  1.00  0.00    -0.248 NA
ATOM     45  C   UNL A   1      37.705  31.249  29.317  1.00  0.00     0.031 C 
ATOM     46  C   UNL A   1      37.179  34.190  33.358  1.00  0.00     0.029 A 
ATOM     47  N   UNL A   1      38.791  32.643  33.420  1.00  0.00    -0.354 N 
ATOM     48  C   UNL A   1      39.375  29.910  30.116  1.00  0.00     0.074 A 
ATOM     49  C   UNL A   1      38.420  30.165  29.061  1.00  0.00     0.031 C 
ATOM     50  C   UNL A   1      37.807  34.310  34.539  1.00  0.00     0.029 A 
ATOM     51  C   UNL A   1      38.851  33.294  34.629  1.00  0.00     0.049 A 
ATOM     52  H   UNL A   1      39.393  31.905  33.176  1.00  0.00     0.167 HD
ATOM     53  C   UNL A   1      40.333  28.954  30.065  1.00  0.00     0.037 A 
ATOM     54  C   UNL A   1      39.653  33.086  35.690  1.00  0.00     0.037 A 
ATOM     55  C   UNL A   1      41.288  28.714  31.116  1.00  0.00     0.049 A 
ATOM     56  C   UNL A   1      40.678  31.985  35.629  1.00  0.00     0.074 A 
ATOM     57  C   UNL A   1      42.327  27.801  31.147  1.00  0.00     0.029 A 
ATOM     58  N   UNL A   1      41.313  29.390  32.328  1.00  0.00    -0.354 N 
ATOM     59  N   UNL A   1      40.949  31.157  34.649  1.00  0.00    -0.248 NA
ATOM     60  C   UNL A   1      41.511  31.792  36.824  1.00  0.00     0.031 C 
ATOM     61  C   UNL A   1      42.943  27.883  32.399  1.00  0.00     0.029 A 
ATOM     62  C   UNL A   1      42.332  28.895  33.125  1.00  0.00     0.049 A 
ATOM     63  H   UNL A   1      40.698  30.116  32.583  1.00  0.00     0.167 HD
ATOM     64  C   UNL A   1      42.007  30.374  35.091  1.00  0.00     0.074 A 
ATOM     65  C   UNL A   1      42.334  30.831  36.427  1.00  0.00     0.031 C 
ATOM     66  C   UNL A   1      42.654  29.371  34.447  1.00  0.00     0.037 A 
BRANCH  53  67
ATOM     67  C   UNL A   1      40.382  28.092  28.835  1.00  0.00     0.064 A 
ATOM     68  C   UNL A   1      39.699  26.866  28.763  1.00  0.00     0.173 A 
ATOM     69  C   UNL A   1      41.118  28.494  27.710  1.00  0.00     0.173 A 
ATOM     70  F   UNL A   1      38.989  26.427  29.813  1.00  0.00    -0.203 F 
ATOM     71  C   UNL A   1      39.790  26.058  27.634  1.00  0.00     0.198 A 
ATOM     72  C   UNL A   1      41.175  27.701  26.567  1.00  0.00     0.198 A 
ATOM     73  F   UNL A   1      41.785  29.658  27.719  1.00  0.00    -0.203 F 
ATOM     74  F   UNL A   1      39.188  24.860  27.619  1.00  0.00    -0.200 F 
ATOM     75  C   UNL A   1      40.523  26.478  26.535  1.00  0.00     0.200 A 
ATOM     76  F   UNL A   1      41.871  28.116  25.500  1.00  0.00    -0.200 F 
ATOM     77  F   UNL A   1      40.610  25.699  25.448  1.00  0.00    -0.200 F 
ENDBRANCH  53  67
BRANCH  54  78
ATOM     78  C   UNL A   1      39.544  33.958  36.889  1.00  0.00     0.064 A 
ATOM     79  C   UNL A   1      38.783  33.559  37.997  1.00  0.00     0.173 A 
ATOM     80  C   UNL A   1      40.186  35.204  36.955  1.00  0.00     0.173 A 
ATOM     81  F   UNL A   1      38.134  32.386  37.975  1.00  0.00    -0.203 F 
ATOM     82  C   UNL A   1      38.650  34.380  39.115  1.00  0.00     0.198 A 
ATOM     83  C   UNL A   1      40.078  36.010  38.086  1.00  0.00     0.198 A 
ATOM     84  F   UNL A   1      40.931  35.632  35.925  1.00  0.00    -0.203 F 
ATOM     85  F   UNL A   1      37.877  33.993  40.140  1.00  0.00    -0.200 F 
ATOM     86  C   UNL A   1      39.303  35.602  39.161  1.00  0.00     0.200 A 
ATOM     87  F   UNL A   1      40.722  37.185  38.133  1.00  0.00    -0.200 F 
ATOM     88  F   UNL A   1      39.179  36.389  40.239  1.00  0.00    -0.200 F 
ENDBRANCH  54  78
BRANCH  66  89
ATOM     89  C   UNL A   1      43.816  28.732  35.153  1.00  0.00     0.064 A 
ATOM     90  C   UNL A   1      43.662  27.601  35.967  1.00  0.00     0.173 A 
ATOM     91  C   UNL A   1      45.114  29.238  34.973  1.00  0.00     0.173 A 
ATOM     92  F   UNL A   1      42.440  27.088  36.185  1.00  0.00    -0.203 F 
ATOM     93  C   UNL A   1      44.758  27.015  36.594  1.00  0.00     0.198 A 
ATOM     94  C   UNL A   1      46.212  28.628  35.573  1.00  0.00     0.198 A 
ATOM     95  F   UNL A   1      45.320  30.314  34.199  1.00  0.00    -0.203 F 
ATOM     96  F   UNL A   1      44.579  25.965  37.408  1.00  0.00    -0.200 F 
ATOM     97  C   UNL A   1      46.033  27.523  36.389  1.00  0.00     0.200 A 
ATOM     98  F   UNL A   1      47.444  29.110  35.359  1.00  0.00    -0.200 F 
ATOM     99  F   UNL A   1      47.087  26.949  36.983  1.00  0.00    -0.200 F 
ENDBRANCH  66  89
ENDBRANCH  40  41
ENDBRANCH  32  35
ENDBRANCH  30  31
ENDBRANCH  29  30
ENDBRANCH  28  29
ENDBRANCH   1  28
TORSDOF 17
ENDMDL
MODEL 2
REMARK VINA RESULT:     -12.1      1.320      2.335
REMARK SMILES C[NH+]1CC[NH+](CC[C@H]2CCC[C@@]2([NH3+])C(=O)NCCCCCCNC(=O)c2ccc(-c3c4nc(c(-c5c(F)c(F)c(F)c(F)c5F)c5ccc([nH]5)c(-c5c(F)c(F)c(F)c(F)c5F)c5nc(c(-c6c(F)c(F)c(F)c(F)c6F)c6ccc3[nH]6)C=C5)C=C4)cc2)CC1
REMARK SMILES IDX 19 1 18 2 17 3 16 4 14 5 15 6 12 8 8 9 9 10 10 11 11 12 7 13
REMARK SMILES IDX 6 14 5 15 1 16 2 17 3 18 90 19 4 21 89 22 13 24 20 28 21 29
REMARK SMILES IDX 22 30 23 31 24 32 25 34 26 35 27 36 88 37 28 38 87 39 29 40
REMARK SMILES IDX 30 41 31 42 81 43 32 44 86 45 80 46 82 47 33 48 85 49 79 50
REMARK SMILES IDX 78 51 34 53 66 54 46 55 65 56 47 57 50 58 64 59 83 60 48 61
REMARK SMILES IDX 49 62 63 64 84 65 51 66 35 67 36 68 44 69 37 70 38 71 42 72
REMARK SMILES IDX 45 73 39 74 40 75 43 76 41 77 67 78 68 79 76 80 69 81 70 82
REMARK SMILES IDX 74 83 77 84 71 85 72 86 75 87 73 88 52 89 53 90 61 91 54 92
REMARK SMILES IDX 55 93 59 94 62 95 56 96 57 97 60 98 58 99
REMARK H PARENT 16 7 2 20 5 23 13 25 13 26 13 27 23 33 82 52 50 63
REMARK Flexibility Score: inf
ROOT
ATOM      1  C   UNL A   1      32.480  29.536  27.222  1.00  0.00     0.002 C 
ENDROOT
BRANCH   1   2
ATOM      2  C   UNL A   1      33.379  28.437  26.656  1.00  0.00     0.021 C 
BRANCH   2   3
ATOM      3  C   UNL A   1      33.851  28.606  25.202  1.00  0.00     0.116 C 
BRANCH   3   4
ATOM      4  N   UNL A   1      33.938  27.364  24.463  1.00  0.00    -0.351 N 
ATOM      5  C   UNL A   1      33.188  26.793  23.482  1.00  0.00     0.281 C 
ATOM      6  O   UNL A   1      33.660  25.731  23.047  1.00  0.00    -0.268 OA
ATOM      7  H   UNL A   1      34.709  26.811  24.729  1.00  0.00     0.163 HD
BRANCH   5   8
ATOM      8  C   UNL A   1      31.832  27.367  22.897  1.00  0.00     0.177 C 
ATOM      9  C   UNL A   1      30.460  27.232  23.667  1.00  0.00     0.066 C 
ATOM     10  C   UNL A   1      29.778  28.616  23.485  1.00  0.00     0.011 C 
ATOM     11  C   UNL A   1      30.556  29.350  22.399  1.00  0.00     0.008 C 
ATOM     12  C   UNL A   1      31.981  28.863  22.592  1.00  0.00     0.079 C 
BRANCH   9  13
ATOM     13  C   UNL A   1      30.559  26.827  25.138  1.00  0.00     0.072 C 
BRANCH  13  14
ATOM     14  C   UNL A   1      29.971  25.507  25.653  1.00  0.00     0.263 C 
BRANCH  14  15
ATOM     15  N   UNL A   1      30.752  24.673  26.569  1.00  0.00    -0.326 N 
ATOM     16  C   UNL A   1      32.691  21.177  24.900  1.00  0.00     0.333 C 
ATOM     17  N   UNL A   1      32.243  22.173  25.877  1.00  0.00    -0.328 N 
ATOM     18  C   UNL A   1      30.774  22.231  25.906  1.00  0.00     0.324 C 
ATOM     19  C   UNL A   1      32.806  23.498  25.566  1.00  0.00     0.324 C 
ATOM     20  H   UNL A   1      32.577  21.893  26.799  1.00  0.00     0.348 HD
ATOM     21  C   UNL A   1      30.227  23.335  26.828  1.00  0.00     0.324 C 
ATOM     22  C   UNL A   1      32.218  24.647  26.429  1.00  0.00     0.324 C 
ATOM     23  H   UNL A   1      30.594  25.234  27.406  1.00  0.00     0.348 HD
ENDBRANCH  14  15
ENDBRANCH  13  14
ENDBRANCH   9  13
BRANCH   8  24
ATOM     24  N   UNL A   1      31.625  26.728  21.557  1.00  0.00    -0.345 N 
ATOM     25  H   UNL A   1      31.945  27.362  20.825  1.00  0.00     0.345 HD
ATOM     26  H   UNL A   1      30.634  26.527  21.425  1.00  0.00     0.345 HD
ATOM     27  H   UNL A   1      32.157  25.859  21.510  1.00  0.00     0.345 HD
ENDBRANCH   8  24
ENDBRANCH   5   8
ENDBRANCH   3   4
ENDBRANCH   2   3
ENDBRANCH   1   2
BRANCH   1  28
ATOM     28  C   UNL A   1      31.906  30.496  26.184  1.00  0.00     0.002 C 
BRANCH  28  29
ATOM     29  C   UNL A   1      31.554  31.879  26.728  1.00  0.00     0.021 C 
BRANCH  29  30
ATOM     30  C   UNL A   1      32.717  32.616  27.382  1.00  0.00     0.116 C 
BRANCH  30  31
ATOM     31  N   UNL A   1      32.427  34.025  27.576  1.00  0.00    -0.352 N 
ATOM     32  C   UNL A   1      32.963  34.877  28.509  1.00  0.00     0.251 C 
ATOM     33  H   UNL A   1      31.765  34.418  26.963  1.00  0.00     0.163 HD
ATOM     34  O   UNL A   1      32.477  35.985  28.711  1.00  0.00    -0.269 OA
BRANCH  32  35
ATOM     35  C   UNL A   1      34.130  34.422  29.288  1.00  0.00     0.039 A 
ATOM     36  C   UNL A   1      33.930  33.804  30.521  1.00  0.00     0.014 A 
ATOM     37  C   UNL A   1      35.417  34.552  28.754  1.00  0.00     0.014 A 
ATOM     38  C   UNL A   1      35.021  33.256  31.198  1.00  0.00     0.010 A 
ATOM     39  C   UNL A   1      36.486  33.931  29.387  1.00  0.00     0.010 A 
ATOM     40  C   UNL A   1      36.300  33.282  30.618  1.00  0.00    -0.014 A 
BRANCH  40  41
ATOM     41  C   UNL A   1      37.469  32.653  31.283  1.00  0.00     0.031 A 
ATOM     42  C   UNL A   1      38.192  31.523  30.605  1.00  0.00     0.074 A 
ATOM     43  C   UNL A   1      37.832  33.045  32.518  1.00  0.00     0.049 A 
ATOM     44  N   UNL A   1      39.167  30.774  31.052  1.00  0.00    -0.248 NA
ATOM     45  C   UNL A   1      37.730  31.166  29.254  1.00  0.00     0.031 C 
ATOM     46  C   UNL A   1      37.192  34.109  33.293  1.00  0.00     0.029 A 
ATOM     47  N   UNL A   1      38.824  32.584  33.347  1.00  0.00    -0.354 N 
ATOM     48  C   UNL A   1      39.424  29.852  30.045  1.00  0.00     0.074 A 
ATOM     49  C   UNL A   1      38.458  30.092  28.995  1.00  0.00     0.031 C 
ATOM     50  C   UNL A   1      37.825  34.240  34.469  1.00  0.00     0.029 A 
ATOM     51  C   UNL A   1      38.884  33.239  34.554  1.00  0.00     0.049 A 
ATOM     52  H   UNL A   1      39.435  31.853  33.101  1.00  0.00     0.167 HD
ATOM     53  C   UNL A   1      40.394  28.909  29.990  1.00  0.00     0.037 A 
ATOM     54  C   UNL A   1      39.696  33.044  35.611  1.00  0.00     0.037 A 
ATOM     55  C   UNL A   1      41.359  28.684  31.034  1.00  0.00     0.049 A 
ATOM     56  C   UNL A   1      40.736  31.957  35.544  1.00  0.00     0.074 A 
ATOM     57  C   UNL A   1      42.411  27.786  31.060  1.00  0.00     0.029 A 
ATOM     58  N   UNL A   1      41.383  29.363  32.244  1.00  0.00    -0.354 N 
ATOM     59  N   UNL A   1      41.011  31.130  34.564  1.00  0.00    -0.248 NA
ATOM     60  C   UNL A   1      41.579  31.778  36.734  1.00  0.00     0.031 C 
ATOM     61  C   UNL A   1      43.035  27.879  32.308  1.00  0.00     0.029 A 
ATOM     62  C   UNL A   1      42.415  28.884  33.035  1.00  0.00     0.049 A 
ATOM     63  H   UNL A   1      40.760  30.081  32.502  1.00  0.00     0.167 HD
ATOM     64  C   UNL A   1      42.083  30.363  35.000  1.00  0.00     0.074 A 
ATOM     65  C   UNL A   1      42.412  30.827  36.333  1.00  0.00     0.031 C 
ATOM     66  C   UNL A   1      42.739  29.368  34.355  1.00  0.00     0.037 A 
BRANCH  53  67
ATOM     67  C   UNL A   1      40.447  28.045  28.760  1.00  0.00     0.064 A 
ATOM     68  C   UNL A   1      39.757  26.823  28.686  1.00  0.00     0.173 A 
ATOM     69  C   UNL A   1      41.192  28.442  27.640  1.00  0.00     0.173 A 
ATOM     70  F   UNL A   1      39.038  26.389  29.732  1.00  0.00    -0.203 F 
ATOM     71  C   UNL A   1      39.852  26.013  27.558  1.00  0.00     0.198 A 
ATOM     72  C   UNL A   1      41.253  27.647  26.499  1.00  0.00     0.198 A 
ATOM     73  F   UNL A   1      41.866  29.602  27.652  1.00  0.00    -0.203 F 
ATOM     74  F   UNL A   1      39.243  24.818  27.541  1.00  0.00    -0.200 F 
ATOM     75  C   UNL A   1      40.594  26.428  26.463  1.00  0.00     0.200 A 
ATOM     76  F   UNL A   1      41.959  28.057  25.435  1.00  0.00    -0.200 F 
ATOM     77  F   UNL A   1      40.684  25.646  25.379  1.00  0.00    -0.200 F 
ENDBRANCH  53  67
BRANCH  54  78
ATOM     78  C   UNL A   1      39.584  33.917  36.808  1.00  0.00     0.064 A 
ATOM     79  C   UNL A   1      38.804  33.526  37.907  1.00  0.00     0.173 A 
ATOM     80  C   UNL A   1      40.239  35.155  36.882  1.00  0.00     0.173 A 
ATOM     81  F   UNL A   1      38.141  32.361  37.876  1.00  0.00    -0.203 F 
ATOM     82  C   UNL A   1      38.668  34.349  39.024  1.00  0.00     0.198 A 
ATOM     83  C   UNL A   1      40.127  35.962  38.012  1.00  0.00     0.198 A 
ATOM     84  F   UNL A   1      41.001  35.574  35.861  1.00  0.00    -0.203 F 
ATOM     85  F   UNL A   1      37.879  33.971  40.039  1.00  0.00    -0.200 F 
ATOM     86  C   UNL A   1      39.335  35.564  39.078  1.00  0.00     0.200 A 
ATOM     87  F   UNL A   1      40.785  37.129  38.067  1.00  0.00    -0.200 F 
ATOM     88  F   UNL A   1      39.207  36.352  40.154  1.00  0.00    -0.200 F 
ENDBRANCH  54  78
BRANCH  66  89
ATOM     89  C   UNL A   1      43.915  28.746  35.054  1.00  0.00     0.064 A 
ATOM     90  C   UNL A   1      45.212  29.265  34.933  1.00  0.00     0.173 A 
ATOM     91  C   UNL A   1      43.728  27.639  35.896  1.00  0.00     0.173 A 
ATOM     92  F   UNL A   1      45.447  30.313  34.127  1.00  0.00    -0.203 F 
ATOM     93  C   UNL A   1      46.282  28.684  35.607  1.00  0.00     0.198 A 
ATOM     94  C   UNL A   1      44.795  27.081  36.597  1.00  0.00     0.198 A 
ATOM     95  F   UNL A   1      42.507  27.106  36.055  1.00  0.00    -0.203 F 
ATOM     96  F   UNL A   1      47.521  29.166  35.436  1.00  0.00    -0.200 F 
ATOM     97  C   UNL A   1      46.071  27.599  36.446  1.00  0.00     0.200 A 
ATOM     98  F   UNL A   1      44.585  26.044  37.420  1.00  0.00    -0.200 F 
ATOM     99  F   UNL A   1      47.100  27.049  37.104  1.00  0.00    -0.200 F 
ENDBRANCH  66  89
ENDBRANCH  40  41
ENDBRANCH  32  35
ENDBRANCH  30  31
ENDBRANCH  29  30
ENDBRANCH  28  29
ENDBRANCH   1  28
TORSDOF 17
ENDMDL
MODEL 3
REMARK VINA RESULT:     -12.0      2.214      8.316
REMARK SMILES C[NH+]1CC[NH+](CC[C@H]2CCC[C@@]2([NH3+])C(=O)NCCCCCCNC(=O)c2ccc(-c3c4nc(c(-c5c(F)c(F)c(F)c(F)c5F)c5ccc([nH]5)c(-c5c(F)c(F)c(F)c(F)c5F)c5nc(c(-c6c(F)c(F)c(F)c(F)c6F)c6ccc3[nH]6)C=C5)C=C4)cc2)CC1
REMARK SMILES IDX 19 1 18 2 17 3 16 4 14 5 15 6 12 8 8 9 9 10 10 11 11 12 7 13
REMARK SMILES IDX 6 14 5 15 1 16 2 17 3 18 90 19 4 21 89 22 13 24 20 28 21 29
REMARK SMILES IDX 22 30 23 31 24 32 25 34 26 35 27 36 88 37 28 38 87 39 29 40
REMARK SMILES IDX 30 41 31 42 81 43 32 44 86 45 80 46 82 47 33 48 85 49 79 50
REMARK SMILES IDX 78 51 34 53 66 54 46 55 65 56 47 57 50 58 64 59 83 60 48 61
REMARK SMILES IDX 49 62 63 64 84 65 51 66 35 67 36 68 44 69 37 70 38 71 42 72
REMARK SMILES IDX 45 73 39 74 40 75 43 76 41 77 67 78 68 79 76 80 69 81 70 82
REMARK SMILES IDX 74 83 77 84 71 85 72 86 75 87 73 88 52 89 53 90 61 91 54 92
REMARK SMILES IDX 55 93 59 94 62 95 56 96 57 97 60 98 58 99
REMARK H PARENT 16 7 2 20 5 23 13 25 13 26 13 27 23 33 82 52 50 63
REMARK Flexibility Score: inf
ROOT
ATOM      1  C   UNL A   1      32.145  29.913  27.259  1.00  0.00     0.002 C 
ENDROOT
BRANCH   1   2
ATOM      2  C   UNL A   1      33.625  29.538  27.197  1.00  0.00     0.021 C 
BRANCH   2   3
ATOM      3  C   UNL A   1      34.009  28.380  26.261  1.00  0.00     0.116 C 
BRANCH   3   4
ATOM      4  N   UNL A   1      34.264  28.787  24.894  1.00  0.00    -0.351 N 
ATOM      5  C   UNL A   1      33.905  28.293  23.678  1.00  0.00     0.281 C 
ATOM      6  O   UNL A   1      34.267  29.001  22.726  1.00  0.00    -0.268 OA
ATOM      7  H   UNL A   1      34.819  29.598  24.831  1.00  0.00     0.163 HD
BRANCH   5   8
ATOM      8  C   UNL A   1      33.100  26.952  23.421  1.00  0.00     0.177 C 
ATOM      9  C   UNL A   1      31.605  26.765  23.893  1.00  0.00     0.066 C 
ATOM     10  C   UNL A   1      30.912  26.048  22.702  1.00  0.00     0.011 C 
ATOM     11  C   UNL A   1      32.021  25.558  21.778  1.00  0.00     0.008 C 
ATOM     12  C   UNL A   1      33.099  26.617  21.924  1.00  0.00     0.079 C 
BRANCH   9  13
ATOM     13  C   UNL A   1      30.871  28.042  24.302  1.00  0.00     0.072 C 
BRANCH  13  14
ATOM     14  C   UNL A   1      30.423  29.082  23.267  1.00  0.00     0.263 C 
BRANCH  14  15
ATOM     15  N   UNL A   1      29.104  29.706  23.387  1.00  0.00    -0.326 N 
ATOM     16  C   UNL A   1      27.951  32.513  20.296  1.00  0.00     0.333 C 
ATOM     17  N   UNL A   1      27.894  31.701  21.513  1.00  0.00    -0.328 N 
ATOM     18  C   UNL A   1      29.018  32.035  22.401  1.00  0.00     0.324 C 
ATOM     19  C   UNL A   1      27.907  30.265  21.183  1.00  0.00     0.324 C 
ATOM     20  H   UNL A   1      27.021  31.908  21.999  1.00  0.00     0.348 HD
ATOM     21  C   UNL A   1      29.091  31.142  23.653  1.00  0.00     0.324 C 
ATOM     22  C   UNL A   1      28.056  29.338  22.419  1.00  0.00     0.324 C 
ATOM     23  H   UNL A   1      28.824  29.231  24.245  1.00  0.00     0.348 HD
ENDBRANCH  14  15
ENDBRANCH  13  14
ENDBRANCH   9  13
BRANCH   8  24
ATOM     24  N   UNL A   1      33.882  25.841  24.055  1.00  0.00    -0.345 N 
ATOM     25  H   UNL A   1      33.483  24.944  23.780  1.00  0.00     0.345 HD
ATOM     26  H   UNL A   1      33.844  25.934  25.070  1.00  0.00     0.345 HD
ATOM     27  H   UNL A   1      34.853  25.890  23.745  1.00  0.00     0.345 HD
ENDBRANCH   8  24
ENDBRANCH   5   8
ENDBRANCH   3   4
ENDBRANCH   2   3
ENDBRANCH   1   2
BRANCH   1  28
ATOM     28  C   UNL A   1      31.696  30.934  26.218  1.00  0.00     0.002 C 
BRANCH  28  29
ATOM     29  C   UNL A   1      31.468  32.340  26.768  1.00  0.00     0.021 C 
BRANCH  29  30
ATOM     30  C   UNL A   1      32.723  33.021  27.302  1.00  0.00     0.116 C 
BRANCH  30  31
ATOM     31  N   UNL A   1      32.472  34.399  27.685  1.00  0.00    -0.352 N 
ATOM     32  C   UNL A   1      33.019  35.096  28.733  1.00  0.00     0.251 C 
ATOM     33  H   UNL A   1      31.832  34.893  27.125  1.00  0.00     0.163 HD
ATOM     34  O   UNL A   1      32.562  36.180  29.082  1.00  0.00    -0.269 OA
BRANCH  32  35
ATOM     35  C   UNL A   1      34.158  34.501  29.456  1.00  0.00     0.039 A 
ATOM     36  C   UNL A   1      33.925  33.779  30.626  1.00  0.00     0.014 A 
ATOM     37  C   UNL A   1      35.449  34.607  28.928  1.00  0.00     0.014 A 
ATOM     38  C   UNL A   1      34.983  33.106  31.238  1.00  0.00     0.010 A 
ATOM     39  C   UNL A   1      36.481  33.866  29.489  1.00  0.00     0.010 A 
ATOM     40  C   UNL A   1      36.261  33.114  30.653  1.00  0.00    -0.014 A 
BRANCH  40  41
ATOM     41  C   UNL A   1      37.392  32.356  31.245  1.00  0.00     0.031 A 
ATOM     42  C   UNL A   1      37.906  32.729  32.607  1.00  0.00     0.074 A 
ATOM     43  C   UNL A   1      38.001  31.391  30.533  1.00  0.00     0.049 A 
ATOM     44  N   UNL A   1      38.941  32.266  33.261  1.00  0.00    -0.248 NA
ATOM     45  C   UNL A   1      37.175  33.793  33.315  1.00  0.00     0.031 C 
ATOM     46  C   UNL A   1      37.615  30.957  29.189  1.00  0.00     0.029 A 
ATOM     47  N   UNL A   1      39.084  30.604  30.836  1.00  0.00    -0.354 N 
ATOM     48  C   UNL A   1      38.992  32.989  34.445  1.00  0.00     0.074 A 
ATOM     49  C   UNL A   1      37.928  33.967  34.390  1.00  0.00     0.031 C 
ATOM     50  C   UNL A   1      38.429  29.964  28.797  1.00  0.00     0.029 A 
ATOM     51  C   UNL A   1      39.423  29.722  29.838  1.00  0.00     0.049 A 
ATOM     52  H   UNL A   1      39.572  30.665  31.688  1.00  0.00     0.167 HD
ATOM     53  C   UNL A   1      39.833  32.834  35.495  1.00  0.00     0.037 A 
ATOM     54  C   UNL A   1      40.428  28.828  29.770  1.00  0.00     0.037 A 
ATOM     55  C   UNL A   1      40.883  31.850  35.547  1.00  0.00     0.049 A 
ATOM     56  C   UNL A   1      41.379  28.708  30.931  1.00  0.00     0.074 A 
ATOM     57  C   UNL A   1      41.762  31.579  36.580  1.00  0.00     0.029 A 
ATOM     58  N   UNL A   1      41.198  30.979  34.514  1.00  0.00    -0.354 N 
ATOM     59  N   UNL A   1      41.384  29.353  32.072  1.00  0.00    -0.248 NA
ATOM     60  C   UNL A   1      42.468  27.730  30.792  1.00  0.00     0.031 C 
ATOM     61  C   UNL A   1      42.647  30.585  36.151  1.00  0.00     0.029 A 
ATOM     62  C   UNL A   1      42.278  30.189  34.874  1.00  0.00     0.049 A 
ATOM     63  H   UNL A   1      40.724  30.930  33.652  1.00  0.00     0.167 HD
ATOM     64  C   UNL A   1      42.444  28.834  32.802  1.00  0.00     0.074 A 
ATOM     65  C   UNL A   1      43.058  27.813  31.976  1.00  0.00     0.031 C 
ATOM     66  C   UNL A   1      42.868  29.167  34.046  1.00  0.00     0.037 A 
BRANCH  53  67
ATOM     67  C   UNL A   1      39.653  33.761  36.666  1.00  0.00     0.064 A 
ATOM     68  C   UNL A   1      40.287  35.013  36.720  1.00  0.00     0.173 A 
ATOM     69  C   UNL A   1      38.836  33.396  37.746  1.00  0.00     0.173 A 
ATOM     70  F   UNL A   1      41.088  35.409  35.720  1.00  0.00    -0.203 F 
ATOM     71  C   UNL A   1      40.147  35.841  37.831  1.00  0.00     0.198 A 
ATOM     72  C   UNL A   1      38.668  34.243  38.838  1.00  0.00     0.198 A 
ATOM     73  F   UNL A   1      38.201  32.214  37.745  1.00  0.00    -0.203 F 
ATOM     74  F   UNL A   1      40.820  36.999  37.890  1.00  0.00    -0.200 F 
ATOM     75  C   UNL A   1      39.333  35.458  38.886  1.00  0.00     0.200 A 
ATOM     76  F   UNL A   1      37.868  33.878  39.850  1.00  0.00    -0.200 F 
ATOM     77  F   UNL A   1      39.199  36.256  39.954  1.00  0.00    -0.200 F 
ENDBRANCH  53  67
BRANCH  54  78
ATOM     78  C   UNL A   1      40.567  27.952  28.577  1.00  0.00     0.064 A 
ATOM     79  C   UNL A   1      41.315  28.371  27.467  1.00  0.00     0.173 A 
ATOM     80  C   UNL A   1      39.958  26.690  28.514  1.00  0.00     0.173 A 
ATOM     81  F   UNL A   1      41.899  29.578  27.471  1.00  0.00    -0.203 F 
ATOM     82  C   UNL A   1      41.430  27.572  26.331  1.00  0.00     0.198 A 
ATOM     83  C   UNL A   1      40.100  25.879  27.390  1.00  0.00     0.198 A 
ATOM     84  F   UNL A   1      39.236  26.239  29.550  1.00  0.00    -0.203 F 
ATOM     85  F   UNL A   1      42.111  28.018  25.267  1.00  0.00    -0.200 F 
ATOM     86  C   UNL A   1      40.827  26.323  26.296  1.00  0.00     0.200 A 
ATOM     87  F   UNL A   1      39.528  24.667  27.365  1.00  0.00    -0.200 F 
ATOM     88  F   UNL A   1      40.942  25.553  25.206  1.00  0.00    -0.200 F 
ENDBRANCH  54  78
BRANCH  66  89
ATOM     89  C   UNL A   1      44.018  28.387  34.617  1.00  0.00     0.064 A 
ATOM     90  C   UNL A   1      43.831  27.175  35.297  1.00  0.00     0.173 A 
ATOM     91  C   UNL A   1      45.335  28.841  34.438  1.00  0.00     0.173 A 
ATOM     92  F   UNL A   1      42.591  26.705  35.510  1.00  0.00    -0.203 F 
ATOM     93  C   UNL A   1      44.915  26.460  35.800  1.00  0.00     0.198 A 
ATOM     94  C   UNL A   1      46.419  28.106  34.910  1.00  0.00     0.198 A 
ATOM     95  F   UNL A   1      45.572  29.990  33.788  1.00  0.00    -0.203 F 
ATOM     96  F   UNL A   1      44.708  25.331  36.491  1.00  0.00    -0.200 F 
ATOM     97  C   UNL A   1      46.208  26.921  35.597  1.00  0.00     0.200 A 
ATOM     98  F   UNL A   1      47.667  28.544  34.698  1.00  0.00    -0.200 F 
ATOM     99  F   UNL A   1      47.250  26.225  36.070  1.00  0.00    -0.200 F 
ENDBRANCH  66  89
ENDBRANCH  40  41
ENDBRANCH  32  35
ENDBRANCH  30  31
ENDBRANCH  29  30
ENDBRANCH  28  29
ENDBRANCH   1  28
TORSDOF 17
ENDMDL
