MODEL 1
REMARK VINA RESULT:     -13.1      0.000      0.000
REMARK SMILES Cc1cc([N+](=O)[O-])c(C(C)(C)C)cc1C(=O)NCCCCCCNC(=O)c1ccc(-c2c3nc(c(-c4c(F)c(F)c(F)c(F)c4F)c4ccc([nH]4)c(-c4c(F)c(F)c(F)c(F)c4F)c4nc(c(-c5c(F)c(F)c(F)c(F)c5F)c5ccc2[nH]5)C=C4)C=C3)cc1
REMARK SMILES IDX 21 1 20 2 19 3 18 4 17 5 15 6 16 7 14 9 1 10 2 11 3 12 4 13
REMARK SMILES IDX 13 14 8 15 5 16 6 17 7 18 9 19 10 20 11 21 12 22 22 23 23 24
REMARK SMILES IDX 24 25 25 26 26 28 27 29 28 30 89 31 29 32 88 33 30 34 31 35
REMARK SMILES IDX 32 36 82 37 33 38 87 39 81 40 83 41 34 42 86 43 80 44 79 45
REMARK SMILES IDX 35 47 67 48 47 49 66 50 48 51 51 52 65 53 84 54 49 55 50 56
REMARK SMILES IDX 64 58 85 59 52 60 36 61 37 62 45 63 38 64 39 65 43 66 46 67
REMARK SMILES IDX 40 68 41 69 44 70 42 71 68 72 69 73 77 74 70 75 71 76 75 77
REMARK SMILES IDX 78 78 72 79 73 80 76 81 74 82 53 83 54 84 62 85 55 86 56 87
REMARK SMILES IDX 60 88 63 89 57 90 58 91 61 92 59 93
REMARK H PARENT 17 8 24 27 83 46 51 57
REMARK Flexibility Score: inf
ROOT
ATOM      1  C   UNL A   1      32.149  29.581  25.829  1.00  0.00     0.002 C 
ENDROOT
BRANCH   1   2
ATOM      2  C   UNL A   1      33.061  28.381  25.534  1.00  0.00     0.002 C 
BRANCH   2   3
ATOM      3  C   UNL A   1      33.880  28.446  24.237  1.00  0.00     0.021 C 
BRANCH   3   4
ATOM      4  C   UNL A   1      33.103  28.880  22.984  1.00  0.00     0.116 C 
BRANCH   4   5
ATOM      5  N   UNL A   1      33.200  27.855  21.970  1.00  0.00    -0.352 N 
ATOM      6  C   UNL A   1      32.966  26.507  21.935  1.00  0.00     0.251 C 
ATOM      7  O   UNL A   1      33.250  25.946  20.873  1.00  0.00    -0.269 OA
ATOM      8  H   UNL A   1      33.506  28.207  21.102  1.00  0.00     0.163 HD
BRANCH   6   9
ATOM      9  C   UNL A   1      32.323  25.681  23.011  1.00  0.00     0.043 A 
ATOM     10  C   UNL A   1      30.115  26.959  23.363  1.00  0.00     0.045 C 
ATOM     11  C   UNL A   1      31.077  25.843  23.621  1.00  0.00    -0.032 A 
ATOM     12  C   UNL A   1      30.700  24.925  24.622  1.00  0.00     0.090 A 
ATOM     13  C   UNL A   1      31.589  23.959  25.153  1.00  0.00     0.273 A 
ATOM     14  C   UNL A   1      33.207  24.716  23.574  1.00  0.00     0.025 A 
ATOM     15  C   UNL A   1      32.923  23.889  24.697  1.00  0.00     0.036 A 
BRANCH  13  16
ATOM     16  N   UNL A   1      30.974  23.078  26.166  1.00  0.00     0.063 N 
ATOM     17  O   UNL A   1      30.698  21.923  25.803  1.00  0.00    -0.258 OA
ATOM     18  O   UNL A   1      30.719  23.521  27.288  1.00  0.00    -0.258 OA
ENDBRANCH  13  16
BRANCH  15  19
ATOM     19  C   UNL A   1      34.094  23.098  25.340  1.00  0.00    -0.006 C 
ATOM     20  C   UNL A   1      35.438  23.511  24.687  1.00  0.00     0.016 C 
ATOM     21  C   UNL A   1      34.109  23.223  26.876  1.00  0.00     0.016 C 
ATOM     22  C   UNL A   1      34.041  21.556  25.081  1.00  0.00     0.016 C 
ENDBRANCH  15  19
ENDBRANCH   6   9
ENDBRANCH   4   5
ENDBRANCH   3   4
ENDBRANCH   2   3
ENDBRANCH   1   2
BRANCH   1  23
ATOM     23  C   UNL A   1      32.686  30.603  26.833  1.00  0.00     0.021 C 
BRANCH  23  24
ATOM     24  C   UNL A   1      33.883  30.116  27.642  1.00  0.00     0.116 C 
BRANCH  24  25
ATOM     25  N   UNL A   1      34.412  31.109  28.570  1.00  0.00    -0.352 N 
ATOM     26  C   UNL A   1      35.598  31.109  29.274  1.00  0.00     0.251 C 
ATOM     27  H   UNL A   1      33.838  31.897  28.713  1.00  0.00     0.163 HD
ATOM     28  O   UNL A   1      35.853  32.023  30.055  1.00  0.00    -0.269 OA
BRANCH  26  29
ATOM     29  C   UNL A   1      36.618  30.070  29.000  1.00  0.00     0.039 A 
ATOM     30  C   UNL A   1      36.956  29.185  30.031  1.00  0.00     0.014 A 
ATOM     31  C   UNL A   1      37.341  30.066  27.810  1.00  0.00     0.014 A 
ATOM     32  C   UNL A   1      38.149  28.468  29.956  1.00  0.00     0.010 A 
ATOM     33  C   UNL A   1      38.564  29.425  27.769  1.00  0.00     0.010 A 
ATOM     34  C   UNL A   1      38.998  28.679  28.870  1.00  0.00    -0.014 A 
BRANCH  34  35
ATOM     35  C   UNL A   1      40.394  28.253  28.847  1.00  0.00     0.031 A 
ATOM     36  C   UNL A   1      40.773  26.921  28.332  1.00  0.00     0.074 A 
ATOM     37  C   UNL A   1      41.352  29.125  29.232  1.00  0.00     0.049 A 
ATOM     38  N   UNL A   1      41.893  26.333  28.592  1.00  0.00    -0.248 NA
ATOM     39  C   UNL A   1      39.886  26.124  27.495  1.00  0.00     0.031 C 
ATOM     40  C   UNL A   1      42.795  29.003  29.050  1.00  0.00     0.029 A 
ATOM     41  N   UNL A   1      41.202  30.226  30.092  1.00  0.00    -0.354 N 
ATOM     42  C   UNL A   1      41.981  25.212  27.802  1.00  0.00     0.074 A 
ATOM     43  C   UNL A   1      40.690  25.110  27.158  1.00  0.00     0.031 C 
ATOM     44  C   UNL A   1      43.409  29.740  29.989  1.00  0.00     0.029 A 
ATOM     45  C   UNL A   1      42.378  30.240  30.881  1.00  0.00     0.049 A 
ATOM     46  H   UNL A   1      40.444  30.854  30.135  1.00  0.00     0.167 HD
ATOM     47  C   UNL A   1      43.169  24.548  27.709  1.00  0.00     0.037 A 
ATOM     48  C   UNL A   1      42.318  30.016  32.226  1.00  0.00     0.037 A 
ATOM     49  C   UNL A   1      44.175  25.113  28.602  1.00  0.00     0.049 A 
ATOM     50  C   UNL A   1      43.100  28.812  32.705  1.00  0.00     0.074 A 
ATOM     51  C   UNL A   1      45.206  26.025  28.446  1.00  0.00     0.029 A 
ATOM     52  N   UNL A   1      44.008  24.954  29.965  1.00  0.00    -0.354 N 
ATOM     53  N   UNL A   1      43.672  27.946  31.916  1.00  0.00    -0.248 NA
ATOM     54  C   UNL A   1      43.202  28.435  34.116  1.00  0.00     0.031 C 
ATOM     55  C   UNL A   1      45.634  26.437  29.739  1.00  0.00     0.029 A 
ATOM     56  C   UNL A   1      44.864  25.772  30.675  1.00  0.00     0.049 A 
ATOM     57  H   UNL A   1      43.361  24.337  30.376  1.00  0.00     0.167 HD
ATOM     58  C   UNL A   1      44.161  26.911  32.667  1.00  0.00     0.074 A 
ATOM     59  C   UNL A   1      43.844  27.257  34.038  1.00  0.00     0.031 C 
ATOM     60  C   UNL A   1      44.756  25.817  32.119  1.00  0.00     0.037 A 
BRANCH  47  61
ATOM     61  C   UNL A   1      43.481  23.513  26.656  1.00  0.00     0.064 A 
ATOM     62  C   UNL A   1      43.111  22.163  26.842  1.00  0.00     0.173 A 
ATOM     63  C   UNL A   1      44.178  23.776  25.464  1.00  0.00     0.173 A 
ATOM     64  F   UNL A   1      42.360  21.780  27.883  1.00  0.00    -0.203 F 
ATOM     65  C   UNL A   1      43.506  21.150  25.966  1.00  0.00     0.198 A 
ATOM     66  C   UNL A   1      44.629  22.756  24.619  1.00  0.00     0.198 A 
ATOM     67  F   UNL A   1      44.397  25.031  25.050  1.00  0.00    -0.203 F 
ATOM     68  F   UNL A   1      43.126  19.885  26.196  1.00  0.00    -0.200 F 
ATOM     69  C   UNL A   1      44.302  21.440  24.876  1.00  0.00     0.200 A 
ATOM     70  F   UNL A   1      45.382  23.060  23.553  1.00  0.00    -0.200 F 
ATOM     71  F   UNL A   1      44.729  20.462  24.068  1.00  0.00    -0.200 F 
ENDBRANCH  47  61
BRANCH  48  72
ATOM     72  C   UNL A   1      41.047  30.493  32.838  1.00  0.00     0.064 A 
ATOM     73  C   UNL A   1      40.819  31.881  32.921  1.00  0.00     0.173 A 
ATOM     74  C   UNL A   1      39.947  29.645  32.999  1.00  0.00     0.173 A 
ATOM     75  F   UNL A   1      41.841  32.740  32.772  1.00  0.00    -0.203 F 
ATOM     76  C   UNL A   1      39.530  32.396  33.031  1.00  0.00     0.198 A 
ATOM     77  C   UNL A   1      38.660  30.165  33.135  1.00  0.00     0.198 A 
ATOM     78  F   UNL A   1      40.094  28.315  32.913  1.00  0.00    -0.203 F 
ATOM     79  F   UNL A   1      39.333  33.721  32.980  1.00  0.00    -0.200 F 
ATOM     80  C   UNL A   1      38.450  31.536  33.113  1.00  0.00     0.200 A 
ATOM     81  F   UNL A   1      37.612  29.332  33.191  1.00  0.00    -0.200 F 
ATOM     82  F   UNL A   1      37.201  32.025  33.129  1.00  0.00    -0.200 F 
ENDBRANCH  48  72
BRANCH  60  83
ATOM     83  C   UNL A   1      45.297  24.697  32.944  1.00  0.00     0.064 A 
ATOM     84  C   UNL A   1      44.519  23.576  33.265  1.00  0.00     0.173 A 
ATOM     85  C   UNL A   1      46.573  24.777  33.532  1.00  0.00     0.173 A 
ATOM     86  F   UNL A   1      43.280  23.441  32.768  1.00  0.00    -0.203 F 
ATOM     87  C   UNL A   1      45.000  22.579  34.113  1.00  0.00     0.198 A 
ATOM     88  C   UNL A   1      47.033  23.802  34.412  1.00  0.00     0.198 A 
ATOM     89  F   UNL A   1      47.403  25.793  33.250  1.00  0.00    -0.203 F 
ATOM     90  F   UNL A   1      44.245  21.502  34.368  1.00  0.00    -0.200 F 
ATOM     91  C   UNL A   1      46.250  22.699  34.698  1.00  0.00     0.200 A 
ATOM     92  F   UNL A   1      48.240  23.936  34.981  1.00  0.00    -0.200 F 
ATOM     93  F   UNL A   1      46.701  21.752  35.530  1.00  0.00    -0.200 F 
ENDBRANCH  60  83
ENDBRANCH  34  35
ENDBRANCH  26  29
ENDBRANCH  24  25
ENDBRANCH  23  24
ENDBRANCH   1  23
TORSDOF 15
ENDMDL
MODEL 2
REMARK VINA RESULT:     -12.9      3.656      9.926
REMARK SMILES Cc1cc([N+](=O)[O-])c(C(C)(C)C)cc1C(=O)NCCCCCCNC(=O)c1ccc(-c2c3nc(c(-c4c(F)c(F)c(F)c(F)c4F)c4ccc([nH]4)c(-c4c(F)c(F)c(F)c(F)c4F)c4nc(c(-c5c(F)c(F)c(F)c(F)c5F)c5ccc2[nH]5)C=C4)C=C3)cc1
REMARK SMILES IDX 21 1 20 2 19 3 18 4 17 5 15 6 16 7 14 9 1 10 2 11 3 12 4 13
REMARK SMILES IDX 13 14 8 15 5 16 6 17 7 18 9 19 10 20 11 21 12 22 22 23 23 24
REMARK SMILES IDX 24 25 25 26 26 28 27 29 28 30 89 31 29 32 88 33 30 34 31 35
REMARK SMILES IDX 32 36 82 37 33 38 87 39 81 40 83 41 34 42 86 43 80 44 79 45
REMARK SMILES IDX 35 47 67 48 47 49 66 50 48 51 51 52 65 53 84 54 49 55 50 56
REMARK SMILES IDX 64 58 85 59 52 60 36 61 37 62 45 63 38 64 39 65 43 66 46 67
REMARK SMILES IDX 40 68 41 69 44 70 42 71 68 72 69 73 77 74 70 75 71 76 75 77
REMARK SMILES IDX 78 78 72 79 73 80 76 81 74 82 53 83 54 84 62 85 55 86 56 87
REMARK SMILES IDX 60 88 63 89 57 90 58 91 61 92 59 93
REMARK H PARENT 17 8 24 27 83 46 51 57
REMARK Flexibility Score: inf
ROOT
ATOM      1  C   UNL A   1      36.764  21.556  24.634  1.00  0.00     0.002 C 
ENDROOT
BRANCH   1   2
ATOM      2  C   UNL A   1      35.486  22.237  25.142  1.00  0.00     0.002 C 
BRANCH   2   3
ATOM      3  C   UNL A   1      34.800  21.590  26.354  1.00  0.00     0.021 C 
BRANCH   3   4
ATOM      4  C   UNL A   1      34.360  22.559  27.462  1.00  0.00     0.116 C 
BRANCH   4   5
ATOM      5  N   UNL A   1      32.920  22.527  27.594  1.00  0.00    -0.352 N 
ATOM      6  C   UNL A   1      31.874  23.030  26.870  1.00  0.00     0.251 C 
ATOM      7  O   UNL A   1      30.755  22.857  27.363  1.00  0.00    -0.269 OA
ATOM      8  H   UNL A   1      32.623  22.029  28.390  1.00  0.00     0.163 HD
BRANCH   6   9
ATOM      9  C   UNL A   1      31.948  23.675  25.517  1.00  0.00     0.043 A 
ATOM     10  C   UNL A   1      32.112  21.607  23.991  1.00  0.00     0.045 C 
ATOM     11  C   UNL A   1      32.022  23.076  24.258  1.00  0.00    -0.032 A 
ATOM     12  C   UNL A   1      32.088  23.911  23.124  1.00  0.00     0.090 A 
ATOM     13  C   UNL A   1      32.255  25.314  23.212  1.00  0.00     0.273 A 
ATOM     14  C   UNL A   1      32.137  25.085  25.582  1.00  0.00     0.025 A 
ATOM     15  C   UNL A   1      32.379  25.941  24.472  1.00  0.00     0.036 A 
BRANCH  13  16
ATOM     16  N   UNL A   1      32.262  25.997  21.903  1.00  0.00     0.063 N 
ATOM     17  O   UNL A   1      33.278  25.848  21.204  1.00  0.00    -0.258 OA
ATOM     18  O   UNL A   1      31.309  26.708  21.580  1.00  0.00    -0.258 OA
ENDBRANCH  13  16
BRANCH  15  19
ATOM     19  C   UNL A   1      32.833  27.399  24.753  1.00  0.00    -0.006 C 
ATOM     20  C   UNL A   1      34.014  27.777  23.823  1.00  0.00     0.016 C 
ATOM     21  C   UNL A   1      31.663  28.400  24.675  1.00  0.00     0.016 C 
ATOM     22  C   UNL A   1      33.431  27.617  26.182  1.00  0.00     0.016 C 
ENDBRANCH  15  19
ENDBRANCH   6   9
ENDBRANCH   4   5
ENDBRANCH   3   4
ENDBRANCH   2   3
ENDBRANCH   1   2
BRANCH   1  23
ATOM     23  C   UNL A   1      37.956  21.560  25.595  1.00  0.00     0.021 C 
BRANCH  23  24
ATOM     24  C   UNL A   1      38.562  22.939  25.833  1.00  0.00     0.116 C 
BRANCH  24  25
ATOM     25  N   UNL A   1      39.990  22.913  26.126  1.00  0.00    -0.352 N 
ATOM     26  C   UNL A   1      40.810  23.922  26.587  1.00  0.00     0.251 C 
ATOM     27  H   UNL A   1      40.434  22.047  25.974  1.00  0.00     0.163 HD
ATOM     28  O   UNL A   1      42.014  23.722  26.731  1.00  0.00    -0.269 OA
BRANCH  26  29
ATOM     29  C   UNL A   1      40.221  25.210  27.022  1.00  0.00     0.039 A 
ATOM     30  C   UNL A   1      40.638  26.381  26.377  1.00  0.00     0.014 A 
ATOM     31  C   UNL A   1      39.401  25.284  28.145  1.00  0.00     0.014 A 
ATOM     32  C   UNL A   1      40.422  27.615  26.988  1.00  0.00     0.010 A 
ATOM     33  C   UNL A   1      39.260  26.495  28.796  1.00  0.00     0.010 A 
ATOM     34  C   UNL A   1      39.829  27.651  28.250  1.00  0.00    -0.014 A 
BRANCH  34  35
ATOM     35  C   UNL A   1      39.857  28.825  29.117  1.00  0.00     0.031 A 
ATOM     36  C   UNL A   1      38.816  29.868  29.017  1.00  0.00     0.074 A 
ATOM     37  C   UNL A   1      40.807  28.909  30.074  1.00  0.00     0.049 A 
ATOM     38  N   UNL A   1      38.946  31.070  29.471  1.00  0.00    -0.248 NA
ATOM     39  C   UNL A   1      37.538  29.638  28.356  1.00  0.00     0.031 C 
ATOM     40  C   UNL A   1      40.867  29.847  31.192  1.00  0.00     0.029 A 
ATOM     41  N   UNL A   1      42.063  28.279  30.083  1.00  0.00    -0.354 N 
ATOM     42  C   UNL A   1      37.726  31.697  29.374  1.00  0.00     0.074 A 
ATOM     43  C   UNL A   1      36.889  30.771  28.644  1.00  0.00     0.031 C 
ATOM     44  C   UNL A   1      42.148  29.979  31.572  1.00  0.00     0.029 A 
ATOM     45  C   UNL A   1      42.955  29.240  30.618  1.00  0.00     0.049 A 
ATOM     46  H   UNL A   1      42.277  27.365  29.782  1.00  0.00     0.167 HD
ATOM     47  C   UNL A   1      37.534  32.892  30.005  1.00  0.00     0.037 A 
ATOM     48  C   UNL A   1      43.956  29.765  29.854  1.00  0.00     0.037 A 
ATOM     49  C   UNL A   1      38.763  33.380  30.622  1.00  0.00     0.049 A 
ATOM     50  C   UNL A   1      43.890  31.266  29.664  1.00  0.00     0.074 A 
ATOM     51  C   UNL A   1      39.294  33.321  31.900  1.00  0.00     0.029 A 
ATOM     52  N   UNL A   1      39.792  33.796  29.799  1.00  0.00    -0.354 N 
ATOM     53  N   UNL A   1      42.894  32.013  30.052  1.00  0.00    -0.248 NA
ATOM     54  C   UNL A   1      44.899  32.022  28.919  1.00  0.00     0.031 C 
ATOM     55  C   UNL A   1      40.670  33.677  31.825  1.00  0.00     0.029 A 
ATOM     56  C   UNL A   1      40.968  33.955  30.505  1.00  0.00     0.049 A 
ATOM     57  H   UNL A   1      39.698  33.959  28.833  1.00  0.00     0.167 HD
ATOM     58  C   UNL A   1      43.086  33.288  29.595  1.00  0.00     0.074 A 
ATOM     59  C   UNL A   1      44.352  33.250  28.890  1.00  0.00     0.031 C 
ATOM     60  C   UNL A   1      42.181  34.285  29.784  1.00  0.00     0.037 A 
BRANCH  47  61
ATOM     61  C   UNL A   1      36.182  33.518  30.238  1.00  0.00     0.064 A 
ATOM     62  C   UNL A   1      35.429  34.028  29.158  1.00  0.00     0.173 A 
ATOM     63  C   UNL A   1      35.590  33.685  31.502  1.00  0.00     0.173 A 
ATOM     64  F   UNL A   1      35.820  33.856  27.888  1.00  0.00    -0.203 F 
ATOM     65  C   UNL A   1      34.245  34.745  29.341  1.00  0.00     0.198 A 
ATOM     66  C   UNL A   1      34.438  34.457  31.693  1.00  0.00     0.198 A 
ATOM     67  F   UNL A   1      36.076  33.063  32.585  1.00  0.00    -0.203 F 
ATOM     68  F   UNL A   1      33.574  35.207  28.276  1.00  0.00    -0.200 F 
ATOM     69  C   UNL A   1      33.771  34.996  30.613  1.00  0.00     0.200 A 
ATOM     70  F   UNL A   1      33.981  34.671  32.935  1.00  0.00    -0.200 F 
ATOM     71  F   UNL A   1      32.666  35.731  30.793  1.00  0.00    -0.200 F 
ENDBRANCH  47  61
BRANCH  48  72
ATOM     72  C   UNL A   1      44.471  28.809  28.836  1.00  0.00     0.064 A 
ATOM     73  C   UNL A   1      45.238  27.710  29.271  1.00  0.00     0.173 A 
ATOM     74  C   UNL A   1      43.940  28.757  27.544  1.00  0.00     0.173 A 
ATOM     75  F   UNL A   1      45.770  27.708  30.504  1.00  0.00    -0.203 F 
ATOM     76  C   UNL A   1      45.358  26.560  28.496  1.00  0.00     0.198 A 
ATOM     77  C   UNL A   1      44.084  27.613  26.759  1.00  0.00     0.198 A 
ATOM     78  F   UNL A   1      43.186  29.763  27.075  1.00  0.00    -0.203 F 
ATOM     79  F   UNL A   1      45.986  25.484  28.989  1.00  0.00    -0.200 F 
ATOM     80  C   UNL A   1      44.758  26.504  27.249  1.00  0.00     0.200 A 
ATOM     81  F   UNL A   1      43.485  27.550  25.562  1.00  0.00    -0.200 F 
ATOM     82  F   UNL A   1      44.794  25.369  26.537  1.00  0.00    -0.200 F 
ENDBRANCH  48  72
BRANCH  60  83
ATOM     83  C   UNL A   1      42.401  35.677  29.293  1.00  0.00     0.064 A 
ATOM     84  C   UNL A   1      41.866  36.123  28.077  1.00  0.00     0.173 A 
ATOM     85  C   UNL A   1      43.256  36.562  29.975  1.00  0.00     0.173 A 
ATOM     86  F   UNL A   1      41.064  35.327  27.352  1.00  0.00    -0.203 F 
ATOM     87  C   UNL A   1      42.154  37.394  27.580  1.00  0.00     0.198 A 
ATOM     88  C   UNL A   1      43.577  37.813  29.456  1.00  0.00     0.198 A 
ATOM     89  F   UNL A   1      43.782  36.238  31.167  1.00  0.00    -0.203 F 
ATOM     90  F   UNL A   1      41.593  37.803  26.433  1.00  0.00    -0.200 F 
ATOM     91  C   UNL A   1      43.020  38.232  28.262  1.00  0.00     0.200 A 
ATOM     92  F   UNL A   1      44.426  38.612  30.119  1.00  0.00    -0.200 F 
ATOM     93  F   UNL A   1      43.313  39.444  27.772  1.00  0.00    -0.200 F 
ENDBRANCH  60  83
ENDBRANCH  34  35
ENDBRANCH  26  29
ENDBRANCH  24  25
ENDBRANCH  23  24
ENDBRANCH   1  23
TORSDOF 15
ENDMDL
MODEL 3
REMARK VINA RESULT:     -12.9      0.907      1.513
REMARK SMILES Cc1cc([N+](=O)[O-])c(C(C)(C)C)cc1C(=O)NCCCCCCNC(=O)c1ccc(-c2c3nc(c(-c4c(F)c(F)c(F)c(F)c4F)c4ccc([nH]4)c(-c4c(F)c(F)c(F)c(F)c4F)c4nc(c(-c5c(F)c(F)c(F)c(F)c5F)c5ccc2[nH]5)C=C4)C=C3)cc1
REMARK SMILES IDX 21 1 20 2 19 3 18 4 17 5 15 6 16 7 14 9 1 10 2 11 3 12 4 13
REMARK SMILES IDX 13 14 8 15 5 16 6 17 7 18 9 19 10 20 11 21 12 22 22 23 23 24
REMARK SMILES IDX 24 25 25 26 26 28 27 29 28 30 89 31 29 32 88 33 30 34 31 35
REMARK SMILES IDX 32 36 82 37 33 38 87 39 81 40 83 41 34 42 86 43 80 44 79 45
REMARK SMILES IDX 35 47 67 48 47 49 66 50 48 51 51 52 65 53 84 54 49 55 50 56
REMARK SMILES IDX 64 58 85 59 52 60 36 61 37 62 45 63 38 64 39 65 43 66 46 67
REMARK SMILES IDX 40 68 41 69 44 70 42 71 68 72 69 73 77 74 70 75 71 76 75 77
REMARK SMILES IDX 78 78 72 79 73 80 76 81 74 82 53 83 54 84 62 85 55 86 56 87
REMARK SMILES IDX 60 88 63 89 57 90 58 91 61 92 59 93
REMARK H PARENT 17 8 24 27 83 46 51 57
REMARK Flexibility Score: inf
ROOT
ATOM      1  C   UNL A   1      33.644  28.130  26.988  1.00  0.00     0.002 C 
ENDROOT
BRANCH   1   2
ATOM      2  C   UNL A   1      33.380  27.381  25.674  1.00  0.00     0.002 C 
BRANCH   2   3
ATOM      3  C   UNL A   1      33.740  28.123  24.379  1.00  0.00     0.021 C 
BRANCH   3   4
ATOM      4  C   UNL A   1      32.586  28.314  23.383  1.00  0.00     0.116 C 
BRANCH   4   5
ATOM      5  N   UNL A   1      32.845  27.548  22.184  1.00  0.00    -0.352 N 
ATOM      6  C   UNL A   1      33.006  26.218  21.905  1.00  0.00     0.251 C 
ATOM      7  O   UNL A   1      33.303  25.953  20.736  1.00  0.00    -0.269 OA
ATOM      8  H   UNL A   1      32.924  28.114  21.382  1.00  0.00     0.163 HD
BRANCH   6   9
ATOM      9  C   UNL A   1      32.770  25.070  22.843  1.00  0.00     0.043 A 
ATOM     10  C   UNL A   1      30.349  25.533  23.592  1.00  0.00     0.045 C 
ATOM     11  C   UNL A   1      31.618  24.741  23.560  1.00  0.00    -0.032 A 
ATOM     12  C   UNL A   1      31.651  23.600  24.388  1.00  0.00     0.090 A 
ATOM     13  C   UNL A   1      32.840  22.881  24.658  1.00  0.00     0.273 A 
ATOM     14  C   UNL A   1      33.958  24.345  23.144  1.00  0.00     0.025 A 
ATOM     15  C   UNL A   1      34.069  23.299  24.103  1.00  0.00     0.036 A 
BRANCH  13  16
ATOM     16  N   UNL A   1      32.638  21.700  25.521  1.00  0.00     0.063 N 
ATOM     17  O   UNL A   1      32.214  20.672  24.968  1.00  0.00    -0.258 OA
ATOM     18  O   UNL A   1      32.845  21.787  26.733  1.00  0.00    -0.258 OA
ENDBRANCH  13  16
BRANCH  15  19
ATOM     19  C   UNL A   1      35.490  22.811  24.496  1.00  0.00    -0.006 C 
ATOM     20  C   UNL A   1      36.015  23.624  25.707  1.00  0.00     0.016 C 
ATOM     21  C   UNL A   1      35.540  21.288  24.728  1.00  0.00     0.016 C 
ATOM     22  C   UNL A   1      36.579  23.070  23.404  1.00  0.00     0.016 C 
ENDBRANCH  15  19
ENDBRANCH   6   9
ENDBRANCH   4   5
ENDBRANCH   3   4
ENDBRANCH   2   3
ENDBRANCH   1   2
BRANCH   1  23
ATOM     23  C   UNL A   1      32.925  29.471  27.153  1.00  0.00     0.021 C 
BRANCH  23  24
ATOM     24  C   UNL A   1      33.817  30.689  26.939  1.00  0.00     0.116 C 
BRANCH  24  25
ATOM     25  N   UNL A   1      34.088  31.443  28.157  1.00  0.00    -0.352 N 
ATOM     26  C   UNL A   1      35.051  31.235  29.123  1.00  0.00     0.251 C 
ATOM     27  H   UNL A   1      33.498  32.216  28.313  1.00  0.00     0.163 HD
ATOM     28  O   UNL A   1      35.096  31.956  30.117  1.00  0.00    -0.269 OA
BRANCH  26  29
ATOM     29  C   UNL A   1      36.106  30.218  28.904  1.00  0.00     0.039 A 
ATOM     30  C   UNL A   1      36.494  29.422  29.989  1.00  0.00     0.014 A 
ATOM     31  C   UNL A   1      36.810  30.156  27.705  1.00  0.00     0.014 A 
ATOM     32  C   UNL A   1      37.712  28.746  29.943  1.00  0.00     0.010 A 
ATOM     33  C   UNL A   1      38.057  29.559  27.686  1.00  0.00     0.010 A 
ATOM     34  C   UNL A   1      38.536  28.911  28.829  1.00  0.00    -0.014 A 
BRANCH  34  35
ATOM     35  C   UNL A   1      39.947  28.537  28.811  1.00  0.00     0.031 A 
ATOM     36  C   UNL A   1      40.369  27.187  28.383  1.00  0.00     0.074 A 
ATOM     37  C   UNL A   1      40.876  29.469  29.117  1.00  0.00     0.049 A 
ATOM     38  N   UNL A   1      41.515  26.661  28.663  1.00  0.00    -0.248 NA
ATOM     39  C   UNL A   1      39.501  26.300  27.620  1.00  0.00     0.031 C 
ATOM     40  C   UNL A   1      42.320  29.388  28.918  1.00  0.00     0.029 A 
ATOM     41  N   UNL A   1      40.697  30.621  29.900  1.00  0.00    -0.354 N 
ATOM     42  C   UNL A   1      41.633  25.491  27.952  1.00  0.00     0.074 A 
ATOM     43  C   UNL A   1      40.338  25.296  27.340  1.00  0.00     0.031 C 
ATOM     44  C   UNL A   1      42.919  30.212  29.793  1.00  0.00     0.029 A 
ATOM     45  C   UNL A   1      41.883  30.735  30.665  1.00  0.00     0.049 A 
ATOM     46  H   UNL A   1      39.916  31.222  29.914  1.00  0.00     0.167 HD
ATOM     47  C   UNL A   1      42.845  24.867  27.884  1.00  0.00     0.037 A 
ATOM     48  C   UNL A   1      41.853  30.604  32.024  1.00  0.00     0.037 A 
ATOM     49  C   UNL A   1      43.842  25.531  28.718  1.00  0.00     0.049 A 
ATOM     50  C   UNL A   1      42.688  29.466  32.571  1.00  0.00     0.074 A 
ATOM     51  C   UNL A   1      44.834  26.467  28.479  1.00  0.00     0.029 A 
ATOM     52  N   UNL A   1      43.702  25.462  30.090  1.00  0.00    -0.354 N 
ATOM     53  N   UNL A   1      43.281  28.568  31.834  1.00  0.00    -0.248 NA
ATOM     54  C   UNL A   1      42.826  29.193  34.004  1.00  0.00     0.031 C 
ATOM     55  C   UNL A   1      45.265  26.985  29.733  1.00  0.00     0.029 A 
ATOM     56  C   UNL A   1      44.537  26.359  30.727  1.00  0.00     0.049 A 
ATOM     57  H   UNL A   1      43.085  24.852  30.556  1.00  0.00     0.167 HD
ATOM     58  C   UNL A   1      43.821  27.609  32.646  1.00  0.00     0.074 A 
ATOM     59  C   UNL A   1      43.512  28.038  33.996  1.00  0.00     0.031 C 
ATOM     60  C   UNL A   1      44.449  26.502  32.166  1.00  0.00     0.037 A 
BRANCH  47  61
ATOM     61  C   UNL A   1      43.180  23.773  26.900  1.00  0.00     0.064 A 
ATOM     62  C   UNL A   1      42.814  22.434  27.161  1.00  0.00     0.173 A 
ATOM     63  C   UNL A   1      43.896  23.969  25.706  1.00  0.00     0.173 A 
ATOM     64  F   UNL A   1      42.048  22.109  28.210  1.00  0.00    -0.203 F 
ATOM     65  C   UNL A   1      43.230  21.373  26.354  1.00  0.00     0.198 A 
ATOM     66  C   UNL A   1      44.366  22.903  24.932  1.00  0.00     0.198 A 
ATOM     67  F   UNL A   1      44.115  25.199  25.222  1.00  0.00    -0.203 F 
ATOM     68  F   UNL A   1      42.853  20.122  26.652  1.00  0.00    -0.200 F 
ATOM     69  C   UNL A   1      44.042  21.603  25.262  1.00  0.00     0.200 A 
ATOM     70  F   UNL A   1      45.136  23.148  23.862  1.00  0.00    -0.200 F 
ATOM     71  F   UNL A   1      44.488  20.581  24.520  1.00  0.00    -0.200 F 
ENDBRANCH  47  61
BRANCH  48  72
ATOM     72  C   UNL A   1      40.574  31.074  32.624  1.00  0.00     0.064 A 
ATOM     73  C   UNL A   1      40.307  32.458  32.640  1.00  0.00     0.173 A 
ATOM     74  C   UNL A   1      39.501  30.205  32.837  1.00  0.00     0.173 A 
ATOM     75  F   UNL A   1      41.303  33.337  32.438  1.00  0.00    -0.203 F 
ATOM     76  C   UNL A   1      39.005  32.942  32.738  1.00  0.00     0.198 A 
ATOM     77  C   UNL A   1      38.200  30.694  32.961  1.00  0.00     0.198 A 
ATOM     78  F   UNL A   1      39.684  28.877  32.816  1.00  0.00    -0.203 F 
ATOM     79  F   UNL A   1      38.770  34.256  32.623  1.00  0.00    -0.200 F 
ATOM     80  C   UNL A   1      37.950  32.056  32.872  1.00  0.00     0.200 A 
ATOM     81  F   UNL A   1      37.176  29.836  33.069  1.00  0.00    -0.200 F 
ATOM     82  F   UNL A   1      36.689  32.510  32.876  1.00  0.00    -0.200 F 
ENDBRANCH  48  72
BRANCH  60  83
ATOM     83  C   UNL A   1      45.046  25.464  33.056  1.00  0.00     0.064 A 
ATOM     84  C   UNL A   1      46.434  25.308  33.180  1.00  0.00     0.173 A 
ATOM     85  C   UNL A   1      44.238  24.519  33.716  1.00  0.00     0.173 A 
ATOM     86  F   UNL A   1      47.272  26.151  32.557  1.00  0.00    -0.203 F 
ATOM     87  C   UNL A   1      46.983  24.276  33.940  1.00  0.00     0.198 A 
ATOM     88  C   UNL A   1      44.789  23.465  34.438  1.00  0.00     0.198 A 
ATOM     89  F   UNL A   1      42.899  24.613  33.688  1.00  0.00    -0.203 F 
ATOM     90  F   UNL A   1      48.314  24.180  34.069  1.00  0.00    -0.200 F 
ATOM     91  C   UNL A   1      46.162  23.347  34.557  1.00  0.00     0.200 A 
ATOM     92  F   UNL A   1      43.983  22.564  35.020  1.00  0.00    -0.200 F 
ATOM     93  F   UNL A   1      46.691  22.343  35.268  1.00  0.00    -0.200 F 
ENDBRANCH  60  83
ENDBRANCH  34  35
ENDBRANCH  26  29
ENDBRANCH  24  25
ENDBRANCH  23  24
ENDBRANCH   1  23
TORSDOF 15
ENDMDL
