MODEL 1
REMARK VINA RESULT:     -12.4      0.000      0.000
REMARK SMILES C[C@H]1C[C@@H]1c1nc(-c2ccccc2)c(CC(=O)NCCCCCCNC(=O)c2ccc(-c3c4nc(c(-c5c(F)c(F)c(F)c(F)c5F)c5ccc([nH]5)c(-c5c(F)c(F)c(F)c(F)c5F)c5nc(c(-c6c(F)c(F)c(F)c(F)c6F)c6ccc3[nH]6)C=C5)C=C4)cc2)s1
REMARK SMILES IDX 21 1 20 2 19 3 18 4 16 5 17 6 15 8 14 9 5 10 6 11 91 12 7 13
REMARK SMILES IDX 4 14 1 15 2 16 3 17 8 18 9 19 13 20 10 21 12 22 11 23 22 24
REMARK SMILES IDX 23 25 24 26 25 27 26 28 27 30 28 31 29 32 90 33 30 34 89 35
REMARK SMILES IDX 31 36 32 37 33 38 83 39 34 40 88 41 82 42 84 43 35 44 87 45
REMARK SMILES IDX 81 46 80 47 36 49 68 50 48 51 67 52 49 53 52 54 66 55 85 56
REMARK SMILES IDX 50 57 51 58 65 60 86 61 53 62 37 63 38 64 46 65 39 66 40 67
REMARK SMILES IDX 44 68 47 69 41 70 42 71 45 72 43 73 69 74 70 75 78 76 71 77
REMARK SMILES IDX 72 78 76 79 79 80 73 81 74 82 77 83 75 84 54 85 55 86 63 87
REMARK SMILES IDX 56 88 57 89 61 90 64 91 58 92 59 93 62 94 60 95
REMARK H PARENT 18 7 25 29 84 48 52 59
REMARK Flexibility Score: inf
ROOT
ATOM      1  C   UNL A   1      37.491  21.949  25.040  1.00  0.00     0.002 C 
ENDROOT
BRANCH   1   2
ATOM      2  C   UNL A   1      36.712  23.054  24.315  1.00  0.00     0.021 C 
BRANCH   2   3
ATOM      3  C   UNL A   1      35.938  23.967  25.266  1.00  0.00     0.116 C 
BRANCH   3   4
ATOM      4  N   UNL A   1      35.613  23.276  26.496  1.00  0.00    -0.356 N 
ATOM      5  C   UNL A   1      34.385  22.967  27.004  1.00  0.00     0.225 C 
ATOM      6  O   UNL A   1      34.332  22.453  28.123  1.00  0.00    -0.275 OA
ATOM      7  H   UNL A   1      36.383  22.988  27.038  1.00  0.00     0.163 HD
BRANCH   5   8
ATOM      8  C   UNL A   1      33.131  23.174  26.169  1.00  0.00     0.149 C 
BRANCH   8   9
ATOM      9  C   UNL A   1      32.891  22.072  25.181  1.00  0.00     0.042 A 
ATOM     10  C   UNL A   1      32.590  19.933  24.096  1.00  0.00     0.097 A 
ATOM     11  N   UNL A   1      32.277  20.887  23.250  1.00  0.00    -0.241 NA
ATOM     12  S   UNL A   1      33.107  20.430  25.645  1.00  0.00    -0.122 S 
ATOM     13  C   UNL A   1      32.495  22.119  23.847  1.00  0.00     0.085 A 
BRANCH  10  14
ATOM     14  C   UNL A   1      32.438  18.464  23.742  1.00  0.00     0.052 C 
ATOM     15  C   UNL A   1      33.837  16.281  23.770  1.00  0.00     0.008 C 
ATOM     16  C   UNL A   1      33.629  17.671  23.276  1.00  0.00    -0.004 C 
ATOM     17  C   UNL A   1      32.495  17.995  22.319  1.00  0.00     0.015 C 
ENDBRANCH  10  14
BRANCH  13  18
ATOM     18  C   UNL A   1      32.191  23.357  23.138  1.00  0.00     0.001 A 
ATOM     19  C   UNL A   1      33.123  23.943  22.272  1.00  0.00     0.010 A 
ATOM     20  C   UNL A   1      30.988  24.027  23.400  1.00  0.00     0.010 A 
ATOM     21  C   UNL A   1      32.892  25.215  21.745  1.00  0.00     0.001 A 
ATOM     22  C   UNL A   1      30.761  25.302  22.876  1.00  0.00     0.001 A 
ATOM     23  C   UNL A   1      31.721  25.901  22.062  1.00  0.00     0.000 A 
ENDBRANCH  13  18
ENDBRANCH   8   9
ENDBRANCH   5   8
ENDBRANCH   3   4
ENDBRANCH   2   3
ENDBRANCH   1   2
BRANCH   1  24
ATOM     24  C   UNL A   1      37.065  20.522  24.675  1.00  0.00     0.002 C 
BRANCH  24  25
ATOM     25  C   UNL A   1      38.109  19.445  24.978  1.00  0.00     0.021 C 
BRANCH  25  26
ATOM     26  C   UNL A   1      39.336  19.961  25.721  1.00  0.00     0.116 C 
BRANCH  26  27
ATOM     27  N   UNL A   1      40.346  18.925  25.884  1.00  0.00    -0.352 N 
ATOM     28  C   UNL A   1      41.697  19.058  26.077  1.00  0.00     0.251 C 
ATOM     29  H   UNL A   1      40.012  18.000  25.851  1.00  0.00     0.163 HD
ATOM     30  O   UNL A   1      42.440  18.084  25.981  1.00  0.00    -0.269 OA
BRANCH  28  31
ATOM     31  C   UNL A   1      42.260  20.387  26.386  1.00  0.00     0.039 A 
ATOM     32  C   UNL A   1      42.780  21.165  25.351  1.00  0.00     0.014 A 
ATOM     33  C   UNL A   1      42.270  20.860  27.701  1.00  0.00     0.014 A 
ATOM     34  C   UNL A   1      43.262  22.446  25.626  1.00  0.00     0.010 A 
ATOM     35  C   UNL A   1      42.676  22.164  27.960  1.00  0.00     0.010 A 
ATOM     36  C   UNL A   1      43.183  22.967  26.927  1.00  0.00    -0.014 A 
BRANCH  36  37
ATOM     37  C   UNL A   1      43.648  24.341  27.246  1.00  0.00     0.031 A 
ATOM     38  C   UNL A   1      42.666  25.357  27.760  1.00  0.00     0.074 A 
ATOM     39  C   UNL A   1      44.924  24.693  27.001  1.00  0.00     0.049 A 
ATOM     40  N   UNL A   1      42.835  26.636  27.981  1.00  0.00    -0.248 NA
ATOM     41  C   UNL A   1      41.303  24.876  28.037  1.00  0.00     0.031 C 
ATOM     42  C   UNL A   1      45.962  23.806  26.474  1.00  0.00     0.029 A 
ATOM     43  N   UNL A   1      45.562  25.900  27.147  1.00  0.00    -0.354 N 
ATOM     44  C   UNL A   1      41.601  27.112  28.404  1.00  0.00     0.074 A 
ATOM     45  C   UNL A   1      40.678  25.999  28.355  1.00  0.00     0.031 C 
ATOM     46  C   UNL A   1      47.109  24.493  26.356  1.00  0.00     0.029 A 
ATOM     47  C   UNL A   1      46.878  25.879  26.752  1.00  0.00     0.049 A 
ATOM     48  H   UNL A   1      45.119  26.705  27.500  1.00  0.00     0.167 HD
ATOM     49  C   UNL A   1      41.273  28.359  28.819  1.00  0.00     0.037 A 
ATOM     50  C   UNL A   1      47.788  26.870  26.700  1.00  0.00     0.037 A 
ATOM     51  C   UNL A   1      42.201  29.457  28.885  1.00  0.00     0.049 A 
ATOM     52  C   UNL A   1      47.389  28.255  27.138  1.00  0.00     0.074 A 
ATOM     53  C   UNL A   1      41.980  30.747  29.331  1.00  0.00     0.029 A 
ATOM     54  N   UNL A   1      43.531  29.391  28.494  1.00  0.00    -0.354 N 
ATOM     55  N   UNL A   1      46.232  28.682  27.587  1.00  0.00    -0.248 NA
ATOM     56  C   UNL A   1      48.422  29.297  27.069  1.00  0.00     0.031 C 
ATOM     57  C   UNL A   1      43.160  31.477  29.161  1.00  0.00     0.029 A 
ATOM     58  C   UNL A   1      44.136  30.624  28.671  1.00  0.00     0.049 A 
ATOM     59  H   UNL A   1      43.978  28.586  28.144  1.00  0.00     0.167 HD
ATOM     60  C   UNL A   1      46.412  30.025  27.892  1.00  0.00     0.074 A 
ATOM     61  C   UNL A   1      47.791  30.341  27.584  1.00  0.00     0.031 C 
ATOM     62  C   UNL A   1      45.517  30.915  28.385  1.00  0.00     0.037 A 
BRANCH  49  63
ATOM     63  C   UNL A   1      39.851  28.603  29.235  1.00  0.00     0.064 A 
ATOM     64  C   UNL A   1      39.421  28.381  30.553  1.00  0.00     0.173 A 
ATOM     65  C   UNL A   1      38.917  29.109  28.319  1.00  0.00     0.173 A 
ATOM     66  F   UNL A   1      40.271  27.888  31.467  1.00  0.00    -0.203 F 
ATOM     67  C   UNL A   1      38.103  28.627  30.929  1.00  0.00     0.198 A 
ATOM     68  C   UNL A   1      37.608  29.386  28.707  1.00  0.00     0.198 A 
ATOM     69  F   UNL A   1      39.275  29.345  27.047  1.00  0.00    -0.203 F 
ATOM     70  F   UNL A   1      37.704  28.359  32.180  1.00  0.00    -0.200 F 
ATOM     71  C   UNL A   1      37.200  29.138  30.008  1.00  0.00     0.200 A 
ATOM     72  F   UNL A   1      36.742  29.894  27.819  1.00  0.00    -0.200 F 
ATOM     73  F   UNL A   1      35.935  29.386  30.374  1.00  0.00    -0.200 F 
ENDBRANCH  49  63
BRANCH  50  74
ATOM     74  C   UNL A   1      49.171  26.595  26.227  1.00  0.00     0.064 A 
ATOM     75  C   UNL A   1      50.144  26.090  27.102  1.00  0.00     0.173 A 
ATOM     76  C   UNL A   1      49.558  26.854  24.903  1.00  0.00     0.173 A 
ATOM     77  F   UNL A   1      49.828  25.844  28.382  1.00  0.00    -0.203 F 
ATOM     78  C   UNL A   1      51.456  25.885  26.681  1.00  0.00     0.198 A 
ATOM     79  C   UNL A   1      50.863  26.618  24.476  1.00  0.00     0.198 A 
ATOM     80  F   UNL A   1      48.667  27.331  24.023  1.00  0.00    -0.203 F 
ATOM     81  F   UNL A   1      52.378  25.459  27.555  1.00  0.00    -0.200 F 
ATOM     82  C   UNL A   1      51.813  26.145  25.367  1.00  0.00     0.200 A 
ATOM     83  F   UNL A   1      51.201  26.854  23.201  1.00  0.00    -0.200 F 
ATOM     84  F   UNL A   1      53.077  25.950  24.963  1.00  0.00    -0.200 F 
ENDBRANCH  50  74
BRANCH  62  85
ATOM     85  C   UNL A   1      46.012  32.301  28.687  1.00  0.00     0.064 A 
ATOM     86  C   UNL A   1      45.943  33.336  27.744  1.00  0.00     0.173 A 
ATOM     87  C   UNL A   1      46.513  32.606  29.962  1.00  0.00     0.173 A 
ATOM     88  F   UNL A   1      45.486  33.094  26.507  1.00  0.00    -0.203 F 
ATOM     89  C   UNL A   1      46.383  34.620  28.059  1.00  0.00     0.198 A 
ATOM     90  C   UNL A   1      46.919  33.898  30.284  1.00  0.00     0.198 A 
ATOM     91  F   UNL A   1      46.592  31.654  30.904  1.00  0.00    -0.203 F 
ATOM     92  F   UNL A   1      46.354  35.583  27.126  1.00  0.00    -0.200 F 
ATOM     93  C   UNL A   1      46.860  34.901  29.330  1.00  0.00     0.200 A 
ATOM     94  F   UNL A   1      47.364  34.172  31.518  1.00  0.00    -0.200 F 
ATOM     95  F   UNL A   1      47.270  36.141  29.633  1.00  0.00    -0.200 F 
ENDBRANCH  62  85
ENDBRANCH  36  37
ENDBRANCH  28  31
ENDBRANCH  26  27
ENDBRANCH  25  26
ENDBRANCH  24  25
ENDBRANCH   1  24
TORSDOF 16
ENDMDL
MODEL 2
REMARK VINA RESULT:     -12.3      6.693     11.304
REMARK SMILES C[C@H]1C[C@@H]1c1nc(-c2ccccc2)c(CC(=O)NCCCCCCNC(=O)c2ccc(-c3c4nc(c(-c5c(F)c(F)c(F)c(F)c5F)c5ccc([nH]5)c(-c5c(F)c(F)c(F)c(F)c5F)c5nc(c(-c6c(F)c(F)c(F)c(F)c6F)c6ccc3[nH]6)C=C5)C=C4)cc2)s1
REMARK SMILES IDX 21 1 20 2 19 3 18 4 16 5 17 6 15 8 14 9 5 10 6 11 91 12 7 13
REMARK SMILES IDX 4 14 1 15 2 16 3 17 8 18 9 19 13 20 10 21 12 22 11 23 22 24
REMARK SMILES IDX 23 25 24 26 25 27 26 28 27 30 28 31 29 32 90 33 30 34 89 35
REMARK SMILES IDX 31 36 32 37 33 38 83 39 34 40 88 41 82 42 84 43 35 44 87 45
REMARK SMILES IDX 81 46 80 47 36 49 68 50 48 51 67 52 49 53 52 54 66 55 85 56
REMARK SMILES IDX 50 57 51 58 65 60 86 61 53 62 37 63 38 64 46 65 39 66 40 67
REMARK SMILES IDX 44 68 47 69 41 70 42 71 45 72 43 73 69 74 70 75 78 76 71 77
REMARK SMILES IDX 72 78 76 79 79 80 73 81 74 82 77 83 75 84 54 85 55 86 63 87
REMARK SMILES IDX 56 88 57 89 61 90 64 91 58 92 59 93 62 94 60 95
REMARK H PARENT 18 7 25 29 84 48 52 59
REMARK Flexibility Score: inf
ROOT
ATOM      1  C   UNL A   1      34.306  32.327  29.009  1.00  0.00     0.002 C 
ENDROOT
BRANCH   1   2
ATOM      2  C   UNL A   1      34.824  31.296  27.998  1.00  0.00     0.021 C 
BRANCH   2   3
ATOM      3  C   UNL A   1      33.730  30.758  27.076  1.00  0.00     0.116 C 
BRANCH   3   4
ATOM      4  N   UNL A   1      32.973  29.711  27.728  1.00  0.00    -0.356 N 
ATOM      5  C   UNL A   1      32.475  28.557  27.197  1.00  0.00     0.225 C 
ATOM      6  O   UNL A   1      31.772  27.843  27.914  1.00  0.00    -0.275 OA
ATOM      7  H   UNL A   1      32.794  29.850  28.686  1.00  0.00     0.163 HD
BRANCH   5   8
ATOM      8  C   UNL A   1      32.855  28.131  25.788  1.00  0.00     0.149 C 
BRANCH   8   9
ATOM      9  C   UNL A   1      31.756  28.345  24.789  1.00  0.00     0.042 A 
ATOM     10  C   UNL A   1      30.052  29.289  23.359  1.00  0.00     0.097 A 
ATOM     11  N   UNL A   1      30.230  28.030  23.035  1.00  0.00    -0.241 NA
ATOM     12  S   UNL A   1      31.011  29.887  24.639  1.00  0.00    -0.122 S 
ATOM     13  C   UNL A   1      31.169  27.466  23.883  1.00  0.00     0.085 A 
BRANCH  10  14
ATOM     14  C   UNL A   1      29.095  30.188  22.595  1.00  0.00     0.052 C 
ATOM     15  C   UNL A   1      28.508  32.706  22.386  1.00  0.00     0.008 C 
ATOM     16  C   UNL A   1      28.605  31.469  23.213  1.00  0.00    -0.004 C 
ATOM     17  C   UNL A   1      27.654  30.307  22.989  1.00  0.00     0.015 C 
ENDBRANCH  10  14
BRANCH  13  18
ATOM     18  C   UNL A   1      31.585  26.077  23.719  1.00  0.00     0.001 A 
ATOM     19  C   UNL A   1      32.857  25.755  23.228  1.00  0.00     0.010 A 
ATOM     20  C   UNL A   1      30.665  25.046  23.960  1.00  0.00     0.010 A 
ATOM     21  C   UNL A   1      33.174  24.435  22.905  1.00  0.00     0.001 A 
ATOM     22  C   UNL A   1      30.983  23.726  23.631  1.00  0.00     0.001 A 
ATOM     23  C   UNL A   1      32.232  23.424  23.089  1.00  0.00     0.000 A 
ENDBRANCH  13  18
ENDBRANCH   8   9
ENDBRANCH   5   8
ENDBRANCH   3   4
ENDBRANCH   2   3
ENDBRANCH   1   2
BRANCH   1  24
ATOM     24  C   UNL A   1      34.425  33.786  28.551  1.00  0.00     0.002 C 
BRANCH  24  25
ATOM     25  C   UNL A   1      33.162  34.626  28.754  1.00  0.00     0.021 C 
BRANCH  25  26
ATOM     26  C   UNL A   1      33.427  36.020  29.312  1.00  0.00     0.116 C 
BRANCH  26  27
ATOM     27  N   UNL A   1      32.528  36.344  30.410  1.00  0.00    -0.352 N 
ATOM     28  C   UNL A   1      32.538  35.884  31.701  1.00  0.00     0.251 C 
ATOM     29  H   UNL A   1      31.811  36.984  30.194  1.00  0.00     0.163 HD
ATOM     30  O   UNL A   1      31.582  36.091  32.445  1.00  0.00    -0.269 OA
BRANCH  28  31
ATOM     31  C   UNL A   1      33.702  35.121  32.191  1.00  0.00     0.039 A 
ATOM     32  C   UNL A   1      33.514  33.824  32.673  1.00  0.00     0.014 A 
ATOM     33  C   UNL A   1      34.978  35.690  32.171  1.00  0.00     0.014 A 
ATOM     34  C   UNL A   1      34.618  33.075  33.085  1.00  0.00     0.010 A 
ATOM     35  C   UNL A   1      36.083  34.917  32.506  1.00  0.00     0.010 A 
ATOM     36  C   UNL A   1      35.913  33.604  32.974  1.00  0.00    -0.014 A 
BRANCH  36  37
ATOM     37  C   UNL A   1      37.112  32.818  33.364  1.00  0.00     0.031 A 
ATOM     38  C   UNL A   1      37.814  33.126  34.658  1.00  0.00     0.074 A 
ATOM     39  C   UNL A   1      37.609  31.890  32.526  1.00  0.00     0.049 A 
ATOM     40  N   UNL A   1      38.939  32.648  35.125  1.00  0.00    -0.248 NA
ATOM     41  C   UNL A   1      37.179  34.127  35.531  1.00  0.00     0.031 C 
ATOM     42  C   UNL A   1      37.034  31.524  31.230  1.00  0.00     0.029 A 
ATOM     43  N   UNL A   1      38.723  31.095  32.631  1.00  0.00    -0.354 N 
ATOM     44  C   UNL A   1      39.153  33.300  36.331  1.00  0.00     0.074 A 
ATOM     45  C   UNL A   1      38.074  34.249  36.499  1.00  0.00     0.031 C 
ATOM     46  C   UNL A   1      37.791  30.566  30.669  1.00  0.00     0.029 A 
ATOM     47  C   UNL A   1      38.928  30.285  31.540  1.00  0.00     0.049 A 
ATOM     48  H   UNL A   1      39.320  31.105  33.415  1.00  0.00     0.167 HD
ATOM     49  C   UNL A   1      40.149  33.109  37.231  1.00  0.00     0.037 A 
ATOM     50  C   UNL A   1      39.930  29.427  31.269  1.00  0.00     0.037 A 
ATOM     51  C   UNL A   1      41.208  32.149  37.068  1.00  0.00     0.049 A 
ATOM     52  C   UNL A   1      41.040  29.255  32.272  1.00  0.00     0.074 A 
ATOM     53  C   UNL A   1      42.239  31.848  37.939  1.00  0.00     0.029 A 
ATOM     54  N   UNL A   1      41.371  31.333  35.957  1.00  0.00    -0.354 N 
ATOM     55  N   UNL A   1      41.205  29.839  33.435  1.00  0.00    -0.248 NA
ATOM     56  C   UNL A   1      42.102  28.300  31.928  1.00  0.00     0.031 C 
ATOM     57  C   UNL A   1      43.056  30.887  37.335  1.00  0.00     0.029 A 
ATOM     58  C   UNL A   1      42.497  30.542  36.114  1.00  0.00     0.049 A 
ATOM     59  H   UNL A   1      40.773  31.318  35.175  1.00  0.00     0.167 HD
ATOM     60  C   UNL A   1      42.360  29.292  33.977  1.00  0.00     0.074 A 
ATOM     61  C   UNL A   1      42.853  28.324  33.020  1.00  0.00     0.031 C 
ATOM     62  C   UNL A   1      42.959  29.564  35.163  1.00  0.00     0.037 A 
BRANCH  49  63
ATOM     63  C   UNL A   1      40.137  33.953  38.473  1.00  0.00     0.064 A 
ATOM     64  C   UNL A   1      39.436  33.561  39.624  1.00  0.00     0.173 A 
ATOM     65  C   UNL A   1      40.873  35.146  38.530  1.00  0.00     0.173 A 
ATOM     66  F   UNL A   1      38.707  32.433  39.619  1.00  0.00    -0.203 F 
ATOM     67  C   UNL A   1      39.447  34.345  40.774  1.00  0.00     0.198 A 
ATOM     68  C   UNL A   1      40.910  35.911  39.693  1.00  0.00     0.198 A 
ATOM     69  F   UNL A   1      41.567  35.566  37.461  1.00  0.00    -0.203 F 
ATOM     70  F   UNL A   1      38.729  33.975  41.843  1.00  0.00    -0.200 F 
ATOM     71  C   UNL A   1      40.192  35.515  40.811  1.00  0.00     0.200 A 
ATOM     72  F   UNL A   1      41.642  37.033  39.732  1.00  0.00    -0.200 F 
ATOM     73  F   UNL A   1      40.212  36.263  41.922  1.00  0.00    -0.200 F 
ENDBRANCH  49  63
BRANCH  50  74
ATOM     74  C   UNL A   1      39.930  28.652  29.999  1.00  0.00     0.064 A 
ATOM     75  C   UNL A   1      39.356  27.374  29.936  1.00  0.00     0.173 A 
ATOM     76  C   UNL A   1      40.522  29.157  28.832  1.00  0.00     0.173 A 
ATOM     77  F   UNL A   1      38.794  26.839  31.030  1.00  0.00    -0.203 F 
ATOM     78  C   UNL A   1      39.404  26.618  28.767  1.00  0.00     0.198 A 
ATOM     79  C   UNL A   1      40.541  28.413  27.654  1.00  0.00     0.198 A 
ATOM     80  F   UNL A   1      41.079  30.377  28.834  1.00  0.00    -0.203 F 
ATOM     81  F   UNL A   1      38.902  25.376  28.754  1.00  0.00    -0.200 F 
ATOM     82  C   UNL A   1      39.993  27.140  27.625  1.00  0.00     0.200 A 
ATOM     83  F   UNL A   1      41.095  28.928  26.548  1.00  0.00    -0.200 F 
ATOM     84  F   UNL A   1      40.041  26.412  26.501  1.00  0.00    -0.200 F 
ENDBRANCH  50  74
BRANCH  62  85
ATOM     85  C   UNL A   1      44.176  28.763  35.526  1.00  0.00     0.064 A 
ATOM     86  C   UNL A   1      45.471  29.189  35.200  1.00  0.00     0.173 A 
ATOM     87  C   UNL A   1      44.040  27.574  36.260  1.00  0.00     0.173 A 
ATOM     88  F   UNL A   1      45.654  30.310  34.487  1.00  0.00    -0.203 F 
ATOM     89  C   UNL A   1      46.584  28.441  35.573  1.00  0.00     0.198 A 
ATOM     90  C   UNL A   1      45.157  26.848  36.662  1.00  0.00     0.198 A 
ATOM     91  F   UNL A   1      42.825  27.126  36.606  1.00  0.00    -0.203 F 
ATOM     92  F   UNL A   1      47.811  28.841  35.209  1.00  0.00    -0.200 F 
ATOM     93  C   UNL A   1      46.428  27.278  36.312  1.00  0.00     0.200 A 
ATOM     94  F   UNL A   1      45.004  25.733  37.390  1.00  0.00    -0.200 F 
ATOM     95  F   UNL A   1      47.502  26.567  36.681  1.00  0.00    -0.200 F 
ENDBRANCH  62  85
ENDBRANCH  36  37
ENDBRANCH  28  31
ENDBRANCH  26  27
ENDBRANCH  25  26
ENDBRANCH  24  25
ENDBRANCH   1  24
TORSDOF 16
ENDMDL
MODEL 3
REMARK VINA RESULT:     -12.3      5.933     11.241
REMARK SMILES C[C@H]1C[C@@H]1c1nc(-c2ccccc2)c(CC(=O)NCCCCCCNC(=O)c2ccc(-c3c4nc(c(-c5c(F)c(F)c(F)c(F)c5F)c5ccc([nH]5)c(-c5c(F)c(F)c(F)c(F)c5F)c5nc(c(-c6c(F)c(F)c(F)c(F)c6F)c6ccc3[nH]6)C=C5)C=C4)cc2)s1
REMARK SMILES IDX 21 1 20 2 19 3 18 4 16 5 17 6 15 8 14 9 5 10 6 11 91 12 7 13
REMARK SMILES IDX 4 14 1 15 2 16 3 17 8 18 9 19 13 20 10 21 12 22 11 23 22 24
REMARK SMILES IDX 23 25 24 26 25 27 26 28 27 30 28 31 29 32 90 33 30 34 89 35
REMARK SMILES IDX 31 36 32 37 33 38 83 39 34 40 88 41 82 42 84 43 35 44 87 45
REMARK SMILES IDX 81 46 80 47 36 49 68 50 48 51 67 52 49 53 52 54 66 55 85 56
REMARK SMILES IDX 50 57 51 58 65 60 86 61 53 62 37 63 38 64 46 65 39 66 40 67
REMARK SMILES IDX 44 68 47 69 41 70 42 71 45 72 43 73 69 74 70 75 78 76 71 77
REMARK SMILES IDX 72 78 76 79 79 80 73 81 74 82 77 83 75 84 54 85 55 86 63 87
REMARK SMILES IDX 56 88 57 89 61 90 64 91 58 92 59 93 62 94 60 95
REMARK H PARENT 18 7 25 29 84 48 52 59
REMARK Flexibility Score: inf
ROOT
ATOM      1  C   UNL A   1      31.772  29.525  26.889  1.00  0.00     0.002 C 
ENDROOT
BRANCH   1   2
ATOM      2  C   UNL A   1      33.253  29.204  27.132  1.00  0.00     0.021 C 
BRANCH   2   3
ATOM      3  C   UNL A   1      33.802  28.146  26.175  1.00  0.00     0.116 C 
BRANCH   3   4
ATOM      4  N   UNL A   1      34.189  28.740  24.913  1.00  0.00    -0.356 N 
ATOM      5  C   UNL A   1      33.958  28.286  23.647  1.00  0.00     0.225 C 
ATOM      6  O   UNL A   1      34.460  28.905  22.707  1.00  0.00    -0.275 OA
ATOM      7  H   UNL A   1      34.684  29.589  24.976  1.00  0.00     0.163 HD
BRANCH   5   8
ATOM      8  C   UNL A   1      33.034  27.102  23.410  1.00  0.00     0.149 C 
BRANCH   8   9
ATOM      9  C   UNL A   1      31.585  27.487  23.344  1.00  0.00     0.042 A 
ATOM     10  C   UNL A   1      29.480  28.584  22.895  1.00  0.00     0.097 A 
ATOM     11  N   UNL A   1      29.243  27.428  23.469  1.00  0.00    -0.241 NA
ATOM     12  S   UNL A   1      31.119  28.986  22.642  1.00  0.00    -0.122 S 
ATOM     13  C   UNL A   1      30.446  26.814  23.777  1.00  0.00     0.085 A 
BRANCH  10  14
ATOM     14  C   UNL A   1      28.356  29.489  22.418  1.00  0.00     0.052 C 
ATOM     15  C   UNL A   1      28.012  31.556  20.890  1.00  0.00     0.008 C 
ATOM     16  C   UNL A   1      28.633  30.932  22.092  1.00  0.00    -0.004 C 
ATOM     17  C   UNL A   1      27.790  30.561  23.300  1.00  0.00     0.015 C 
ENDBRANCH  10  14
BRANCH  13  18
ATOM     18  C   UNL A   1      30.474  25.491  24.391  1.00  0.00     0.001 A 
ATOM     19  C   UNL A   1      30.375  25.336  25.781  1.00  0.00     0.010 A 
ATOM     20  C   UNL A   1      30.706  24.362  23.594  1.00  0.00     0.010 A 
ATOM     21  C   UNL A   1      30.586  24.087  26.367  1.00  0.00     0.001 A 
ATOM     22  C   UNL A   1      30.922  23.113  24.182  1.00  0.00     0.001 A 
ATOM     23  C   UNL A   1      30.877  22.981  25.570  1.00  0.00     0.000 A 
ENDBRANCH  13  18
ENDBRANCH   8   9
ENDBRANCH   5   8
ENDBRANCH   3   4
ENDBRANCH   2   3
ENDBRANCH   1   2
BRANCH   1  24
ATOM     24  C   UNL A   1      31.521  30.783  26.048  1.00  0.00     0.002 C 
BRANCH  24  25
ATOM     25  C   UNL A   1      31.382  32.075  26.856  1.00  0.00     0.021 C 
BRANCH  25  26
ATOM     26  C   UNL A   1      32.664  32.894  26.943  1.00  0.00     0.116 C 
BRANCH  26  27
ATOM     27  N   UNL A   1      32.436  34.197  27.552  1.00  0.00    -0.352 N 
ATOM     28  C   UNL A   1      33.043  34.758  28.646  1.00  0.00     0.251 C 
ATOM     29  H   UNL A   1      31.749  34.752  27.118  1.00  0.00     0.163 HD
ATOM     30  O   UNL A   1      32.585  35.776  29.159  1.00  0.00    -0.269 OA
BRANCH  28  31
ATOM     31  C   UNL A   1      34.245  34.121  29.216  1.00  0.00     0.039 A 
ATOM     32  C   UNL A   1      35.507  34.579  28.833  1.00  0.00     0.014 A 
ATOM     33  C   UNL A   1      34.121  33.071  30.131  1.00  0.00     0.014 A 
ATOM     34  C   UNL A   1      36.648  34.020  29.411  1.00  0.00     0.010 A 
ATOM     35  C   UNL A   1      35.253  32.571  30.763  1.00  0.00     0.010 A 
ATOM     36  C   UNL A   1      36.529  33.035  30.404  1.00  0.00    -0.014 A 
BRANCH  36  37
ATOM     37  C   UNL A   1      37.721  32.450  31.068  1.00  0.00     0.031 A 
ATOM     38  C   UNL A   1      38.476  31.337  30.396  1.00  0.00     0.074 A 
ATOM     39  C   UNL A   1      38.075  32.863  32.300  1.00  0.00     0.049 A 
ATOM     40  N   UNL A   1      39.462  30.608  30.854  1.00  0.00    -0.248 NA
ATOM     41  C   UNL A   1      38.046  30.977  29.035  1.00  0.00     0.031 C 
ATOM     42  C   UNL A   1      37.402  33.912  33.067  1.00  0.00     0.029 A 
ATOM     43  N   UNL A   1      39.080  32.435  33.132  1.00  0.00    -0.354 N 
ATOM     44  C   UNL A   1      39.756  29.697  29.848  1.00  0.00     0.074 A 
ATOM     45  C   UNL A   1      38.809  29.924  28.778  1.00  0.00     0.031 C 
ATOM     46  C   UNL A   1      38.022  34.057  34.249  1.00  0.00     0.029 A 
ATOM     47  C   UNL A   1      39.104  33.082  34.344  1.00  0.00     0.049 A 
ATOM     48  H   UNL A   1      39.722  31.731  32.884  1.00  0.00     0.167 HD
ATOM     49  C   UNL A   1      40.742  28.769  29.810  1.00  0.00     0.037 A 
ATOM     50  C   UNL A   1      39.898  32.893  35.415  1.00  0.00     0.037 A 
ATOM     51  C   UNL A   1      41.694  28.561  30.868  1.00  0.00     0.049 A 
ATOM     52  C   UNL A   1      40.968  31.834  35.358  1.00  0.00     0.074 A 
ATOM     53  C   UNL A   1      42.757  27.677  30.910  1.00  0.00     0.029 A 
ATOM     54  N   UNL A   1      41.698  29.249  32.073  1.00  0.00    -0.354 N 
ATOM     55  N   UNL A   1      41.271  31.014  34.381  1.00  0.00    -0.248 NA
ATOM     56  C   UNL A   1      41.810  31.678  36.551  1.00  0.00     0.031 C 
ATOM     57  C   UNL A   1      43.373  27.792  32.160  1.00  0.00     0.029 A 
ATOM     58  C   UNL A   1      42.734  28.794  32.873  1.00  0.00     0.049 A 
ATOM     59  H   UNL A   1      41.059  29.956  32.323  1.00  0.00     0.167 HD
ATOM     60  C   UNL A   1      42.362  30.278  34.824  1.00  0.00     0.074 A 
ATOM     61  C   UNL A   1      42.672  30.753  36.156  1.00  0.00     0.031 C 
ATOM     62  C   UNL A   1      43.046  29.298  34.186  1.00  0.00     0.037 A 
BRANCH  49  63
ATOM     63  C   UNL A   1      40.843  27.909  28.583  1.00  0.00     0.064 A 
ATOM     64  C   UNL A   1      40.144  26.696  28.474  1.00  0.00     0.173 A 
ATOM     65  C   UNL A   1      41.610  28.322  27.484  1.00  0.00     0.173 A 
ATOM     66  F   UNL A   1      39.403  26.249  29.500  1.00  0.00    -0.203 F 
ATOM     67  C   UNL A   1      40.233  25.917  27.324  1.00  0.00     0.198 A 
ATOM     68  C   UNL A   1      41.671  27.557  26.322  1.00  0.00     0.198 A 
ATOM     69  F   UNL A   1      42.295  29.475  27.531  1.00  0.00    -0.203 F 
ATOM     70  F   UNL A   1      39.597  24.739  27.263  1.00  0.00    -0.200 F 
ATOM     71  C   UNL A   1      40.990  26.352  26.245  1.00  0.00     0.200 A 
ATOM     72  F   UNL A   1      42.390  27.987  25.275  1.00  0.00    -0.200 F 
ATOM     73  F   UNL A   1      41.066  25.607  25.134  1.00  0.00    -0.200 F 
ENDBRANCH  49  63
BRANCH  50  74
ATOM     74  C   UNL A   1      39.726  33.731  36.632  1.00  0.00     0.064 A 
ATOM     75  C   UNL A   1      38.892  33.316  37.681  1.00  0.00     0.173 A 
ATOM     76  C   UNL A   1      40.366  34.973  36.764  1.00  0.00     0.173 A 
ATOM     77  F   UNL A   1      38.243  32.146  37.595  1.00  0.00    -0.203 F 
ATOM     78  C   UNL A   1      38.681  34.122  38.797  1.00  0.00     0.198 A 
ATOM     79  C   UNL A   1      40.179  35.764  37.896  1.00  0.00     0.198 A 
ATOM     80  F   UNL A   1      41.179  35.416  35.794  1.00  0.00    -0.203 F 
ATOM     81  F   UNL A   1      37.831  33.726  39.755  1.00  0.00    -0.200 F 
ATOM     82  C   UNL A   1      39.327  35.343  38.905  1.00  0.00     0.200 A 
ATOM     83  F   UNL A   1      40.819  36.936  38.005  1.00  0.00    -0.200 F 
ATOM     84  F   UNL A   1      39.121  36.120  39.979  1.00  0.00    -0.200 F 
ENDBRANCH  50  74
BRANCH  62  85
ATOM     85  C   UNL A   1      44.241  28.715  34.886  1.00  0.00     0.064 A 
ATOM     86  C   UNL A   1      44.146  27.571  35.690  1.00  0.00     0.173 A 
ATOM     87  C   UNL A   1      45.510  29.287  34.703  1.00  0.00     0.173 A 
ATOM     88  F   UNL A   1      42.955  26.996  35.908  1.00  0.00    -0.203 F 
ATOM     89  C   UNL A   1      45.274  27.035  36.306  1.00  0.00     0.198 A 
ATOM     90  C   UNL A   1      46.640  28.728  35.292  1.00  0.00     0.198 A 
ATOM     91  F   UNL A   1      45.657  30.377  33.936  1.00  0.00    -0.203 F 
ATOM     92  F   UNL A   1      45.154  25.969  37.110  1.00  0.00    -0.200 F 
ATOM     93  C   UNL A   1      46.521  27.607  36.098  1.00  0.00     0.200 A 
ATOM     94  F   UNL A   1      47.846  29.273  35.076  1.00  0.00    -0.200 F 
ATOM     95  F   UNL A   1      47.606  27.081  36.682  1.00  0.00    -0.200 F 
ENDBRANCH  62  85
ENDBRANCH  36  37
ENDBRANCH  28  31
ENDBRANCH  26  27
ENDBRANCH  25  26
ENDBRANCH  24  25
ENDBRANCH   1  24
TORSDOF 16
ENDMDL
