MODEL 1
REMARK VINA RESULT:     -12.0      0.000      0.000
REMARK SMILES C[C@@H](C(=O)NCCCCCCNC(=O)c1ccc(-c2c3nc(c(-c4c(F)c(F)c(F)c(F)c4F)c4ccc([nH]4)c(-c4c(F)c(F)c(F)c(F)c4F)c4nc(c(-c5c(F)c(F)c(F)c(F)c5F)c5ccc2[nH]5)C=C4)C=C3)cc1)[C@@H](C)c1ccc(OC(F)(F)F)cc1
REMARK SMILES IDX 7 1 6 2 5 3 3 4 4 5 2 7 1 8 78 9 79 10 80 11 81 12 90 13
REMARK SMILES IDX 82 14 89 15 83 16 84 17 85 18 86 19 87 20 88 21 8 22 9 23
REMARK SMILES IDX 10 24 11 25 12 26 13 27 14 29 15 30 16 31 77 32 17 33 76 34
REMARK SMILES IDX 18 35 19 36 20 37 70 38 21 39 75 40 69 41 71 42 22 43 74 44
REMARK SMILES IDX 68 45 67 46 23 48 55 49 35 50 54 51 36 52 39 53 53 54 72 55
REMARK SMILES IDX 37 56 38 57 52 59 73 60 40 61 24 62 25 63 33 64 26 65 27 66
REMARK SMILES IDX 31 67 34 68 28 69 29 70 32 71 30 72 56 73 57 74 65 75 58 76
REMARK SMILES IDX 59 77 63 78 66 79 60 80 61 81 64 82 62 83 41 84 42 85 50 86
REMARK SMILES IDX 43 87 44 88 48 89 51 90 45 91 46 92 49 93 47 94
REMARK H PARENT 5 6 12 28 71 47 39 58
REMARK Flexibility Score: inf
ROOT
ATOM      1  C   UNL A   1      33.859  28.965  26.070  1.00  0.00     0.021 C 
ENDROOT
BRANCH   1   2
ATOM      2  C   UNL A   1      33.216  27.758  26.758  1.00  0.00     0.116 C 
BRANCH   2   3
ATOM      3  N   UNL A   1      33.663  26.534  26.123  1.00  0.00    -0.356 N 
ATOM      4  C   UNL A   1      32.928  25.475  25.681  1.00  0.00     0.223 C 
ATOM      5  O   UNL A   1      33.506  24.402  25.514  1.00  0.00    -0.275 OA
ATOM      6  H   UNL A   1      34.635  26.457  25.993  1.00  0.00     0.163 HD
BRANCH   4   7
ATOM      7  C   UNL A   1      31.432  25.663  25.426  1.00  0.00     0.082 C 
ATOM      8  C   UNL A   1      30.666  24.507  26.082  1.00  0.00     0.018 C 
BRANCH   7   9
ATOM      9  C   UNL A   1      31.146  25.752  23.899  1.00  0.00     0.028 C 
ATOM     10  C   UNL A   1      30.326  24.559  23.388  1.00  0.00     0.013 C 
BRANCH   9  11
ATOM     11  C   UNL A   1      30.439  27.037  23.476  1.00  0.00    -0.044 A 
ATOM     12  C   UNL A   1      31.206  28.112  23.006  1.00  0.00     0.008 A 
ATOM     13  C   UNL A   1      29.048  27.193  23.543  1.00  0.00     0.008 A 
ATOM     14  C   UNL A   1      30.598  29.313  22.632  1.00  0.00     0.047 A 
ATOM     15  C   UNL A   1      28.441  28.401  23.175  1.00  0.00     0.047 A 
ATOM     16  C   UNL A   1      29.214  29.467  22.718  1.00  0.00     0.129 A 
BRANCH  16  17
ATOM     17  O   UNL A   1      28.760  30.694  22.328  1.00  0.00    -0.406 OA
BRANCH  17  18
ATOM     18  C   UNL A   1      28.450  31.634  23.340  1.00  0.00     0.573 C 
ATOM     19  F   UNL A   1      29.363  31.605  24.334  1.00  0.00    -0.132 F 
ATOM     20  F   UNL A   1      28.371  32.885  22.838  1.00  0.00    -0.132 F 
ATOM     21  F   UNL A   1      27.246  31.319  23.870  1.00  0.00    -0.132 F 
ENDBRANCH  17  18
ENDBRANCH  16  17
ENDBRANCH   9  11
ENDBRANCH   7   9
ENDBRANCH   4   7
ENDBRANCH   2   3
ENDBRANCH   1   2
BRANCH   1  22
ATOM     22  C   UNL A   1      32.851  30.028  25.613  1.00  0.00     0.002 C 
BRANCH  22  23
ATOM     23  C   UNL A   1      31.796  30.404  26.659  1.00  0.00     0.002 C 
BRANCH  23  24
ATOM     24  C   UNL A   1      31.574  31.907  26.827  1.00  0.00     0.021 C 
BRANCH  24  25
ATOM     25  C   UNL A   1      32.797  32.667  27.325  1.00  0.00     0.116 C 
BRANCH  25  26
ATOM     26  N   UNL A   1      32.492  34.058  27.624  1.00  0.00    -0.352 N 
ATOM     27  C   UNL A   1      33.028  34.868  28.593  1.00  0.00     0.251 C 
ATOM     28  H   UNL A   1      31.807  34.475  27.053  1.00  0.00     0.163 HD
ATOM     29  O   UNL A   1      32.525  35.958  28.850  1.00  0.00    -0.269 OA
BRANCH  27  30
ATOM     30  C   UNL A   1      34.211  34.405  29.345  1.00  0.00     0.039 A 
ATOM     31  C   UNL A   1      34.033  33.785  30.584  1.00  0.00     0.014 A 
ATOM     32  C   UNL A   1      35.492  34.563  28.809  1.00  0.00     0.014 A 
ATOM     33  C   UNL A   1      35.138  33.262  31.256  1.00  0.00     0.010 A 
ATOM     34  C   UNL A   1      36.579  33.973  29.442  1.00  0.00     0.010 A 
ATOM     35  C   UNL A   1      36.413  33.318  30.673  1.00  0.00    -0.014 A 
BRANCH  35  36
ATOM     36  C   UNL A   1      37.597  32.706  31.326  1.00  0.00     0.031 A 
ATOM     37  C   UNL A   1      38.295  31.546  30.675  1.00  0.00     0.074 A 
ATOM     38  C   UNL A   1      37.979  33.127  32.547  1.00  0.00     0.049 A 
ATOM     39  N   UNL A   1      39.257  30.791  31.137  1.00  0.00    -0.248 NA
ATOM     40  C   UNL A   1      37.819  31.165  29.337  1.00  0.00     0.031 C 
ATOM     41  C   UNL A   1      37.350  34.210  33.303  1.00  0.00     0.029 A 
ATOM     42  N   UNL A   1      38.972  32.671  33.380  1.00  0.00    -0.354 N 
ATOM     43  C   UNL A   1      39.485  29.832  30.160  1.00  0.00     0.074 A 
ATOM     44  C   UNL A   1      38.523  30.068  29.105  1.00  0.00     0.031 C 
ATOM     45  C   UNL A   1      37.971  34.337  34.485  1.00  0.00     0.029 A 
ATOM     46  C   UNL A   1      39.011  33.317  34.591  1.00  0.00     0.049 A 
ATOM     47  H   UNL A   1      39.595  31.951  33.132  1.00  0.00     0.167 HD
ATOM     48  C   UNL A   1      40.424  28.856  30.136  1.00  0.00     0.037 A 
ATOM     49  C   UNL A   1      39.779  33.096  35.675  1.00  0.00     0.037 A 
ATOM     50  C   UNL A   1      41.388  28.642  31.182  1.00  0.00     0.049 A 
ATOM     51  C   UNL A   1      40.812  32.003  35.634  1.00  0.00     0.074 A 
ATOM     52  C   UNL A   1      42.429  27.732  31.223  1.00  0.00     0.029 A 
ATOM     53  N   UNL A   1      41.420  29.341  32.382  1.00  0.00    -0.354 N 
ATOM     54  N   UNL A   1      41.073  31.151  34.673  1.00  0.00    -0.248 NA
ATOM     55  C   UNL A   1      41.660  31.843  36.822  1.00  0.00     0.031 C 
ATOM     56  C   UNL A   1      43.049  27.835  32.473  1.00  0.00     0.029 A 
ATOM     57  C   UNL A   1      42.440  28.857  33.184  1.00  0.00     0.049 A 
ATOM     58  H   UNL A   1      40.808  30.073  32.626  1.00  0.00     0.167 HD
ATOM     59  C   UNL A   1      42.131  30.373  35.125  1.00  0.00     0.074 A 
ATOM     60  C   UNL A   1      42.467  30.859  36.448  1.00  0.00     0.031 C 
ATOM     61  C   UNL A   1      42.767  29.353  34.499  1.00  0.00     0.037 A 
BRANCH  48  62
ATOM     62  C   UNL A   1      40.436  27.937  28.947  1.00  0.00     0.064 A 
ATOM     63  C   UNL A   1      41.196  28.216  27.799  1.00  0.00     0.173 A 
ATOM     64  C   UNL A   1      39.676  26.757  28.955  1.00  0.00     0.173 A 
ATOM     65  F   UNL A   1      41.934  29.335  27.734  1.00  0.00    -0.203 F 
ATOM     66  C   UNL A   1      41.156  27.376  26.689  1.00  0.00     0.198 A 
ATOM     67  C   UNL A   1      39.669  25.899  27.858  1.00  0.00     0.198 A 
ATOM     68  F   UNL A   1      38.939  26.433  30.027  1.00  0.00    -0.203 F 
ATOM     69  F   UNL A   1      41.832  27.704  25.579  1.00  0.00    -0.200 F 
ATOM     70  C   UNL A   1      40.397  26.217  26.721  1.00  0.00     0.200 A 
ATOM     71  F   UNL A   1      38.948  24.771  27.897  1.00  0.00    -0.200 F 
ATOM     72  F   UNL A   1      40.357  25.411  25.651  1.00  0.00    -0.200 F 
ENDBRANCH  48  62
BRANCH  49  73
ATOM     73  C   UNL A   1      39.593  33.938  36.886  1.00  0.00     0.064 A 
ATOM     74  C   UNL A   1      40.169  35.211  36.977  1.00  0.00     0.173 A 
ATOM     75  C   UNL A   1      38.802  33.501  37.959  1.00  0.00     0.173 A 
ATOM     76  F   UNL A   1      40.948  35.668  35.985  1.00  0.00    -0.203 F 
ATOM     77  C   UNL A   1      39.970  36.012  38.101  1.00  0.00     0.198 A 
ATOM     78  C   UNL A   1      38.580  34.313  39.069  1.00  0.00     0.198 A 
ATOM     79  F   UNL A   1      38.221  32.292  37.917  1.00  0.00    -0.203 F 
ATOM     80  F   UNL A   1      40.560  37.213  38.178  1.00  0.00    -0.200 F 
ATOM     81  C   UNL A   1      39.168  35.566  39.140  1.00  0.00     0.200 A 
ATOM     82  F   UNL A   1      37.789  33.885  40.061  1.00  0.00    -0.200 F 
ATOM     83  F   UNL A   1      38.964  36.343  40.213  1.00  0.00    -0.200 F 
ENDBRANCH  49  73
BRANCH  61  84
ATOM     84  C   UNL A   1      43.920  28.707  35.212  1.00  0.00     0.064 A 
ATOM     85  C   UNL A   1      45.228  29.197  35.095  1.00  0.00     0.173 A 
ATOM     86  C   UNL A   1      43.697  27.632  36.086  1.00  0.00     0.173 A 
ATOM     87  F   UNL A   1      45.497  30.214  34.261  1.00  0.00    -0.203 F 
ATOM     88  C   UNL A   1      46.273  28.627  35.818  1.00  0.00     0.198 A 
ATOM     89  C   UNL A   1      44.737  27.085  36.833  1.00  0.00     0.198 A 
ATOM     90  F   UNL A   1      42.463  27.130  36.239  1.00  0.00    -0.203 F 
ATOM     91  F   UNL A   1      47.522  29.088  35.666  1.00  0.00    -0.200 F 
ATOM     92  C   UNL A   1      46.025  27.580  36.695  1.00  0.00     0.200 A 
ATOM     93  F   UNL A   1      44.491  26.086  37.691  1.00  0.00    -0.200 F 
ATOM     94  F   UNL A   1      47.028  27.047  37.406  1.00  0.00    -0.200 F 
ENDBRANCH  61  84
ENDBRANCH  35  36
ENDBRANCH  27  30
ENDBRANCH  25  26
ENDBRANCH  24  25
ENDBRANCH  23  24
ENDBRANCH  22  23
ENDBRANCH   1  22
TORSDOF 17
ENDMDL
MODEL 2
REMARK VINA RESULT:     -11.6      0.747      7.314
REMARK SMILES C[C@@H](C(=O)NCCCCCCNC(=O)c1ccc(-c2c3nc(c(-c4c(F)c(F)c(F)c(F)c4F)c4ccc([nH]4)c(-c4c(F)c(F)c(F)c(F)c4F)c4nc(c(-c5c(F)c(F)c(F)c(F)c5F)c5ccc2[nH]5)C=C4)C=C3)cc1)[C@@H](C)c1ccc(OC(F)(F)F)cc1
REMARK SMILES IDX 7 1 6 2 5 3 3 4 4 5 2 7 1 8 78 9 79 10 80 11 81 12 90 13
REMARK SMILES IDX 82 14 89 15 83 16 84 17 85 18 86 19 87 20 88 21 8 22 9 23
REMARK SMILES IDX 10 24 11 25 12 26 13 27 14 29 15 30 16 31 77 32 17 33 76 34
REMARK SMILES IDX 18 35 19 36 20 37 70 38 21 39 75 40 69 41 71 42 22 43 74 44
REMARK SMILES IDX 68 45 67 46 23 48 55 49 35 50 54 51 36 52 39 53 53 54 72 55
REMARK SMILES IDX 37 56 38 57 52 59 73 60 40 61 24 62 25 63 33 64 26 65 27 66
REMARK SMILES IDX 31 67 34 68 28 69 29 70 32 71 30 72 56 73 57 74 65 75 58 76
REMARK SMILES IDX 59 77 63 78 66 79 60 80 61 81 64 82 62 83 41 84 42 85 50 86
REMARK SMILES IDX 43 87 44 88 48 89 51 90 45 91 46 92 49 93 47 94
REMARK H PARENT 5 6 12 28 71 47 39 58
REMARK Flexibility Score: inf
ROOT
ATOM      1  C   UNL A   1      33.062  29.156  25.505  1.00  0.00     0.021 C 
ENDROOT
BRANCH   1   2
ATOM      2  C   UNL A   1      32.992  28.074  26.585  1.00  0.00     0.116 C 
BRANCH   2   3
ATOM      3  N   UNL A   1      33.604  26.853  26.101  1.00  0.00    -0.356 N 
ATOM      4  C   UNL A   1      33.011  25.696  25.693  1.00  0.00     0.223 C 
ATOM      5  O   UNL A   1      33.697  24.674  25.670  1.00  0.00    -0.275 OA
ATOM      6  H   UNL A   1      34.587  26.861  26.060  1.00  0.00     0.163 HD
BRANCH   4   7
ATOM      7  C   UNL A   1      31.534  25.716  25.298  1.00  0.00     0.082 C 
ATOM      8  C   UNL A   1      30.866  24.432  25.804  1.00  0.00     0.018 C 
BRANCH   7   9
ATOM      9  C   UNL A   1      31.384  25.875  23.756  1.00  0.00     0.028 C 
ATOM     10  C   UNL A   1      30.798  24.620  23.095  1.00  0.00     0.013 C 
BRANCH   9  11
ATOM     11  C   UNL A   1      30.542  27.078  23.338  1.00  0.00    -0.044 A 
ATOM     12  C   UNL A   1      31.118  28.059  22.520  1.00  0.00     0.008 A 
ATOM     13  C   UNL A   1      29.212  27.248  23.744  1.00  0.00     0.008 A 
ATOM     14  C   UNL A   1      30.387  29.186  22.135  1.00  0.00     0.047 A 
ATOM     15  C   UNL A   1      28.484  28.383  23.364  1.00  0.00     0.047 A 
ATOM     16  C   UNL A   1      29.068  29.358  22.557  1.00  0.00     0.129 A 
BRANCH  16  17
ATOM     17  O   UNL A   1      28.482  30.507  22.113  1.00  0.00    -0.406 OA
BRANCH  17  18
ATOM     18  C   UNL A   1      28.308  31.561  23.042  1.00  0.00     0.573 C 
ATOM     19  F   UNL A   1      27.103  31.488  23.647  1.00  0.00    -0.132 F 
ATOM     20  F   UNL A   1      29.282  31.553  23.977  1.00  0.00    -0.132 F 
ATOM     21  F   UNL A   1      28.372  32.739  22.381  1.00  0.00    -0.132 F 
ENDBRANCH  17  18
ENDBRANCH  16  17
ENDBRANCH   9  11
ENDBRANCH   7   9
ENDBRANCH   4   7
ENDBRANCH   2   3
ENDBRANCH   1   2
BRANCH   1  22
ATOM     22  C   UNL A   1      31.797  30.019  25.408  1.00  0.00     0.002 C 
BRANCH  22  23
ATOM     23  C   UNL A   1      31.386  30.704  26.715  1.00  0.00     0.002 C 
BRANCH  23  24
ATOM     24  C   UNL A   1      31.447  32.231  26.680  1.00  0.00     0.021 C 
BRANCH  24  25
ATOM     25  C   UNL A   1      32.722  32.819  27.271  1.00  0.00     0.116 C 
BRANCH  25  26
ATOM     26  N   UNL A   1      32.542  34.198  27.698  1.00  0.00    -0.352 N 
ATOM     27  C   UNL A   1      33.144  34.865  28.734  1.00  0.00     0.251 C 
ATOM     28  H   UNL A   1      31.899  34.726  27.170  1.00  0.00     0.163 HD
ATOM     29  O   UNL A   1      32.741  35.967  29.092  1.00  0.00    -0.269 OA
BRANCH  27  30
ATOM     30  C   UNL A   1      34.279  34.231  29.436  1.00  0.00     0.039 A 
ATOM     31  C   UNL A   1      34.029  33.428  30.551  1.00  0.00     0.014 A 
ATOM     32  C   UNL A   1      35.584  34.411  28.970  1.00  0.00     0.014 A 
ATOM     33  C   UNL A   1      35.085  32.752  31.162  1.00  0.00     0.010 A 
ATOM     34  C   UNL A   1      36.621  33.675  29.530  1.00  0.00     0.010 A 
ATOM     35  C   UNL A   1      36.382  32.840  30.633  1.00  0.00    -0.014 A 
BRANCH  35  36
ATOM     36  C   UNL A   1      37.514  32.075  31.213  1.00  0.00     0.031 A 
ATOM     37  C   UNL A   1      38.072  32.465  32.552  1.00  0.00     0.074 A 
ATOM     38  C   UNL A   1      38.101  31.100  30.494  1.00  0.00     0.049 A 
ATOM     39  N   UNL A   1      39.132  32.015  33.173  1.00  0.00    -0.248 NA
ATOM     40  C   UNL A   1      37.359  33.530  33.273  1.00  0.00     0.031 C 
ATOM     41  C   UNL A   1      37.682  30.664  29.162  1.00  0.00     0.029 A 
ATOM     42  N   UNL A   1      39.196  30.319  30.772  1.00  0.00    -0.354 N 
ATOM     43  C   UNL A   1      39.227  32.757  34.342  1.00  0.00     0.074 A 
ATOM     44  C   UNL A   1      38.150  33.724  34.317  1.00  0.00     0.031 C 
ATOM     45  C   UNL A   1      38.507  29.694  28.739  1.00  0.00     0.029 A 
ATOM     46  C   UNL A   1      39.539  29.470  29.747  1.00  0.00     0.049 A 
ATOM     47  H   UNL A   1      39.688  30.363  31.623  1.00  0.00     0.167 HD
ATOM     48  C   UNL A   1      40.119  32.631  35.353  1.00  0.00     0.037 A 
ATOM     49  C   UNL A   1      40.582  28.627  29.623  1.00  0.00     0.037 A 
ATOM     50  C   UNL A   1      41.175  31.655  35.376  1.00  0.00     0.049 A 
ATOM     51  C   UNL A   1      41.568  28.506  30.753  1.00  0.00     0.074 A 
ATOM     52  C   UNL A   1      42.086  31.392  36.384  1.00  0.00     0.029 A 
ATOM     53  N   UNL A   1      41.471  30.786  34.333  1.00  0.00    -0.354 N 
ATOM     54  N   UNL A   1      41.604  29.157  31.890  1.00  0.00    -0.248 NA
ATOM     55  C   UNL A   1      42.654  27.530  30.587  1.00  0.00     0.031 C 
ATOM     56  C   UNL A   1      42.973  30.412  35.926  1.00  0.00     0.029 A 
ATOM     57  C   UNL A   1      42.573  30.013  34.660  1.00  0.00     0.049 A 
ATOM     58  H   UNL A   1      40.971  30.728  33.487  1.00  0.00     0.167 HD
ATOM     59  C   UNL A   1      42.695  28.654  32.586  1.00  0.00     0.074 A 
ATOM     60  C   UNL A   1      43.292  27.637  31.744  1.00  0.00     0.031 C 
ATOM     61  C   UNL A   1      43.156  29.000  33.813  1.00  0.00     0.037 A 
BRANCH  48  62
ATOM     62  C   UNL A   1      39.999  33.589  36.506  1.00  0.00     0.064 A 
ATOM     63  C   UNL A   1      39.100  33.370  37.563  1.00  0.00     0.173 A 
ATOM     64  C   UNL A   1      40.795  34.743  36.555  1.00  0.00     0.173 A 
ATOM     65  F   UNL A   1      38.308  32.287  37.562  1.00  0.00    -0.203 F 
ATOM     66  C   UNL A   1      38.969  34.293  38.596  1.00  0.00     0.198 A 
ATOM     67  C   UNL A   1      40.689  35.645  37.611  1.00  0.00     0.198 A 
ATOM     68  F   UNL A   1      41.678  34.999  35.578  1.00  0.00    -0.203 F 
ATOM     69  F   UNL A   1      38.051  34.098  39.553  1.00  0.00    -0.200 F 
ATOM     70  C   UNL A   1      39.766  35.427  38.622  1.00  0.00     0.200 A 
ATOM     71  F   UNL A   1      41.472  36.731  37.643  1.00  0.00    -0.200 F 
ATOM     72  F   UNL A   1      39.637  36.316  39.617  1.00  0.00    -0.200 F 
ENDBRANCH  48  62
BRANCH  49  73
ATOM     73  C   UNL A   1      40.734  27.834  28.376  1.00  0.00     0.064 A 
ATOM     74  C   UNL A   1      41.491  28.315  27.300  1.00  0.00     0.173 A 
ATOM     75  C   UNL A   1      40.157  26.561  28.250  1.00  0.00     0.173 A 
ATOM     76  F   UNL A   1      42.049  29.534  27.365  1.00  0.00    -0.203 F 
ATOM     77  C   UNL A   1      41.658  27.558  26.141  1.00  0.00     0.198 A 
ATOM     78  C   UNL A   1      40.348  25.793  27.103  1.00  0.00     0.198 A 
ATOM     79  F   UNL A   1      39.429  26.051  29.255  1.00  0.00    -0.203 F 
ATOM     80  F   UNL A   1      42.359  28.055  25.114  1.00  0.00    -0.200 F 
ATOM     81  C   UNL A   1      41.094  26.295  26.049  1.00  0.00     0.200 A 
ATOM     82  F   UNL A   1      39.817  24.566  27.026  1.00  0.00    -0.200 F 
ATOM     83  F   UNL A   1      41.268  25.561  24.941  1.00  0.00    -0.200 F 
ENDBRANCH  49  73
BRANCH  61  84
ATOM     84  C   UNL A   1      44.344  28.254  34.349  1.00  0.00     0.064 A 
ATOM     85  C   UNL A   1      45.649  28.747  34.209  1.00  0.00     0.173 A 
ATOM     86  C   UNL A   1      44.163  27.071  35.081  1.00  0.00     0.173 A 
ATOM     87  F   UNL A   1      45.878  29.867  33.506  1.00  0.00    -0.203 F 
ATOM     88  C   UNL A   1      46.732  28.075  34.773  1.00  0.00     0.198 A 
ATOM     89  C   UNL A   1      45.243  26.419  35.671  1.00  0.00     0.198 A 
ATOM     90  F   UNL A   1      42.934  26.561  35.249  1.00  0.00    -0.203 F 
ATOM     91  F   UNL A   1      47.974  28.545  34.599  1.00  0.00    -0.200 F 
ATOM     92  C   UNL A   1      46.526  26.920  35.513  1.00  0.00     0.200 A 
ATOM     93  F   UNL A   1      45.040  25.313  36.399  1.00  0.00    -0.200 F 
ATOM     94  F   UNL A   1      47.566  26.287  36.073  1.00  0.00    -0.200 F 
ENDBRANCH  61  84
ENDBRANCH  35  36
ENDBRANCH  27  30
ENDBRANCH  25  26
ENDBRANCH  24  25
ENDBRANCH  23  24
ENDBRANCH  22  23
ENDBRANCH   1  22
TORSDOF 17
ENDMDL
MODEL 3
REMARK VINA RESULT:     -11.5      2.570      3.602
REMARK SMILES C[C@@H](C(=O)NCCCCCCNC(=O)c1ccc(-c2c3nc(c(-c4c(F)c(F)c(F)c(F)c4F)c4ccc([nH]4)c(-c4c(F)c(F)c(F)c(F)c4F)c4nc(c(-c5c(F)c(F)c(F)c(F)c5F)c5ccc2[nH]5)C=C4)C=C3)cc1)[C@@H](C)c1ccc(OC(F)(F)F)cc1
REMARK SMILES IDX 7 1 6 2 5 3 3 4 4 5 2 7 1 8 78 9 79 10 80 11 81 12 90 13
REMARK SMILES IDX 82 14 89 15 83 16 84 17 85 18 86 19 87 20 88 21 8 22 9 23
REMARK SMILES IDX 10 24 11 25 12 26 13 27 14 29 15 30 16 31 77 32 17 33 76 34
REMARK SMILES IDX 18 35 19 36 20 37 70 38 21 39 75 40 69 41 71 42 22 43 74 44
REMARK SMILES IDX 68 45 67 46 23 48 55 49 35 50 54 51 36 52 39 53 53 54 72 55
REMARK SMILES IDX 37 56 38 57 52 59 73 60 40 61 24 62 25 63 33 64 26 65 27 66
REMARK SMILES IDX 31 67 34 68 28 69 29 70 32 71 30 72 56 73 57 74 65 75 58 76
REMARK SMILES IDX 59 77 63 78 66 79 60 80 61 81 64 82 62 83 41 84 42 85 50 86
REMARK SMILES IDX 43 87 44 88 48 89 51 90 45 91 46 92 49 93 47 94
REMARK H PARENT 5 6 12 28 71 47 39 58
REMARK Flexibility Score: inf
ROOT
ATOM      1  C   UNL A   1      31.740  28.365  27.566  1.00  0.00     0.021 C 
ENDROOT
BRANCH   1   2
ATOM      2  C   UNL A   1      32.163  27.041  26.926  1.00  0.00     0.116 C 
BRANCH   2   3
ATOM      3  N   UNL A   1      30.995  26.336  26.435  1.00  0.00    -0.356 N 
ATOM      4  C   UNL A   1      30.453  26.332  25.185  1.00  0.00     0.223 C 
ATOM      5  O   UNL A   1      29.282  25.975  25.066  1.00  0.00    -0.275 OA
ATOM      6  H   UNL A   1      30.527  25.781  27.100  1.00  0.00     0.163 HD
BRANCH   4   7
ATOM      7  C   UNL A   1      31.312  26.778  24.001  1.00  0.00     0.082 C 
ATOM      8  C   UNL A   1      30.717  28.061  23.409  1.00  0.00     0.018 C 
BRANCH   7   9
ATOM      9  C   UNL A   1      31.408  25.643  22.939  1.00  0.00     0.028 C 
ATOM     10  C   UNL A   1      31.698  26.184  21.533  1.00  0.00     0.013 C 
BRANCH   9  11
ATOM     11  C   UNL A   1      32.449  24.575  23.268  1.00  0.00    -0.044 A 
ATOM     12  C   UNL A   1      33.764  24.971  23.547  1.00  0.00     0.008 A 
ATOM     13  C   UNL A   1      32.145  23.208  23.297  1.00  0.00     0.008 A 
ATOM     14  C   UNL A   1      34.749  24.023  23.828  1.00  0.00     0.047 A 
ATOM     15  C   UNL A   1      33.138  22.258  23.573  1.00  0.00     0.047 A 
ATOM     16  C   UNL A   1      34.445  22.661  23.839  1.00  0.00     0.129 A 
BRANCH  16  17
ATOM     17  O   UNL A   1      35.507  21.850  24.121  1.00  0.00    -0.406 OA
BRANCH  17  18
ATOM     18  C   UNL A   1      35.310  20.810  25.062  1.00  0.00     0.573 C 
ATOM     19  F   UNL A   1      34.763  21.279  26.204  1.00  0.00    -0.132 F 
ATOM     20  F   UNL A   1      34.528  19.834  24.555  1.00  0.00    -0.132 F 
ATOM     21  F   UNL A   1      36.512  20.268  25.366  1.00  0.00    -0.132 F 
ENDBRANCH  17  18
ENDBRANCH  16  17
ENDBRANCH   9  11
ENDBRANCH   7   9
ENDBRANCH   4   7
ENDBRANCH   2   3
ENDBRANCH   1   2
BRANCH   1  22
ATOM     22  C   UNL A   1      32.586  29.566  27.122  1.00  0.00     0.002 C 
BRANCH  22  23
ATOM     23  C   UNL A   1      31.880  30.528  26.162  1.00  0.00     0.002 C 
BRANCH  23  24
ATOM     24  C   UNL A   1      31.560  31.901  26.756  1.00  0.00     0.021 C 
BRANCH  24  25
ATOM     25  C   UNL A   1      32.778  32.654  27.277  1.00  0.00     0.116 C 
BRANCH  25  26
ATOM     26  N   UNL A   1      32.472  34.044  27.581  1.00  0.00    -0.352 N 
ATOM     27  C   UNL A   1      33.005  34.850  28.554  1.00  0.00     0.251 C 
ATOM     28  H   UNL A   1      31.789  34.463  27.009  1.00  0.00     0.163 HD
ATOM     29  O   UNL A   1      32.503  35.939  28.814  1.00  0.00    -0.269 OA
BRANCH  27  30
ATOM     30  C   UNL A   1      34.186  34.384  29.309  1.00  0.00     0.039 A 
ATOM     31  C   UNL A   1      34.001  33.697  30.510  1.00  0.00     0.014 A 
ATOM     32  C   UNL A   1      35.472  34.605  28.809  1.00  0.00     0.014 A 
ATOM     33  C   UNL A   1      35.106  33.173  31.181  1.00  0.00     0.010 A 
ATOM     34  C   UNL A   1      36.563  34.014  29.436  1.00  0.00     0.010 A 
ATOM     35  C   UNL A   1      36.392  33.295  30.629  1.00  0.00    -0.014 A 
BRANCH  35  36
ATOM     36  C   UNL A   1      37.579  32.685  31.277  1.00  0.00     0.031 A 
ATOM     37  C   UNL A   1      38.273  31.523  30.625  1.00  0.00     0.074 A 
ATOM     38  C   UNL A   1      37.968  33.108  32.495  1.00  0.00     0.049 A 
ATOM     39  N   UNL A   1      39.239  30.769  31.084  1.00  0.00    -0.248 NA
ATOM     40  C   UNL A   1      37.790  31.138  29.291  1.00  0.00     0.031 C 
ATOM     41  C   UNL A   1      37.344  34.194  33.251  1.00  0.00     0.029 A 
ATOM     42  N   UNL A   1      38.966  32.655  33.323  1.00  0.00    -0.354 N 
ATOM     43  C   UNL A   1      39.461  29.808  30.107  1.00  0.00     0.074 A 
ATOM     44  C   UNL A   1      38.492  30.040  29.057  1.00  0.00     0.031 C 
ATOM     45  C   UNL A   1      37.971  34.324  34.429  1.00  0.00     0.029 A 
ATOM     46  C   UNL A   1      39.012  33.305  34.533  1.00  0.00     0.049 A 
ATOM     47  H   UNL A   1      39.588  31.934  33.074  1.00  0.00     0.167 HD
ATOM     48  C   UNL A   1      40.400  28.832  30.081  1.00  0.00     0.037 A 
ATOM     49  C   UNL A   1      39.787  33.087  35.612  1.00  0.00     0.037 A 
ATOM     50  C   UNL A   1      41.370  28.621  31.122  1.00  0.00     0.049 A 
ATOM     51  C   UNL A   1      40.819  31.993  35.568  1.00  0.00     0.074 A 
ATOM     52  C   UNL A   1      42.411  27.711  31.159  1.00  0.00     0.029 A 
ATOM     53  N   UNL A   1      41.408  29.323  32.320  1.00  0.00    -0.354 N 
ATOM     54  N   UNL A   1      41.075  31.139  34.608  1.00  0.00    -0.248 NA
ATOM     55  C   UNL A   1      41.674  31.837  36.752  1.00  0.00     0.031 C 
ATOM     56  C   UNL A   1      43.039  27.817  32.405  1.00  0.00     0.029 A 
ATOM     57  C   UNL A   1      42.434  28.841  33.118  1.00  0.00     0.049 A 
ATOM     58  H   UNL A   1      40.798  30.055  32.565  1.00  0.00     0.167 HD
ATOM     59  C   UNL A   1      42.135  30.363  35.056  1.00  0.00     0.074 A 
ATOM     60  C   UNL A   1      42.479  30.852  36.376  1.00  0.00     0.031 C 
ATOM     61  C   UNL A   1      42.768  29.341  34.429  1.00  0.00     0.037 A 
BRANCH  48  62
ATOM     62  C   UNL A   1      40.405  27.909  28.894  1.00  0.00     0.064 A 
ATOM     63  C   UNL A   1      41.132  28.202  27.729  1.00  0.00     0.173 A 
ATOM     64  C   UNL A   1      39.673  26.713  28.923  1.00  0.00     0.173 A 
ATOM     65  F   UNL A   1      41.843  29.337  27.643  1.00  0.00    -0.203 F 
ATOM     66  C   UNL A   1      41.085  27.358  26.622  1.00  0.00     0.198 A 
ATOM     67  C   UNL A   1      39.660  25.852  27.828  1.00  0.00     0.198 A 
ATOM     68  F   UNL A   1      38.968  26.376  30.013  1.00  0.00    -0.203 F 
ATOM     69  F   UNL A   1      41.728  27.698  25.496  1.00  0.00    -0.200 F 
ATOM     70  C   UNL A   1      40.353  26.182  26.674  1.00  0.00     0.200 A 
ATOM     71  F   UNL A   1      38.966  24.707  27.887  1.00  0.00    -0.200 F 
ATOM     72  F   UNL A   1      40.307  25.372  25.607  1.00  0.00    -0.200 F 
ENDBRANCH  48  62
BRANCH  49  73
ATOM     73  C   UNL A   1      39.607  33.932  36.822  1.00  0.00     0.064 A 
ATOM     74  C   UNL A   1      40.217  35.188  36.923  1.00  0.00     0.173 A 
ATOM     75  C   UNL A   1      38.790  33.515  37.884  1.00  0.00     0.173 A 
ATOM     76  F   UNL A   1      41.022  35.624  35.943  1.00  0.00    -0.203 F 
ATOM     77  C   UNL A   1      40.025  35.993  38.045  1.00  0.00     0.198 A 
ATOM     78  C   UNL A   1      38.575  34.332  38.992  1.00  0.00     0.198 A 
ATOM     79  F   UNL A   1      38.177  32.323  37.831  1.00  0.00    -0.203 F 
ATOM     80  F   UNL A   1      40.646  37.177  38.132  1.00  0.00    -0.200 F 
ATOM     81  C   UNL A   1      39.197  35.568  39.073  1.00  0.00     0.200 A 
ATOM     82  F   UNL A   1      37.760  33.924  39.973  1.00  0.00    -0.200 F 
ATOM     83  F   UNL A   1      39.000  36.349  40.144  1.00  0.00    -0.200 F 
ENDBRANCH  49  73
BRANCH  61  84
ATOM     84  C   UNL A   1      43.925  28.697  35.137  1.00  0.00     0.064 A 
ATOM     85  C   UNL A   1      45.233  29.186  35.010  1.00  0.00     0.173 A 
ATOM     86  C   UNL A   1      43.707  27.625  36.016  1.00  0.00     0.173 A 
ATOM     87  F   UNL A   1      45.497  30.200  34.172  1.00  0.00    -0.203 F 
ATOM     88  C   UNL A   1      46.282  28.618  35.729  1.00  0.00     0.198 A 
ATOM     89  C   UNL A   1      44.752  27.080  36.758  1.00  0.00     0.198 A 
ATOM     90  F   UNL A   1      42.474  27.123  36.178  1.00  0.00    -0.203 F 
ATOM     91  F   UNL A   1      47.530  29.079  35.569  1.00  0.00    -0.200 F 
ATOM     92  C   UNL A   1      46.039  27.574  36.611  1.00  0.00     0.200 A 
ATOM     93  F   UNL A   1      44.511  26.083  37.621  1.00  0.00    -0.200 F 
ATOM     94  F   UNL A   1      47.046  27.043  37.318  1.00  0.00    -0.200 F 
ENDBRANCH  61  84
ENDBRANCH  35  36
ENDBRANCH  27  30
ENDBRANCH  25  26
ENDBRANCH  24  25
ENDBRANCH  23  24
ENDBRANCH  22  23
ENDBRANCH   1  22
TORSDOF 17
ENDMDL
