MODEL 1
REMARK VINA RESULT:     -10.7      0.000      0.000
REMARK SMILES CCC(CC)NC(=O)NC[C@H]1CC[C@H](C(=O)NCCCCCCNC(=O)c2ccc(-c3c4nc(c(-c5c(F)c(F)c(F)c(F)c5F)c5ccc([nH]5)c(-c5c(F)c(F)c(F)c(F)c5F)c5nc(c(-c6c(F)c(F)c(F)c(F)c6F)c6ccc3[nH]6)C=C5)C=C4)cc2)O1
REMARK SMILES IDX 19 1 18 2 17 3 15 4 16 5 14 7 11 8 12 9 90 10 13 11 10 12
REMARK SMILES IDX 9 13 6 14 7 15 8 17 3 19 2 20 1 21 4 22 5 23 20 24 21 25
REMARK SMILES IDX 22 26 23 27 24 28 25 29 26 31 27 32 28 33 89 34 29 35 88 36
REMARK SMILES IDX 30 37 31 38 32 39 82 40 33 41 87 42 81 43 83 44 34 45 86 46
REMARK SMILES IDX 80 47 79 48 35 50 67 51 47 52 66 53 48 54 51 55 65 56 84 57
REMARK SMILES IDX 49 58 50 59 64 61 85 62 52 63 36 64 37 65 45 66 38 67 39 68
REMARK SMILES IDX 43 69 46 70 40 71 41 72 44 73 42 74 68 75 69 76 77 77 70 78
REMARK SMILES IDX 71 79 75 80 78 81 72 82 73 83 76 84 74 85 53 86 54 87 62 88
REMARK SMILES IDX 55 89 56 90 60 91 63 92 57 93 58 94 61 95 59 96
REMARK H PARENT 17 6 6 16 9 18 24 30 83 49 51 60
REMARK Flexibility Score: inf
ROOT
ATOM      1  C   UNL A   1      35.473  31.926  27.982  1.00  0.00     0.021 C 
ENDROOT
BRANCH   1   2
ATOM      2  C   UNL A   1      34.707  30.668  27.579  1.00  0.00     0.116 C 
BRANCH   2   3
ATOM      3  N   UNL A   1      33.304  30.957  27.381  1.00  0.00    -0.354 N 
ATOM      4  C   UNL A   1      32.392  30.354  26.566  1.00  0.00     0.249 C 
ATOM      5  O   UNL A   1      31.256  30.835  26.531  1.00  0.00    -0.272 OA
ATOM      6  H   UNL A   1      32.953  31.705  27.917  1.00  0.00     0.163 HD
BRANCH   4   7
ATOM      7  C   UNL A   1      32.765  29.149  25.676  1.00  0.00     0.207 C 
ATOM      8  C   UNL A   1      32.445  28.533  23.436  1.00  0.00     0.138 C 
ATOM      9  C   UNL A   1      31.256  27.995  24.219  1.00  0.00     0.037 C 
ATOM     10  O   UNL A   1      33.089  29.475  24.322  1.00  0.00    -0.363 OA
ATOM     11  C   UNL A   1      31.699  28.064  25.658  1.00  0.00     0.045 C 
BRANCH   8  12
ATOM     12  C   UNL A   1      33.501  27.527  22.927  1.00  0.00     0.149 C 
BRANCH  12  13
ATOM     13  N   UNL A   1      33.261  26.961  21.616  1.00  0.00    -0.336 N 
ATOM     14  N   UNL A   1      32.617  24.712  21.967  1.00  0.00    -0.335 N 
ATOM     15  C   UNL A   1      32.901  25.751  21.174  1.00  0.00     0.315 C 
ATOM     16  H   UNL A   1      32.555  23.864  21.469  1.00  0.00     0.165 HD
ATOM     17  O   UNL A   1      32.861  25.574  19.955  1.00  0.00    -0.249 OA
ATOM     18  H   UNL A   1      33.390  27.612  20.889  1.00  0.00     0.165 HD
BRANCH  14  19
ATOM     19  C   UNL A   1      32.380  24.538  23.399  1.00  0.00     0.083 C 
BRANCH  19  20
ATOM     20  C   UNL A   1      31.126  23.677  23.606  1.00  0.00     0.021 C 
ATOM     21  C   UNL A   1      31.023  23.086  25.004  1.00  0.00     0.006 C 
ENDBRANCH  19  20
BRANCH  19  22
ATOM     22  C   UNL A   1      33.652  24.021  24.101  1.00  0.00     0.021 C 
ATOM     23  C   UNL A   1      34.409  22.924  23.366  1.00  0.00     0.006 C 
ENDBRANCH  19  22
ENDBRANCH  14  19
ENDBRANCH  12  13
ENDBRANCH   8  12
ENDBRANCH   4   7
ENDBRANCH   2   3
ENDBRANCH   1   2
BRANCH   1  24
ATOM     24  C   UNL A   1      34.722  32.793  28.996  1.00  0.00     0.002 C 
BRANCH  24  25
ATOM     25  C   UNL A   1      34.575  34.266  28.590  1.00  0.00     0.002 C 
BRANCH  25  26
ATOM     26  C   UNL A   1      33.214  34.892  28.908  1.00  0.00     0.021 C 
BRANCH  26  27
ATOM     27  C   UNL A   1      33.291  36.306  29.475  1.00  0.00     0.116 C 
BRANCH  27  28
ATOM     28  N   UNL A   1      32.456  36.453  30.656  1.00  0.00    -0.352 N 
ATOM     29  C   UNL A   1      32.534  35.809  31.864  1.00  0.00     0.251 C 
ATOM     30  H   UNL A   1      31.728  37.112  30.578  1.00  0.00     0.163 HD
ATOM     31  O   UNL A   1      31.602  35.869  32.659  1.00  0.00    -0.269 OA
BRANCH  29  32
ATOM     32  C   UNL A   1      33.745  35.037  32.208  1.00  0.00     0.039 A 
ATOM     33  C   UNL A   1      34.991  35.666  32.146  1.00  0.00     0.014 A 
ATOM     34  C   UNL A   1      33.653  33.686  32.558  1.00  0.00     0.014 A 
ATOM     35  C   UNL A   1      36.143  34.951  32.481  1.00  0.00     0.010 A 
ATOM     36  C   UNL A   1      34.793  32.997  32.960  1.00  0.00     0.010 A 
ATOM     37  C   UNL A   1      36.049  33.620  32.916  1.00  0.00    -0.014 A 
BRANCH  37  38
ATOM     38  C   UNL A   1      37.257  32.853  33.311  1.00  0.00     0.031 A 
ATOM     39  C   UNL A   1      37.954  33.163  34.607  1.00  0.00     0.074 A 
ATOM     40  C   UNL A   1      37.757  31.921  32.477  1.00  0.00     0.049 A 
ATOM     41  N   UNL A   1      39.062  32.662  35.092  1.00  0.00    -0.248 NA
ATOM     42  C   UNL A   1      37.337  34.191  35.459  1.00  0.00     0.031 C 
ATOM     43  C   UNL A   1      37.192  31.561  31.175  1.00  0.00     0.029 A 
ATOM     44  N   UNL A   1      38.860  31.114  32.594  1.00  0.00    -0.354 N 
ATOM     45  C   UNL A   1      39.279  33.321  36.294  1.00  0.00     0.074 A 
ATOM     46  C   UNL A   1      38.221  34.296  36.441  1.00  0.00     0.031 C 
ATOM     47  C   UNL A   1      37.941  30.593  30.623  1.00  0.00     0.029 A 
ATOM     48  C   UNL A   1      39.059  30.292  31.512  1.00  0.00     0.049 A 
ATOM     49  H   UNL A   1      39.453  31.124  33.380  1.00  0.00     0.167 HD
ATOM     50  C   UNL A   1      40.258  33.112  37.206  1.00  0.00     0.037 A 
ATOM     51  C   UNL A   1      40.038  29.401  31.263  1.00  0.00     0.037 A 
ATOM     52  C   UNL A   1      41.294  32.123  37.068  1.00  0.00     0.049 A 
ATOM     53  C   UNL A   1      41.120  29.199  32.289  1.00  0.00     0.074 A 
ATOM     54  C   UNL A   1      42.304  31.800  37.958  1.00  0.00     0.029 A 
ATOM     55  N   UNL A   1      41.450  31.294  35.966  1.00  0.00    -0.354 N 
ATOM     56  N   UNL A   1      41.281  29.785  33.452  1.00  0.00    -0.248 NA
ATOM     57  C   UNL A   1      42.156  28.205  31.972  1.00  0.00     0.031 C 
ATOM     58  C   UNL A   1      43.097  30.806  37.376  1.00  0.00     0.029 A 
ATOM     59  C   UNL A   1      42.552  30.473  36.147  1.00  0.00     0.049 A 
ATOM     60  H   UNL A   1      40.866  31.289  35.175  1.00  0.00     0.167 HD
ATOM     61  C   UNL A   1      42.411  29.210  34.016  1.00  0.00     0.074 A 
ATOM     62  C   UNL A   1      42.889  28.218  33.077  1.00  0.00     0.031 C 
ATOM     63  C   UNL A   1      43.003  29.480  35.206  1.00  0.00     0.037 A 
BRANCH  50  64
ATOM     64  C   UNL A   1      40.253  33.965  38.442  1.00  0.00     0.064 A 
ATOM     65  C   UNL A   1      40.974  35.167  38.507  1.00  0.00     0.173 A 
ATOM     66  C   UNL A   1      39.479  33.604  39.555  1.00  0.00     0.173 A 
ATOM     67  F   UNL A   1      41.739  35.553  37.475  1.00  0.00    -0.203 F 
ATOM     68  C   UNL A   1      40.938  35.964  39.649  1.00  0.00     0.198 A 
ATOM     69  C   UNL A   1      39.422  34.418  40.684  1.00  0.00     0.198 A 
ATOM     70  F   UNL A   1      38.767  32.467  39.543  1.00  0.00    -0.203 F 
ATOM     71  F   UNL A   1      41.670  37.085  39.704  1.00  0.00    -0.200 F 
ATOM     72  C   UNL A   1      40.156  35.593  40.732  1.00  0.00     0.200 A 
ATOM     73  F   UNL A   1      38.654  34.065  41.724  1.00  0.00    -0.200 F 
ATOM     74  F   UNL A   1      40.114  36.367  41.826  1.00  0.00    -0.200 F 
ENDBRANCH  50  64
BRANCH  51  75
ATOM     75  C   UNL A   1      40.037  28.621  29.997  1.00  0.00     0.064 A 
ATOM     76  C   UNL A   1      39.413  27.368  29.926  1.00  0.00     0.173 A 
ATOM     77  C   UNL A   1      40.676  29.099  28.844  1.00  0.00     0.173 A 
ATOM     78  F   UNL A   1      38.806  26.859  31.007  1.00  0.00    -0.203 F 
ATOM     79  C   UNL A   1      39.454  26.609  28.758  1.00  0.00     0.198 A 
ATOM     80  C   UNL A   1      40.689  28.353  27.667  1.00  0.00     0.198 A 
ATOM     81  F   UNL A   1      41.282  30.296  28.857  1.00  0.00    -0.203 F 
ATOM     82  F   UNL A   1      38.899  25.389  28.735  1.00  0.00    -0.200 F 
ATOM     83  C   UNL A   1      40.089  27.103  27.628  1.00  0.00     0.200 A 
ATOM     84  F   UNL A   1      41.290  28.842  26.574  1.00  0.00    -0.200 F 
ATOM     85  F   UNL A   1      40.131  26.373  26.506  1.00  0.00    -0.200 F 
ENDBRANCH  51  75
BRANCH  63  86
ATOM     86  C   UNL A   1      44.206  28.663  35.577  1.00  0.00     0.064 A 
ATOM     87  C   UNL A   1      44.090  27.465  36.297  1.00  0.00     0.173 A 
ATOM     88  C   UNL A   1      45.488  29.066  35.173  1.00  0.00     0.173 A 
ATOM     89  F   UNL A   1      42.888  27.045  36.720  1.00  0.00    -0.203 F 
ATOM     90  C   UNL A   1      45.216  26.714  36.621  1.00  0.00     0.198 A 
ATOM     91  C   UNL A   1      46.609  28.297  35.471  1.00  0.00     0.198 A 
ATOM     92  F   UNL A   1      45.652  30.201  34.477  1.00  0.00    -0.203 F 
ATOM     93  F   UNL A   1      45.087  25.598  37.352  1.00  0.00    -0.200 F 
ATOM     94  C   UNL A   1      46.473  27.125  36.201  1.00  0.00     0.200 A 
ATOM     95  F   UNL A   1      47.819  28.688  35.052  1.00  0.00    -0.200 F 
ATOM     96  F   UNL A   1      47.555  26.396  36.507  1.00  0.00    -0.200 F 
ENDBRANCH  63  86
ENDBRANCH  37  38
ENDBRANCH  29  32
ENDBRANCH  27  28
ENDBRANCH  26  27
ENDBRANCH  25  26
ENDBRANCH  24  25
ENDBRANCH   1  24
TORSDOF 18
ENDMDL
MODEL 2
REMARK VINA RESULT:     -10.7      6.320     10.925
REMARK SMILES CCC(CC)NC(=O)NC[C@H]1CC[C@H](C(=O)NCCCCCCNC(=O)c2ccc(-c3c4nc(c(-c5c(F)c(F)c(F)c(F)c5F)c5ccc([nH]5)c(-c5c(F)c(F)c(F)c(F)c5F)c5nc(c(-c6c(F)c(F)c(F)c(F)c6F)c6ccc3[nH]6)C=C5)C=C4)cc2)O1
REMARK SMILES IDX 19 1 18 2 17 3 15 4 16 5 14 7 11 8 12 9 90 10 13 11 10 12
REMARK SMILES IDX 9 13 6 14 7 15 8 17 3 19 2 20 1 21 4 22 5 23 20 24 21 25
REMARK SMILES IDX 22 26 23 27 24 28 25 29 26 31 27 32 28 33 89 34 29 35 88 36
REMARK SMILES IDX 30 37 31 38 32 39 82 40 33 41 87 42 81 43 83 44 34 45 86 46
REMARK SMILES IDX 80 47 79 48 35 50 67 51 47 52 66 53 48 54 51 55 65 56 84 57
REMARK SMILES IDX 49 58 50 59 64 61 85 62 52 63 36 64 37 65 45 66 38 67 39 68
REMARK SMILES IDX 43 69 46 70 40 71 41 72 44 73 42 74 68 75 69 76 77 77 70 78
REMARK SMILES IDX 71 79 75 80 78 81 72 82 73 83 76 84 74 85 53 86 54 87 62 88
REMARK SMILES IDX 55 89 56 90 60 91 63 92 57 93 58 94 61 95 59 96
REMARK H PARENT 17 6 6 16 9 18 24 30 83 49 51 60
REMARK Flexibility Score: inf
ROOT
ATOM      1  C   UNL A   1      37.775  22.736  25.519  1.00  0.00     0.021 C 
ENDROOT
BRANCH   1   2
ATOM      2  C   UNL A   1      36.660  23.713  25.889  1.00  0.00     0.116 C 
BRANCH   2   3
ATOM      3  N   UNL A   1      35.646  23.063  26.687  1.00  0.00    -0.354 N 
ATOM      4  C   UNL A   1      34.311  22.907  26.451  1.00  0.00     0.249 C 
ATOM      5  O   UNL A   1      33.639  22.361  27.330  1.00  0.00    -0.272 OA
ATOM      6  H   UNL A   1      35.967  22.672  27.532  1.00  0.00     0.163 HD
BRANCH   4   7
ATOM      7  C   UNL A   1      33.645  23.435  25.163  1.00  0.00     0.207 C 
ATOM      8  C   UNL A   1      31.602  23.112  24.056  1.00  0.00     0.138 C 
ATOM      9  C   UNL A   1      32.573  22.074  23.511  1.00  0.00     0.037 C 
ATOM     10  O   UNL A   1      32.231  23.629  25.249  1.00  0.00    -0.363 OA
ATOM     11  C   UNL A   1      33.928  22.571  23.943  1.00  0.00     0.045 C 
BRANCH   8  12
ATOM     12  C   UNL A   1      31.213  24.297  23.144  1.00  0.00     0.149 C 
BRANCH  12  13
ATOM     13  N   UNL A   1      32.068  24.525  21.998  1.00  0.00    -0.336 N 
ATOM     14  N   UNL A   1      32.092  26.864  21.638  1.00  0.00    -0.335 N 
ATOM     15  C   UNL A   1      32.446  25.614  21.319  1.00  0.00     0.315 C 
ATOM     16  H   UNL A   1      32.307  27.509  20.927  1.00  0.00     0.165 HD
ATOM     17  O   UNL A   1      33.138  25.450  20.312  1.00  0.00    -0.249 OA
ATOM     18  H   UNL A   1      32.458  23.695  21.640  1.00  0.00     0.165 HD
BRANCH  14  19
ATOM     19  C   UNL A   1      31.460  27.495  22.795  1.00  0.00     0.083 C 
BRANCH  19  20
ATOM     20  C   UNL A   1      32.486  28.383  23.514  1.00  0.00     0.021 C 
ATOM     21  C   UNL A   1      33.756  28.613  22.708  1.00  0.00     0.006 C 
ENDBRANCH  19  20
BRANCH  19  22
ATOM     22  C   UNL A   1      30.156  28.207  22.381  1.00  0.00     0.021 C 
ATOM     23  C   UNL A   1      30.274  29.705  22.138  1.00  0.00     0.006 C 
ENDBRANCH  19  22
ENDBRANCH  14  19
ENDBRANCH  12  13
ENDBRANCH   8  12
ENDBRANCH   4   7
ENDBRANCH   2   3
ENDBRANCH   1   2
BRANCH   1  24
ATOM     24  C   UNL A   1      37.383  21.767  24.400  1.00  0.00     0.002 C 
BRANCH  24  25
ATOM     25  C   UNL A   1      37.004  20.359  24.880  1.00  0.00     0.002 C 
BRANCH  25  26
ATOM     26  C   UNL A   1      38.177  19.382  25.009  1.00  0.00     0.021 C 
BRANCH  26  27
ATOM     27  C   UNL A   1      39.172  19.738  26.108  1.00  0.00     0.116 C 
BRANCH  27  28
ATOM     28  N   UNL A   1      40.340  18.873  26.071  1.00  0.00    -0.352 N 
ATOM     29  C   UNL A   1      41.670  19.205  26.033  1.00  0.00     0.251 C 
ATOM     30  H   UNL A   1      40.148  17.907  26.075  1.00  0.00     0.163 HD
ATOM     31  O   UNL A   1      42.511  18.359  25.752  1.00  0.00    -0.269 OA
BRANCH  29  32
ATOM     32  C   UNL A   1      42.089  20.590  26.327  1.00  0.00     0.039 A 
ATOM     33  C   UNL A   1      42.284  20.971  27.656  1.00  0.00     0.014 A 
ATOM     34  C   UNL A   1      42.257  21.518  25.295  1.00  0.00     0.014 A 
ATOM     35  C   UNL A   1      42.694  22.274  27.948  1.00  0.00     0.010 A 
ATOM     36  C   UNL A   1      42.734  22.793  25.581  1.00  0.00     0.010 A 
ATOM     37  C   UNL A   1      42.947  23.186  26.911  1.00  0.00    -0.014 A 
BRANCH  37  38
ATOM     38  C   UNL A   1      43.418  24.565  27.198  1.00  0.00     0.031 A 
ATOM     39  C   UNL A   1      42.465  25.584  27.758  1.00  0.00     0.074 A 
ATOM     40  C   UNL A   1      44.684  24.911  26.899  1.00  0.00     0.049 A 
ATOM     41  N   UNL A   1      42.661  26.855  28.002  1.00  0.00    -0.248 NA
ATOM     42  C   UNL A   1      41.102  25.118  28.059  1.00  0.00     0.031 C 
ATOM     43  C   UNL A   1      45.689  24.021  26.315  1.00  0.00     0.029 A 
ATOM     44  N   UNL A   1      45.340  26.108  27.035  1.00  0.00    -0.354 N 
ATOM     45  C   UNL A   1      41.448  27.340  28.472  1.00  0.00     0.074 A 
ATOM     46  C   UNL A   1      40.506  26.243  28.428  1.00  0.00     0.031 C 
ATOM     47  C   UNL A   1      46.839  24.698  26.160  1.00  0.00     0.029 A 
ATOM     48  C   UNL A   1      46.642  26.077  26.596  1.00  0.00     0.049 A 
ATOM     49  H   UNL A   1      44.918  26.914  27.411  1.00  0.00     0.167 HD
ATOM     50  C   UNL A   1      41.154  28.582  28.925  1.00  0.00     0.037 A 
ATOM     51  C   UNL A   1      47.568  27.053  26.546  1.00  0.00     0.037 A 
ATOM     52  C   UNL A   1      42.101  29.663  28.992  1.00  0.00     0.049 A 
ATOM     53  C   UNL A   1      47.209  28.427  27.045  1.00  0.00     0.074 A 
ATOM     54  C   UNL A   1      41.916  30.945  29.480  1.00  0.00     0.029 A 
ATOM     55  N   UNL A   1      43.417  29.586  28.558  1.00  0.00    -0.354 N 
ATOM     56  N   UNL A   1      46.077  28.858  27.545  1.00  0.00    -0.248 NA
ATOM     57  C   UNL A   1      48.262  29.451  26.979  1.00  0.00     0.031 C 
ATOM     58  C   UNL A   1      43.105  31.657  29.301  1.00  0.00     0.029 A 
ATOM     59  C   UNL A   1      44.048  30.804  28.750  1.00  0.00     0.049 A 
ATOM     60  H   UNL A   1      43.839  28.785  28.171  1.00  0.00     0.167 HD
ATOM     61  C   UNL A   1      46.289  30.188  27.881  1.00  0.00     0.074 A 
ATOM     62  C   UNL A   1      47.664  30.490  27.544  1.00  0.00     0.031 C 
ATOM     63  C   UNL A   1      45.423  31.081  28.421  1.00  0.00     0.037 A 
BRANCH  50  64
ATOM     64  C   UNL A   1      39.751  28.839  29.394  1.00  0.00     0.064 A 
ATOM     65  C   UNL A   1      39.372  28.629  30.728  1.00  0.00     0.173 A 
ATOM     66  C   UNL A   1      38.786  29.351  28.512  1.00  0.00     0.173 A 
ATOM     67  F   UNL A   1      40.252  28.129  31.609  1.00  0.00    -0.203 F 
ATOM     68  C   UNL A   1      38.075  28.898  31.157  1.00  0.00     0.198 A 
ATOM     69  C   UNL A   1      37.499  29.649  28.951  1.00  0.00     0.198 A 
ATOM     70  F   UNL A   1      39.098  29.576  27.226  1.00  0.00    -0.203 F 
ATOM     71  F   UNL A   1      37.725  28.646  32.425  1.00  0.00    -0.200 F 
ATOM     72  C   UNL A   1      37.142  29.415  30.271  1.00  0.00     0.200 A 
ATOM     73  F   UNL A   1      36.603  30.162  28.097  1.00  0.00    -0.200 F 
ATOM     74  F   UNL A   1      35.898  29.686  30.688  1.00  0.00    -0.200 F 
ENDBRANCH  50  64
BRANCH  51  75
ATOM     75  C   UNL A   1      48.928  26.768  26.017  1.00  0.00     0.064 A 
ATOM     76  C   UNL A   1      49.945  26.301  26.862  1.00  0.00     0.173 A 
ATOM     77  C   UNL A   1      49.246  26.979  24.668  1.00  0.00     0.173 A 
ATOM     78  F   UNL A   1      49.695  26.102  28.164  1.00  0.00    -0.203 F 
ATOM     79  C   UNL A   1      51.235  26.083  26.383  1.00  0.00     0.198 A 
ATOM     80  C   UNL A   1      50.529  26.730  24.184  1.00  0.00     0.198 A 
ATOM     81  F   UNL A   1      48.308  27.419  23.816  1.00  0.00    -0.203 F 
ATOM     82  F   UNL A   1      52.202  25.690  27.225  1.00  0.00    -0.200 F 
ATOM     83  C   UNL A   1      51.526  26.294  25.044  1.00  0.00     0.200 A 
ATOM     84  F   UNL A   1      50.801  26.921  22.885  1.00  0.00    -0.200 F 
ATOM     85  F   UNL A   1      52.767  26.087  24.584  1.00  0.00    -0.200 F 
ENDBRANCH  51  75
BRANCH  63  86
ATOM     86  C   UNL A   1      45.948  32.455  28.719  1.00  0.00     0.064 A 
ATOM     87  C   UNL A   1      45.854  33.499  27.786  1.00  0.00     0.173 A 
ATOM     88  C   UNL A   1      46.517  32.740  29.970  1.00  0.00     0.173 A 
ATOM     89  F   UNL A   1      45.332  33.273  26.571  1.00  0.00    -0.203 F 
ATOM     90  C   UNL A   1      46.334  34.770  28.086  1.00  0.00     0.198 A 
ATOM     91  C   UNL A   1      46.968  34.020  30.278  1.00  0.00     0.198 A 
ATOM     92  F   UNL A   1      46.624  31.778  30.899  1.00  0.00    -0.203 F 
ATOM     93  F   UNL A   1      46.280  35.740  27.163  1.00  0.00    -0.200 F 
ATOM     94  C   UNL A   1      46.883  35.032  29.333  1.00  0.00     0.200 A 
ATOM     95  F   UNL A   1      47.483  34.275  31.487  1.00  0.00    -0.200 F 
ATOM     96  F   UNL A   1      47.337  36.260  29.623  1.00  0.00    -0.200 F 
ENDBRANCH  63  86
ENDBRANCH  37  38
ENDBRANCH  29  32
ENDBRANCH  27  28
ENDBRANCH  26  27
ENDBRANCH  25  26
ENDBRANCH  24  25
ENDBRANCH   1  24
TORSDOF 18
ENDMDL
MODEL 3
REMARK VINA RESULT:     -10.6      6.089     11.573
REMARK SMILES CCC(CC)NC(=O)NC[C@H]1CC[C@H](C(=O)NCCCCCCNC(=O)c2ccc(-c3c4nc(c(-c5c(F)c(F)c(F)c(F)c5F)c5ccc([nH]5)c(-c5c(F)c(F)c(F)c(F)c5F)c5nc(c(-c6c(F)c(F)c(F)c(F)c6F)c6ccc3[nH]6)C=C5)C=C4)cc2)O1
REMARK SMILES IDX 19 1 18 2 17 3 15 4 16 5 14 7 11 8 12 9 90 10 13 11 10 12
REMARK SMILES IDX 9 13 6 14 7 15 8 17 3 19 2 20 1 21 4 22 5 23 20 24 21 25
REMARK SMILES IDX 22 26 23 27 24 28 25 29 26 31 27 32 28 33 89 34 29 35 88 36
REMARK SMILES IDX 30 37 31 38 32 39 82 40 33 41 87 42 81 43 83 44 34 45 86 46
REMARK SMILES IDX 80 47 79 48 35 50 67 51 47 52 66 53 48 54 51 55 65 56 84 57
REMARK SMILES IDX 49 58 50 59 64 61 85 62 52 63 36 64 37 65 45 66 38 67 39 68
REMARK SMILES IDX 43 69 46 70 40 71 41 72 44 73 42 74 68 75 69 76 77 77 70 78
REMARK SMILES IDX 71 79 75 80 78 81 72 82 73 83 76 84 74 85 53 86 54 87 62 88
REMARK SMILES IDX 55 89 56 90 60 91 63 92 57 93 58 94 61 95 59 96
REMARK H PARENT 17 6 6 16 9 18 24 30 83 49 51 60
REMARK Flexibility Score: inf
ROOT
ATOM      1  C   UNL A   1      37.677  22.785  25.650  1.00  0.00     0.021 C 
ENDROOT
BRANCH   1   2
ATOM      2  C   UNL A   1      36.511  23.670  26.084  1.00  0.00     0.116 C 
BRANCH   2   3
ATOM      3  N   UNL A   1      35.473  22.887  26.717  1.00  0.00    -0.354 N 
ATOM      4  C   UNL A   1      34.166  22.717  26.366  1.00  0.00     0.249 C 
ATOM      5  O   UNL A   1      33.460  22.038  27.116  1.00  0.00    -0.272 OA
ATOM      6  H   UNL A   1      35.754  22.401  27.527  1.00  0.00     0.163 HD
BRANCH   4   7
ATOM      7  C   UNL A   1      33.567  23.385  25.110  1.00  0.00     0.207 C 
ATOM      8  C   UNL A   1      31.531  23.291  23.949  1.00  0.00     0.138 C 
ATOM      9  C   UNL A   1      32.438  22.229  23.343  1.00  0.00     0.037 C 
ATOM     10  O   UNL A   1      32.168  23.672  25.187  1.00  0.00    -0.363 OA
ATOM     11  C   UNL A   1      33.815  22.594  23.834  1.00  0.00     0.045 C 
BRANCH   8  12
ATOM     12  C   UNL A   1      31.245  24.565  23.123  1.00  0.00     0.149 C 
BRANCH  12  13
ATOM     13  N   UNL A   1      32.006  24.713  21.900  1.00  0.00    -0.336 N 
ATOM     14  N   UNL A   1      32.255  27.039  21.546  1.00  0.00    -0.335 N 
ATOM     15  C   UNL A   1      32.436  25.762  21.190  1.00  0.00     0.315 C 
ATOM     16  H   UNL A   1      32.471  27.667  20.819  1.00  0.00     0.165 HD
ATOM     17  O   UNL A   1      33.005  25.537  20.120  1.00  0.00    -0.249 OA
ATOM     18  H   UNL A   1      32.265  23.850  21.503  1.00  0.00     0.165 HD
BRANCH  14  19
ATOM     19  C   UNL A   1      31.811  27.720  22.761  1.00  0.00     0.083 C 
BRANCH  19  20
ATOM     20  C   UNL A   1      32.824  28.814  23.129  1.00  0.00     0.021 C 
ATOM     21  C   UNL A   1      32.849  29.138  24.616  1.00  0.00     0.006 C 
ENDBRANCH  19  20
BRANCH  19  22
ATOM     22  C   UNL A   1      30.354  28.202  22.612  1.00  0.00     0.021 C 
ATOM     23  C   UNL A   1      30.178  29.585  22.001  1.00  0.00     0.006 C 
ENDBRANCH  19  22
ENDBRANCH  14  19
ENDBRANCH  12  13
ENDBRANCH   8  12
ENDBRANCH   4   7
ENDBRANCH   2   3
ENDBRANCH   1   2
BRANCH   1  24
ATOM     24  C   UNL A   1      37.334  21.866  24.474  1.00  0.00     0.002 C 
BRANCH  24  25
ATOM     25  C   UNL A   1      37.092  20.401  24.859  1.00  0.00     0.002 C 
BRANCH  25  26
ATOM     26  C   UNL A   1      38.350  19.528  24.906  1.00  0.00     0.021 C 
BRANCH  26  27
ATOM     27  C   UNL A   1      39.294  19.850  26.060  1.00  0.00     0.116 C 
BRANCH  27  28
ATOM     28  N   UNL A   1      40.467  18.990  26.045  1.00  0.00    -0.352 N 
ATOM     29  C   UNL A   1      41.795  19.328  26.046  1.00  0.00     0.251 C 
ATOM     30  H   UNL A   1      40.279  18.023  26.034  1.00  0.00     0.163 HD
ATOM     31  O   UNL A   1      42.648  18.488  25.779  1.00  0.00    -0.269 OA
BRANCH  29  32
ATOM     32  C   UNL A   1      42.201  20.712  26.366  1.00  0.00     0.039 A 
ATOM     33  C   UNL A   1      42.390  21.621  25.323  1.00  0.00     0.014 A 
ATOM     34  C   UNL A   1      42.426  21.100  27.690  1.00  0.00     0.014 A 
ATOM     35  C   UNL A   1      42.760  22.936  25.612  1.00  0.00     0.010 A 
ATOM     36  C   UNL A   1      42.725  22.427  27.981  1.00  0.00     0.010 A 
ATOM     37  C   UNL A   1      42.904  23.355  26.944  1.00  0.00    -0.014 A 
BRANCH  37  38
ATOM     38  C   UNL A   1      43.263  24.758  27.275  1.00  0.00     0.031 A 
ATOM     39  C   UNL A   1      44.674  25.238  27.085  1.00  0.00     0.074 A 
ATOM     40  C   UNL A   1      42.331  25.577  27.799  1.00  0.00     0.049 A 
ATOM     41  N   UNL A   1      45.203  26.397  27.386  1.00  0.00    -0.248 NA
ATOM     42  C   UNL A   1      45.626  24.279  26.502  1.00  0.00     0.031 C 
ATOM     43  C   UNL A   1      40.939  25.212  28.067  1.00  0.00     0.029 A 
ATOM     44  N   UNL A   1      42.417  26.882  28.211  1.00  0.00    -0.354 N 
ATOM     45  C   UNL A   1      46.544  26.301  27.042  1.00  0.00     0.074 A 
ATOM     46  C   UNL A   1      46.764  24.954  26.561  1.00  0.00     0.031 C 
ATOM     47  C   UNL A   1      40.297  26.274  28.581  1.00  0.00     0.029 A 
ATOM     48  C   UNL A   1      41.240  27.380  28.715  1.00  0.00     0.049 A 
ATOM     49  H   UNL A   1      43.245  27.412  28.152  1.00  0.00     0.167 HD
ATOM     50  C   UNL A   1      47.500  27.259  27.098  1.00  0.00     0.037 A 
ATOM     51  C   UNL A   1      40.958  28.590  29.234  1.00  0.00     0.037 A 
ATOM     52  C   UNL A   1      47.271  28.604  27.553  1.00  0.00     0.049 A 
ATOM     53  C   UNL A   1      42.043  29.631  29.294  1.00  0.00     0.074 A 
ATOM     54  C   UNL A   1      48.161  29.663  27.602  1.00  0.00     0.029 A 
ATOM     55  N   UNL A   1      46.060  29.077  28.036  1.00  0.00    -0.354 N 
ATOM     56  N   UNL A   1      43.294  29.548  28.909  1.00  0.00    -0.248 NA
ATOM     57  C   UNL A   1      41.676  30.938  29.857  1.00  0.00     0.031 C 
ATOM     58  C   UNL A   1      47.501  30.764  28.156  1.00  0.00     0.029 A 
ATOM     59  C   UNL A   1      46.185  30.407  28.404  1.00  0.00     0.049 A 
ATOM     60  H   UNL A   1      45.233  28.547  28.108  1.00  0.00     0.167 HD
ATOM     61  C   UNL A   1      43.852  30.796  29.151  1.00  0.00     0.074 A 
ATOM     62  C   UNL A   1      42.800  31.624  29.702  1.00  0.00     0.031 C 
ATOM     63  C   UNL A   1      45.122  31.220  28.937  1.00  0.00     0.037 A 
BRANCH  50  64
ATOM     64  C   UNL A   1      48.884  26.889  26.648  1.00  0.00     0.064 A 
ATOM     65  C   UNL A   1      49.282  27.027  25.309  1.00  0.00     0.173 A 
ATOM     66  C   UNL A   1      49.840  26.442  27.572  1.00  0.00     0.173 A 
ATOM     67  F   UNL A   1      48.404  27.439  24.383  1.00  0.00    -0.203 F 
ATOM     68  C   UNL A   1      50.577  26.708  24.909  1.00  0.00     0.198 A 
ATOM     69  C   UNL A   1      51.143  26.153  27.174  1.00  0.00     0.198 A 
ATOM     70  F   UNL A   1      49.514  26.298  28.866  1.00  0.00    -0.203 F 
ATOM     71  F   UNL A   1      50.920  26.804  23.617  1.00  0.00    -0.200 F 
ATOM     72  C   UNL A   1      51.508  26.279  25.843  1.00  0.00     0.200 A 
ATOM     73  F   UNL A   1      52.045  25.753  28.080  1.00  0.00    -0.200 F 
ATOM     74  F   UNL A   1      52.757  25.984  25.458  1.00  0.00    -0.200 F 
ENDBRANCH  50  64
BRANCH  51  75
ATOM     75  C   UNL A   1      39.587  28.893  29.724  1.00  0.00     0.064 A 
ATOM     76  C   UNL A   1      38.629  29.464  28.875  1.00  0.00     0.173 A 
ATOM     77  C   UNL A   1      39.214  28.641  31.053  1.00  0.00     0.173 A 
ATOM     78  F   UNL A   1      38.943  29.742  27.602  1.00  0.00    -0.203 F 
ATOM     79  C   UNL A   1      37.360  29.799  29.344  1.00  0.00     0.198 A 
ATOM     80  C   UNL A   1      37.935  28.948  31.511  1.00  0.00     0.198 A 
ATOM     81  F   UNL A   1      40.092  28.090  31.905  1.00  0.00    -0.203 F 
ATOM     82  F   UNL A   1      36.483  30.397  28.525  1.00  0.00    -0.200 F 
ATOM     83  C   UNL A   1      37.013  29.538  30.660  1.00  0.00     0.200 A 
ATOM     84  F   UNL A   1      37.599  28.679  32.780  1.00  0.00    -0.200 F 
ATOM     85  F   UNL A   1      35.794  29.861  31.111  1.00  0.00    -0.200 F 
ENDBRANCH  51  75
BRANCH  63  86
ATOM     86  C   UNL A   1      45.434  32.652  29.260  1.00  0.00     0.064 A 
ATOM     87  C   UNL A   1      45.230  33.679  28.327  1.00  0.00     0.173 A 
ATOM     88  C   UNL A   1      45.905  33.004  30.534  1.00  0.00     0.173 A 
ATOM     89  F   UNL A   1      44.795  33.393  27.091  1.00  0.00    -0.203 F 
ATOM     90  C   UNL A   1      45.512  35.004  28.650  1.00  0.00     0.198 A 
ATOM     91  C   UNL A   1      46.156  34.332  30.864  1.00  0.00     0.198 A 
ATOM     92  F   UNL A   1      46.110  32.059  31.465  1.00  0.00    -0.203 F 
ATOM     93  F   UNL A   1      45.358  35.963  27.728  1.00  0.00    -0.200 F 
ATOM     94  C   UNL A   1      45.967  35.330  29.920  1.00  0.00     0.200 A 
ATOM     95  F   UNL A   1      46.581  34.647  32.095  1.00  0.00    -0.200 F 
ATOM     96  F   UNL A   1      46.230  36.607  30.231  1.00  0.00    -0.200 F 
ENDBRANCH  63  86
ENDBRANCH  37  38
ENDBRANCH  29  32
ENDBRANCH  27  28
ENDBRANCH  26  27
ENDBRANCH  25  26
ENDBRANCH  24  25
ENDBRANCH   1  24
TORSDOF 18
ENDMDL
