MODEL 1
REMARK VINA RESULT:     -13.7      0.000      0.000
REMARK SMILES Cc1ccc(C(=O)c2cccc(C)c2C(=O)NCCCCCCNC(=O)c2ccc(-c3c4nc(c(-c5c(F)c(F)c(F)c(F)c5F)c5ccc([nH]5)c(-c5c(F)c(F)c(F)c(F)c5F)c5nc(c(-c6c(F)c(F)c(F)c(F)c6F)c6ccc3[nH]6)C=C5)C=C4)cc2)c(C)c1
REMARK SMILES IDX 20 1 19 2 18 3 17 4 15 5 16 6 14 8 8 9 9 10 10 11 12 12
REMARK SMILES IDX 11 13 13 14 6 15 7 16 5 17 1 18 2 19 3 20 92 21 4 22 90 23
REMARK SMILES IDX 91 24 21 25 22 26 23 27 24 28 25 29 26 31 27 32 28 33 89 34
REMARK SMILES IDX 29 35 88 36 30 37 31 38 32 39 82 40 33 41 87 42 81 43 83 44
REMARK SMILES IDX 34 45 86 46 80 47 79 48 35 50 67 51 47 52 66 53 48 54 51 55
REMARK SMILES IDX 65 56 84 57 49 58 50 59 64 61 85 62 52 63 36 64 37 65 45 66
REMARK SMILES IDX 38 67 39 68 43 69 46 70 40 71 41 72 44 73 42 74 68 75 69 76
REMARK SMILES IDX 77 77 70 78 71 79 75 80 78 81 72 82 73 83 76 84 74 85 53 86
REMARK SMILES IDX 54 87 62 88 55 89 56 90 60 91 63 92 57 93 58 94 61 95 59 96
REMARK H PARENT 17 7 24 30 83 49 51 60
REMARK Flexibility Score: inf
ROOT
ATOM      1  C   UNL A   1      33.999  28.190  26.403  1.00  0.00     0.002 C 
ENDROOT
BRANCH   1   2
ATOM      2  C   UNL A   1      33.729  27.909  24.916  1.00  0.00     0.021 C 
BRANCH   2   3
ATOM      3  C   UNL A   1      33.987  26.498  24.389  1.00  0.00     0.116 C 
BRANCH   3   4
ATOM      4  N   UNL A   1      33.190  26.086  23.259  1.00  0.00    -0.352 N 
ATOM      5  C   UNL A   1      32.041  25.321  23.206  1.00  0.00     0.252 C 
ATOM      6  O   UNL A   1      31.431  25.304  22.136  1.00  0.00    -0.269 OA
ATOM      7  H   UNL A   1      33.516  26.401  22.386  1.00  0.00     0.163 HD
BRANCH   5   8
ATOM      8  C   UNL A   1      31.582  24.435  24.329  1.00  0.00     0.053 A 
ATOM      9  C   UNL A   1      32.030  23.111  24.518  1.00  0.00     0.036 A 
ATOM     10  C   UNL A   1      31.565  22.347  25.607  1.00  0.00     0.013 A 
ATOM     11  C   UNL A   1      30.646  22.874  26.506  1.00  0.00     0.001 A 
ATOM     12  C   UNL A   1      30.712  24.994  25.309  1.00  0.00    -0.038 A 
ATOM     13  C   UNL A   1      30.241  24.195  26.370  1.00  0.00     0.004 A 
ATOM     14  C   UNL A   1      30.328  26.454  25.326  1.00  0.00     0.045 C 
BRANCH   9  15
ATOM     15  C   UNL A   1      33.153  22.544  23.735  1.00  0.00     0.194 C 
ATOM     16  O   UNL A   1      32.909  22.277  22.563  1.00  0.00    -0.289 OA
BRANCH  15  17
ATOM     17  C   UNL A   1      34.531  22.328  24.319  1.00  0.00     0.025 A 
ATOM     18  C   UNL A   1      38.601  21.690  25.653  1.00  0.00     0.044 C 
ATOM     19  C   UNL A   1      37.175  21.939  25.259  1.00  0.00    -0.051 A 
ATOM     20  C   UNL A   1      36.730  23.215  24.918  1.00  0.00     0.004 A 
ATOM     21  C   UNL A   1      36.273  20.873  25.196  1.00  0.00     0.007 A 
ATOM     22  C   UNL A   1      35.420  23.409  24.467  1.00  0.00     0.013 A 
ATOM     23  C   UNL A   1      34.948  21.051  24.755  1.00  0.00    -0.040 A 
ATOM     24  C   UNL A   1      34.046  19.843  24.762  1.00  0.00     0.045 C 
ENDBRANCH  15  17
ENDBRANCH   9  15
ENDBRANCH   5   8
ENDBRANCH   3   4
ENDBRANCH   2   3
ENDBRANCH   1   2
BRANCH   1  25
ATOM     25  C   UNL A   1      32.887  28.815  27.259  1.00  0.00     0.002 C 
BRANCH  25  26
ATOM     26  C   UNL A   1      32.948  30.320  27.512  1.00  0.00     0.021 C 
BRANCH  26  27
ATOM     27  C   UNL A   1      34.305  30.979  27.313  1.00  0.00     0.116 C 
BRANCH  27  28
ATOM     28  N   UNL A   1      34.811  31.700  28.479  1.00  0.00    -0.352 N 
ATOM     29  C   UNL A   1      35.829  31.332  29.344  1.00  0.00     0.251 C 
ATOM     30  H   UNL A   1      34.372  32.560  28.674  1.00  0.00     0.163 HD
ATOM     31  O   UNL A   1      36.178  32.063  30.264  1.00  0.00    -0.269 OA
BRANCH  29  32
ATOM     32  C   UNL A   1      36.582  30.088  29.060  1.00  0.00     0.039 A 
ATOM     33  C   UNL A   1      36.813  29.206  30.120  1.00  0.00     0.014 A 
ATOM     34  C   UNL A   1      37.264  29.946  27.855  1.00  0.00     0.014 A 
ATOM     35  C   UNL A   1      37.926  28.371  30.069  1.00  0.00     0.010 A 
ATOM     36  C   UNL A   1      38.423  29.194  27.843  1.00  0.00     0.010 A 
ATOM     37  C   UNL A   1      38.800  28.483  28.988  1.00  0.00    -0.014 A 
BRANCH  37  38
ATOM     38  C   UNL A   1      40.195  28.054  29.049  1.00  0.00     0.031 A 
ATOM     39  C   UNL A   1      40.601  26.708  28.598  1.00  0.00     0.074 A 
ATOM     40  C   UNL A   1      41.136  28.947  29.434  1.00  0.00     0.049 A 
ATOM     41  N   UNL A   1      41.764  26.193  28.822  1.00  0.00    -0.248 NA
ATOM     42  C   UNL A   1      39.687  25.787  27.930  1.00  0.00     0.031 C 
ATOM     43  C   UNL A   1      42.584  28.853  29.255  1.00  0.00     0.029 A 
ATOM     44  N   UNL A   1      40.967  30.044  30.300  1.00  0.00    -0.354 N 
ATOM     45  C   UNL A   1      41.851  25.021  28.112  1.00  0.00     0.074 A 
ATOM     46  C   UNL A   1      40.498  24.749  27.696  1.00  0.00     0.031 C 
ATOM     47  C   UNL A   1      43.185  29.608  30.186  1.00  0.00     0.029 A 
ATOM     48  C   UNL A   1      42.148  30.082  31.083  1.00  0.00     0.049 A 
ATOM     49  H   UNL A   1      40.196  30.653  30.351  1.00  0.00     0.167 HD
ATOM     50  C   UNL A   1      43.087  24.500  27.866  1.00  0.00     0.037 A 
ATOM     51  C   UNL A   1      42.110  29.852  32.429  1.00  0.00     0.037 A 
ATOM     52  C   UNL A   1      44.091  25.096  28.752  1.00  0.00     0.049 A 
ATOM     53  C   UNL A   1      42.940  28.677  32.903  1.00  0.00     0.074 A 
ATOM     54  C   UNL A   1      45.124  26.005  28.601  1.00  0.00     0.029 A 
ATOM     55  N   UNL A   1      43.944  24.908  30.117  1.00  0.00    -0.354 N 
ATOM     56  N   UNL A   1      43.548  27.839  32.109  1.00  0.00    -0.248 NA
ATOM     57  C   UNL A   1      43.054  28.292  34.312  1.00  0.00     0.031 C 
ATOM     58  C   UNL A   1      45.552  26.404  29.904  1.00  0.00     0.029 A 
ATOM     59  C   UNL A   1      44.795  25.721  30.838  1.00  0.00     0.049 A 
ATOM     60  H   UNL A   1      43.310  24.273  30.523  1.00  0.00     0.167 HD
ATOM     61  C   UNL A   1      44.065  26.813  32.850  1.00  0.00     0.074 A 
ATOM     62  C   UNL A   1      43.737  27.138  34.224  1.00  0.00     0.031 C 
ATOM     63  C   UNL A   1      44.689  25.742  32.287  1.00  0.00     0.037 A 
BRANCH  50  64
ATOM     64  C   UNL A   1      43.444  23.559  26.726  1.00  0.00     0.064 A 
ATOM     65  C   UNL A   1      43.079  22.193  26.797  1.00  0.00     0.173 A 
ATOM     66  C   UNL A   1      44.246  23.882  25.610  1.00  0.00     0.173 A 
ATOM     67  F   UNL A   1      42.311  21.727  27.792  1.00  0.00    -0.203 F 
ATOM     68  C   UNL A   1      43.512  21.243  25.863  1.00  0.00     0.198 A 
ATOM     69  C   UNL A   1      44.643  22.940  24.656  1.00  0.00     0.198 A 
ATOM     70  F   UNL A   1      44.735  25.106  25.401  1.00  0.00    -0.203 F 
ATOM     71  F   UNL A   1      43.184  19.954  26.026  1.00  0.00    -0.200 F 
ATOM     72  C   UNL A   1      44.293  21.617  24.791  1.00  0.00     0.200 A 
ATOM     73  F   UNL A   1      45.401  23.330  23.619  1.00  0.00    -0.200 F 
ATOM     74  F   UNL A   1      44.719  20.709  23.902  1.00  0.00    -0.200 F 
ENDBRANCH  50  64
BRANCH  51  75
ATOM     75  C   UNL A   1      40.837  30.289  33.059  1.00  0.00     0.064 A 
ATOM     76  C   UNL A   1      40.600  31.667  33.219  1.00  0.00     0.173 A 
ATOM     77  C   UNL A   1      39.741  29.425  33.165  1.00  0.00     0.173 A 
ATOM     78  F   UNL A   1      41.618  32.538  33.123  1.00  0.00    -0.203 F 
ATOM     79  C   UNL A   1      39.308  32.168  33.356  1.00  0.00     0.198 A 
ATOM     80  C   UNL A   1      38.450  29.929  33.324  1.00  0.00     0.198 A 
ATOM     81  F   UNL A   1      39.897  28.104  33.000  1.00  0.00    -0.203 F 
ATOM     82  F   UNL A   1      39.104  33.492  33.385  1.00  0.00    -0.200 F 
ATOM     83  C   UNL A   1      38.231  31.298  33.383  1.00  0.00     0.200 A 
ATOM     84  F   UNL A   1      37.406  29.089  33.317  1.00  0.00    -0.200 F 
ATOM     85  F   UNL A   1      36.980  31.777  33.418  1.00  0.00    -0.200 F 
ENDBRANCH  51  75
BRANCH  63  86
ATOM     86  C   UNL A   1      45.247  24.618  33.097  1.00  0.00     0.064 A 
ATOM     87  C   UNL A   1      44.480  23.489  33.427  1.00  0.00     0.173 A 
ATOM     88  C   UNL A   1      46.533  24.697  33.664  1.00  0.00     0.173 A 
ATOM     89  F   UNL A   1      43.235  23.348  32.948  1.00  0.00    -0.203 F 
ATOM     90  C   UNL A   1      44.979  22.491  34.264  1.00  0.00     0.198 A 
ATOM     91  C   UNL A   1      47.013  23.720  34.532  1.00  0.00     0.198 A 
ATOM     92  F   UNL A   1      47.358  25.713  33.366  1.00  0.00    -0.203 F 
ATOM     93  F   UNL A   1      44.233  21.409  34.528  1.00  0.00    -0.200 F 
ATOM     94  C   UNL A   1      46.238  22.613  34.829  1.00  0.00     0.200 A 
ATOM     95  F   UNL A   1      48.229  23.854  35.080  1.00  0.00    -0.200 F 
ATOM     96  F   UNL A   1      46.705  21.665  35.652  1.00  0.00    -0.200 F 
ENDBRANCH  63  86
ENDBRANCH  37  38
ENDBRANCH  29  32
ENDBRANCH  27  28
ENDBRANCH  26  27
ENDBRANCH  25  26
ENDBRANCH   1  25
TORSDOF 15
ENDMDL
MODEL 2
REMARK VINA RESULT:     -13.6      3.733      9.692
REMARK SMILES Cc1ccc(C(=O)c2cccc(C)c2C(=O)NCCCCCCNC(=O)c2ccc(-c3c4nc(c(-c5c(F)c(F)c(F)c(F)c5F)c5ccc([nH]5)c(-c5c(F)c(F)c(F)c(F)c5F)c5nc(c(-c6c(F)c(F)c(F)c(F)c6F)c6ccc3[nH]6)C=C5)C=C4)cc2)c(C)c1
REMARK SMILES IDX 20 1 19 2 18 3 17 4 15 5 16 6 14 8 8 9 9 10 10 11 12 12
REMARK SMILES IDX 11 13 13 14 6 15 7 16 5 17 1 18 2 19 3 20 92 21 4 22 90 23
REMARK SMILES IDX 91 24 21 25 22 26 23 27 24 28 25 29 26 31 27 32 28 33 89 34
REMARK SMILES IDX 29 35 88 36 30 37 31 38 32 39 82 40 33 41 87 42 81 43 83 44
REMARK SMILES IDX 34 45 86 46 80 47 79 48 35 50 67 51 47 52 66 53 48 54 51 55
REMARK SMILES IDX 65 56 84 57 49 58 50 59 64 61 85 62 52 63 36 64 37 65 45 66
REMARK SMILES IDX 38 67 39 68 43 69 46 70 40 71 41 72 44 73 42 74 68 75 69 76
REMARK SMILES IDX 77 77 70 78 71 79 75 80 78 81 72 82 73 83 76 84 74 85 53 86
REMARK SMILES IDX 54 87 62 88 55 89 56 90 60 91 63 92 57 93 58 94 61 95 59 96
REMARK H PARENT 17 7 24 30 83 49 51 60
REMARK Flexibility Score: inf
ROOT
ATOM      1  C   UNL A   1      36.353  22.974  24.299  1.00  0.00     0.002 C 
ENDROOT
BRANCH   1   2
ATOM      2  C   UNL A   1      35.258  23.099  23.228  1.00  0.00     0.021 C 
BRANCH   2   3
ATOM      3  C   UNL A   1      34.347  24.325  23.265  1.00  0.00     0.116 C 
BRANCH   3   4
ATOM      4  N   UNL A   1      34.574  25.253  24.346  1.00  0.00    -0.352 N 
ATOM      5  C   UNL A   1      33.679  25.880  25.189  1.00  0.00     0.252 C 
ATOM      6  O   UNL A   1      34.146  26.452  26.174  1.00  0.00    -0.269 OA
ATOM      7  H   UNL A   1      35.519  25.476  24.508  1.00  0.00     0.163 HD
BRANCH   5   8
ATOM      8  C   UNL A   1      32.209  25.995  24.901  1.00  0.00     0.053 A 
ATOM      9  C   UNL A   1      31.253  25.033  25.292  1.00  0.00     0.036 A 
ATOM     10  C   UNL A   1      29.888  25.220  24.998  1.00  0.00     0.013 A 
ATOM     11  C   UNL A   1      29.456  26.344  24.305  1.00  0.00     0.001 A 
ATOM     12  C   UNL A   1      31.741  27.186  24.273  1.00  0.00    -0.038 A 
ATOM     13  C   UNL A   1      30.374  27.330  23.966  1.00  0.00     0.004 A 
ATOM     14  C   UNL A   1      32.636  28.369  23.993  1.00  0.00     0.045 C 
BRANCH   9  15
ATOM     15  C   UNL A   1      31.595  23.917  26.204  1.00  0.00     0.194 C 
ATOM     16  O   UNL A   1      31.288  24.073  27.381  1.00  0.00    -0.289 OA
BRANCH  15  17
ATOM     17  C   UNL A   1      32.255  22.643  25.727  1.00  0.00     0.025 A 
ATOM     18  C   UNL A   1      33.872  18.814  24.511  1.00  0.00     0.044 C 
ATOM     19  C   UNL A   1      33.354  20.173  24.879  1.00  0.00    -0.051 A 
ATOM     20  C   UNL A   1      32.379  20.809  24.113  1.00  0.00     0.004 A 
ATOM     21  C   UNL A   1      33.826  20.809  26.031  1.00  0.00     0.007 A 
ATOM     22  C   UNL A   1      31.847  22.036  24.524  1.00  0.00     0.013 A 
ATOM     23  C   UNL A   1      33.310  22.049  26.455  1.00  0.00    -0.040 A 
ATOM     24  C   UNL A   1      33.915  22.668  27.688  1.00  0.00     0.045 C 
ENDBRANCH  15  17
ENDBRANCH   9  15
ENDBRANCH   5   8
ENDBRANCH   3   4
ENDBRANCH   2   3
ENDBRANCH   1   2
BRANCH   1  25
ATOM     25  C   UNL A   1      36.918  21.585  24.632  1.00  0.00     0.002 C 
BRANCH  25  26
ATOM     26  C   UNL A   1      38.210  21.520  25.443  1.00  0.00     0.021 C 
BRANCH  26  27
ATOM     27  C   UNL A   1      38.691  22.833  26.043  1.00  0.00     0.116 C 
BRANCH  27  28
ATOM     28  N   UNL A   1      40.122  22.884  26.338  1.00  0.00    -0.352 N 
ATOM     29  C   UNL A   1      40.873  23.962  26.777  1.00  0.00     0.251 C 
ATOM     30  H   UNL A   1      40.615  22.041  26.208  1.00  0.00     0.163 HD
ATOM     31  O   UNL A   1      42.068  23.846  27.025  1.00  0.00    -0.269 OA
BRANCH  29  32
ATOM     32  C   UNL A   1      40.177  25.236  27.066  1.00  0.00     0.039 A 
ATOM     33  C   UNL A   1      40.523  26.359  26.306  1.00  0.00     0.014 A 
ATOM     34  C   UNL A   1      39.419  25.370  28.226  1.00  0.00     0.014 A 
ATOM     35  C   UNL A   1      40.355  27.624  26.862  1.00  0.00     0.010 A 
ATOM     36  C   UNL A   1      39.344  26.614  28.821  1.00  0.00     0.010 A 
ATOM     37  C   UNL A   1      39.900  27.725  28.177  1.00  0.00    -0.014 A 
BRANCH  37  38
ATOM     38  C   UNL A   1      40.145  28.897  29.013  1.00  0.00     0.031 A 
ATOM     39  C   UNL A   1      39.159  29.993  29.101  1.00  0.00     0.074 A 
ATOM     40  C   UNL A   1      41.252  28.925  29.790  1.00  0.00     0.049 A 
ATOM     41  N   UNL A   1      39.402  31.140  29.642  1.00  0.00    -0.248 NA
ATOM     42  C   UNL A   1      37.832  29.915  28.498  1.00  0.00     0.031 C 
ATOM     43  C   UNL A   1      41.528  29.807  30.923  1.00  0.00     0.029 A 
ATOM     44  N   UNL A   1      42.482  28.284  29.547  1.00  0.00    -0.354 N 
ATOM     45  C   UNL A   1      38.219  31.835  29.708  1.00  0.00     0.074 A 
ATOM     46  C   UNL A   1      37.317  31.094  28.865  1.00  0.00     0.031 C 
ATOM     47  C   UNL A   1      42.855  29.901  31.085  1.00  0.00     0.029 A 
ATOM     48  C   UNL A   1      43.470  29.209  29.968  1.00  0.00     0.049 A 
ATOM     49  H   UNL A   1      42.625  27.388  29.166  1.00  0.00     0.167 HD
ATOM     50  C   UNL A   1      38.130  32.885  30.574  1.00  0.00     0.037 A 
ATOM     51  C   UNL A   1      44.335  29.774  29.074  1.00  0.00     0.037 A 
ATOM     52  C   UNL A   1      39.461  33.324  31.002  1.00  0.00     0.049 A 
ATOM     53  C   UNL A   1      44.277  31.286  28.994  1.00  0.00     0.074 A 
ATOM     54  C   UNL A   1      40.205  33.227  32.166  1.00  0.00     0.029 A 
ATOM     55  N   UNL A   1      40.330  33.799  30.033  1.00  0.00    -0.354 N 
ATOM     56  N   UNL A   1      43.392  32.021  29.608  1.00  0.00    -0.248 NA
ATOM     57  C   UNL A   1      45.148  32.076  28.120  1.00  0.00     0.031 C 
ATOM     58  C   UNL A   1      41.550  33.596  31.860  1.00  0.00     0.029 A 
ATOM     59  C   UNL A   1      41.613  33.935  30.520  1.00  0.00     0.049 A 
ATOM     60  H   UNL A   1      40.065  34.012  29.108  1.00  0.00     0.167 HD
ATOM     61  C   UNL A   1      43.521  33.318  29.195  1.00  0.00     0.074 A 
ATOM     62  C   UNL A   1      44.634  33.309  28.267  1.00  0.00     0.031 C 
ATOM     63  C   UNL A   1      42.679  34.306  29.605  1.00  0.00     0.037 A 
BRANCH  50  64
ATOM     64  C   UNL A   1      36.845  33.438  31.171  1.00  0.00     0.064 A 
ATOM     65  C   UNL A   1      36.543  33.206  32.534  1.00  0.00     0.173 A 
ATOM     66  C   UNL A   1      35.812  34.080  30.454  1.00  0.00     0.173 A 
ATOM     67  F   UNL A   1      37.424  32.615  33.353  1.00  0.00    -0.203 F 
ATOM     68  C   UNL A   1      35.311  33.548  33.106  1.00  0.00     0.198 A 
ATOM     69  C   UNL A   1      34.599  34.458  31.037  1.00  0.00     0.198 A 
ATOM     70  F   UNL A   1      35.889  34.333  29.147  1.00  0.00    -0.203 F 
ATOM     71  F   UNL A   1      35.065  33.241  34.387  1.00  0.00    -0.200 F 
ATOM     72  C   UNL A   1      34.339  34.176  32.358  1.00  0.00     0.200 A 
ATOM     73  F   UNL A   1      33.669  35.070  30.287  1.00  0.00    -0.200 F 
ATOM     74  F   UNL A   1      33.155  34.493  32.898  1.00  0.00    -0.200 F 
ENDBRANCH  50  64
BRANCH  51  75
ATOM     75  C   UNL A   1      44.652  28.884  27.928  1.00  0.00     0.064 A 
ATOM     76  C   UNL A   1      45.505  27.785  28.141  1.00  0.00     0.173 A 
ATOM     77  C   UNL A   1      43.872  28.885  26.766  1.00  0.00     0.173 A 
ATOM     78  F   UNL A   1      46.271  27.734  29.243  1.00  0.00    -0.203 F 
ATOM     79  C   UNL A   1      45.487  26.680  27.294  1.00  0.00     0.198 A 
ATOM     80  C   UNL A   1      43.873  27.785  25.907  1.00  0.00     0.198 A 
ATOM     81  F   UNL A   1      43.023  29.891  26.517  1.00  0.00    -0.203 F 
ATOM     82  F   UNL A   1      46.221  25.599  27.589  1.00  0.00    -0.200 F 
ATOM     83  C   UNL A   1      44.650  26.672  26.190  1.00  0.00     0.200 A 
ATOM     84  F   UNL A   1      43.040  27.764  24.857  1.00  0.00    -0.200 F 
ATOM     85  F   UNL A   1      44.558  25.576  25.425  1.00  0.00    -0.200 F 
ENDBRANCH  51  75
BRANCH  63  86
ATOM     86  C   UNL A   1      42.816  35.721  29.146  1.00  0.00     0.064 A 
ATOM     87  C   UNL A   1      43.482  36.689  29.914  1.00  0.00     0.173 A 
ATOM     88  C   UNL A   1      42.180  36.172  27.973  1.00  0.00     0.173 A 
ATOM     89  F   UNL A   1      44.095  36.347  31.059  1.00  0.00    -0.203 F 
ATOM     90  C   UNL A   1      43.522  38.027  29.523  1.00  0.00     0.198 A 
ATOM     91  C   UNL A   1      42.185  37.515  27.607  1.00  0.00     0.198 A 
ATOM     92  F   UNL A   1      41.562  35.312  27.150  1.00  0.00    -0.203 F 
ATOM     93  F   UNL A   1      44.198  38.918  30.262  1.00  0.00    -0.200 F 
ATOM     94  C   UNL A   1      42.861  38.443  28.378  1.00  0.00     0.200 A 
ATOM     95  F   UNL A   1      41.534  37.907  26.502  1.00  0.00    -0.200 F 
ATOM     96  F   UNL A   1      42.878  39.733  28.018  1.00  0.00    -0.200 F 
ENDBRANCH  63  86
ENDBRANCH  37  38
ENDBRANCH  29  32
ENDBRANCH  27  28
ENDBRANCH  26  27
ENDBRANCH  25  26
ENDBRANCH   1  25
TORSDOF 15
ENDMDL
MODEL 3
REMARK VINA RESULT:     -13.5      1.067      2.604
REMARK SMILES Cc1ccc(C(=O)c2cccc(C)c2C(=O)NCCCCCCNC(=O)c2ccc(-c3c4nc(c(-c5c(F)c(F)c(F)c(F)c5F)c5ccc([nH]5)c(-c5c(F)c(F)c(F)c(F)c5F)c5nc(c(-c6c(F)c(F)c(F)c(F)c6F)c6ccc3[nH]6)C=C5)C=C4)cc2)c(C)c1
REMARK SMILES IDX 20 1 19 2 18 3 17 4 15 5 16 6 14 8 8 9 9 10 10 11 12 12
REMARK SMILES IDX 11 13 13 14 6 15 7 16 5 17 1 18 2 19 3 20 92 21 4 22 90 23
REMARK SMILES IDX 91 24 21 25 22 26 23 27 24 28 25 29 26 31 27 32 28 33 89 34
REMARK SMILES IDX 29 35 88 36 30 37 31 38 32 39 82 40 33 41 87 42 81 43 83 44
REMARK SMILES IDX 34 45 86 46 80 47 79 48 35 50 67 51 47 52 66 53 48 54 51 55
REMARK SMILES IDX 65 56 84 57 49 58 50 59 64 61 85 62 52 63 36 64 37 65 45 66
REMARK SMILES IDX 38 67 39 68 43 69 46 70 40 71 41 72 44 73 42 74 68 75 69 76
REMARK SMILES IDX 77 77 70 78 71 79 75 80 78 81 72 82 73 83 76 84 74 85 53 86
REMARK SMILES IDX 54 87 62 88 55 89 56 90 60 91 63 92 57 93 58 94 61 95 59 96
REMARK H PARENT 17 7 24 30 83 49 51 60
REMARK Flexibility Score: inf
ROOT
ATOM      1  C   UNL A   1      32.804  27.227  26.501  1.00  0.00     0.002 C 
ENDROOT
BRANCH   1   2
ATOM      2  C   UNL A   1      34.012  26.661  25.737  1.00  0.00     0.021 C 
BRANCH   2   3
ATOM      3  C   UNL A   1      34.190  25.145  25.687  1.00  0.00     0.116 C 
BRANCH   3   4
ATOM      4  N   UNL A   1      35.291  24.660  24.891  1.00  0.00    -0.352 N 
ATOM      5  C   UNL A   1      35.348  23.628  23.976  1.00  0.00     0.252 C 
ATOM      6  O   UNL A   1      36.353  23.565  23.267  1.00  0.00    -0.269 OA
ATOM      7  H   UNL A   1      36.139  25.142  25.022  1.00  0.00     0.163 HD
BRANCH   5   8
ATOM      8  C   UNL A   1      34.318  22.537  23.892  1.00  0.00     0.053 A 
ATOM      9  C   UNL A   1      33.191  22.584  23.043  1.00  0.00     0.036 A 
ATOM     10  C   UNL A   1      32.277  21.512  23.009  1.00  0.00     0.013 A 
ATOM     11  C   UNL A   1      32.456  20.397  23.819  1.00  0.00     0.001 A 
ATOM     12  C   UNL A   1      34.539  21.350  24.647  1.00  0.00    -0.038 A 
ATOM     13  C   UNL A   1      33.590  20.308  24.614  1.00  0.00     0.004 A 
ATOM     14  C   UNL A   1      35.805  21.101  25.430  1.00  0.00     0.045 C 
BRANCH   9  15
ATOM     15  C   UNL A   1      33.034  23.631  22.008  1.00  0.00     0.194 C 
ATOM     16  O   UNL A   1      33.335  23.304  20.864  1.00  0.00    -0.289 OA
BRANCH  15  17
ATOM     17  C   UNL A   1      32.509  25.015  22.316  1.00  0.00     0.025 A 
ATOM     18  C   UNL A   1      31.201  28.969  23.504  1.00  0.00     0.044 C 
ATOM     19  C   UNL A   1      31.634  27.616  23.022  1.00  0.00    -0.051 A 
ATOM     20  C   UNL A   1      32.846  27.437  22.357  1.00  0.00     0.004 A 
ATOM     21  C   UNL A   1      30.831  26.498  23.268  1.00  0.00     0.007 A 
ATOM     22  C   UNL A   1      33.271  26.155  21.996  1.00  0.00     0.013 A 
ATOM     23  C   UNL A   1      31.237  25.200  22.903  1.00  0.00    -0.040 A 
ATOM     24  C   UNL A   1      30.280  24.070  23.179  1.00  0.00     0.045 C 
ENDBRANCH  15  17
ENDBRANCH   9  15
ENDBRANCH   5   8
ENDBRANCH   3   4
ENDBRANCH   2   3
ENDBRANCH   1   2
BRANCH   1  25
ATOM     25  C   UNL A   1      32.633  28.750  26.609  1.00  0.00     0.002 C 
BRANCH  25  26
ATOM     26  C   UNL A   1      33.438  29.480  27.682  1.00  0.00     0.021 C 
BRANCH  26  27
ATOM     27  C   UNL A   1      34.399  30.550  27.186  1.00  0.00     0.116 C 
BRANCH  27  28
ATOM     28  N   UNL A   1      34.977  31.386  28.236  1.00  0.00    -0.352 N 
ATOM     29  C   UNL A   1      36.078  31.125  29.037  1.00  0.00     0.251 C 
ATOM     30  H   UNL A   1      34.526  32.247  28.394  1.00  0.00     0.163 HD
ATOM     31  O   UNL A   1      36.477  31.945  29.856  1.00  0.00    -0.269 OA
BRANCH  29  32
ATOM     32  C   UNL A   1      36.847  29.883  28.797  1.00  0.00     0.039 A 
ATOM     33  C   UNL A   1      37.026  29.005  29.871  1.00  0.00     0.014 A 
ATOM     34  C   UNL A   1      37.591  29.738  27.629  1.00  0.00     0.014 A 
ATOM     35  C   UNL A   1      38.142  28.174  29.880  1.00  0.00     0.010 A 
ATOM     36  C   UNL A   1      38.751  28.990  27.679  1.00  0.00     0.010 A 
ATOM     37  C   UNL A   1      39.071  28.284  28.846  1.00  0.00    -0.014 A 
BRANCH  37  38
ATOM     38  C   UNL A   1      40.462  27.860  28.979  1.00  0.00     0.031 A 
ATOM     39  C   UNL A   1      40.902  26.528  28.517  1.00  0.00     0.074 A 
ATOM     40  C   UNL A   1      41.372  28.745  29.446  1.00  0.00     0.049 A 
ATOM     41  N   UNL A   1      42.052  26.012  28.798  1.00  0.00    -0.248 NA
ATOM     42  C   UNL A   1      40.037  25.622  27.770  1.00  0.00     0.031 C 
ATOM     43  C   UNL A   1      42.829  28.663  29.353  1.00  0.00     0.029 A 
ATOM     44  N   UNL A   1      41.145  29.817  30.329  1.00  0.00    -0.354 N 
ATOM     45  C   UNL A   1      42.190  24.860  28.062  1.00  0.00     0.074 A 
ATOM     46  C   UNL A   1      40.866  24.595  27.558  1.00  0.00     0.031 C 
ATOM     47  C   UNL A   1      43.367  29.394  30.339  1.00  0.00     0.029 A 
ATOM     48  C   UNL A   1      42.275  29.838  31.184  1.00  0.00     0.049 A 
ATOM     49  H   UNL A   1      40.368  30.421  30.350  1.00  0.00     0.167 HD
ATOM     50  C   UNL A   1      43.441  24.351  27.878  1.00  0.00     0.037 A 
ATOM     51  C   UNL A   1      42.157  29.571  32.518  1.00  0.00     0.037 A 
ATOM     52  C   UNL A   1      44.386  24.927  28.840  1.00  0.00     0.049 A 
ATOM     53  C   UNL A   1      42.963  28.387  33.009  1.00  0.00     0.074 A 
ATOM     54  C   UNL A   1      45.421  25.844  28.777  1.00  0.00     0.029 A 
ATOM     55  N   UNL A   1      44.157  24.701  30.188  1.00  0.00    -0.354 N 
ATOM     56  N   UNL A   1      43.623  27.574  32.232  1.00  0.00    -0.248 NA
ATOM     57  C   UNL A   1      42.993  27.964  34.412  1.00  0.00     0.031 C 
ATOM     58  C   UNL A   1      45.767  26.208  30.114  1.00  0.00     0.029 A 
ATOM     59  C   UNL A   1      44.958  25.497  30.981  1.00  0.00     0.049 A 
ATOM     60  H   UNL A   1      43.504  24.052  30.537  1.00  0.00     0.167 HD
ATOM     61  C   UNL A   1      44.101  26.530  32.974  1.00  0.00     0.074 A 
ATOM     62  C   UNL A   1      43.687  26.815  34.334  1.00  0.00     0.031 C 
ATOM     63  C   UNL A   1      44.764  25.478  32.421  1.00  0.00     0.037 A 
BRANCH  50  64
ATOM     64  C   UNL A   1      43.873  23.444  26.737  1.00  0.00     0.064 A 
ATOM     65  C   UNL A   1      43.403  22.110  26.680  1.00  0.00     0.173 A 
ATOM     66  C   UNL A   1      44.834  23.758  25.751  1.00  0.00     0.173 A 
ATOM     67  F   UNL A   1      42.480  21.658  27.540  1.00  0.00    -0.203 F 
ATOM     68  C   UNL A   1      43.882  21.177  25.751  1.00  0.00     0.198 A 
ATOM     69  C   UNL A   1      45.280  22.836  24.799  1.00  0.00     0.198 A 
ATOM     70  F   UNL A   1      45.434  24.947  25.680  1.00  0.00    -0.203 F 
ATOM     71  F   UNL A   1      43.441  19.912  25.793  1.00  0.00    -0.200 F 
ATOM     72  C   UNL A   1      44.819  21.541  24.809  1.00  0.00     0.200 A 
ATOM     73  F   UNL A   1      46.192  23.216  23.891  1.00  0.00    -0.200 F 
ATOM     74  F   UNL A   1      45.289  20.648  23.927  1.00  0.00    -0.200 F 
ENDBRANCH  50  64
BRANCH  51  75
ATOM     75  C   UNL A   1      40.845  29.985  33.081  1.00  0.00     0.064 A 
ATOM     76  C   UNL A   1      40.595  31.357  33.273  1.00  0.00     0.173 A 
ATOM     77  C   UNL A   1      39.747  29.118  33.088  1.00  0.00     0.173 A 
ATOM     78  F   UNL A   1      41.614  32.231  33.272  1.00  0.00    -0.203 F 
ATOM     79  C   UNL A   1      39.296  31.852  33.345  1.00  0.00     0.198 A 
ATOM     80  C   UNL A   1      38.447  29.615  33.182  1.00  0.00     0.198 A 
ATOM     81  F   UNL A   1      39.917  27.803  32.887  1.00  0.00    -0.203 F 
ATOM     82  F   UNL A   1      39.086  33.174  33.407  1.00  0.00    -0.200 F 
ATOM     83  C   UNL A   1      38.221  30.981  33.273  1.00  0.00     0.200 A 
ATOM     84  F   UNL A   1      37.408  28.775  33.080  1.00  0.00    -0.200 F 
ATOM     85  F   UNL A   1      36.970  31.457  33.246  1.00  0.00    -0.200 F 
ENDBRANCH  51  75
BRANCH  63  86
ATOM     86  C   UNL A   1      45.278  24.334  33.233  1.00  0.00     0.064 A 
ATOM     87  C   UNL A   1      44.477  23.222  33.539  1.00  0.00     0.173 A 
ATOM     88  C   UNL A   1      46.555  24.376  33.825  1.00  0.00     0.173 A 
ATOM     89  F   UNL A   1      43.238  23.116  33.035  1.00  0.00    -0.203 F 
ATOM     90  C   UNL A   1      44.934  22.205  34.377  1.00  0.00     0.198 A 
ATOM     91  C   UNL A   1      46.993  23.381  34.694  1.00  0.00     0.198 A 
ATOM     92  F   UNL A   1      47.410  25.373  33.551  1.00  0.00    -0.203 F 
ATOM     93  F   UNL A   1      44.157  21.141  34.618  1.00  0.00    -0.200 F 
ATOM     94  C   UNL A   1      46.185  22.292  34.967  1.00  0.00     0.200 A 
ATOM     95  F   UNL A   1      48.202  23.481  35.266  1.00  0.00    -0.200 F 
ATOM     96  F   UNL A   1      46.613  21.327  35.792  1.00  0.00    -0.200 F 
ENDBRANCH  63  86
ENDBRANCH  37  38
ENDBRANCH  29  32
ENDBRANCH  27  28
ENDBRANCH  26  27
ENDBRANCH  25  26
ENDBRANCH   1  25
TORSDOF 15
ENDMDL
