MODEL 1
REMARK VINA RESULT:     -11.9      0.000      0.000
REMARK SMILES Cc1cc(OC(F)(F)F)cc2c1O[C@@H](C(F)(F)F)C(C(=O)NCCCCCCNC(=O)c1ccc(-c3c4nc(c(-c5c(F)c(F)c(F)c(F)c5F)c5ccc([nH]5)c(-c5c(F)c(F)c(F)c(F)c5F)c5nc(c(-c6c(F)c(F)c(F)c(F)c6F)c6ccc3[nH]6)C=C5)C=C4)cc1)=C2
REMARK SMILES IDX 25 1 24 2 23 3 22 4 20 5 21 6 19 8 1 9 2 10 3 11 12 12 4 13
REMARK SMILES IDX 11 14 13 15 10 16 95 17 14 18 5 19 6 20 7 21 8 22 9 23 15 24
REMARK SMILES IDX 16 25 17 26 18 27 26 28 27 29 28 30 29 31 30 32 31 34 32 35
REMARK SMILES IDX 33 36 94 37 34 38 93 39 35 40 36 41 37 42 87 43 38 44 92 45
REMARK SMILES IDX 86 46 88 47 39 48 91 49 85 50 84 51 40 53 72 54 52 55 71 56
REMARK SMILES IDX 53 57 56 58 70 59 89 60 54 61 55 62 69 64 90 65 57 66 41 67
REMARK SMILES IDX 42 68 50 69 43 70 44 71 48 72 51 73 45 74 46 75 49 76 47 77
REMARK SMILES IDX 73 78 74 79 82 80 75 81 76 82 80 83 83 84 77 85 78 86 81 87
REMARK SMILES IDX 79 88 58 89 59 90 67 91 60 92 61 93 65 94 68 95 62 96 63 97
REMARK SMILES IDX 66 98 64 99
REMARK H PARENT 22 7 29 33 88 52 56 63
REMARK Flexibility Score: inf
ROOT
ATOM      1  C   UNL A   1      34.683  21.997  26.741  1.00  0.00     0.002 C 
ENDROOT
BRANCH   1   2
ATOM      2  C   UNL A   1      33.480  21.107  26.422  1.00  0.00     0.021 C 
BRANCH   2   3
ATOM      3  C   UNL A   1      32.421  21.788  25.556  1.00  0.00     0.116 C 
BRANCH   3   4
ATOM      4  N   UNL A   1      31.312  22.275  26.357  1.00  0.00    -0.352 N 
ATOM      5  C   UNL A   1      30.663  23.446  26.553  1.00  0.00     0.251 C 
ATOM      6  O   UNL A   1      29.717  23.390  27.345  1.00  0.00    -0.270 OA
ATOM      7  H   UNL A   1      30.927  21.557  26.907  1.00  0.00     0.163 HD
BRANCH   5   8
ATOM      8  C   UNL A   1      31.001  24.748  25.900  1.00  0.00     0.067 C 
ATOM      9  C   UNL A   1      31.354  28.966  23.006  1.00  0.00     0.048 C 
ATOM     10  C   UNL A   1      32.037  28.473  24.251  1.00  0.00    -0.005 A 
ATOM     11  C   UNL A   1      33.096  29.201  24.814  1.00  0.00     0.054 A 
ATOM     12  C   UNL A   1      31.659  27.260  24.838  1.00  0.00     0.131 A 
ATOM     13  C   UNL A   1      33.752  28.734  25.956  1.00  0.00     0.130 A 
ATOM     14  C   UNL A   1      32.315  26.774  25.967  1.00  0.00     0.021 A 
ATOM     15  O   UNL A   1      30.597  26.611  24.279  1.00  0.00    -0.475 OA
ATOM     16  C   UNL A   1      33.359  27.518  26.525  1.00  0.00     0.058 A 
ATOM     17  C   UNL A   1      31.890  25.513  26.560  1.00  0.00     0.025 C 
ATOM     18  C   UNL A   1      30.454  25.199  24.576  1.00  0.00     0.314 C 
BRANCH  13  19
ATOM     19  O   UNL A   1      34.780  29.355  26.607  1.00  0.00    -0.406 OA
BRANCH  19  20
ATOM     20  C   UNL A   1      34.449  30.344  27.568  1.00  0.00     0.573 C 
ATOM     21  F   UNL A   1      34.904  30.002  28.792  1.00  0.00    -0.132 F 
ATOM     22  F   UNL A   1      34.950  31.549  27.221  1.00  0.00    -0.132 F 
ATOM     23  F   UNL A   1      33.104  30.451  27.635  1.00  0.00    -0.132 F 
ENDBRANCH  19  20
ENDBRANCH  13  19
BRANCH  18  24
ATOM     24  C   UNL A   1      30.970  24.380  23.380  1.00  0.00     0.429 C 
ATOM     25  F   UNL A   1      30.958  25.139  22.253  1.00  0.00    -0.167 F 
ATOM     26  F   UNL A   1      32.238  23.942  23.552  1.00  0.00    -0.167 F 
ATOM     27  F   UNL A   1      30.212  23.291  23.119  1.00  0.00    -0.167 F 
ENDBRANCH  18  24
ENDBRANCH   5   8
ENDBRANCH   3   4
ENDBRANCH   2   3
ENDBRANCH   1   2
BRANCH   1  28
ATOM     28  C   UNL A   1      34.780  23.280  25.907  1.00  0.00     0.002 C 
BRANCH  28  29
ATOM     29  C   UNL A   1      36.077  24.075  26.079  1.00  0.00     0.021 C 
BRANCH  29  30
ATOM     30  C   UNL A   1      37.162  23.726  25.063  1.00  0.00     0.116 C 
BRANCH  30  31
ATOM     31  N   UNL A   1      38.047  22.692  25.572  1.00  0.00    -0.352 N 
ATOM     32  C   UNL A   1      39.245  22.830  26.220  1.00  0.00     0.251 C 
ATOM     33  H   UNL A   1      37.744  21.766  25.431  1.00  0.00     0.163 HD
ATOM     34  O   UNL A   1      40.004  21.873  26.346  1.00  0.00    -0.269 OA
BRANCH  32  35
ATOM     35  C   UNL A   1      39.617  24.141  26.783  1.00  0.00     0.039 A 
ATOM     36  C   UNL A   1      40.293  25.063  25.981  1.00  0.00     0.014 A 
ATOM     37  C   UNL A   1      39.333  24.434  28.122  1.00  0.00     0.014 A 
ATOM     38  C   UNL A   1      40.663  26.299  26.513  1.00  0.00     0.010 A 
ATOM     39  C   UNL A   1      39.659  25.682  28.638  1.00  0.00     0.010 A 
ATOM     40  C   UNL A   1      40.343  26.615  27.843  1.00  0.00    -0.014 A 
BRANCH  40  41
ATOM     41  C   UNL A   1      40.787  27.885  28.460  1.00  0.00     0.031 A 
ATOM     42  C   UNL A   1      42.230  28.050  28.836  1.00  0.00     0.074 A 
ATOM     43  C   UNL A   1      39.893  28.853  28.729  1.00  0.00     0.049 A 
ATOM     44  N   UNL A   1      42.812  29.026  29.484  1.00  0.00    -0.248 NA
ATOM     45  C   UNL A   1      43.138  26.960  28.445  1.00  0.00     0.031 C 
ATOM     46  C   UNL A   1      38.468  28.801  28.409  1.00  0.00     0.029 A 
ATOM     47  N   UNL A   1      40.055  30.066  29.349  1.00  0.00    -0.354 N 
ATOM     48  C   UNL A   1      44.150  28.666  29.578  1.00  0.00     0.074 A 
ATOM     49  C   UNL A   1      44.287  27.362  28.968  1.00  0.00     0.031 C 
ATOM     50  C   UNL A   1      37.884  29.935  28.830  1.00  0.00     0.029 A 
ATOM     51  C   UNL A   1      38.887  30.775  29.480  1.00  0.00     0.049 A 
ATOM     52  H   UNL A   1      40.926  30.396  29.668  1.00  0.00     0.167 HD
ATOM     53  C   UNL A   1      45.175  29.374  30.107  1.00  0.00     0.037 A 
ATOM     54  C   UNL A   1      38.657  31.962  30.072  1.00  0.00     0.037 A 
ATOM     55  C   UNL A   1      45.034  30.674  30.710  1.00  0.00     0.049 A 
ATOM     56  C   UNL A   1      39.806  32.703  30.703  1.00  0.00     0.074 A 
ATOM     57  C   UNL A   1      46.013  31.481  31.260  1.00  0.00     0.029 A 
ATOM     58  N   UNL A   1      43.832  31.355  30.840  1.00  0.00    -0.354 N 
ATOM     59  N   UNL A   1      41.072  32.368  30.770  1.00  0.00    -0.248 NA
ATOM     60  C   UNL A   1      39.492  33.990  31.341  1.00  0.00     0.031 C 
ATOM     61  C   UNL A   1      45.398  32.632  31.762  1.00  0.00     0.029 A 
ATOM     62  C   UNL A   1      44.042  32.565  31.479  1.00  0.00     0.049 A 
ATOM     63  H   UNL A   1      42.959  31.027  30.525  1.00  0.00     0.167 HD
ATOM     64  C   UNL A   1      41.708  33.408  31.434  1.00  0.00     0.074 A 
ATOM     65  C   UNL A   1      40.691  34.396  31.732  1.00  0.00     0.031 C 
ATOM     66  C   UNL A   1      43.016  33.534  31.771  1.00  0.00     0.037 A 
BRANCH  53  67
ATOM     67  C   UNL A   1      46.542  28.759  30.052  1.00  0.00     0.064 A 
ATOM     68  C   UNL A   1      47.022  27.949  31.093  1.00  0.00     0.173 A 
ATOM     69  C   UNL A   1      47.364  28.942  28.930  1.00  0.00     0.173 A 
ATOM     70  F   UNL A   1      46.282  27.756  32.195  1.00  0.00    -0.203 F 
ATOM     71  C   UNL A   1      48.282  27.360  31.020  1.00  0.00     0.198 A 
ATOM     72  C   UNL A   1      48.612  28.330  28.849  1.00  0.00     0.198 A 
ATOM     73  F   UNL A   1      46.953  29.707  27.908  1.00  0.00    -0.203 F 
ATOM     74  F   UNL A   1      48.736  26.623  32.043  1.00  0.00    -0.200 F 
ATOM     75  C   UNL A   1      49.071  27.543  29.894  1.00  0.00     0.200 A 
ATOM     76  F   UNL A   1      49.369  28.498  27.756  1.00  0.00    -0.200 F 
ATOM     77  F   UNL A   1      50.278  26.966  29.820  1.00  0.00    -0.200 F 
ENDBRANCH  53  67
BRANCH  54  78
ATOM     78  C   UNL A   1      37.286  32.534  30.075  1.00  0.00     0.064 A 
ATOM     79  C   UNL A   1      36.890  33.445  29.087  1.00  0.00     0.173 A 
ATOM     80  C   UNL A   1      36.346  32.183  31.055  1.00  0.00     0.173 A 
ATOM     81  F   UNL A   1      37.761  33.829  28.142  1.00  0.00    -0.203 F 
ATOM     82  C   UNL A   1      35.609  33.994  29.085  1.00  0.00     0.198 A 
ATOM     83  C   UNL A   1      35.058  32.712  31.038  1.00  0.00     0.198 A 
ATOM     84  F   UNL A   1      36.676  31.314  32.022  1.00  0.00    -0.203 F 
ATOM     85  F   UNL A   1      35.268  34.892  28.152  1.00  0.00    -0.200 F 
ATOM     86  C   UNL A   1      34.691  33.621  30.057  1.00  0.00     0.200 A 
ATOM     87  F   UNL A   1      34.170  32.339  31.969  1.00  0.00    -0.200 F 
ATOM     88  F   UNL A   1      33.457  34.143  30.050  1.00  0.00    -0.200 F 
ENDBRANCH  54  78
BRANCH  66  89
ATOM     89  C   UNL A   1      43.424  34.791  32.485  1.00  0.00     0.064 A 
ATOM     90  C   UNL A   1      43.494  34.849  33.885  1.00  0.00     0.173 A 
ATOM     91  C   UNL A   1      43.787  35.936  31.761  1.00  0.00     0.173 A 
ATOM     92  F   UNL A   1      43.146  33.785  34.624  1.00  0.00    -0.203 F 
ATOM     93  C   UNL A   1      43.885  36.018  34.534  1.00  0.00     0.198 A 
ATOM     94  C   UNL A   1      44.209  37.093  32.412  1.00  0.00     0.198 A 
ATOM     95  F   UNL A   1      43.746  35.930  30.419  1.00  0.00    -0.203 F 
ATOM     96  F   UNL A   1      43.895  36.067  35.872  1.00  0.00    -0.200 F 
ATOM     97  C   UNL A   1      44.249  37.135  33.796  1.00  0.00     0.200 A 
ATOM     98  F   UNL A   1      44.575  38.166  31.697  1.00  0.00    -0.200 F 
ATOM     99  F   UNL A   1      44.631  38.256  34.422  1.00  0.00    -0.200 F 
ENDBRANCH  66  89
ENDBRANCH  40  41
ENDBRANCH  32  35
ENDBRANCH  30  31
ENDBRANCH  29  30
ENDBRANCH  28  29
ENDBRANCH   1  28
TORSDOF 16
ENDMDL
MODEL 2
REMARK VINA RESULT:     -11.8      3.976      8.077
REMARK SMILES Cc1cc(OC(F)(F)F)cc2c1O[C@@H](C(F)(F)F)C(C(=O)NCCCCCCNC(=O)c1ccc(-c3c4nc(c(-c5c(F)c(F)c(F)c(F)c5F)c5ccc([nH]5)c(-c5c(F)c(F)c(F)c(F)c5F)c5nc(c(-c6c(F)c(F)c(F)c(F)c6F)c6ccc3[nH]6)C=C5)C=C4)cc1)=C2
REMARK SMILES IDX 25 1 24 2 23 3 22 4 20 5 21 6 19 8 1 9 2 10 3 11 12 12 4 13
REMARK SMILES IDX 11 14 13 15 10 16 95 17 14 18 5 19 6 20 7 21 8 22 9 23 15 24
REMARK SMILES IDX 16 25 17 26 18 27 26 28 27 29 28 30 29 31 30 32 31 34 32 35
REMARK SMILES IDX 33 36 94 37 34 38 93 39 35 40 36 41 37 42 87 43 38 44 92 45
REMARK SMILES IDX 86 46 88 47 39 48 91 49 85 50 84 51 40 53 72 54 52 55 71 56
REMARK SMILES IDX 53 57 56 58 70 59 89 60 54 61 55 62 69 64 90 65 57 66 41 67
REMARK SMILES IDX 42 68 50 69 43 70 44 71 48 72 51 73 45 74 46 75 49 76 47 77
REMARK SMILES IDX 73 78 74 79 82 80 75 81 76 82 80 83 83 84 77 85 78 86 81 87
REMARK SMILES IDX 79 88 58 89 59 90 67 91 60 92 61 93 65 94 68 95 62 96 63 97
REMARK SMILES IDX 66 98 64 99
REMARK H PARENT 22 7 29 33 88 52 56 63
REMARK Flexibility Score: inf
ROOT
ATOM      1  C   UNL A   1      30.869  29.627  24.462  1.00  0.00     0.002 C 
ENDROOT
BRANCH   1   2
ATOM      2  C   UNL A   1      31.688  28.970  23.348  1.00  0.00     0.021 C 
BRANCH   2   3
ATOM      3  C   UNL A   1      30.914  27.919  22.553  1.00  0.00     0.116 C 
BRANCH   3   4
ATOM      4  N   UNL A   1      31.789  27.171  21.668  1.00  0.00    -0.352 N 
ATOM      5  C   UNL A   1      32.449  25.990  21.684  1.00  0.00     0.251 C 
ATOM      6  O   UNL A   1      33.084  25.735  20.656  1.00  0.00    -0.270 OA
ATOM      7  H   UNL A   1      31.945  27.655  20.826  1.00  0.00     0.163 HD
BRANCH   5   8
ATOM      8  C   UNL A   1      32.457  25.013  22.816  1.00  0.00     0.067 C 
ATOM      9  C   UNL A   1      32.348  22.531  27.301  1.00  0.00     0.048 C 
ATOM     10  C   UNL A   1      32.417  22.113  25.859  1.00  0.00    -0.005 A 
ATOM     11  C   UNL A   1      32.573  20.762  25.519  1.00  0.00     0.054 A 
ATOM     12  C   UNL A   1      32.374  23.070  24.838  1.00  0.00     0.131 A 
ATOM     13  C   UNL A   1      32.665  20.370  24.181  1.00  0.00     0.130 A 
ATOM     14  C   UNL A   1      32.481  22.696  23.500  1.00  0.00     0.021 A 
ATOM     15  O   UNL A   1      32.179  24.366  25.217  1.00  0.00    -0.475 OA
ATOM     16  C   UNL A   1      32.622  21.344  23.177  1.00  0.00     0.058 A 
ATOM     17  C   UNL A   1      32.422  23.716  22.461  1.00  0.00     0.025 C 
ATOM     18  C   UNL A   1      32.547  25.396  24.265  1.00  0.00     0.314 C 
BRANCH  13  19
ATOM     19  O   UNL A   1      32.800  19.091  23.722  1.00  0.00    -0.406 OA
BRANCH  19  20
ATOM     20  C   UNL A   1      33.802  18.281  24.315  1.00  0.00     0.573 C 
ATOM     21  F   UNL A   1      34.942  18.978  24.502  1.00  0.00    -0.132 F 
ATOM     22  F   UNL A   1      33.385  17.774  25.495  1.00  0.00    -0.132 F 
ATOM     23  F   UNL A   1      34.072  17.249  23.486  1.00  0.00    -0.132 F 
ENDBRANCH  19  20
ENDBRANCH  13  19
BRANCH  18  24
ATOM     24  C   UNL A   1      33.909  25.987  24.667  1.00  0.00     0.429 C 
ATOM     25  F   UNL A   1      33.874  26.406  25.959  1.00  0.00    -0.167 F 
ATOM     26  F   UNL A   1      34.919  25.094  24.565  1.00  0.00    -0.167 F 
ATOM     27  F   UNL A   1      34.260  27.060  23.924  1.00  0.00    -0.167 F 
ENDBRANCH  18  24
ENDBRANCH   5   8
ENDBRANCH   3   4
ENDBRANCH   2   3
ENDBRANCH   1   2
BRANCH   1  28
ATOM     28  C   UNL A   1      31.673  30.041  25.700  1.00  0.00     0.002 C 
BRANCH  28  29
ATOM     29  C   UNL A   1      31.400  31.458  26.213  1.00  0.00     0.021 C 
BRANCH  29  30
ATOM     30  C   UNL A   1      32.529  32.046  27.055  1.00  0.00     0.116 C 
BRANCH  30  31
ATOM     31  N   UNL A   1      32.337  33.470  27.273  1.00  0.00    -0.352 N 
ATOM     32  C   UNL A   1      32.925  34.282  28.206  1.00  0.00     0.251 C 
ATOM     33  H   UNL A   1      31.698  33.910  26.667  1.00  0.00     0.163 HD
ATOM     34  O   UNL A   1      32.465  35.395  28.446  1.00  0.00    -0.269 OA
BRANCH  32  35
ATOM     35  C   UNL A   1      34.128  33.815  28.917  1.00  0.00     0.039 A 
ATOM     36  C   UNL A   1      35.378  34.321  28.552  1.00  0.00     0.014 A 
ATOM     37  C   UNL A   1      34.018  32.840  29.915  1.00  0.00     0.014 A 
ATOM     38  C   UNL A   1      36.523  33.870  29.211  1.00  0.00     0.010 A 
ATOM     39  C   UNL A   1      35.152  32.427  30.602  1.00  0.00     0.010 A 
ATOM     40  C   UNL A   1      36.414  32.924  30.242  1.00  0.00    -0.014 A 
BRANCH  40  41
ATOM     41  C   UNL A   1      37.613  32.369  30.908  1.00  0.00     0.031 A 
ATOM     42  C   UNL A   1      38.381  31.270  30.234  1.00  0.00     0.074 A 
ATOM     43  C   UNL A   1      37.973  32.809  32.127  1.00  0.00     0.049 A 
ATOM     44  N   UNL A   1      39.389  30.567  30.682  1.00  0.00    -0.248 NA
ATOM     45  C   UNL A   1      37.944  30.901  28.877  1.00  0.00     0.031 C 
ATOM     46  C   UNL A   1      37.301  33.870  32.875  1.00  0.00     0.029 A 
ATOM     47  N   UNL A   1      38.988  32.403  32.955  1.00  0.00    -0.354 N 
ATOM     48  C   UNL A   1      39.703  29.674  29.665  1.00  0.00     0.074 A 
ATOM     49  C   UNL A   1      38.750  29.888  28.599  1.00  0.00     0.031 C 
ATOM     50  C   UNL A   1      37.926  34.037  34.052  1.00  0.00     0.029 A 
ATOM     51  C   UNL A   1      39.017  33.071  34.154  1.00  0.00     0.049 A 
ATOM     52  H   UNL A   1      39.634  31.702  32.712  1.00  0.00     0.167 HD
ATOM     53  C   UNL A   1      40.712  28.773  29.621  1.00  0.00     0.037 A 
ATOM     54  C   UNL A   1      39.828  32.907  35.217  1.00  0.00     0.037 A 
ATOM     55  C   UNL A   1      41.660  28.568  30.684  1.00  0.00     0.049 A 
ATOM     56  C   UNL A   1      40.907  31.858  35.162  1.00  0.00     0.074 A 
ATOM     57  C   UNL A   1      42.729  27.691  30.729  1.00  0.00     0.029 A 
ATOM     58  N   UNL A   1      41.649  29.251  31.892  1.00  0.00    -0.354 N 
ATOM     59  N   UNL A   1      41.213  31.033  34.190  1.00  0.00    -0.248 NA
ATOM     60  C   UNL A   1      41.755  31.720  36.355  1.00  0.00     0.031 C 
ATOM     61  C   UNL A   1      43.339  27.812  31.982  1.00  0.00     0.029 A 
ATOM     62  C   UNL A   1      42.682  28.802  32.698  1.00  0.00     0.049 A 
ATOM     63  H   UNL A   1      41.003  29.951  32.139  1.00  0.00     0.167 HD
ATOM     64  C   UNL A   1      42.298  30.295  34.642  1.00  0.00     0.074 A 
ATOM     65  C   UNL A   1      42.611  30.786  35.970  1.00  0.00     0.031 C 
ATOM     66  C   UNL A   1      42.975  29.299  34.018  1.00  0.00     0.037 A 
BRANCH  53  67
ATOM     67  C   UNL A   1      40.846  27.946  28.376  1.00  0.00     0.064 A 
ATOM     68  C   UNL A   1      41.618  28.381  27.288  1.00  0.00     0.173 A 
ATOM     69  C   UNL A   1      40.234  26.687  28.287  1.00  0.00     0.173 A 
ATOM     70  F   UNL A   1      42.209  29.584  27.318  1.00  0.00    -0.203 F 
ATOM     71  C   UNL A   1      41.757  27.593  26.148  1.00  0.00     0.198 A 
ATOM     72  C   UNL A   1      40.399  25.890  27.156  1.00  0.00     0.198 A 
ATOM     73  F   UNL A   1      39.487  26.224  29.299  1.00  0.00    -0.203 F 
ATOM     74  F   UNL A   1      42.466  28.046  25.105  1.00  0.00    -0.200 F 
ATOM     75  C   UNL A   1      41.156  26.344  26.088  1.00  0.00     0.200 A 
ATOM     76  F   UNL A   1      39.827  24.679  27.103  1.00  0.00    -0.200 F 
ATOM     77  F   UNL A   1      41.301  25.583  24.995  1.00  0.00    -0.200 F 
ENDBRANCH  53  67
BRANCH  54  78
ATOM     78  C   UNL A   1      39.663  33.772  36.412  1.00  0.00     0.064 A 
ATOM     79  C   UNL A   1      40.289  35.024  36.480  1.00  0.00     0.173 A 
ATOM     80  C   UNL A   1      38.881  33.373  37.506  1.00  0.00     0.173 A 
ATOM     81  F   UNL A   1      41.067  35.439  35.470  1.00  0.00    -0.203 F 
ATOM     82  C   UNL A   1      40.149  35.840  37.601  1.00  0.00     0.198 A 
ATOM     83  C   UNL A   1      38.719  34.201  38.615  1.00  0.00     0.198 A 
ATOM     84  F   UNL A   1      38.260  32.184  37.489  1.00  0.00    -0.203 F 
ATOM     85  F   UNL A   1      40.789  37.015  37.656  1.00  0.00    -0.200 F 
ATOM     86  C   UNL A   1      39.358  35.431  38.665  1.00  0.00     0.200 A 
ATOM     87  F   UNL A   1      37.944  33.808  39.634  1.00  0.00    -0.200 F 
ATOM     88  F   UNL A   1      39.216  36.219  39.739  1.00  0.00    -0.200 F 
ENDBRANCH  54  78
BRANCH  66  89
ATOM     89  C   UNL A   1      44.129  28.684  34.756  1.00  0.00     0.064 A 
ATOM     90  C   UNL A   1      45.419  29.234  34.690  1.00  0.00     0.173 A 
ATOM     91  C   UNL A   1      43.937  27.559  35.570  1.00  0.00     0.173 A 
ATOM     92  F   UNL A   1      45.658  30.303  33.916  1.00  0.00    -0.203 F 
ATOM     93  C   UNL A   1      46.478  28.661  35.389  1.00  0.00     0.198 A 
ATOM     94  C   UNL A   1      44.991  27.007  36.293  1.00  0.00     0.198 A 
ATOM     95  F   UNL A   1      42.721  27.000  35.676  1.00  0.00    -0.203 F 
ATOM     96  F   UNL A   1      47.711  29.171  35.269  1.00  0.00    -0.200 F 
ATOM     97  C   UNL A   1      46.261  27.553  36.195  1.00  0.00     0.200 A 
ATOM     98  F   UNL A   1      44.777  25.946  37.084  1.00  0.00    -0.200 F 
ATOM     99  F   UNL A   1      47.281  27.007  36.872  1.00  0.00    -0.200 F 
ENDBRANCH  66  89
ENDBRANCH  40  41
ENDBRANCH  32  35
ENDBRANCH  30  31
ENDBRANCH  29  30
ENDBRANCH  28  29
ENDBRANCH   1  28
TORSDOF 16
ENDMDL
MODEL 3
REMARK VINA RESULT:     -11.8      4.099      8.210
REMARK SMILES Cc1cc(OC(F)(F)F)cc2c1O[C@@H](C(F)(F)F)C(C(=O)NCCCCCCNC(=O)c1ccc(-c3c4nc(c(-c5c(F)c(F)c(F)c(F)c5F)c5ccc([nH]5)c(-c5c(F)c(F)c(F)c(F)c5F)c5nc(c(-c6c(F)c(F)c(F)c(F)c6F)c6ccc3[nH]6)C=C5)C=C4)cc1)=C2
REMARK SMILES IDX 25 1 24 2 23 3 22 4 20 5 21 6 19 8 1 9 2 10 3 11 12 12 4 13
REMARK SMILES IDX 11 14 13 15 10 16 95 17 14 18 5 19 6 20 7 21 8 22 9 23 15 24
REMARK SMILES IDX 16 25 17 26 18 27 26 28 27 29 28 30 29 31 30 32 31 34 32 35
REMARK SMILES IDX 33 36 94 37 34 38 93 39 35 40 36 41 37 42 87 43 38 44 92 45
REMARK SMILES IDX 86 46 88 47 39 48 91 49 85 50 84 51 40 53 72 54 52 55 71 56
REMARK SMILES IDX 53 57 56 58 70 59 89 60 54 61 55 62 69 64 90 65 57 66 41 67
REMARK SMILES IDX 42 68 50 69 43 70 44 71 48 72 51 73 45 74 46 75 49 76 47 77
REMARK SMILES IDX 73 78 74 79 82 80 75 81 76 82 80 83 83 84 77 85 78 86 81 87
REMARK SMILES IDX 79 88 58 89 59 90 67 91 60 92 61 93 65 94 68 95 62 96 63 97
REMARK SMILES IDX 66 98 64 99
REMARK H PARENT 22 7 29 33 88 52 56 63
REMARK Flexibility Score: inf
ROOT
ATOM      1  C   UNL A   1      32.462  29.927  26.917  1.00  0.00     0.002 C 
ENDROOT
BRANCH   1   2
ATOM      2  C   UNL A   1      31.774  28.682  27.481  1.00  0.00     0.021 C 
BRANCH   2   3
ATOM      3  C   UNL A   1      32.306  27.370  26.906  1.00  0.00     0.116 C 
BRANCH   3   4
ATOM      4  N   UNL A   1      31.253  26.377  26.785  1.00  0.00    -0.352 N 
ATOM      5  C   UNL A   1      31.143  25.083  26.407  1.00  0.00     0.251 C 
ATOM      6  O   UNL A   1      30.004  24.612  26.489  1.00  0.00    -0.270 OA
ATOM      7  H   UNL A   1      30.381  26.747  27.051  1.00  0.00     0.163 HD
BRANCH   5   8
ATOM      8  C   UNL A   1      32.263  24.220  25.920  1.00  0.00     0.067 C 
ATOM      9  C   UNL A   1      36.620  22.190  24.134  1.00  0.00     0.048 C 
ATOM     10  C   UNL A   1      35.327  21.632  24.662  1.00  0.00    -0.005 A 
ATOM     11  C   UNL A   1      35.092  20.250  24.643  1.00  0.00     0.054 A 
ATOM     12  C   UNL A   1      34.324  22.486  25.135  1.00  0.00     0.131 A 
ATOM     13  C   UNL A   1      33.882  19.728  25.108  1.00  0.00     0.130 A 
ATOM     14  C   UNL A   1      33.106  21.981  25.586  1.00  0.00     0.021 A 
ATOM     15  O   UNL A   1      34.618  23.818  25.172  1.00  0.00    -0.475 OA
ATOM     16  C   UNL A   1      32.892  20.600  25.574  1.00  0.00     0.058 A 
ATOM     17  C   UNL A   1      32.087  22.896  26.082  1.00  0.00     0.025 C 
ATOM     18  C   UNL A   1      33.500  24.739  25.244  1.00  0.00     0.314 C 
BRANCH  13  19
ATOM     19  O   UNL A   1      33.539  18.406  25.159  1.00  0.00    -0.406 OA
BRANCH  19  20
ATOM     20  C   UNL A   1      33.440  17.704  23.930  1.00  0.00     0.573 C 
ATOM     21  F   UNL A   1      32.731  16.565  24.078  1.00  0.00    -0.132 F 
ATOM     22  F   UNL A   1      32.870  18.470  22.975  1.00  0.00    -0.132 F 
ATOM     23  F   UNL A   1      34.683  17.375  23.517  1.00  0.00    -0.132 F 
ENDBRANCH  19  20
ENDBRANCH  13  19
BRANCH  18  24
ATOM     24  C   UNL A   1      33.243  25.325  23.845  1.00  0.00     0.429 C 
ATOM     25  F   UNL A   1      32.176  24.712  23.269  1.00  0.00    -0.167 F 
ATOM     26  F   UNL A   1      32.973  26.650  23.873  1.00  0.00    -0.167 F 
ATOM     27  F   UNL A   1      34.286  25.157  23.001  1.00  0.00    -0.167 F 
ENDBRANCH  18  24
ENDBRANCH   5   8
ENDBRANCH   3   4
ENDBRANCH   2   3
ENDBRANCH   1   2
BRANCH   1  28
ATOM     28  C   UNL A   1      31.576  30.814  26.035  1.00  0.00     0.002 C 
BRANCH  28  29
ATOM     29  C   UNL A   1      31.400  32.254  26.525  1.00  0.00     0.021 C 
BRANCH  29  30
ATOM     30  C   UNL A   1      32.582  32.788  27.330  1.00  0.00     0.116 C 
BRANCH  30  31
ATOM     31  N   UNL A   1      32.420  34.202  27.629  1.00  0.00    -0.352 N 
ATOM     32  C   UNL A   1      33.005  34.942  28.621  1.00  0.00     0.251 C 
ATOM     33  H   UNL A   1      31.806  34.694  27.036  1.00  0.00     0.163 HD
ATOM     34  O   UNL A   1      32.567  36.050  28.918  1.00  0.00    -0.269 OA
BRANCH  32  35
ATOM     35  C   UNL A   1      34.179  34.402  29.330  1.00  0.00     0.039 A 
ATOM     36  C   UNL A   1      35.446  34.534  28.755  1.00  0.00     0.014 A 
ATOM     37  C   UNL A   1      34.015  33.726  30.544  1.00  0.00     0.014 A 
ATOM     38  C   UNL A   1      36.559  34.010  29.413  1.00  0.00     0.010 A 
ATOM     39  C   UNL A   1      35.128  33.246  31.222  1.00  0.00     0.010 A 
ATOM     40  C   UNL A   1      36.405  33.368  30.652  1.00  0.00    -0.014 A 
BRANCH  40  41
ATOM     41  C   UNL A   1      37.553  32.736  31.339  1.00  0.00     0.031 A 
ATOM     42  C   UNL A   1      38.256  31.585  30.680  1.00  0.00     0.074 A 
ATOM     43  C   UNL A   1      37.922  33.155  32.562  1.00  0.00     0.049 A 
ATOM     44  N   UNL A   1      39.207  30.817  31.146  1.00  0.00    -0.248 NA
ATOM     45  C   UNL A   1      37.818  31.242  29.318  1.00  0.00     0.031 C 
ATOM     46  C   UNL A   1      37.312  34.262  33.297  1.00  0.00     0.029 A 
ATOM     47  N   UNL A   1      38.895  32.685  33.408  1.00  0.00    -0.354 N 
ATOM     48  C   UNL A   1      39.477  29.902  30.137  1.00  0.00     0.074 A 
ATOM     49  C   UNL A   1      38.558  30.176  29.055  1.00  0.00     0.031 C 
ATOM     50  C   UNL A   1      37.927  34.390  34.484  1.00  0.00     0.029 A 
ATOM     51  C   UNL A   1      38.949  33.353  34.606  1.00  0.00     0.049 A 
ATOM     52  H   UNL A   1      39.496  31.940  33.178  1.00  0.00     0.167 HD
ATOM     53  C   UNL A   1      40.423  28.935  30.112  1.00  0.00     0.037 A 
ATOM     54  C   UNL A   1      39.729  33.138  35.682  1.00  0.00     0.037 A 
ATOM     55  C   UNL A   1      41.338  28.669  31.191  1.00  0.00     0.049 A 
ATOM     56  C   UNL A   1      40.736  32.019  35.648  1.00  0.00     0.074 A 
ATOM     57  C   UNL A   1      42.344  27.723  31.256  1.00  0.00     0.029 A 
ATOM     58  N   UNL A   1      41.353  29.356  32.396  1.00  0.00    -0.354 N 
ATOM     59  N   UNL A   1      41.001  31.172  34.683  1.00  0.00    -0.248 NA
ATOM     60  C   UNL A   1      41.553  31.829  36.855  1.00  0.00     0.031 C 
ATOM     61  C   UNL A   1      42.940  27.807  32.518  1.00  0.00     0.029 A 
ATOM     62  C   UNL A   1      42.340  28.841  33.220  1.00  0.00     0.049 A 
ATOM     63  H   UNL A   1      40.752  30.099  32.632  1.00  0.00     0.167 HD
ATOM     64  C   UNL A   1      42.027  30.364  35.155  1.00  0.00     0.074 A 
ATOM     65  C   UNL A   1      42.350  30.837  36.486  1.00  0.00     0.031 C 
ATOM     66  C   UNL A   1      42.645  29.322  34.545  1.00  0.00     0.037 A 
BRANCH  53  67
ATOM     67  C   UNL A   1      40.521  28.095  28.872  1.00  0.00     0.064 A 
ATOM     68  C   UNL A   1      39.801  26.897  28.741  1.00  0.00     0.173 A 
ATOM     69  C   UNL A   1      41.304  28.513  27.786  1.00  0.00     0.173 A 
ATOM     70  F   UNL A   1      39.051  26.446  29.757  1.00  0.00    -0.203 F 
ATOM     71  C   UNL A   1      39.878  26.139  27.576  1.00  0.00     0.198 A 
ATOM     72  C   UNL A   1      41.356  27.766  26.612  1.00  0.00     0.198 A 
ATOM     73  F   UNL A   1      42.011  29.650  27.859  1.00  0.00    -0.203 F 
ATOM     74  F   UNL A   1      39.214  24.978  27.488  1.00  0.00    -0.200 F 
ATOM     75  C   UNL A   1      40.647  26.579  26.509  1.00  0.00     0.200 A 
ATOM     76  F   UNL A   1      42.091  28.198  25.577  1.00  0.00    -0.200 F 
ATOM     77  F   UNL A   1      40.710  25.855  25.383  1.00  0.00    -0.200 F 
ENDBRANCH  53  67
BRANCH  54  78
ATOM     78  C   UNL A   1      39.604  34.017  36.873  1.00  0.00     0.064 A 
ATOM     79  C   UNL A   1      40.262  35.254  36.921  1.00  0.00     0.173 A 
ATOM     80  C   UNL A   1      38.828  33.647  37.981  1.00  0.00     0.173 A 
ATOM     81  F   UNL A   1      41.035  35.641  35.895  1.00  0.00    -0.203 F 
ATOM     82  C   UNL A   1      40.159  36.082  38.037  1.00  0.00     0.198 A 
ATOM     83  C   UNL A   1      38.704  34.487  39.085  1.00  0.00     0.198 A 
ATOM     84  F   UNL A   1      38.178  32.473  37.984  1.00  0.00    -0.203 F 
ATOM     85  F   UNL A   1      40.828  37.241  38.073  1.00  0.00    -0.200 F 
ATOM     86  C   UNL A   1      39.374  35.701  39.115  1.00  0.00     0.200 A 
ATOM     87  F   UNL A   1      37.935  34.121  40.119  1.00  0.00    -0.200 F 
ATOM     88  F   UNL A   1      39.268  36.501  40.185  1.00  0.00    -0.200 F 
ENDBRANCH  54  78
BRANCH  66  89
ATOM     89  C   UNL A   1      43.743  28.633  35.303  1.00  0.00     0.064 A 
ATOM     90  C   UNL A   1      43.472  27.588  36.198  1.00  0.00     0.173 A 
ATOM     91  C   UNL A   1      45.083  28.995  35.102  1.00  0.00     0.173 A 
ATOM     92  F   UNL A   1      42.206  27.212  36.435  1.00  0.00    -0.203 F 
ATOM     93  C   UNL A   1      44.501  26.950  36.886  1.00  0.00     0.198 A 
ATOM     94  C   UNL A   1      46.112  28.334  35.767  1.00  0.00     0.198 A 
ATOM     95  F   UNL A   1      45.397  29.983  34.249  1.00  0.00    -0.203 F 
ATOM     96  F   UNL A   1      44.215  25.989  37.775  1.00  0.00    -0.200 F 
ATOM     97  C   UNL A   1      45.820  27.319  36.664  1.00  0.00     0.200 A 
ATOM     98  F   UNL A   1      47.386  28.682  35.539  1.00  0.00    -0.200 F 
ATOM     99  F   UNL A   1      46.809  26.700  37.323  1.00  0.00    -0.200 F 
ENDBRANCH  66  89
ENDBRANCH  40  41
ENDBRANCH  32  35
ENDBRANCH  30  31
ENDBRANCH  29  30
ENDBRANCH  28  29
ENDBRANCH   1  28
TORSDOF 16
ENDMDL
