MODEL 1
REMARK VINA RESULT:     -11.5      0.000      0.000
REMARK SMILES CCC(CC)(NC(=O)NCCc1nccs1)C(=O)NCCCCCCNC(=O)c1ccc(-c2c3nc(c(-c4c(F)c(F)c(F)c(F)c4F)c4ccc([nH]4)c(-c4c(F)c(F)c(F)c(F)c4F)c4nc(c(-c5c(F)c(F)c(F)c(F)c5F)c5ccc2[nH]5)C=C4)C=C3)cc1
REMARK SMILES IDX 21 1 20 2 19 3 17 4 18 5 3 7 2 8 1 9 4 10 5 11 6 12 7 13
REMARK SMILES IDX 8 15 9 16 10 18 11 19 12 20 13 21 16 22 14 23 15 24 22 25
REMARK SMILES IDX 23 26 24 27 25 28 26 29 27 30 28 32 29 33 30 34 91 35 31 36
REMARK SMILES IDX 90 37 32 38 33 39 34 40 84 41 35 42 89 43 83 44 85 45 36 46
REMARK SMILES IDX 88 47 82 48 81 49 37 51 69 52 49 53 68 54 50 55 53 56 67 57
REMARK SMILES IDX 86 58 51 59 52 60 66 62 87 63 54 64 38 65 39 66 47 67 40 68
REMARK SMILES IDX 41 69 45 70 48 71 42 72 43 73 46 74 44 75 70 76 71 77 79 78
REMARK SMILES IDX 72 79 73 80 77 81 80 82 74 83 75 84 78 85 76 86 55 87 56 88
REMARK SMILES IDX 64 89 57 90 58 91 62 92 65 93 59 94 60 95 63 96 61 97
REMARK H PARENT 19 6 6 14 9 17 26 31 85 50 53 61
REMARK Flexibility Score: inf
ROOT
ATOM      1  C   UNL A   1      33.723  28.855  27.149  1.00  0.00     0.021 C 
ENDROOT
BRANCH   1   2
ATOM      2  C   UNL A   1      33.481  27.492  26.493  1.00  0.00     0.116 C 
BRANCH   2   3
ATOM      3  N   UNL A   1      32.132  26.942  26.599  1.00  0.00    -0.354 N 
ATOM      4  C   UNL A   1      31.353  26.197  25.745  1.00  0.00     0.245 C 
ATOM      5  O   UNL A   1      30.314  25.727  26.221  1.00  0.00    -0.272 OA
ATOM      6  H   UNL A   1      31.691  27.147  27.456  1.00  0.00     0.163 HD
BRANCH   4   7
ATOM      7  C   UNL A   1      31.830  25.836  24.312  1.00  0.00     0.120 C 
BRANCH   7   8
ATOM      8  C   UNL A   1      30.810  25.142  23.367  1.00  0.00     0.035 C 
ATOM      9  C   UNL A   1      30.680  23.627  23.444  1.00  0.00     0.007 C 
ENDBRANCH   7   8
BRANCH   7  10
ATOM     10  C   UNL A   1      33.038  24.861  24.573  1.00  0.00     0.035 C 
ATOM     11  C   UNL A   1      34.215  24.921  23.611  1.00  0.00     0.007 C 
ENDBRANCH   7  10
BRANCH   7  12
ATOM     12  N   UNL A   1      32.249  27.090  23.655  1.00  0.00    -0.324 N 
ATOM     13  C   UNL A   1      31.625  28.174  23.175  1.00  0.00     0.315 C 
ATOM     14  H   UNL A   1      33.226  27.143  23.544  1.00  0.00     0.166 HD
ATOM     15  O   UNL A   1      32.339  28.986  22.576  1.00  0.00    -0.249 OA
ATOM     16  N   UNL A   1      30.347  28.517  23.377  1.00  0.00    -0.338 N 
ATOM     17  H   UNL A   1      30.233  29.493  23.345  1.00  0.00     0.165 HD
BRANCH  16  18
ATOM     18  C   UNL A   1      29.071  27.849  23.633  1.00  0.00     0.125 C 
BRANCH  18  19
ATOM     19  C   UNL A   1      27.806  28.483  23.043  1.00  0.00     0.089 C 
BRANCH  19  20
ATOM     20  C   UNL A   1      27.949  29.839  22.418  1.00  0.00     0.094 A 
ATOM     21  N   UNL A   1      28.336  30.109  21.189  1.00  0.00    -0.250 NA
ATOM     22  S   UNL A   1      27.679  31.224  23.424  1.00  0.00    -0.127 S 
ATOM     23  C   UNL A   1      28.456  31.480  21.031  1.00  0.00     0.123 A 
ATOM     24  C   UNL A   1      28.163  32.243  22.140  1.00  0.00     0.087 A 
ENDBRANCH  19  20
ENDBRANCH  18  19
ENDBRANCH  16  18
ENDBRANCH   7  12
ENDBRANCH   4   7
ENDBRANCH   2   3
ENDBRANCH   1   2
BRANCH   1  25
ATOM     25  C   UNL A   1      33.233  30.079  26.387  1.00  0.00     0.002 C 
BRANCH  25  26
ATOM     26  C   UNL A   1      31.813  30.536  26.707  1.00  0.00     0.002 C 
BRANCH  26  27
ATOM     27  C   UNL A   1      31.630  32.049  26.736  1.00  0.00     0.021 C 
BRANCH  27  28
ATOM     28  C   UNL A   1      32.757  32.801  27.432  1.00  0.00     0.116 C 
BRANCH  28  29
ATOM     29  N   UNL A   1      32.433  34.200  27.666  1.00  0.00    -0.352 N 
ATOM     30  C   UNL A   1      32.981  35.054  28.596  1.00  0.00     0.251 C 
ATOM     31  H   UNL A   1      31.735  34.584  27.087  1.00  0.00     0.163 HD
ATOM     32  O   UNL A   1      32.517  36.163  28.792  1.00  0.00    -0.269 OA
BRANCH  30  33
ATOM     33  C   UNL A   1      34.137  34.574  29.383  1.00  0.00     0.039 A 
ATOM     34  C   UNL A   1      33.923  34.073  30.668  1.00  0.00     0.014 A 
ATOM     35  C   UNL A   1      35.413  34.557  28.812  1.00  0.00     0.014 A 
ATOM     36  C   UNL A   1      34.986  33.491  31.360  1.00  0.00     0.010 A 
ATOM     37  C   UNL A   1      36.449  33.908  29.470  1.00  0.00     0.010 A 
ATOM     38  C   UNL A   1      36.248  33.372  30.753  1.00  0.00    -0.014 A 
BRANCH  38  39
ATOM     39  C   UNL A   1      37.376  32.702  31.444  1.00  0.00     0.031 A 
ATOM     40  C   UNL A   1      38.073  31.542  30.789  1.00  0.00     0.074 A 
ATOM     41  C   UNL A   1      37.727  33.090  32.685  1.00  0.00     0.049 A 
ATOM     42  N   UNL A   1      39.041  30.789  31.248  1.00  0.00    -0.248 NA
ATOM     43  C   UNL A   1      37.599  31.161  29.450  1.00  0.00     0.031 C 
ATOM     44  C   UNL A   1      37.093  34.167  33.447  1.00  0.00     0.029 A 
ATOM     45  N   UNL A   1      38.701  32.617  33.528  1.00  0.00    -0.354 N 
ATOM     46  C   UNL A   1      39.275  29.838  30.264  1.00  0.00     0.074 A 
ATOM     47  C   UNL A   1      38.310  30.070  29.212  1.00  0.00     0.031 C 
ATOM     48  C   UNL A   1      37.715  34.294  34.630  1.00  0.00     0.029 A 
ATOM     49  C   UNL A   1      38.767  33.286  34.726  1.00  0.00     0.049 A 
ATOM     50  H   UNL A   1      39.298  31.869  33.296  1.00  0.00     0.167 HD
ATOM     51  C   UNL A   1      40.225  28.874  30.229  1.00  0.00     0.037 A 
ATOM     52  C   UNL A   1      39.583  33.103  35.781  1.00  0.00     0.037 A 
ATOM     53  C   UNL A   1      41.200  28.667  31.267  1.00  0.00     0.049 A 
ATOM     54  C   UNL A   1      40.626  32.020  35.722  1.00  0.00     0.074 A 
ATOM     55  C   UNL A   1      42.249  27.766  31.298  1.00  0.00     0.029 A 
ATOM     56  N   UNL A   1      41.240  29.369  32.463  1.00  0.00    -0.354 N 
ATOM     57  N   UNL A   1      40.893  31.179  34.752  1.00  0.00    -0.248 NA
ATOM     58  C   UNL A   1      41.485  31.865  36.904  1.00  0.00     0.031 C 
ATOM     59  C   UNL A   1      42.895  27.889  32.533  1.00  0.00     0.029 A 
ATOM     60  C   UNL A   1      42.280  28.904  33.251  1.00  0.00     0.049 A 
ATOM     61  H   UNL A   1      40.619  30.091  32.714  1.00  0.00     0.167 HD
ATOM     62  C   UNL A   1      41.968  30.419  35.191  1.00  0.00     0.074 A 
ATOM     63  C   UNL A   1      42.313  30.907  36.510  1.00  0.00     0.031 C 
ATOM     64  C   UNL A   1      42.614  29.409  34.558  1.00  0.00     0.037 A 
BRANCH  51  65
ATOM     65  C   UNL A   1      40.253  27.975  29.027  1.00  0.00     0.064 A 
ATOM     66  C   UNL A   1      40.984  28.305  27.875  1.00  0.00     0.173 A 
ATOM     67  C   UNL A   1      39.551  26.760  29.031  1.00  0.00     0.173 A 
ATOM     68  F   UNL A   1      41.662  29.461  27.814  1.00  0.00    -0.203 F 
ATOM     69  C   UNL A   1      40.978  27.473  26.758  1.00  0.00     0.198 A 
ATOM     70  C   UNL A   1      39.575  25.914  27.926  1.00  0.00     0.198 A 
ATOM     71  F   UNL A   1      38.841  26.391  30.108  1.00  0.00    -0.203 F 
ATOM     72  F   UNL A   1      41.633  27.840  25.648  1.00  0.00    -0.200 F 
ATOM     73  C   UNL A   1      40.279  26.276  26.786  1.00  0.00     0.200 A 
ATOM     74  F   UNL A   1      38.911  24.750  27.959  1.00  0.00    -0.200 F 
ATOM     75  F   UNL A   1      40.276  25.475  25.712  1.00  0.00    -0.200 F 
ENDBRANCH  51  65
BRANCH  52  76
ATOM     76  C   UNL A   1      39.478  33.993  36.968  1.00  0.00     0.064 A 
ATOM     77  C   UNL A   1      38.750  33.597  38.098  1.00  0.00     0.173 A 
ATOM     78  C   UNL A   1      40.094  35.253  36.998  1.00  0.00     0.173 A 
ATOM     79  F   UNL A   1      38.125  32.409  38.109  1.00  0.00    -0.203 F 
ATOM     80  C   UNL A   1      38.623  34.434  39.204  1.00  0.00     0.198 A 
ATOM     81  C   UNL A   1      39.990  36.078  38.117  1.00  0.00     0.198 A 
ATOM     82  F   UNL A   1      40.807  35.678  35.944  1.00  0.00    -0.203 F 
ATOM     83  F   UNL A   1      37.882  34.048  40.253  1.00  0.00    -0.200 F 
ATOM     84  C   UNL A   1      39.247  35.672  39.215  1.00  0.00     0.200 A 
ATOM     85  F   UNL A   1      40.607  37.268  38.128  1.00  0.00    -0.200 F 
ATOM     86  F   UNL A   1      39.129  36.476  40.280  1.00  0.00    -0.200 F 
ENDBRANCH  52  76
BRANCH  64  87
ATOM     87  C   UNL A   1      43.784  28.790  35.267  1.00  0.00     0.064 A 
ATOM     88  C   UNL A   1      43.630  27.693  36.126  1.00  0.00     0.173 A 
ATOM     89  C   UNL A   1      45.082  29.278  35.051  1.00  0.00     0.173 A 
ATOM     90  F   UNL A   1      42.408  27.199  36.378  1.00  0.00    -0.203 F 
ATOM     91  C   UNL A   1      44.730  27.124  36.764  1.00  0.00     0.198 A 
ATOM     92  C   UNL A   1      46.182  28.687  35.665  1.00  0.00     0.198 A 
ATOM     93  F   UNL A   1      45.284  30.323  34.233  1.00  0.00    -0.203 F 
ATOM     94  F   UNL A   1      44.553  26.107  37.619  1.00  0.00    -0.200 F 
ATOM     95  C   UNL A   1      46.005  27.616  36.527  1.00  0.00     0.200 A 
ATOM     96  F   UNL A   1      47.415  29.155  35.424  1.00  0.00    -0.200 F 
ATOM     97  F   UNL A   1      47.062  27.062  37.136  1.00  0.00    -0.200 F 
ENDBRANCH  64  87
ENDBRANCH  38  39
ENDBRANCH  30  33
ENDBRANCH  28  29
ENDBRANCH  27  28
ENDBRANCH  26  27
ENDBRANCH  25  26
ENDBRANCH   1  25
TORSDOF 19
ENDMDL
MODEL 2
REMARK VINA RESULT:     -11.2      1.990      7.934
REMARK SMILES CCC(CC)(NC(=O)NCCc1nccs1)C(=O)NCCCCCCNC(=O)c1ccc(-c2c3nc(c(-c4c(F)c(F)c(F)c(F)c4F)c4ccc([nH]4)c(-c4c(F)c(F)c(F)c(F)c4F)c4nc(c(-c5c(F)c(F)c(F)c(F)c5F)c5ccc2[nH]5)C=C4)C=C3)cc1
REMARK SMILES IDX 21 1 20 2 19 3 17 4 18 5 3 7 2 8 1 9 4 10 5 11 6 12 7 13
REMARK SMILES IDX 8 15 9 16 10 18 11 19 12 20 13 21 16 22 14 23 15 24 22 25
REMARK SMILES IDX 23 26 24 27 25 28 26 29 27 30 28 32 29 33 30 34 91 35 31 36
REMARK SMILES IDX 90 37 32 38 33 39 34 40 84 41 35 42 89 43 83 44 85 45 36 46
REMARK SMILES IDX 88 47 82 48 81 49 37 51 69 52 49 53 68 54 50 55 53 56 67 57
REMARK SMILES IDX 86 58 51 59 52 60 66 62 87 63 54 64 38 65 39 66 47 67 40 68
REMARK SMILES IDX 41 69 45 70 48 71 42 72 43 73 46 74 44 75 70 76 71 77 79 78
REMARK SMILES IDX 72 79 73 80 77 81 80 82 74 83 75 84 78 85 76 86 55 87 56 88
REMARK SMILES IDX 64 89 57 90 58 91 62 92 65 93 59 94 60 95 63 96 61 97
REMARK H PARENT 19 6 6 14 9 17 26 31 85 50 53 61
REMARK Flexibility Score: inf
ROOT
ATOM      1  C   UNL A   1      33.602  29.201  27.359  1.00  0.00     0.021 C 
ENDROOT
BRANCH   1   2
ATOM      2  C   UNL A   1      33.428  27.803  26.759  1.00  0.00     0.116 C 
BRANCH   2   3
ATOM      3  N   UNL A   1      32.104  27.197  26.876  1.00  0.00    -0.354 N 
ATOM      4  C   UNL A   1      31.205  26.721  25.951  1.00  0.00     0.245 C 
ATOM      5  O   UNL A   1      30.242  26.090  26.398  1.00  0.00    -0.272 OA
ATOM      6  H   UNL A   1      31.792  27.113  27.807  1.00  0.00     0.163 HD
BRANCH   4   7
ATOM      7  C   UNL A   1      31.468  26.835  24.425  1.00  0.00     0.120 C 
BRANCH   7   8
ATOM      8  C   UNL A   1      32.946  26.844  23.947  1.00  0.00     0.035 C 
ATOM      9  C   UNL A   1      33.218  27.083  22.468  1.00  0.00     0.007 C 
ENDBRANCH   7   8
BRANCH   7  10
ATOM     10  C   UNL A   1      30.795  28.207  24.048  1.00  0.00     0.035 C 
ATOM     11  C   UNL A   1      29.645  28.180  23.053  1.00  0.00     0.007 C 
ENDBRANCH   7  10
BRANCH   7  12
ATOM     12  N   UNL A   1      30.807  25.686  23.775  1.00  0.00    -0.324 N 
ATOM     13  C   UNL A   1      30.942  24.353  23.818  1.00  0.00     0.315 C 
ATOM     14  H   UNL A   1      30.091  25.967  23.160  1.00  0.00     0.166 HD
ATOM     15  O   UNL A   1      30.255  23.715  23.013  1.00  0.00    -0.249 OA
ATOM     16  N   UNL A   1      31.649  23.649  24.712  1.00  0.00    -0.338 N 
ATOM     17  H   UNL A   1      31.261  22.755  24.844  1.00  0.00     0.165 HD
BRANCH  16  18
ATOM     18  C   UNL A   1      32.835  23.835  25.547  1.00  0.00     0.125 C 
BRANCH  18  19
ATOM     19  C   UNL A   1      33.411  22.600  26.248  1.00  0.00     0.089 C 
BRANCH  19  20
ATOM     20  C   UNL A   1      33.285  21.288  25.534  1.00  0.00     0.094 A 
ATOM     21  N   UNL A   1      32.174  20.625  25.283  1.00  0.00    -0.250 NA
ATOM     22  S   UNL A   1      34.744  20.481  25.062  1.00  0.00    -0.127 S 
ATOM     23  C   UNL A   1      32.484  19.400  24.714  1.00  0.00     0.123 A 
ATOM     24  C   UNL A   1      33.825  19.139  24.538  1.00  0.00     0.087 A 
ENDBRANCH  19  20
ENDBRANCH  18  19
ENDBRANCH  16  18
ENDBRANCH   7  12
ENDBRANCH   4   7
ENDBRANCH   2   3
ENDBRANCH   1   2
BRANCH   1  25
ATOM     25  C   UNL A   1      33.229  30.379  26.468  1.00  0.00     0.002 C 
BRANCH  25  26
ATOM     26  C   UNL A   1      31.758  30.783  26.482  1.00  0.00     0.002 C 
BRANCH  26  27
ATOM     27  C   UNL A   1      31.511  32.250  26.811  1.00  0.00     0.021 C 
BRANCH  27  28
ATOM     28  C   UNL A   1      32.743  32.996  27.305  1.00  0.00     0.116 C 
BRANCH  28  29
ATOM     29  N   UNL A   1      32.448  34.368  27.689  1.00  0.00    -0.352 N 
ATOM     30  C   UNL A   1      33.021  35.109  28.697  1.00  0.00     0.251 C 
ATOM     31  H   UNL A   1      31.753  34.823  27.161  1.00  0.00     0.163 HD
ATOM     32  O   UNL A   1      32.581  36.200  29.013  1.00  0.00    -0.269 OA
BRANCH  30  33
ATOM     33  C   UNL A   1      34.174  34.528  29.416  1.00  0.00     0.039 A 
ATOM     34  C   UNL A   1      33.945  33.749  30.552  1.00  0.00     0.014 A 
ATOM     35  C   UNL A   1      35.469  34.698  28.916  1.00  0.00     0.014 A 
ATOM     36  C   UNL A   1      35.015  33.084  31.153  1.00  0.00     0.010 A 
ATOM     37  C   UNL A   1      36.517  33.973  29.468  1.00  0.00     0.010 A 
ATOM     38  C   UNL A   1      36.302  33.163  30.595  1.00  0.00    -0.014 A 
BRANCH  38  39
ATOM     39  C   UNL A   1      37.442  32.415  31.179  1.00  0.00     0.031 A 
ATOM     40  C   UNL A   1      37.953  32.776  32.546  1.00  0.00     0.074 A 
ATOM     41  C   UNL A   1      38.058  31.460  30.455  1.00  0.00     0.049 A 
ATOM     42  N   UNL A   1      38.969  32.284  33.209  1.00  0.00    -0.248 NA
ATOM     43  C   UNL A   1      37.245  33.858  33.248  1.00  0.00     0.031 C 
ATOM     44  C   UNL A   1      37.689  31.054  29.099  1.00  0.00     0.029 A 
ATOM     45  N   UNL A   1      39.131  30.661  30.760  1.00  0.00    -0.354 N 
ATOM     46  C   UNL A   1      39.030  33.007  34.393  1.00  0.00     0.074 A 
ATOM     47  C   UNL A   1      37.991  34.010  34.331  1.00  0.00     0.031 C 
ATOM     48  C   UNL A   1      38.500  30.061  28.701  1.00  0.00     0.029 A 
ATOM     49  C   UNL A   1      39.468  29.784  29.757  1.00  0.00     0.049 A 
ATOM     50  H   UNL A   1      39.615  30.710  31.617  1.00  0.00     0.167 HD
ATOM     51  C   UNL A   1      39.861  32.832  35.447  1.00  0.00     0.037 A 
ATOM     52  C   UNL A   1      40.449  28.864  29.700  1.00  0.00     0.037 A 
ATOM     53  C   UNL A   1      40.875  31.813  35.513  1.00  0.00     0.049 A 
ATOM     54  C   UNL A   1      41.365  28.694  30.882  1.00  0.00     0.074 A 
ATOM     55  C   UNL A   1      41.722  31.505  36.563  1.00  0.00     0.029 A 
ATOM     56  N   UNL A   1      41.182  30.938  34.482  1.00  0.00    -0.354 N 
ATOM     57  N   UNL A   1      41.362  29.327  32.030  1.00  0.00    -0.248 NA
ATOM     58  C   UNL A   1      42.419  27.677  30.760  1.00  0.00     0.031 C 
ATOM     59  C   UNL A   1      42.575  30.477  36.149  1.00  0.00     0.029 A 
ATOM     60  C   UNL A   1      42.224  30.107  34.859  1.00  0.00     0.049 A 
ATOM     61  H   UNL A   1      40.726  30.913  33.609  1.00  0.00     0.167 HD
ATOM     62  C   UNL A   1      42.388  28.765  32.778  1.00  0.00     0.074 A 
ATOM     63  C   UNL A   1      42.984  27.731  31.958  1.00  0.00     0.031 C 
ATOM     64  C   UNL A   1      42.799  29.076  34.032  1.00  0.00     0.037 A 
BRANCH  51  65
ATOM     65  C   UNL A   1      39.704  33.765  36.612  1.00  0.00     0.064 A 
ATOM     66  C   UNL A   1      40.365  35.003  36.662  1.00  0.00     0.173 A 
ATOM     67  C   UNL A   1      38.870  33.425  37.689  1.00  0.00     0.173 A 
ATOM     68  F   UNL A   1      41.183  35.371  35.665  1.00  0.00    -0.203 F 
ATOM     69  C   UNL A   1      40.228  35.846  37.762  1.00  0.00     0.198 A 
ATOM     70  C   UNL A   1      38.709  34.286  38.771  1.00  0.00     0.198 A 
ATOM     71  F   UNL A   1      38.208  32.258  37.691  1.00  0.00    -0.203 F 
ATOM     72  F   UNL A   1      40.919  36.993  37.813  1.00  0.00    -0.200 F 
ATOM     73  C   UNL A   1      39.397  35.490  38.813  1.00  0.00     0.200 A 
ATOM     74  F   UNL A   1      37.893  33.948  39.779  1.00  0.00    -0.200 F 
ATOM     75  F   UNL A   1      39.264  36.303  39.869  1.00  0.00    -0.200 F 
ENDBRANCH  51  65
BRANCH  52  76
ATOM     76  C   UNL A   1      40.590  27.998  28.499  1.00  0.00     0.064 A 
ATOM     77  C   UNL A   1      39.956  26.749  28.438  1.00  0.00     0.173 A 
ATOM     78  C   UNL A   1      41.360  28.393  27.395  1.00  0.00     0.173 A 
ATOM     79  F   UNL A   1      39.225  26.319  29.478  1.00  0.00    -0.203 F 
ATOM     80  C   UNL A   1      40.104  25.919  27.329  1.00  0.00     0.198 A 
ATOM     81  C   UNL A   1      41.484  27.574  26.274  1.00  0.00     0.198 A 
ATOM     82  F   UNL A   1      41.984  29.580  27.401  1.00  0.00    -0.203 F 
ATOM     83  F   UNL A   1      39.523  24.711  27.317  1.00  0.00    -0.200 F 
ATOM     84  C   UNL A   1      40.863  26.334  26.246  1.00  0.00     0.200 A 
ATOM     85  F   UNL A   1      42.208  27.984  25.224  1.00  0.00    -0.200 F 
ATOM     86  F   UNL A   1      41.003  25.538  25.178  1.00  0.00    -0.200 F 
ENDBRANCH  52  76
BRANCH  64  87
ATOM     87  C   UNL A   1      43.919  28.262  34.611  1.00  0.00     0.064 A 
ATOM     88  C   UNL A   1      43.683  27.056  35.287  1.00  0.00     0.173 A 
ATOM     89  C   UNL A   1      45.251  28.676  34.451  1.00  0.00     0.173 A 
ATOM     90  F   UNL A   1      42.428  26.625  35.480  1.00  0.00    -0.203 F 
ATOM     91  C   UNL A   1      44.738  26.308  35.805  1.00  0.00     0.198 A 
ATOM     92  C   UNL A   1      46.304  27.910  34.942  1.00  0.00     0.198 A 
ATOM     93  F   UNL A   1      45.531  29.819  33.806  1.00  0.00    -0.203 F 
ATOM     94  F   UNL A   1      44.485  25.185  36.490  1.00  0.00    -0.200 F 
ATOM     95  C   UNL A   1      46.046  26.732  35.625  1.00  0.00     0.200 A 
ATOM     96  F   UNL A   1      47.568  28.313  34.755  1.00  0.00    -0.200 F 
ATOM     97  F   UNL A   1      47.060  26.006  36.118  1.00  0.00    -0.200 F 
ENDBRANCH  64  87
ENDBRANCH  38  39
ENDBRANCH  30  33
ENDBRANCH  28  29
ENDBRANCH  27  28
ENDBRANCH  26  27
ENDBRANCH  25  26
ENDBRANCH   1  25
TORSDOF 19
ENDMDL
MODEL 3
REMARK VINA RESULT:     -11.1      1.901      3.457
REMARK SMILES CCC(CC)(NC(=O)NCCc1nccs1)C(=O)NCCCCCCNC(=O)c1ccc(-c2c3nc(c(-c4c(F)c(F)c(F)c(F)c4F)c4ccc([nH]4)c(-c4c(F)c(F)c(F)c(F)c4F)c4nc(c(-c5c(F)c(F)c(F)c(F)c5F)c5ccc2[nH]5)C=C4)C=C3)cc1
REMARK SMILES IDX 21 1 20 2 19 3 17 4 18 5 3 7 2 8 1 9 4 10 5 11 6 12 7 13
REMARK SMILES IDX 8 15 9 16 10 18 11 19 12 20 13 21 16 22 14 23 15 24 22 25
REMARK SMILES IDX 23 26 24 27 25 28 26 29 27 30 28 32 29 33 30 34 91 35 31 36
REMARK SMILES IDX 90 37 32 38 33 39 34 40 84 41 35 42 89 43 83 44 85 45 36 46
REMARK SMILES IDX 88 47 82 48 81 49 37 51 69 52 49 53 68 54 50 55 53 56 67 57
REMARK SMILES IDX 86 58 51 59 52 60 66 62 87 63 54 64 38 65 39 66 47 67 40 68
REMARK SMILES IDX 41 69 45 70 48 71 42 72 43 73 46 74 44 75 70 76 71 77 79 78
REMARK SMILES IDX 72 79 73 80 77 81 80 82 74 83 75 84 78 85 76 86 55 87 56 88
REMARK SMILES IDX 64 89 57 90 58 91 62 92 65 93 59 94 60 95 63 96 61 97
REMARK H PARENT 19 6 6 14 9 17 26 31 85 50 53 61
REMARK Flexibility Score: inf
ROOT
ATOM      1  C   UNL A   1      33.366  29.050  27.157  1.00  0.00     0.021 C 
ENDROOT
BRANCH   1   2
ATOM      2  C   UNL A   1      32.632  29.228  25.824  1.00  0.00     0.116 C 
BRANCH   2   3
ATOM      3  N   UNL A   1      33.462  29.340  24.627  1.00  0.00    -0.354 N 
ATOM      4  C   UNL A   1      33.666  28.513  23.547  1.00  0.00     0.245 C 
ATOM      5  O   UNL A   1      34.297  28.995  22.601  1.00  0.00    -0.272 OA
ATOM      6  H   UNL A   1      33.980  30.177  24.585  1.00  0.00     0.163 HD
BRANCH   4   7
ATOM      7  C   UNL A   1      33.008  27.110  23.458  1.00  0.00     0.120 C 
BRANCH   7   8
ATOM      8  C   UNL A   1      31.535  26.973  23.935  1.00  0.00     0.035 C 
ATOM      9  C   UNL A   1      30.466  27.761  23.190  1.00  0.00     0.007 C 
ENDBRANCH   7   8
BRANCH   7  10
ATOM     10  C   UNL A   1      33.932  26.223  24.374  1.00  0.00     0.035 C 
ATOM     11  C   UNL A   1      33.344  25.701  25.676  1.00  0.00     0.007 C 
ENDBRANCH   7  10
BRANCH   7  12
ATOM     12  N   UNL A   1      33.048  26.690  22.043  1.00  0.00    -0.324 N 
ATOM     13  C   UNL A   1      32.795  25.557  21.372  1.00  0.00     0.315 C 
ATOM     14  H   UNL A   1      33.329  27.421  21.446  1.00  0.00     0.166 HD
ATOM     15  O   UNL A   1      33.065  25.574  20.166  1.00  0.00    -0.249 OA
ATOM     16  N   UNL A   1      32.180  24.467  21.847  1.00  0.00    -0.338 N 
ATOM     17  H   UNL A   1      31.710  23.986  21.129  1.00  0.00     0.165 HD
BRANCH  16  18
ATOM     18  C   UNL A   1      32.011  23.789  23.132  1.00  0.00     0.125 C 
BRANCH  18  19
ATOM     19  C   UNL A   1      31.865  22.264  23.116  1.00  0.00     0.089 C 
BRANCH  19  20
ATOM     20  C   UNL A   1      32.945  21.467  23.786  1.00  0.00     0.094 A 
ATOM     21  N   UNL A   1      32.880  20.209  24.171  1.00  0.00    -0.250 NA
ATOM     22  S   UNL A   1      34.413  22.288  24.204  1.00  0.00    -0.127 S 
ATOM     23  C   UNL A   1      34.035  19.874  24.858  1.00  0.00     0.123 A 
ATOM     24  C   UNL A   1      34.969  20.878  24.994  1.00  0.00     0.087 A 
ENDBRANCH  19  20
ENDBRANCH  18  19
ENDBRANCH  16  18
ENDBRANCH   7  12
ENDBRANCH   4   7
ENDBRANCH   2   3
ENDBRANCH   1   2
BRANCH   1  25
ATOM     25  C   UNL A   1      34.678  29.804  27.322  1.00  0.00     0.002 C 
BRANCH  25  26
ATOM     26  C   UNL A   1      34.602  31.103  28.118  1.00  0.00     0.002 C 
BRANCH  26  27
ATOM     27  C   UNL A   1      34.018  32.281  27.347  1.00  0.00     0.021 C 
BRANCH  27  28
ATOM     28  C   UNL A   1      32.608  32.667  27.771  1.00  0.00     0.116 C 
BRANCH  28  29
ATOM     29  N   UNL A   1      32.420  34.109  27.835  1.00  0.00    -0.352 N 
ATOM     30  C   UNL A   1      33.079  35.016  28.632  1.00  0.00     0.251 C 
ATOM     31  H   UNL A   1      31.736  34.481  27.232  1.00  0.00     0.163 HD
ATOM     32  O   UNL A   1      32.724  36.180  28.698  1.00  0.00    -0.269 OA
BRANCH  30  33
ATOM     33  C   UNL A   1      34.218  34.533  29.439  1.00  0.00     0.039 A 
ATOM     34  C   UNL A   1      33.966  33.869  30.641  1.00  0.00     0.014 A 
ATOM     35  C   UNL A   1      35.525  34.674  28.962  1.00  0.00     0.014 A 
ATOM     36  C   UNL A   1      35.028  33.288  31.337  1.00  0.00     0.010 A 
ATOM     37  C   UNL A   1      36.566  34.029  29.614  1.00  0.00     0.010 A 
ATOM     38  C   UNL A   1      36.330  33.333  30.811  1.00  0.00    -0.014 A 
BRANCH  38  39
ATOM     39  C   UNL A   1      37.463  32.669  31.501  1.00  0.00     0.031 A 
ATOM     40  C   UNL A   1      38.167  31.515  30.844  1.00  0.00     0.074 A 
ATOM     41  C   UNL A   1      37.813  33.059  32.742  1.00  0.00     0.049 A 
ATOM     42  N   UNL A   1      39.139  30.766  31.301  1.00  0.00    -0.248 NA
ATOM     43  C   UNL A   1      37.692  31.131  29.505  1.00  0.00     0.031 C 
ATOM     44  C   UNL A   1      37.174  34.132  33.505  1.00  0.00     0.029 A 
ATOM     45  N   UNL A   1      38.791  32.592  33.583  1.00  0.00    -0.354 N 
ATOM     46  C   UNL A   1      39.377  29.817  30.317  1.00  0.00     0.074 A 
ATOM     47  C   UNL A   1      38.410  30.044  29.266  1.00  0.00     0.031 C 
ATOM     48  C   UNL A   1      37.797  34.262  34.687  1.00  0.00     0.029 A 
ATOM     49  C   UNL A   1      38.854  33.261  34.781  1.00  0.00     0.049 A 
ATOM     50  H   UNL A   1      39.393  31.848  33.350  1.00  0.00     0.167 HD
ATOM     51  C   UNL A   1      40.334  28.859  30.280  1.00  0.00     0.037 A 
ATOM     52  C   UNL A   1      39.673  33.082  35.835  1.00  0.00     0.037 A 
ATOM     53  C   UNL A   1      41.311  28.657  31.317  1.00  0.00     0.049 A 
ATOM     54  C   UNL A   1      40.723  32.005  35.774  1.00  0.00     0.074 A 
ATOM     55  C   UNL A   1      42.366  27.763  31.346  1.00  0.00     0.029 A 
ATOM     56  N   UNL A   1      41.348  29.359  32.512  1.00  0.00    -0.354 N 
ATOM     57  N   UNL A   1      40.993  31.166  34.803  1.00  0.00    -0.248 NA
ATOM     58  C   UNL A   1      41.584  31.854  36.955  1.00  0.00     0.031 C 
ATOM     59  C   UNL A   1      43.012  27.889  32.580  1.00  0.00     0.029 A 
ATOM     60  C   UNL A   1      42.392  28.900  33.299  1.00  0.00     0.049 A 
ATOM     61  H   UNL A   1      40.724  30.078  32.765  1.00  0.00     0.167 HD
ATOM     62  C   UNL A   1      42.074  30.412  35.241  1.00  0.00     0.074 A 
ATOM     63  C   UNL A   1      42.417  30.902  36.559  1.00  0.00     0.031 C 
ATOM     64  C   UNL A   1      42.725  29.406  34.607  1.00  0.00     0.037 A 
BRANCH  51  65
ATOM     65  C   UNL A   1      40.365  27.961  29.078  1.00  0.00     0.064 A 
ATOM     66  C   UNL A   1      39.629  26.766  29.029  1.00  0.00     0.173 A 
ATOM     67  C   UNL A   1      41.129  28.305  27.952  1.00  0.00     0.173 A 
ATOM     68  F   UNL A   1      38.892  26.385  30.083  1.00  0.00    -0.203 F 
ATOM     69  C   UNL A   1      39.690  25.931  27.917  1.00  0.00     0.198 A 
ATOM     70  C   UNL A   1      41.160  27.484  26.828  1.00  0.00     0.198 A 
ATOM     71  F   UNL A   1      41.847  29.439  27.941  1.00  0.00    -0.203 F 
ATOM     72  F   UNL A   1      39.028  24.765  27.921  1.00  0.00    -0.200 F 
ATOM     73  C   UNL A   1      40.450  26.292  26.815  1.00  0.00     0.200 A 
ATOM     74  F   UNL A   1      41.884  27.841  25.758  1.00  0.00    -0.200 F 
ATOM     75  F   UNL A   1      40.505  25.489  25.745  1.00  0.00    -0.200 F 
ENDBRANCH  51  65
BRANCH  52  76
ATOM     76  C   UNL A   1      39.565  33.971  37.022  1.00  0.00     0.064 A 
ATOM     77  C   UNL A   1      38.811  33.585  38.139  1.00  0.00     0.173 A 
ATOM     78  C   UNL A   1      40.202  35.219  37.066  1.00  0.00     0.173 A 
ATOM     79  F   UNL A   1      38.165  32.409  38.136  1.00  0.00    -0.203 F 
ATOM     80  C   UNL A   1      38.680  34.421  39.245  1.00  0.00     0.198 A 
ATOM     81  C   UNL A   1      40.095  36.043  38.185  1.00  0.00     0.198 A 
ATOM     82  F   UNL A   1      40.940  35.634  36.025  1.00  0.00    -0.203 F 
ATOM     83  F   UNL A   1      37.915  34.046  40.280  1.00  0.00    -0.200 F 
ATOM     84  C   UNL A   1      39.327  35.648  39.270  1.00  0.00     0.200 A 
ATOM     85  F   UNL A   1      40.732  37.222  38.210  1.00  0.00    -0.200 F 
ATOM     86  F   UNL A   1      39.205  36.451  40.335  1.00  0.00    -0.200 F 
ENDBRANCH  52  76
BRANCH  64  87
ATOM     87  C   UNL A   1      43.899  28.794  35.313  1.00  0.00     0.064 A 
ATOM     88  C   UNL A   1      43.752  27.701  36.179  1.00  0.00     0.173 A 
ATOM     89  C   UNL A   1      45.195  29.284  35.088  1.00  0.00     0.173 A 
ATOM     90  F   UNL A   1      42.532  27.206  36.439  1.00  0.00    -0.203 F 
ATOM     91  C   UNL A   1      44.856  27.139  36.815  1.00  0.00     0.198 A 
ATOM     92  C   UNL A   1      46.300  28.699  35.702  1.00  0.00     0.198 A 
ATOM     93  F   UNL A   1      45.391  30.325  34.264  1.00  0.00    -0.203 F 
ATOM     94  F   UNL A   1      44.685  26.126  37.677  1.00  0.00    -0.200 F 
ATOM     95  C   UNL A   1      46.128  27.633  36.570  1.00  0.00     0.200 A 
ATOM     96  F   UNL A   1      47.530  29.169  35.452  1.00  0.00    -0.200 F 
ATOM     97  F   UNL A   1      47.189  27.084  37.177  1.00  0.00    -0.200 F 
ENDBRANCH  64  87
ENDBRANCH  38  39
ENDBRANCH  30  33
ENDBRANCH  28  29
ENDBRANCH  27  28
ENDBRANCH  26  27
ENDBRANCH  25  26
ENDBRANCH   1  25
TORSDOF 19
ENDMDL
