MODEL 1
REMARK VINA RESULT:     -17.2      0.000      0.000
REMARK SMILES Cc1ccc(C2=NN(C(=O)CCC(=O)NCCCCCCNC(=O)c3ccc(-c4c5nc(c(-c6c(F)c(F)c(F)c(F)c6F)c6ccc([nH]6)c(-c6c(F)c(F)c(F)c(F)c6F)c6nc(c(-c7c(F)c(F)c(F)c(F)c7F)c7ccc4[nH]7)C=C6)C=C5)cc3)[C@H](C[C@@H]3C=c4cccc(C)c4=NC3=O)C2)cc1
REMARK SMILES IDX 17 1 16 2 15 3 13 4 14 5 12 7 11 8 9 9 10 10 8 11 6 12 7 13
REMARK SMILES IDX 102 14 88 15 5 16 1 17 2 18 3 19 104 20 4 21 103 22 89 23
REMARK SMILES IDX 90 24 91 25 100 26 92 27 99 28 101 29 93 30 98 31 94 32
REMARK SMILES IDX 96 33 95 34 97 35 18 36 19 37 20 38 21 39 22 40 23 41 24 43
REMARK SMILES IDX 25 44 26 45 87 46 27 47 86 48 28 49 29 50 30 51 80 52 31 53
REMARK SMILES IDX 85 54 79 55 81 56 32 57 84 58 78 59 77 60 33 62 65 63 45 64
REMARK SMILES IDX 64 65 46 66 49 67 63 68 82 69 47 70 48 71 62 73 83 74 50 75
REMARK SMILES IDX 34 76 35 77 43 78 36 79 37 80 41 81 44 82 38 83 39 84 42 85
REMARK SMILES IDX 40 86 66 87 67 88 75 89 68 90 69 91 73 92 76 93 70 94 71 95
REMARK SMILES IDX 74 96 72 97 51 98 52 99 60 100 53 101 54 102 58 103 61 104
REMARK SMILES IDX 55 105 56 106 59 107 57 108
REMARK H PARENT 15 6 22 42 81 61 49 72
REMARK Flexibility Score: inf
ROOT
ATOM      1  C   UNL A   1      29.530  28.573  22.745  1.00  0.00     0.021 C 
ENDROOT
BRANCH   1   2
ATOM      2  C   UNL A   1      28.809  26.787  23.849  1.00  0.00     0.116 C 
BRANCH   2   3
ATOM      3  N   UNL A   1      29.487  26.038  25.108  1.00  0.00    -0.356 N 
ATOM      4  C   UNL A   1      30.325  25.001  25.303  1.00  0.00     0.220 C 
ATOM      5  O   UNL A   1      30.537  24.684  26.476  1.00  0.00    -0.275 OA
ATOM      6  H   UNL A   1      29.216  26.449  25.960  1.00  0.00     0.163 HD
BRANCH   4   7
ATOM      7  C   UNL A   1      30.992  24.299  24.164  1.00  0.00     0.110 C 
BRANCH   7   8
ATOM      8  C   UNL A   1      32.004  25.089  23.353  1.00  0.00     0.112 C 
BRANCH   8   9
ATOM      9  C   UNL A   1      33.186  24.306  22.748  1.00  0.00     0.243 C 
ATOM     10  O   UNL A   1      33.411  24.364  21.539  1.00  0.00    -0.273 OA
BRANCH   9  11
ATOM     11  N   UNL A   1      33.906  23.429  23.655  1.00  0.00    -0.230 N 
ATOM     12  C   UNL A   1      33.024  21.147  25.056  1.00  0.00     0.070 C 
ATOM     13  N   UNL A   1      33.270  21.724  23.653  1.00  0.00    -0.174 NA
ATOM     14  C   UNL A   1      33.500  22.631  26.552  1.00  0.00     0.086 C 
ATOM     15  C   UNL A   1      34.380  24.040  25.337  1.00  0.00     0.118 C 
BRANCH  12  16
ATOM     16  C   UNL A   1      33.282  19.321  25.042  1.00  0.00    -0.002 A 
ATOM     17  C   UNL A   1      33.769  14.928  25.074  1.00  0.00     0.044 C 
ATOM     18  C   UNL A   1      33.763  16.416  25.197  1.00  0.00    -0.051 A 
ATOM     19  C   UNL A   1      34.675  17.324  24.648  1.00  0.00     0.004 A 
ATOM     20  C   UNL A   1      32.683  16.946  25.808  1.00  0.00     0.004 A 
ATOM     21  C   UNL A   1      34.459  18.754  24.561  1.00  0.00     0.010 A 
ATOM     22  C   UNL A   1      32.466  18.306  25.673  1.00  0.00     0.010 A 
ENDBRANCH  12  16
BRANCH  15  23
ATOM     23  C   UNL A   1      36.022  24.415  25.176  1.00  0.00     0.045 C 
BRANCH  23  24
ATOM     24  C   UNL A   1      37.030  23.359  25.785  1.00  0.00     0.106 C 
ATOM     25  C   UNL A   1      38.355  23.945  26.193  1.00  0.00    -0.003 C 
ATOM     26  C   UNL A   1      37.380  22.081  24.995  1.00  0.00     0.253 C 
ATOM     27  C   UNL A   1      39.282  23.188  26.778  1.00  0.00    -0.003 A 
ATOM     28  N   UNL A   1      38.406  21.272  25.492  1.00  0.00    -0.212 NA
ATOM     29  O   UNL A   1      36.705  21.750  24.023  1.00  0.00    -0.272 OA
ATOM     30  C   UNL A   1      40.224  23.678  27.752  1.00  0.00     0.010 A 
ATOM     31  C   UNL A   1      39.285  21.773  26.312  1.00  0.00     0.077 A 
ATOM     32  C   UNL A   1      41.125  22.847  28.287  1.00  0.00     0.001 A 
ATOM     33  C   UNL A   1      40.504  21.008  26.786  1.00  0.00    -0.025 A 
ATOM     34  C   UNL A   1      41.310  21.529  27.733  1.00  0.00     0.005 A 
ATOM     35  C   UNL A   1      40.882  19.771  26.037  1.00  0.00     0.047 C 
ENDBRANCH  23  24
ENDBRANCH  15  23
ENDBRANCH   9  11
ENDBRANCH   8   9
ENDBRANCH   7   8
ENDBRANCH   4   7
ENDBRANCH   2   3
ENDBRANCH   1   2
BRANCH   1  36
ATOM     36  C   UNL A   1      31.460  28.757  23.161  1.00  0.00     0.002 C 
BRANCH  36  37
ATOM     37  C   UNL A   1      31.850  28.958  24.995  1.00  0.00     0.002 C 
BRANCH  37  38
ATOM     38  C   UNL A   1      33.203  29.922  25.833  1.00  0.00     0.021 C 
BRANCH  38  39
ATOM     39  C   UNL A   1      33.399  30.534  27.464  1.00  0.00     0.116 C 
BRANCH  39  40
ATOM     40  N   UNL A   1      33.495  32.013  27.731  1.00  0.00    -0.352 N 
ATOM     41  C   UNL A   1      34.241  32.921  28.506  1.00  0.00     0.251 C 
ATOM     42  H   UNL A   1      32.827  32.498  27.196  1.00  0.00     0.163 HD
ATOM     43  O   UNL A   1      33.843  34.094  28.471  1.00  0.00    -0.269 OA
BRANCH  41  44
ATOM     44  C   UNL A   1      35.514  32.691  29.289  1.00  0.00     0.039 A 
ATOM     45  C   UNL A   1      36.707  33.365  28.881  1.00  0.00     0.014 A 
ATOM     46  C   UNL A   1      35.631  31.805  30.347  1.00  0.00     0.014 A 
ATOM     47  C   UNL A   1      37.997  32.976  29.331  1.00  0.00     0.010 A 
ATOM     48  C   UNL A   1      36.910  31.422  30.801  1.00  0.00     0.010 A 
ATOM     49  C   UNL A   1      38.102  31.920  30.231  1.00  0.00    -0.014 A 
BRANCH  49  50
ATOM     50  C   UNL A   1      39.356  31.258  30.655  1.00  0.00     0.031 A 
ATOM     51  C   UNL A   1      39.777  29.995  29.983  1.00  0.00     0.074 A 
ATOM     52  C   UNL A   1      40.284  31.891  31.423  1.00  0.00     0.049 A 
ATOM     53  N   UNL A   1      40.782  29.260  30.338  1.00  0.00    -0.248 NA
ATOM     54  C   UNL A   1      39.045  29.440  28.850  1.00  0.00     0.031 C 
ATOM     55  C   UNL A   1      41.740  31.756  31.299  1.00  0.00     0.029 A 
ATOM     56  N   UNL A   1      40.143  32.778  32.506  1.00  0.00    -0.354 N 
ATOM     57  C   UNL A   1      41.015  28.352  29.326  1.00  0.00     0.074 A 
ATOM     58  C   UNL A   1      39.852  28.443  28.473  1.00  0.00     0.031 C 
ATOM     59  C   UNL A   1      42.343  32.334  32.350  1.00  0.00     0.029 A 
ATOM     60  C   UNL A   1      41.304  32.657  33.304  1.00  0.00     0.049 A 
ATOM     61  H   UNL A   1      39.378  33.372  32.678  1.00  0.00     0.167 HD
ATOM     62  C   UNL A   1      42.232  27.734  29.234  1.00  0.00     0.037 A 
ATOM     63  C   UNL A   1      41.301  32.287  34.617  1.00  0.00     0.037 A 
ATOM     64  C   UNL A   1      43.116  28.138  30.319  1.00  0.00     0.049 A 
ATOM     65  C   UNL A   1      42.242  31.160  34.945  1.00  0.00     0.074 A 
ATOM     66  C   UNL A   1      44.090  29.119  30.397  1.00  0.00     0.029 A 
ATOM     67  N   UNL A   1      42.879  27.705  31.615  1.00  0.00    -0.354 N 
ATOM     68  N   UNL A   1      42.689  30.339  34.044  1.00  0.00    -0.248 NA
ATOM     69  C   UNL A   1      42.624  30.774  36.301  1.00  0.00     0.031 C 
ATOM     70  C   UNL A   1      44.439  29.281  31.756  1.00  0.00     0.029 A 
ATOM     71  C   UNL A   1      43.679  28.397  32.504  1.00  0.00     0.049 A 
ATOM     72  H   UNL A   1      42.234  27.004  31.866  1.00  0.00     0.167 HD
ATOM     73  C   UNL A   1      43.264  29.266  34.663  1.00  0.00     0.074 A 
ATOM     74  C   UNL A   1      43.259  29.613  36.069  1.00  0.00     0.031 C 
ATOM     75  C   UNL A   1      43.602  28.162  33.939  1.00  0.00     0.037 A 
BRANCH  62  76
ATOM     76  C   UNL A   1      42.746  26.998  28.012  1.00  0.00     0.064 A 
ATOM     77  C   UNL A   1      42.687  27.595  26.729  1.00  0.00     0.173 A 
ATOM     78  C   UNL A   1      43.281  25.698  28.024  1.00  0.00     0.173 A 
ATOM     79  F   UNL A   1      42.299  28.866  26.559  1.00  0.00    -0.203 F 
ATOM     80  C   UNL A   1      43.026  26.912  25.557  1.00  0.00     0.198 A 
ATOM     81  C   UNL A   1      43.578  24.996  26.847  1.00  0.00     0.198 A 
ATOM     82  F   UNL A   1      43.588  25.084  29.173  1.00  0.00    -0.203 F 
ATOM     83  F   UNL A   1      42.936  27.537  24.374  1.00  0.00    -0.200 F 
ATOM     84  C   UNL A   1      43.440  25.600  25.614  1.00  0.00     0.200 A 
ATOM     85  F   UNL A   1      44.005  23.727  26.920  1.00  0.00    -0.200 F 
ATOM     86  F   UNL A   1      43.728  24.931  24.490  1.00  0.00    -0.200 F 
ENDBRANCH  62  76
BRANCH  63  87
ATOM     87  C   UNL A   1      39.981  32.399  35.279  1.00  0.00     0.064 A 
ATOM     88  C   UNL A   1      39.222  31.253  35.549  1.00  0.00     0.173 A 
ATOM     89  C   UNL A   1      39.633  33.594  35.927  1.00  0.00     0.173 A 
ATOM     90  F   UNL A   1      39.531  30.083  34.966  1.00  0.00    -0.203 F 
ATOM     91  C   UNL A   1      38.196  31.288  36.486  1.00  0.00     0.198 A 
ATOM     92  C   UNL A   1      38.625  33.619  36.881  1.00  0.00     0.198 A 
ATOM     93  F   UNL A   1      40.323  34.720  35.696  1.00  0.00    -0.203 F 
ATOM     94  F   UNL A   1      37.534  30.162  36.793  1.00  0.00    -0.200 F 
ATOM     95  C   UNL A   1      37.913  32.466  37.164  1.00  0.00     0.200 A 
ATOM     96  F   UNL A   1      38.385  34.741  37.572  1.00  0.00    -0.200 F 
ATOM     97  F   UNL A   1      36.987  32.481  38.134  1.00  0.00    -0.200 F 
ENDBRANCH  63  87
BRANCH  75  98
ATOM     98  C   UNL A   1      43.951  26.815  34.510  1.00  0.00     0.064 A 
ATOM     99  C   UNL A   1      42.999  25.871  34.931  1.00  0.00     0.173 A 
ATOM    100  C   UNL A   1      45.295  26.378  34.538  1.00  0.00     0.173 A 
ATOM    101  F   UNL A   1      41.684  26.097  34.808  1.00  0.00    -0.203 F 
ATOM    102  C   UNL A   1      43.370  24.626  35.444  1.00  0.00     0.198 A 
ATOM    103  C   UNL A   1      45.657  25.110  34.989  1.00  0.00     0.198 A 
ATOM    104  F   UNL A   1      46.295  27.160  34.106  1.00  0.00    -0.203 F 
ATOM    105  F   UNL A   1      42.427  23.787  35.893  1.00  0.00    -0.200 F 
ATOM    106  C   UNL A   1      44.698  24.243  35.468  1.00  0.00     0.200 A 
ATOM    107  F   UNL A   1      46.941  24.729  34.939  1.00  0.00    -0.200 F 
ATOM    108  F   UNL A   1      45.046  23.036  35.930  1.00  0.00    -0.200 F 
ENDBRANCH  75  98
ENDBRANCH  49  50
ENDBRANCH  41  44
ENDBRANCH  39  40
ENDBRANCH  38  39
ENDBRANCH  37  38
ENDBRANCH  36  37
ENDBRANCH   1  36
TORSDOF 19
ENDMDL
MODEL 2
REMARK VINA RESULT:     -16.8      1.523      2.290
REMARK SMILES Cc1ccc(C2=NN(C(=O)CCC(=O)NCCCCCCNC(=O)c3ccc(-c4c5nc(c(-c6c(F)c(F)c(F)c(F)c6F)c6ccc([nH]6)c(-c6c(F)c(F)c(F)c(F)c6F)c6nc(c(-c7c(F)c(F)c(F)c(F)c7F)c7ccc4[nH]7)C=C6)C=C5)cc3)[C@H](C[C@@H]3C=c4cccc(C)c4=NC3=O)C2)cc1
REMARK SMILES IDX 17 1 16 2 15 3 13 4 14 5 12 7 11 8 9 9 10 10 8 11 6 12 7 13
REMARK SMILES IDX 102 14 88 15 5 16 1 17 2 18 3 19 104 20 4 21 103 22 89 23
REMARK SMILES IDX 90 24 91 25 100 26 92 27 99 28 101 29 93 30 98 31 94 32
REMARK SMILES IDX 96 33 95 34 97 35 18 36 19 37 20 38 21 39 22 40 23 41 24 43
REMARK SMILES IDX 25 44 26 45 87 46 27 47 86 48 28 49 29 50 30 51 80 52 31 53
REMARK SMILES IDX 85 54 79 55 81 56 32 57 84 58 78 59 77 60 33 62 65 63 45 64
REMARK SMILES IDX 64 65 46 66 49 67 63 68 82 69 47 70 48 71 62 73 83 74 50 75
REMARK SMILES IDX 34 76 35 77 43 78 36 79 37 80 41 81 44 82 38 83 39 84 42 85
REMARK SMILES IDX 40 86 66 87 67 88 75 89 68 90 69 91 73 92 76 93 70 94 71 95
REMARK SMILES IDX 74 96 72 97 51 98 52 99 60 100 53 101 54 102 58 103 61 104
REMARK SMILES IDX 55 105 56 106 59 107 57 108
REMARK H PARENT 15 6 22 42 81 61 49 72
REMARK Flexibility Score: inf
ROOT
ATOM      1  C   UNL A   1      31.683  27.742  27.616  1.00  0.00     0.021 C 
ENDROOT
BRANCH   1   2
ATOM      2  C   UNL A   1      30.849  26.639  25.880  1.00  0.00     0.116 C 
BRANCH   2   3
ATOM      3  N   UNL A   1      29.966  27.207  24.653  1.00  0.00    -0.356 N 
ATOM      4  C   UNL A   1      30.134  27.418  23.334  1.00  0.00     0.220 C 
ATOM      5  O   UNL A   1      29.202  27.972  22.746  1.00  0.00    -0.275 OA
ATOM      6  H   UNL A   1      29.065  27.469  24.949  1.00  0.00     0.163 HD
BRANCH   4   7
ATOM      7  C   UNL A   1      31.366  26.972  22.612  1.00  0.00     0.110 C 
BRANCH   7   8
ATOM      8  C   UNL A   1      31.665  25.483  22.597  1.00  0.00     0.112 C 
BRANCH   8   9
ATOM      9  C   UNL A   1      33.148  25.063  22.613  1.00  0.00     0.243 C 
ATOM     10  O   UNL A   1      33.905  25.437  21.718  1.00  0.00    -0.273 OA
BRANCH   9  11
ATOM     11  N   UNL A   1      33.538  24.125  23.651  1.00  0.00    -0.230 N 
ATOM     12  C   UNL A   1      32.226  21.815  24.597  1.00  0.00     0.070 C 
ATOM     13  N   UNL A   1      32.902  22.443  23.368  1.00  0.00    -0.174 NA
ATOM     14  C   UNL A   1      32.246  23.217  26.241  1.00  0.00     0.086 C 
ATOM     15  C   UNL A   1      33.483  24.647  25.427  1.00  0.00     0.118 C 
BRANCH  12  16
ATOM     16  C   UNL A   1      32.442  19.984  24.570  1.00  0.00    -0.002 A 
ATOM     17  C   UNL A   1      32.955  15.594  24.654  1.00  0.00     0.044 C 
ATOM     18  C   UNL A   1      32.974  17.084  24.549  1.00  0.00    -0.051 A 
ATOM     19  C   UNL A   1      32.874  17.862  23.390  1.00  0.00     0.004 A 
ATOM     20  C   UNL A   1      32.966  17.751  25.722  1.00  0.00     0.004 A 
ATOM     21  C   UNL A   1      32.612  19.287  23.378  1.00  0.00     0.010 A 
ATOM     22  C   UNL A   1      32.666  19.102  25.695  1.00  0.00     0.010 A 
ENDBRANCH  12  16
BRANCH  15  23
ATOM     23  C   UNL A   1      35.102  24.974  25.795  1.00  0.00     0.045 C 
BRANCH  23  24
ATOM     24  C   UNL A   1      36.132  23.828  25.437  1.00  0.00     0.106 C 
ATOM     25  C   UNL A   1      35.614  22.439  25.699  1.00  0.00    -0.003 C 
ATOM     26  C   UNL A   1      37.551  23.850  26.039  1.00  0.00     0.253 C 
ATOM     27  C   UNL A   1      36.347  21.371  25.389  1.00  0.00    -0.003 A 
ATOM     28  N   UNL A   1      38.359  22.728  25.835  1.00  0.00    -0.212 NA
ATOM     29  O   UNL A   1      37.976  24.865  26.587  1.00  0.00    -0.272 OA
ATOM     30  C   UNL A   1      35.792  20.108  24.972  1.00  0.00     0.010 A 
ATOM     31  C   UNL A   1      37.814  21.583  25.536  1.00  0.00     0.077 A 
ATOM     32  C   UNL A   1      36.603  19.085  24.682  1.00  0.00     0.001 A 
ATOM     33  C   UNL A   1      38.601  20.293  25.438  1.00  0.00    -0.025 A 
ATOM     34  C   UNL A   1      38.007  19.164  24.999  1.00  0.00     0.005 A 
ATOM     35  C   UNL A   1      39.977  20.272  26.021  1.00  0.00     0.047 C 
ENDBRANCH  23  24
ENDBRANCH  15  23
ENDBRANCH   9  11
ENDBRANCH   8   9
ENDBRANCH   7   8
ENDBRANCH   4   7
ENDBRANCH   2   3
ENDBRANCH   1   2
BRANCH   1  36
ATOM     36  C   UNL A   1      33.319  28.661  26.973  1.00  0.00     0.002 C 
BRANCH  36  37
ATOM     37  C   UNL A   1      33.133  30.523  26.747  1.00  0.00     0.002 C 
BRANCH  37  38
ATOM     38  C   UNL A   1      33.846  31.927  27.738  1.00  0.00     0.021 C 
BRANCH  38  39
ATOM     39  C   UNL A   1      33.460  33.634  27.842  1.00  0.00     0.116 C 
BRANCH  39  40
ATOM     40  N   UNL A   1      33.219  34.296  29.173  1.00  0.00    -0.352 N 
ATOM     41  C   UNL A   1      33.816  34.411  30.442  1.00  0.00     0.251 C 
ATOM     42  H   UNL A   1      32.379  34.809  29.149  1.00  0.00     0.163 HD
ATOM     43  O   UNL A   1      33.135  35.001  31.294  1.00  0.00    -0.269 OA
BRANCH  41  44
ATOM     44  C   UNL A   1      35.207  34.013  30.885  1.00  0.00     0.039 A 
ATOM     45  C   UNL A   1      36.315  34.314  30.033  1.00  0.00     0.014 A 
ATOM     46  C   UNL A   1      35.485  33.303  32.041  1.00  0.00     0.014 A 
ATOM     47  C   UNL A   1      37.589  33.707  30.195  1.00  0.00     0.010 A 
ATOM     48  C   UNL A   1      36.750  32.705  32.208  1.00  0.00     0.010 A 
ATOM     49  C   UNL A   1      37.776  32.811  31.243  1.00  0.00    -0.014 A 
BRANCH  49  50
ATOM     50  C   UNL A   1      38.961  31.947  31.450  1.00  0.00     0.031 A 
ATOM     51  C   UNL A   1      39.089  30.687  30.663  1.00  0.00     0.074 A 
ATOM     52  C   UNL A   1      40.069  32.385  32.107  1.00  0.00     0.049 A 
ATOM     53  N   UNL A   1      40.010  29.792  30.834  1.00  0.00    -0.248 NA
ATOM     54  C   UNL A   1      38.135  30.324  29.621  1.00  0.00     0.031 C 
ATOM     55  C   UNL A   1      41.457  32.050  31.769  1.00  0.00     0.029 A 
ATOM     56  N   UNL A   1      40.212  33.204  33.242  1.00  0.00    -0.354 N 
ATOM     57  C   UNL A   1      39.963  28.933  29.755  1.00  0.00     0.074 A 
ATOM     58  C   UNL A   1      38.724  29.250  29.083  1.00  0.00     0.031 C 
ATOM     59  C   UNL A   1      42.277  32.459  32.750  1.00  0.00     0.029 A 
ATOM     60  C   UNL A   1      41.438  32.861  33.858  1.00  0.00     0.049 A 
ATOM     61  H   UNL A   1      39.577  33.889  33.550  1.00  0.00     0.167 HD
ATOM     62  C   UNL A   1      41.047  28.154  29.460  1.00  0.00     0.037 A 
ATOM     63  C   UNL A   1      41.555  32.404  35.138  1.00  0.00     0.037 A 
ATOM     64  C   UNL A   1      42.120  28.349  30.424  1.00  0.00     0.049 A 
ATOM     65  C   UNL A   1      42.348  31.133  35.272  1.00  0.00     0.074 A 
ATOM     66  C   UNL A   1      43.235  29.171  30.410  1.00  0.00     0.029 A 
ATOM     67  N   UNL A   1      41.996  27.865  31.718  1.00  0.00    -0.354 N 
ATOM     68  N   UNL A   1      42.539  30.322  34.277  1.00  0.00    -0.248 NA
ATOM     69  C   UNL A   1      42.846  30.603  36.538  1.00  0.00     0.031 C 
ATOM     70  C   UNL A   1      43.783  29.186  31.711  1.00  0.00     0.029 A 
ATOM     71  C   UNL A   1      43.005  28.370  32.517  1.00  0.00     0.049 A 
ATOM     72  H   UNL A   1      41.292  27.249  32.024  1.00  0.00     0.167 HD
ATOM     73  C   UNL A   1      43.021  29.136  34.753  1.00  0.00     0.074 A 
ATOM     74  C   UNL A   1      43.259  29.381  36.161  1.00  0.00     0.031 C 
ATOM     75  C   UNL A   1      43.087  28.048  33.934  1.00  0.00     0.037 A 
BRANCH  62  76
ATOM     76  C   UNL A   1      41.275  27.439  28.141  1.00  0.00     0.064 A 
ATOM     77  C   UNL A   1      41.062  26.043  28.028  1.00  0.00     0.173 A 
ATOM     78  C   UNL A   1      41.727  28.055  26.962  1.00  0.00     0.173 A 
ATOM     79  F   UNL A   1      40.536  25.326  29.030  1.00  0.00    -0.203 F 
ATOM     80  C   UNL A   1      41.381  25.317  26.877  1.00  0.00     0.198 A 
ATOM     81  C   UNL A   1      42.091  27.323  25.822  1.00  0.00     0.198 A 
ATOM     82  F   UNL A   1      41.780  29.387  26.851  1.00  0.00    -0.203 F 
ATOM     83  F   UNL A   1      41.163  23.994  26.844  1.00  0.00    -0.200 F 
ATOM     84  C   UNL A   1      41.928  25.953  25.785  1.00  0.00     0.200 A 
ATOM     85  F   UNL A   1      42.597  27.960  24.757  1.00  0.00    -0.200 F 
ATOM     86  F   UNL A   1      42.270  25.254  24.695  1.00  0.00    -0.200 F 
ENDBRANCH  62  76
BRANCH  63  87
ATOM     87  C   UNL A   1      40.369  32.659  35.987  1.00  0.00     0.064 A 
ATOM     88  C   UNL A   1      39.334  31.718  36.062  1.00  0.00     0.173 A 
ATOM     89  C   UNL A   1      40.419  33.670  36.959  1.00  0.00     0.173 A 
ATOM     90  F   UNL A   1      39.257  30.722  35.165  1.00  0.00    -0.203 F 
ATOM     91  C   UNL A   1      38.425  31.748  37.114  1.00  0.00     0.198 A 
ATOM     92  C   UNL A   1      39.525  33.681  38.021  1.00  0.00     0.198 A 
ATOM     93  F   UNL A   1      41.384  34.599  36.925  1.00  0.00    -0.203 F 
ATOM     94  F   UNL A   1      37.491  30.790  37.217  1.00  0.00    -0.200 F 
ATOM     95  C   UNL A   1      38.535  32.718  38.101  1.00  0.00     0.200 A 
ATOM     96  F   UNL A   1      39.661  34.585  39.001  1.00  0.00    -0.200 F 
ATOM     97  F   UNL A   1      37.718  32.694  39.165  1.00  0.00    -0.200 F 
ENDBRANCH  63  87
BRANCH  75  98
ATOM     98  C   UNL A   1      43.300  26.629  34.382  1.00  0.00     0.064 A 
ATOM     99  C   UNL A   1      42.278  25.800  34.874  1.00  0.00     0.173 A 
ATOM    100  C   UNL A   1      44.558  26.007  34.210  1.00  0.00     0.173 A 
ATOM    101  F   UNL A   1      41.006  26.216  34.937  1.00  0.00    -0.203 F 
ATOM    102  C   UNL A   1      42.520  24.482  35.267  1.00  0.00     0.198 A 
ATOM    103  C   UNL A   1      44.781  24.672  34.541  1.00  0.00     0.198 A 
ATOM    104  F   UNL A   1      45.602  26.670  33.692  1.00  0.00    -0.203 F 
ATOM    105  F   UNL A   1      41.525  23.753  35.791  1.00  0.00    -0.200 F 
ATOM    106  C   UNL A   1      43.769  23.916  35.096  1.00  0.00     0.200 A 
ATOM    107  F   UNL A   1      45.978  24.119  34.303  1.00  0.00    -0.200 F 
ATOM    108  F   UNL A   1      43.989  22.642  35.444  1.00  0.00    -0.200 F 
ENDBRANCH  75  98
ENDBRANCH  49  50
ENDBRANCH  41  44
ENDBRANCH  39  40
ENDBRANCH  38  39
ENDBRANCH  37  38
ENDBRANCH  36  37
ENDBRANCH   1  36
TORSDOF 19
ENDMDL
MODEL 3
REMARK VINA RESULT:     -15.8      3.529      9.979
REMARK SMILES Cc1ccc(C2=NN(C(=O)CCC(=O)NCCCCCCNC(=O)c3ccc(-c4c5nc(c(-c6c(F)c(F)c(F)c(F)c6F)c6ccc([nH]6)c(-c6c(F)c(F)c(F)c(F)c6F)c6nc(c(-c7c(F)c(F)c(F)c(F)c7F)c7ccc4[nH]7)C=C6)C=C5)cc3)[C@H](C[C@@H]3C=c4cccc(C)c4=NC3=O)C2)cc1
REMARK SMILES IDX 17 1 16 2 15 3 13 4 14 5 12 7 11 8 9 9 10 10 8 11 6 12 7 13
REMARK SMILES IDX 102 14 88 15 5 16 1 17 2 18 3 19 104 20 4 21 103 22 89 23
REMARK SMILES IDX 90 24 91 25 100 26 92 27 99 28 101 29 93 30 98 31 94 32
REMARK SMILES IDX 96 33 95 34 97 35 18 36 19 37 20 38 21 39 22 40 23 41 24 43
REMARK SMILES IDX 25 44 26 45 87 46 27 47 86 48 28 49 29 50 30 51 80 52 31 53
REMARK SMILES IDX 85 54 79 55 81 56 32 57 84 58 78 59 77 60 33 62 65 63 45 64
REMARK SMILES IDX 64 65 46 66 49 67 63 68 82 69 47 70 48 71 62 73 83 74 50 75
REMARK SMILES IDX 34 76 35 77 43 78 36 79 37 80 41 81 44 82 38 83 39 84 42 85
REMARK SMILES IDX 40 86 66 87 67 88 75 89 68 90 69 91 73 92 76 93 70 94 71 95
REMARK SMILES IDX 74 96 72 97 51 98 52 99 60 100 53 101 54 102 58 103 61 104
REMARK SMILES IDX 55 105 56 106 59 107 57 108
REMARK H PARENT 15 6 22 42 81 61 49 72
REMARK Flexibility Score: inf
ROOT
ATOM      1  C   UNL A   1      39.890  27.742  29.528  1.00  0.00     0.021 C 
ENDROOT
BRANCH   1   2
ATOM      2  C   UNL A   1      37.991  28.649  30.235  1.00  0.00     0.116 C 
BRANCH   2   3
ATOM      3  N   UNL A   1      37.397  30.117  29.923  1.00  0.00    -0.356 N 
ATOM      4  C   UNL A   1      36.934  30.785  28.848  1.00  0.00     0.220 C 
ATOM      5  O   UNL A   1      36.643  31.971  29.025  1.00  0.00    -0.275 OA
ATOM      6  H   UNL A   1      37.365  30.673  30.734  1.00  0.00     0.163 HD
BRANCH   4   7
ATOM      7  C   UNL A   1      36.747  30.117  27.523  1.00  0.00     0.110 C 
BRANCH   7   8
ATOM      8  C   UNL A   1      35.615  29.111  27.403  1.00  0.00     0.112 C 
BRANCH   8   9
ATOM      9  C   UNL A   1      34.204  29.671  27.125  1.00  0.00     0.243 C 
ATOM     10  O   UNL A   1      33.707  30.497  27.890  1.00  0.00    -0.273 OA
BRANCH   9  11
ATOM     11  N   UNL A   1      33.487  29.076  26.011  1.00  0.00    -0.230 N 
ATOM     12  C   UNL A   1      30.836  29.477  25.138  1.00  0.00     0.070 C 
ATOM     13  N   UNL A   1      32.196  30.164  25.332  1.00  0.00    -0.174 NA
ATOM     14  C   UNL A   1      30.953  27.423  25.800  1.00  0.00     0.086 C 
ATOM     15  C   UNL A   1      32.987  27.295  26.088  1.00  0.00     0.118 C 
BRANCH  12  16
ATOM     16  C   UNL A   1      29.941  30.237  23.716  1.00  0.00    -0.002 A 
ATOM     17  C   UNL A   1      27.763  32.177  20.394  1.00  0.00     0.044 C 
ATOM     18  C   UNL A   1      28.348  31.379  21.513  1.00  0.00    -0.051 A 
ATOM     19  C   UNL A   1      29.016  30.152  21.431  1.00  0.00     0.004 A 
ATOM     20  C   UNL A   1      28.334  31.974  22.724  1.00  0.00     0.004 A 
ATOM     21  C   UNL A   1      29.805  29.573  22.500  1.00  0.00     0.010 A 
ATOM     22  C   UNL A   1      29.130  31.436  23.719  1.00  0.00     0.010 A 
ENDBRANCH  12  16
BRANCH  15  23
ATOM     23  C   UNL A   1      34.140  26.516  25.126  1.00  0.00     0.045 C 
BRANCH  23  24
ATOM     24  C   UNL A   1      34.318  24.966  25.388  1.00  0.00     0.106 C 
ATOM     25  C   UNL A   1      35.505  24.362  24.687  1.00  0.00    -0.003 C 
ATOM     26  C   UNL A   1      33.150  23.998  25.111  1.00  0.00     0.253 C 
ATOM     27  C   UNL A   1      35.817  23.078  24.862  1.00  0.00    -0.003 A 
ATOM     28  N   UNL A   1      33.413  22.627  25.187  1.00  0.00    -0.212 NA
ATOM     29  O   UNL A   1      32.014  24.432  24.933  1.00  0.00    -0.272 OA
ATOM     30  C   UNL A   1      37.163  22.566  24.827  1.00  0.00     0.010 A 
ATOM     31  C   UNL A   1      34.636  22.195  25.073  1.00  0.00     0.077 A 
ATOM     32  C   UNL A   1      37.386  21.260  25.010  1.00  0.00     0.001 A 
ATOM     33  C   UNL A   1      34.990  20.724  25.003  1.00  0.00    -0.025 A 
ATOM     34  C   UNL A   1      36.281  20.333  25.014  1.00  0.00     0.005 A 
ATOM     35  C   UNL A   1      33.887  19.756  24.724  1.00  0.00     0.047 C 
ENDBRANCH  23  24
ENDBRANCH  15  23
ENDBRANCH   9  11
ENDBRANCH   8   9
ENDBRANCH   7   8
ENDBRANCH   4   7
ENDBRANCH   2   3
ENDBRANCH   1   2
BRANCH   1  36
ATOM     36  C   UNL A   1      40.202  28.434  27.696  1.00  0.00     0.002 C 
BRANCH  36  37
ATOM     37  C   UNL A   1      40.820  27.144  26.466  1.00  0.00     0.002 C 
BRANCH  37  38
ATOM     38  C   UNL A   1      42.531  26.851  25.796  1.00  0.00     0.021 C 
BRANCH  38  39
ATOM     39  C   UNL A   1      43.404  25.401  25.343  1.00  0.00     0.116 C 
BRANCH  39  40
ATOM     40  N   UNL A   1      44.901  25.317  25.492  1.00  0.00    -0.352 N 
ATOM     41  C   UNL A   1      45.880  25.237  26.499  1.00  0.00     0.251 C 
ATOM     42  H   UNL A   1      45.330  25.319  24.606  1.00  0.00     0.163 HD
ATOM     43  O   UNL A   1      47.052  25.317  26.103  1.00  0.00    -0.269 OA
BRANCH  41  44
ATOM     44  C   UNL A   1      45.712  24.964  27.978  1.00  0.00     0.039 A 
ATOM     45  C   UNL A   1      44.586  24.199  28.415  1.00  0.00     0.014 A 
ATOM     46  C   UNL A   1      46.542  25.469  28.964  1.00  0.00     0.014 A 
ATOM     47  C   UNL A   1      44.165  24.166  29.771  1.00  0.00     0.010 A 
ATOM     48  C   UNL A   1      46.131  25.432  30.312  1.00  0.00     0.010 A 
ATOM     49  C   UNL A   1      44.896  24.877  30.717  1.00  0.00    -0.014 A 
BRANCH  49  50
ATOM     50  C   UNL A   1      44.504  25.114  32.125  1.00  0.00     0.031 A 
ATOM     51  C   UNL A   1      43.997  26.459  32.523  1.00  0.00     0.074 A 
ATOM     52  C   UNL A   1      44.311  24.093  33.003  1.00  0.00     0.049 A 
ATOM     53  N   UNL A   1      43.735  26.827  33.737  1.00  0.00    -0.248 NA
ATOM     54  C   UNL A   1      43.782  27.525  31.551  1.00  0.00     0.031 C 
ATOM     55  C   UNL A   1      43.282  24.040  34.048  1.00  0.00     0.029 A 
ATOM     56  N   UNL A   1      45.004  22.881  33.184  1.00  0.00    -0.354 N 
ATOM     57  C   UNL A   1      43.037  28.015  33.672  1.00  0.00     0.074 A 
ATOM     58  C   UNL A   1      43.177  28.452  32.301  1.00  0.00     0.031 C 
ATOM     59  C   UNL A   1      43.521  23.007  34.871  1.00  0.00     0.029 A 
ATOM     60  C   UNL A   1      44.831  22.495  34.533  1.00  0.00     0.049 A 
ATOM     61  H   UNL A   1      45.514  22.394  32.499  1.00  0.00     0.167 HD
ATOM     62  C   UNL A   1      42.289  28.423  34.742  1.00  0.00     0.037 A 
ATOM     63  C   UNL A   1      45.853  22.307  35.417  1.00  0.00     0.037 A 
ATOM     64  C   UNL A   1      42.400  27.490  35.854  1.00  0.00     0.049 A 
ATOM     65  C   UNL A   1      45.694  23.051  36.715  1.00  0.00     0.074 A 
ATOM     66  C   UNL A   1      41.610  26.422  36.244  1.00  0.00     0.029 A 
ATOM     67  N   UNL A   1      43.578  27.403  36.581  1.00  0.00    -0.354 N 
ATOM     68  N   UNL A   1      44.916  24.083  36.837  1.00  0.00    -0.248 NA
ATOM     69  C   UNL A   1      46.494  22.801  37.911  1.00  0.00     0.031 C 
ATOM     70  C   UNL A   1      42.323  25.681  37.211  1.00  0.00     0.029 A 
ATOM     71  C   UNL A   1      43.546  26.300  37.413  1.00  0.00     0.049 A 
ATOM     72  H   UNL A   1      44.329  28.036  36.515  1.00  0.00     0.167 HD
ATOM     73  C   UNL A   1      45.198  24.719  38.012  1.00  0.00     0.074 A 
ATOM     74  C   UNL A   1      46.142  23.846  38.679  1.00  0.00     0.031 C 
ATOM     75  C   UNL A   1      44.677  25.953  38.262  1.00  0.00     0.037 A 
BRANCH  62  76
ATOM     76  C   UNL A   1      41.218  29.496  34.699  1.00  0.00     0.064 A 
ATOM     77  C   UNL A   1      41.348  30.681  35.465  1.00  0.00     0.173 A 
ATOM     78  C   UNL A   1      40.029  29.414  33.952  1.00  0.00     0.173 A 
ATOM     79  F   UNL A   1      42.464  30.959  36.151  1.00  0.00    -0.203 F 
ATOM     80  C   UNL A   1      40.333  31.637  35.562  1.00  0.00     0.198 A 
ATOM     81  C   UNL A   1      38.993  30.349  34.084  1.00  0.00     0.198 A 
ATOM     82  F   UNL A   1      39.854  28.461  33.030  1.00  0.00    -0.203 F 
ATOM     83  F   UNL A   1      40.520  32.730  36.315  1.00  0.00    -0.200 F 
ATOM     84  C   UNL A   1      39.141  31.454  34.898  1.00  0.00     0.200 A 
ATOM     85  F   UNL A   1      37.848  30.170  33.410  1.00  0.00    -0.200 F 
ATOM     86  F   UNL A   1      38.153  32.350  35.020  1.00  0.00    -0.200 F 
ENDBRANCH  62  76
BRANCH  63  87
ATOM     87  C   UNL A   1      47.183  22.146  34.786  1.00  0.00     0.064 A 
ATOM     88  C   UNL A   1      48.038  23.245  34.640  1.00  0.00     0.173 A 
ATOM     89  C   UNL A   1      47.722  20.859  34.632  1.00  0.00     0.173 A 
ATOM     90  F   UNL A   1      47.569  24.493  34.797  1.00  0.00    -0.203 F 
ATOM     91  C   UNL A   1      49.398  23.060  34.417  1.00  0.00     0.198 A 
ATOM     92  C   UNL A   1      49.085  20.678  34.436  1.00  0.00     0.198 A 
ATOM     93  F   UNL A   1      46.944  19.775  34.754  1.00  0.00    -0.203 F 
ATOM     94  F   UNL A   1      50.216  24.121  34.363  1.00  0.00    -0.200 F 
ATOM     95  C   UNL A   1      49.921  21.776  34.335  1.00  0.00     0.200 A 
ATOM     96  F   UNL A   1      49.598  19.441  34.407  1.00  0.00    -0.200 F 
ATOM     97  F   UNL A   1      51.244  21.593  34.213  1.00  0.00    -0.200 F 
ENDBRANCH  63  87
BRANCH  75  98
ATOM     98  C   UNL A   1      45.130  26.890  39.347  1.00  0.00     0.064 A 
ATOM     99  C   UNL A   1      44.776  26.755  40.700  1.00  0.00     0.173 A 
ATOM    100  C   UNL A   1      46.062  27.915  39.061  1.00  0.00     0.173 A 
ATOM    101  F   UNL A   1      44.028  25.730  41.130  1.00  0.00    -0.203 F 
ATOM    102  C   UNL A   1      45.233  27.643  41.676  1.00  0.00     0.198 A 
ATOM    103  C   UNL A   1      46.567  28.759  40.049  1.00  0.00     0.198 A 
ATOM    104  F   UNL A   1      46.528  28.112  37.820  1.00  0.00    -0.203 F 
ATOM    105  F   UNL A   1      44.814  27.509  42.942  1.00  0.00    -0.200 F 
ATOM    106  C   UNL A   1      46.131  28.642  41.352  1.00  0.00     0.200 A 
ATOM    107  F   UNL A   1      47.491  29.676  39.730  1.00  0.00    -0.200 F 
ATOM    108  F   UNL A   1      46.592  29.471  42.296  1.00  0.00    -0.200 F 
ENDBRANCH  75  98
ENDBRANCH  49  50
ENDBRANCH  41  44
ENDBRANCH  39  40
ENDBRANCH  38  39
ENDBRANCH  37  38
ENDBRANCH  36  37
ENDBRANCH   1  36
TORSDOF 19
ENDMDL
