MODEL 1
REMARK VINA RESULT:     -12.6      0.000      0.000
REMARK SMILES Cc1ccc(C(=O)N2CCC3(CCC(=O)N(CC(=O)NCCCCCCNC(=O)c4ccc(-c5c6nc(c(-c7c(F)c(F)c(F)c(F)c7F)c7ccc([nH]7)c(-c7c(F)c(F)c(F)c(F)c7F)c7nc(c(-c8c(F)c(F)c(F)c(F)c8F)c8ccc5[nH]8)C=C7)C=C6)cc4)C3)CC2)cc1O
REMARK SMILES IDX 23 1 22 2 21 3 20 4 18 5 19 6 17 8 16 9 6 10 7 11 8 12 9 13
REMARK SMILES IDX 95 14 10 15 94 16 11 17 12 18 93 19 13 20 14 21 15 22 5 23
REMARK SMILES IDX 1 24 2 25 3 26 97 27 4 28 96 29 98 30 24 32 25 33 26 34
REMARK SMILES IDX 27 35 28 36 29 38 30 39 31 40 92 41 32 42 91 43 33 44 34 45
REMARK SMILES IDX 35 46 85 47 36 48 90 49 84 50 86 51 37 52 89 53 83 54 82 55
REMARK SMILES IDX 38 57 70 58 50 59 69 60 51 61 54 62 68 63 87 64 52 65 53 66
REMARK SMILES IDX 67 68 88 69 55 70 39 71 40 72 48 73 41 74 42 75 46 76 49 77
REMARK SMILES IDX 43 78 44 79 47 80 45 81 71 82 72 83 80 84 73 85 74 86 78 87
REMARK SMILES IDX 81 88 75 89 76 90 79 91 77 92 56 93 57 94 65 95 58 96 59 97
REMARK SMILES IDX 63 98 66 99 60 100 61 101 64 102 62 103
REMARK H PARENT 20 7 98 31 27 37 86 56 54 67
REMARK Flexibility Score: inf
ROOT
ATOM      1  C   UNL A   1      39.998  21.806  26.897  1.00  0.00     0.002 C 
ENDROOT
BRANCH   1   2
ATOM      2  C   UNL A   1      39.641  23.274  26.629  1.00  0.00     0.021 C 
BRANCH   2   3
ATOM      3  C   UNL A   1      38.151  23.505  26.396  1.00  0.00     0.116 C 
BRANCH   3   4
ATOM      4  N   UNL A   1      37.797  23.297  25.015  1.00  0.00    -0.355 N 
ATOM      5  C   UNL A   1      37.022  22.323  24.463  1.00  0.00     0.239 C 
ATOM      6  O   UNL A   1      36.712  22.453  23.276  1.00  0.00    -0.273 OA
ATOM      7  H   UNL A   1      38.168  23.953  24.381  1.00  0.00     0.163 HD
BRANCH   5   8
ATOM      8  C   UNL A   1      36.383  21.239  25.340  1.00  0.00     0.219 C 
BRANCH   8   9
ATOM      9  N   UNL A   1      34.945  21.315  25.628  1.00  0.00    -0.333 N 
ATOM     10  C   UNL A   1      32.397  27.119  24.528  1.00  0.00     0.253 C 
ATOM     11  O   UNL A   1      32.257  27.480  23.360  1.00  0.00    -0.269 OA
ATOM     12  N   UNL A   1      32.373  25.773  24.879  1.00  0.00    -0.339 N 
ATOM     13  C   UNL A   1      32.780  24.804  23.874  1.00  0.00     0.120 C 
ATOM     14  C   UNL A   1      31.746  25.213  26.071  1.00  0.00     0.120 C 
ATOM     15  C   UNL A   1      33.797  23.859  24.498  1.00  0.00     0.030 C 
ATOM     16  C   UNL A   1      32.663  24.186  26.746  1.00  0.00     0.030 C 
ATOM     17  C   UNL A   1      33.253  23.139  25.759  1.00  0.00    -0.008 C 
ATOM     18  C   UNL A   1      32.189  22.069  25.440  1.00  0.00     0.019 C 
ATOM     19  C   UNL A   1      34.413  22.398  26.443  1.00  0.00     0.127 C 
ATOM     20  C   UNL A   1      32.733  20.924  24.600  1.00  0.00     0.101 C 
ATOM     21  C   UNL A   1      34.119  20.424  24.967  1.00  0.00     0.223 C 
ATOM     22  O   UNL A   1      34.520  19.344  24.540  1.00  0.00    -0.275 OA
BRANCH  10  23
ATOM     23  C   UNL A   1      32.765  28.151  25.545  1.00  0.00     0.043 A 
ATOM     24  C   UNL A   1      34.027  31.488  27.999  1.00  0.00     0.048 C 
ATOM     25  C   UNL A   1      33.553  30.333  27.166  1.00  0.00    -0.009 A 
ATOM     26  C   UNL A   1      34.370  29.203  27.039  1.00  0.00     0.008 A 
ATOM     27  C   UNL A   1      32.342  30.354  26.466  1.00  0.00     0.119 A 
ATOM     28  C   UNL A   1      33.990  28.138  26.219  1.00  0.00     0.014 A 
ATOM     29  C   UNL A   1      31.942  29.275  25.677  1.00  0.00     0.060 A 
BRANCH  27  30
ATOM     30  O   UNL A   1      31.501  31.430  26.484  1.00  0.00    -0.508 OA
ATOM     31  H   UNL A   1      31.636  32.121  27.102  1.00  0.00     0.293 HD
ENDBRANCH  27  30
ENDBRANCH  10  23
ENDBRANCH   8   9
ENDBRANCH   5   8
ENDBRANCH   3   4
ENDBRANCH   2   3
ENDBRANCH   1   2
BRANCH   1  32
ATOM     32  C   UNL A   1      41.247  21.301  26.163  1.00  0.00     0.002 C 
BRANCH  32  33
ATOM     33  C   UNL A   1      41.349  19.779  26.041  1.00  0.00     0.021 C 
BRANCH  33  34
ATOM     34  C   UNL A   1      42.703  19.210  26.444  1.00  0.00     0.116 C 
BRANCH  34  35
ATOM     35  N   UNL A   1      43.505  18.844  25.287  1.00  0.00    -0.352 N 
ATOM     36  C   UNL A   1      44.277  19.637  24.479  1.00  0.00     0.251 C 
ATOM     37  H   UNL A   1      43.490  17.888  25.049  1.00  0.00     0.163 HD
ATOM     38  O   UNL A   1      44.717  19.201  23.417  1.00  0.00    -0.269 OA
BRANCH  36  39
ATOM     39  C   UNL A   1      44.568  21.029  24.878  1.00  0.00     0.039 A 
ATOM     40  C   UNL A   1      44.195  22.070  24.026  1.00  0.00     0.014 A 
ATOM     41  C   UNL A   1      45.212  21.305  26.088  1.00  0.00     0.014 A 
ATOM     42  C   UNL A   1      44.416  23.393  24.413  1.00  0.00     0.010 A 
ATOM     43  C   UNL A   1      45.360  22.624  26.507  1.00  0.00     0.010 A 
ATOM     44  C   UNL A   1      44.968  23.681  25.671  1.00  0.00    -0.014 A 
BRANCH  44  45
ATOM     45  C   UNL A   1      45.142  25.082  26.131  1.00  0.00     0.031 A 
ATOM     46  C   UNL A   1      46.499  25.730  26.085  1.00  0.00     0.074 A 
ATOM     47  C   UNL A   1      44.091  25.748  26.648  1.00  0.00     0.049 A 
ATOM     48  N   UNL A   1      46.865  26.914  26.506  1.00  0.00    -0.248 NA
ATOM     49  C   UNL A   1      47.594  24.930  25.517  1.00  0.00     0.031 C 
ATOM     50  C   UNL A   1      42.736  25.212  26.786  1.00  0.00     0.029 A 
ATOM     51  N   UNL A   1      44.000  27.018  27.163  1.00  0.00    -0.354 N 
ATOM     52  C   UNL A   1      48.230  26.996  26.262  1.00  0.00     0.074 A 
ATOM     53  C   UNL A   1      48.638  25.722  25.713  1.00  0.00     0.031 C 
ATOM     54  C   UNL A   1      41.945  26.152  27.326  1.00  0.00     0.029 A 
ATOM     55  C   UNL A   1      42.743  27.340  27.613  1.00  0.00     0.049 A 
ATOM     56  H   UNL A   1      44.763  27.638  27.205  1.00  0.00     0.167 HD
ATOM     57  C   UNL A   1      49.061  28.047  26.457  1.00  0.00     0.037 A 
ATOM     58  C   UNL A   1      42.289  28.463  28.201  1.00  0.00     0.037 A 
ATOM     59  C   UNL A   1      48.644  29.320  26.985  1.00  0.00     0.049 A 
ATOM     60  C   UNL A   1      43.239  29.610  28.423  1.00  0.00     0.074 A 
ATOM     61  C   UNL A   1      49.398  30.467  27.167  1.00  0.00     0.029 A 
ATOM     62  N   UNL A   1      47.360  29.613  27.419  1.00  0.00    -0.354 N 
ATOM     63  N   UNL A   1      44.513  29.700  28.126  1.00  0.00    -0.248 NA
ATOM     64  C   UNL A   1      42.686  30.815  29.057  1.00  0.00     0.031 C 
ATOM     65  C   UNL A   1      48.586  31.434  27.765  1.00  0.00     0.029 A 
ATOM     66  C   UNL A   1      47.308  30.914  27.896  1.00  0.00     0.049 A 
ATOM     67  H   UNL A   1      46.599  28.990  27.392  1.00  0.00     0.167 HD
ATOM     68  C   UNL A   1      44.905  30.976  28.505  1.00  0.00     0.074 A 
ATOM     69  C   UNL A   1      43.729  31.632  29.040  1.00  0.00     0.031 C 
ATOM     70  C   UNL A   1      46.127  31.555  28.418  1.00  0.00     0.037 A 
BRANCH  57  71
ATOM     71  C   UNL A   1      50.510  27.868  26.098  1.00  0.00     0.064 A 
ATOM     72  C   UNL A   1      50.972  28.046  24.786  1.00  0.00     0.173 A 
ATOM     73  C   UNL A   1      51.454  27.557  27.088  1.00  0.00     0.173 A 
ATOM     74  F   UNL A   1      50.109  28.334  23.798  1.00  0.00    -0.203 F 
ATOM     75  C   UNL A   1      52.320  27.893  24.473  1.00  0.00     0.198 A 
ATOM     76  C   UNL A   1      52.806  27.437  26.778  1.00  0.00     0.198 A 
ATOM     77  F   UNL A   1      51.068  27.380  28.361  1.00  0.00    -0.203 F 
ATOM     78  F   UNL A   1      52.730  28.019  23.203  1.00  0.00    -0.200 F 
ATOM     79  C   UNL A   1      53.237  27.597  25.470  1.00  0.00     0.200 A 
ATOM     80  F   UNL A   1      53.693  27.166  27.746  1.00  0.00    -0.200 F 
ATOM     81  F   UNL A   1      54.536  27.459  25.169  1.00  0.00    -0.200 F 
ENDBRANCH  57  71
BRANCH  58  82
ATOM     82  C   UNL A   1      40.863  28.566  28.610  1.00  0.00     0.064 A 
ATOM     83  C   UNL A   1      39.888  29.039  27.719  1.00  0.00     0.173 A 
ATOM     84  C   UNL A   1      40.447  28.211  29.901  1.00  0.00     0.173 A 
ATOM     85  F   UNL A   1      40.239  29.411  26.479  1.00  0.00    -0.203 F 
ATOM     86  C   UNL A   1      38.559  29.179  28.113  1.00  0.00     0.198 A 
ATOM     87  C   UNL A   1      39.111  28.321  30.283  1.00  0.00     0.198 A 
ATOM     88  F   UNL A   1      41.336  27.747  30.791  1.00  0.00    -0.203 F 
ATOM     89  F   UNL A   1      37.660  29.687  27.259  1.00  0.00    -0.200 F 
ATOM     90  C   UNL A   1      38.170  28.814  29.393  1.00  0.00     0.200 A 
ATOM     91  F   UNL A   1      38.738  27.951  31.516  1.00  0.00    -0.200 F 
ATOM     92  F   UNL A   1      36.892  28.948  29.771  1.00  0.00    -0.200 F 
ENDBRANCH  58  82
BRANCH  70  93
ATOM     93  C   UNL A   1      46.251  32.981  28.873  1.00  0.00     0.064 A 
ATOM     94  C   UNL A   1      46.041  34.058  27.999  1.00  0.00     0.173 A 
ATOM     95  C   UNL A   1      46.545  33.273  30.214  1.00  0.00     0.173 A 
ATOM     96  F   UNL A   1      45.772  33.834  26.704  1.00  0.00    -0.203 F 
ATOM     97  C   UNL A   1      46.148  35.373  28.445  1.00  0.00     0.198 A 
ATOM     98  C   UNL A   1      46.617  34.588  30.664  1.00  0.00     0.198 A 
ATOM     99  F   UNL A   1      46.749  32.280  31.094  1.00  0.00    -0.203 F 
ATOM    100  F   UNL A   1      45.996  36.385  27.579  1.00  0.00    -0.200 F 
ATOM    101  C   UNL A   1      46.427  35.637  29.777  1.00  0.00     0.200 A 
ATOM    102  F   UNL A   1      46.871  34.841  31.955  1.00  0.00    -0.200 F 
ATOM    103  F   UNL A   1      46.520  36.903  30.206  1.00  0.00    -0.200 F 
ENDBRANCH  70  93
ENDBRANCH  44  45
ENDBRANCH  36  39
ENDBRANCH  34  35
ENDBRANCH  33  34
ENDBRANCH  32  33
ENDBRANCH   1  32
TORSDOF 16
ENDMDL
MODEL 2
REMARK VINA RESULT:     -12.5      3.482      6.504
REMARK SMILES Cc1ccc(C(=O)N2CCC3(CCC(=O)N(CC(=O)NCCCCCCNC(=O)c4ccc(-c5c6nc(c(-c7c(F)c(F)c(F)c(F)c7F)c7ccc([nH]7)c(-c7c(F)c(F)c(F)c(F)c7F)c7nc(c(-c8c(F)c(F)c(F)c(F)c8F)c8ccc5[nH]8)C=C7)C=C6)cc4)C3)CC2)cc1O
REMARK SMILES IDX 23 1 22 2 21 3 20 4 18 5 19 6 17 8 16 9 6 10 7 11 8 12 9 13
REMARK SMILES IDX 95 14 10 15 94 16 11 17 12 18 93 19 13 20 14 21 15 22 5 23
REMARK SMILES IDX 1 24 2 25 3 26 97 27 4 28 96 29 98 30 24 32 25 33 26 34
REMARK SMILES IDX 27 35 28 36 29 38 30 39 31 40 92 41 32 42 91 43 33 44 34 45
REMARK SMILES IDX 35 46 85 47 36 48 90 49 84 50 86 51 37 52 89 53 83 54 82 55
REMARK SMILES IDX 38 57 70 58 50 59 69 60 51 61 54 62 68 63 87 64 52 65 53 66
REMARK SMILES IDX 67 68 88 69 55 70 39 71 40 72 48 73 41 74 42 75 46 76 49 77
REMARK SMILES IDX 43 78 44 79 47 80 45 81 71 82 72 83 80 84 73 85 74 86 78 87
REMARK SMILES IDX 81 88 75 89 76 90 79 91 77 92 56 93 57 94 65 95 58 96 59 97
REMARK SMILES IDX 63 98 66 99 60 100 61 101 64 102 62 103
REMARK H PARENT 20 7 98 31 27 37 86 56 54 67
REMARK Flexibility Score: inf
ROOT
ATOM      1  C   UNL A   1      34.421  24.472  22.987  1.00  0.00     0.002 C 
ENDROOT
BRANCH   1   2
ATOM      2  C   UNL A   1      33.163  24.451  22.109  1.00  0.00     0.021 C 
BRANCH   2   3
ATOM      3  C   UNL A   1      32.743  25.831  21.614  1.00  0.00     0.116 C 
BRANCH   3   4
ATOM      4  N   UNL A   1      33.663  26.849  22.054  1.00  0.00    -0.355 N 
ATOM      5  C   UNL A   1      33.402  28.033  22.675  1.00  0.00     0.239 C 
ATOM      6  O   UNL A   1      34.366  28.662  23.119  1.00  0.00    -0.273 OA
ATOM      7  H   UNL A   1      34.614  26.662  21.881  1.00  0.00     0.163 HD
BRANCH   5   8
ATOM      8  C   UNL A   1      31.962  28.446  23.004  1.00  0.00     0.219 C 
BRANCH   8   9
ATOM      9  N   UNL A   1      31.370  28.012  24.275  1.00  0.00    -0.333 N 
ATOM     10  C   UNL A   1      33.621  22.359  26.369  1.00  0.00     0.253 C 
ATOM     11  O   UNL A   1      34.771  22.318  26.804  1.00  0.00    -0.269 OA
ATOM     12  N   UNL A   1      32.861  23.523  26.439  1.00  0.00    -0.339 N 
ATOM     13  C   UNL A   1      33.567  24.793  26.456  1.00  0.00     0.120 C 
ATOM     14  C   UNL A   1      31.436  23.595  26.747  1.00  0.00     0.120 C 
ATOM     15  C   UNL A   1      32.942  25.708  25.412  1.00  0.00     0.030 C 
ATOM     16  C   UNL A   1      30.713  24.553  25.793  1.00  0.00     0.030 C 
ATOM     17  C   UNL A   1      31.423  25.928  25.639  1.00  0.00    -0.008 C 
ATOM     18  C   UNL A   1      31.111  26.813  26.863  1.00  0.00     0.019 C 
ATOM     19  C   UNL A   1      30.843  26.661  24.420  1.00  0.00     0.127 C 
ATOM     20  C   UNL A   1      31.643  28.230  26.721  1.00  0.00     0.101 C 
ATOM     21  C   UNL A   1      31.486  28.870  25.354  1.00  0.00     0.223 C 
ATOM     22  O   UNL A   1      31.627  30.084  25.219  1.00  0.00    -0.275 OA
BRANCH  10  23
ATOM     23  C   UNL A   1      33.113  21.179  25.606  1.00  0.00     0.043 A 
ATOM     24  C   UNL A   1      32.251  17.622  23.291  1.00  0.00     0.048 C 
ATOM     25  C   UNL A   1      32.527  18.840  24.124  1.00  0.00    -0.009 A 
ATOM     26  C   UNL A   1      32.431  20.105  23.533  1.00  0.00     0.008 A 
ATOM     27  C   UNL A   1      32.925  18.765  25.463  1.00  0.00     0.119 A 
ATOM     28  C   UNL A   1      32.744  21.256  24.259  1.00  0.00     0.014 A 
ATOM     29  C   UNL A   1      33.201  19.916  26.202  1.00  0.00     0.060 A 
BRANCH  27  30
ATOM     30  O   UNL A   1      33.099  17.577  26.113  1.00  0.00    -0.508 OA
ATOM     31  H   UNL A   1      33.399  17.568  27.001  1.00  0.00     0.293 HD
ENDBRANCH  27  30
ENDBRANCH  10  23
ENDBRANCH   8   9
ENDBRANCH   5   8
ENDBRANCH   3   4
ENDBRANCH   2   3
ENDBRANCH   1   2
BRANCH   1  32
ATOM     32  C   UNL A   1      35.142  23.124  23.115  1.00  0.00     0.002 C 
BRANCH  32  33
ATOM     33  C   UNL A   1      36.646  23.222  23.375  1.00  0.00     0.021 C 
BRANCH  33  34
ATOM     34  C   UNL A   1      37.011  23.571  24.813  1.00  0.00     0.116 C 
BRANCH  34  35
ATOM     35  N   UNL A   1      37.861  22.558  25.419  1.00  0.00    -0.352 N 
ATOM     36  C   UNL A   1      38.975  22.714  26.201  1.00  0.00     0.251 C 
ATOM     37  H   UNL A   1      37.599  21.626  25.240  1.00  0.00     0.163 HD
ATOM     38  O   UNL A   1      39.698  21.752  26.452  1.00  0.00    -0.269 OA
BRANCH  36  39
ATOM     39  C   UNL A   1      39.319  24.049  26.733  1.00  0.00     0.039 A 
ATOM     40  C   UNL A   1      38.936  24.378  28.034  1.00  0.00     0.014 A 
ATOM     41  C   UNL A   1      40.012  24.973  25.947  1.00  0.00     0.014 A 
ATOM     42  C   UNL A   1      39.299  25.615  28.569  1.00  0.00     0.010 A 
ATOM     43  C   UNL A   1      40.440  26.174  26.507  1.00  0.00     0.010 A 
ATOM     44  C   UNL A   1      40.084  26.508  27.822  1.00  0.00    -0.014 A 
BRANCH  44  45
ATOM     45  C   UNL A   1      40.542  27.796  28.400  1.00  0.00     0.031 A 
ATOM     46  C   UNL A   1      41.986  27.985  28.777  1.00  0.00     0.074 A 
ATOM     47  C   UNL A   1      39.646  28.773  28.644  1.00  0.00     0.049 A 
ATOM     48  N   UNL A   1      42.564  29.006  29.358  1.00  0.00    -0.248 NA
ATOM     49  C   UNL A   1      42.896  26.867  28.487  1.00  0.00     0.031 C 
ATOM     50  C   UNL A   1      38.212  28.693  28.364  1.00  0.00     0.029 A 
ATOM     51  N   UNL A   1      39.808  30.021  29.193  1.00  0.00    -0.354 N 
ATOM     52  C   UNL A   1      43.896  28.649  29.510  1.00  0.00     0.074 A 
ATOM     53  C   UNL A   1      44.032  27.297  29.017  1.00  0.00     0.031 C 
ATOM     54  C   UNL A   1      37.629  29.848  28.720  1.00  0.00     0.029 A 
ATOM     55  C   UNL A   1      38.638  30.733  29.294  1.00  0.00     0.049 A 
ATOM     56  H   UNL A   1      40.679  30.372  29.487  1.00  0.00     0.167 HD
ATOM     57  C   UNL A   1      44.920  29.392  29.997  1.00  0.00     0.037 A 
ATOM     58  C   UNL A   1      38.404  31.959  29.802  1.00  0.00     0.037 A 
ATOM     59  C   UNL A   1      44.783  30.746  30.467  1.00  0.00     0.049 A 
ATOM     60  C   UNL A   1      39.556  32.755  30.353  1.00  0.00     0.074 A 
ATOM     61  C   UNL A   1      45.768  31.603  30.926  1.00  0.00     0.029 A 
ATOM     62  N   UNL A   1      43.584  31.439  30.543  1.00  0.00    -0.354 N 
ATOM     63  N   UNL A   1      40.825  32.433  30.431  1.00  0.00    -0.248 NA
ATOM     64  C   UNL A   1      39.245  34.090  30.883  1.00  0.00     0.031 C 
ATOM     65  C   UNL A   1      45.159  32.794  31.333  1.00  0.00     0.029 A 
ATOM     66  C   UNL A   1      43.802  32.704  31.068  1.00  0.00     0.049 A 
ATOM     67  H   UNL A   1      42.709  31.085  30.265  1.00  0.00     0.167 HD
ATOM     68  C   UNL A   1      41.466  33.533  30.984  1.00  0.00     0.074 A 
ATOM     69  C   UNL A   1      40.448  34.539  31.210  1.00  0.00     0.031 C 
ATOM     70  C   UNL A   1      42.779  33.697  31.279  1.00  0.00     0.037 A 
BRANCH  57  71
ATOM     71  C   UNL A   1      46.281  28.758  30.046  1.00  0.00     0.064 A 
ATOM     72  C   UNL A   1      47.177  28.849  28.970  1.00  0.00     0.173 A 
ATOM     73  C   UNL A   1      46.712  28.089  31.202  1.00  0.00     0.173 A 
ATOM     74  F   UNL A   1      46.811  29.468  27.837  1.00  0.00    -0.203 F 
ATOM     75  C   UNL A   1      48.441  28.270  29.038  1.00  0.00     0.198 A 
ATOM     76  C   UNL A   1      47.990  27.540  31.279  1.00  0.00     0.198 A 
ATOM     77  F   UNL A   1      45.899  27.976  32.263  1.00  0.00    -0.203 F 
ATOM     78  F   UNL A   1      49.260  28.326  27.978  1.00  0.00    -0.200 F 
ATOM     79  C   UNL A   1      48.850  27.623  30.195  1.00  0.00     0.200 A 
ATOM     80  F   UNL A   1      48.388  26.930  32.404  1.00  0.00    -0.200 F 
ATOM     81  F   UNL A   1      50.071  27.076  30.263  1.00  0.00    -0.200 F 
ENDBRANCH  57  71
BRANCH  58  82
ATOM     82  C   UNL A   1      37.024  32.515  29.802  1.00  0.00     0.064 A 
ATOM     83  C   UNL A   1      36.540  33.243  28.706  1.00  0.00     0.173 A 
ATOM     84  C   UNL A   1      36.170  32.346  30.900  1.00  0.00     0.173 A 
ATOM     85  F   UNL A   1      37.326  33.451  27.639  1.00  0.00    -0.203 F 
ATOM     86  C   UNL A   1      35.264  33.804  28.721  1.00  0.00     0.198 A 
ATOM     87  C   UNL A   1      34.882  32.879  30.900  1.00  0.00     0.198 A 
ATOM     88  F   UNL A   1      36.580  31.652  31.972  1.00  0.00    -0.203 F 
ATOM     89  F   UNL A   1      34.848  34.543  27.683  1.00  0.00    -0.200 F 
ATOM     90  C   UNL A   1      34.434  33.616  29.816  1.00  0.00     0.200 A 
ATOM     91  F   UNL A   1      34.078  32.680  31.954  1.00  0.00    -0.200 F 
ATOM     92  F   UNL A   1      33.207  34.154  29.829  1.00  0.00    -0.200 F 
ENDBRANCH  58  82
BRANCH  70  93
ATOM     93  C   UNL A   1      43.201  35.024  31.841  1.00  0.00     0.064 A 
ATOM     94  C   UNL A   1      43.662  36.063  31.019  1.00  0.00     0.173 A 
ATOM     95  C   UNL A   1      43.103  35.273  33.219  1.00  0.00     0.173 A 
ATOM     96  F   UNL A   1      43.789  35.872  29.697  1.00  0.00    -0.203 F 
ATOM     97  C   UNL A   1      44.036  37.291  31.558  1.00  0.00     0.198 A 
ATOM     98  C   UNL A   1      43.445  36.513  33.751  1.00  0.00     0.198 A 
ATOM     99  F   UNL A   1      42.661  34.317  34.050  1.00  0.00    -0.203 F 
ATOM    100  F   UNL A   1      44.525  38.250  30.760  1.00  0.00    -0.200 F 
ATOM    101  C   UNL A   1      43.919  37.518  32.921  1.00  0.00     0.200 A 
ATOM    102  F   UNL A   1      43.315  36.736  35.066  1.00  0.00    -0.200 F 
ATOM    103  F   UNL A   1      44.271  38.704  33.437  1.00  0.00    -0.200 F 
ENDBRANCH  70  93
ENDBRANCH  44  45
ENDBRANCH  36  39
ENDBRANCH  34  35
ENDBRANCH  33  34
ENDBRANCH  32  33
ENDBRANCH   1  32
TORSDOF 16
ENDMDL
MODEL 3
REMARK VINA RESULT:     -12.5      6.224     12.093
REMARK SMILES Cc1ccc(C(=O)N2CCC3(CCC(=O)N(CC(=O)NCCCCCCNC(=O)c4ccc(-c5c6nc(c(-c7c(F)c(F)c(F)c(F)c7F)c7ccc([nH]7)c(-c7c(F)c(F)c(F)c(F)c7F)c7nc(c(-c8c(F)c(F)c(F)c(F)c8F)c8ccc5[nH]8)C=C7)C=C6)cc4)C3)CC2)cc1O
REMARK SMILES IDX 23 1 22 2 21 3 20 4 18 5 19 6 17 8 16 9 6 10 7 11 8 12 9 13
REMARK SMILES IDX 95 14 10 15 94 16 11 17 12 18 93 19 13 20 14 21 15 22 5 23
REMARK SMILES IDX 1 24 2 25 3 26 97 27 4 28 96 29 98 30 24 32 25 33 26 34
REMARK SMILES IDX 27 35 28 36 29 38 30 39 31 40 92 41 32 42 91 43 33 44 34 45
REMARK SMILES IDX 35 46 85 47 36 48 90 49 84 50 86 51 37 52 89 53 83 54 82 55
REMARK SMILES IDX 38 57 70 58 50 59 69 60 51 61 54 62 68 63 87 64 52 65 53 66
REMARK SMILES IDX 67 68 88 69 55 70 39 71 40 72 48 73 41 74 42 75 46 76 49 77
REMARK SMILES IDX 43 78 44 79 47 80 45 81 71 82 72 83 80 84 73 85 74 86 78 87
REMARK SMILES IDX 81 88 75 89 76 90 79 91 77 92 56 93 57 94 65 95 58 96 59 97
REMARK SMILES IDX 63 98 66 99 60 100 61 101 64 102 62 103
REMARK H PARENT 20 7 98 31 27 37 86 56 54 67
REMARK Flexibility Score: inf
ROOT
ATOM      1  C   UNL A   1      34.763  32.525  27.961  1.00  0.00     0.002 C 
ENDROOT
BRANCH   1   2
ATOM      2  C   UNL A   1      35.064  31.068  28.332  1.00  0.00     0.021 C 
BRANCH   2   3
ATOM      3  C   UNL A   1      34.633  30.067  27.265  1.00  0.00     0.116 C 
BRANCH   3   4
ATOM      4  N   UNL A   1      33.439  29.362  27.657  1.00  0.00    -0.355 N 
ATOM      5  C   UNL A   1      32.224  29.322  27.044  1.00  0.00     0.239 C 
ATOM      6  O   UNL A   1      31.403  28.505  27.470  1.00  0.00    -0.273 OA
ATOM      7  H   UNL A   1      33.512  28.836  28.486  1.00  0.00     0.163 HD
BRANCH   5   8
ATOM      8  C   UNL A   1      31.976  30.098  25.744  1.00  0.00     0.219 C 
BRANCH   8   9
ATOM      9  N   UNL A   1      31.546  29.361  24.548  1.00  0.00    -0.333 N 
ATOM     10  C   UNL A   1      31.315  22.987  25.390  1.00  0.00     0.253 C 
ATOM     11  O   UNL A   1      30.413  22.526  26.089  1.00  0.00    -0.269 OA
ATOM     12  N   UNL A   1      31.151  24.177  24.688  1.00  0.00    -0.339 N 
ATOM     13  C   UNL A   1      30.212  25.152  25.218  1.00  0.00     0.120 C 
ATOM     14  C   UNL A   1      31.639  24.447  23.340  1.00  0.00     0.120 C 
ATOM     15  C   UNL A   1      30.902  26.509  25.268  1.00  0.00     0.030 C 
ATOM     16  C   UNL A   1      32.295  25.830  23.256  1.00  0.00     0.030 C 
ATOM     17  C   UNL A   1      31.434  26.963  23.884  1.00  0.00    -0.008 C 
ATOM     18  C   UNL A   1      30.315  27.367  22.903  1.00  0.00     0.019 C 
ATOM     19  C   UNL A   1      32.307  28.213  24.076  1.00  0.00     0.127 C 
ATOM     20  C   UNL A   1      29.519  28.574  23.375  1.00  0.00     0.101 C 
ATOM     21  C   UNL A   1      30.320  29.700  24.003  1.00  0.00     0.223 C 
ATOM     22  O   UNL A   1      29.814  30.809  24.156  1.00  0.00    -0.275 OA
BRANCH  10  23
ATOM     23  C   UNL A   1      32.655  22.329  25.445  1.00  0.00     0.043 A 
ATOM     24  C   UNL A   1      36.701  20.816  25.133  1.00  0.00     0.048 C 
ATOM     25  C   UNL A   1      35.305  21.347  25.281  1.00  0.00    -0.009 A 
ATOM     26  C   UNL A   1      34.244  20.647  24.693  1.00  0.00     0.008 A 
ATOM     27  C   UNL A   1      35.019  22.545  25.944  1.00  0.00     0.119 A 
ATOM     28  C   UNL A   1      32.941  21.146  24.755  1.00  0.00     0.014 A 
ATOM     29  C   UNL A   1      33.712  23.026  26.040  1.00  0.00     0.060 A 
BRANCH  27  30
ATOM     30  O   UNL A   1      35.989  23.326  26.504  1.00  0.00    -0.508 OA
ATOM     31  H   UNL A   1      36.859  23.314  26.155  1.00  0.00     0.293 HD
ENDBRANCH  27  30
ENDBRANCH  10  23
ENDBRANCH   8   9
ENDBRANCH   5   8
ENDBRANCH   3   4
ENDBRANCH   2   3
ENDBRANCH   1   2
BRANCH   1  32
ATOM     32  C   UNL A   1      34.326  33.413  29.134  1.00  0.00     0.002 C 
BRANCH  32  33
ATOM     33  C   UNL A   1      33.187  34.384  28.815  1.00  0.00     0.021 C 
BRANCH  33  34
ATOM     34  C   UNL A   1      33.415  35.802  29.322  1.00  0.00     0.116 C 
BRANCH  34  35
ATOM     35  N   UNL A   1      32.528  36.134  30.427  1.00  0.00    -0.352 N 
ATOM     36  C   UNL A   1      32.583  35.729  31.735  1.00  0.00     0.251 C 
ATOM     37  H   UNL A   1      31.780  36.733  30.202  1.00  0.00     0.163 HD
ATOM     38  O   UNL A   1      31.632  35.931  32.488  1.00  0.00    -0.269 OA
BRANCH  36  39
ATOM     39  C   UNL A   1      33.784  35.034  32.240  1.00  0.00     0.039 A 
ATOM     40  C   UNL A   1      33.644  33.768  32.811  1.00  0.00     0.014 A 
ATOM     41  C   UNL A   1      35.045  35.633  32.154  1.00  0.00     0.014 A 
ATOM     42  C   UNL A   1      34.776  33.076  33.245  1.00  0.00     0.010 A 
ATOM     43  C   UNL A   1      36.179  34.910  32.514  1.00  0.00     0.010 A 
ATOM     44  C   UNL A   1      36.055  33.627  33.067  1.00  0.00    -0.014 A 
BRANCH  44  45
ATOM     45  C   UNL A   1      37.275  32.875  33.454  1.00  0.00     0.031 A 
ATOM     46  C   UNL A   1      37.976  33.183  34.749  1.00  0.00     0.074 A 
ATOM     47  C   UNL A   1      37.787  31.958  32.609  1.00  0.00     0.049 A 
ATOM     48  N   UNL A   1      39.089  32.688  35.226  1.00  0.00    -0.248 NA
ATOM     49  C   UNL A   1      37.357  34.205  35.607  1.00  0.00     0.031 C 
ATOM     50  C   UNL A   1      37.224  31.601  31.306  1.00  0.00     0.029 A 
ATOM     51  N   UNL A   1      38.903  31.165  32.717  1.00  0.00    -0.354 N 
ATOM     52  C   UNL A   1      39.307  33.342  36.431  1.00  0.00     0.074 A 
ATOM     53  C   UNL A   1      38.245  34.312  36.584  1.00  0.00     0.031 C 
ATOM     54  C   UNL A   1      37.982  30.646  30.746  1.00  0.00     0.029 A 
ATOM     55  C   UNL A   1      39.108  30.354  31.627  1.00  0.00     0.049 A 
ATOM     56  H   UNL A   1      39.500  31.177  33.500  1.00  0.00     0.167 HD
ATOM     57  C   UNL A   1      40.292  33.136  37.339  1.00  0.00     0.037 A 
ATOM     58  C   UNL A   1      40.100  29.481  31.365  1.00  0.00     0.037 A 
ATOM     59  C   UNL A   1      41.335  32.154  37.190  1.00  0.00     0.049 A 
ATOM     60  C   UNL A   1      41.192  29.284  32.383  1.00  0.00     0.074 A 
ATOM     61  C   UNL A   1      42.345  31.828  38.079  1.00  0.00     0.029 A 
ATOM     62  N   UNL A   1      41.503  31.342  36.079  1.00  0.00    -0.354 N 
ATOM     63  N   UNL A   1      41.351  29.860  33.550  1.00  0.00    -0.248 NA
ATOM     64  C   UNL A   1      42.240  28.310  32.050  1.00  0.00     0.031 C 
ATOM     65  C   UNL A   1      43.158  30.861  37.482  1.00  0.00     0.029 A 
ATOM     66  C   UNL A   1      42.619  30.536  36.247  1.00  0.00     0.049 A 
ATOM     67  H   UNL A   1      40.917  31.339  35.288  1.00  0.00     0.167 HD
ATOM     68  C   UNL A   1      42.493  29.298  34.102  1.00  0.00     0.074 A 
ATOM     69  C   UNL A   1      42.980  28.322  33.149  1.00  0.00     0.031 C 
ATOM     70  C   UNL A   1      43.085  29.563  35.292  1.00  0.00     0.037 A 
BRANCH  57  71
ATOM     71  C   UNL A   1      40.290  33.988  38.576  1.00  0.00     0.064 A 
ATOM     72  C   UNL A   1      41.009  35.192  38.644  1.00  0.00     0.173 A 
ATOM     73  C   UNL A   1      39.525  33.619  39.693  1.00  0.00     0.173 A 
ATOM     74  F   UNL A   1      41.766  35.586  37.608  1.00  0.00    -0.203 F 
ATOM     75  C   UNL A   1      40.984  35.979  39.792  1.00  0.00     0.198 A 
ATOM     76  C   UNL A   1      39.475  34.425  40.827  1.00  0.00     0.198 A 
ATOM     77  F   UNL A   1      38.814  32.481  39.681  1.00  0.00    -0.203 F 
ATOM     78  F   UNL A   1      41.718  37.098  39.851  1.00  0.00    -0.200 F 
ATOM     79  C   UNL A   1      40.211  35.600  40.880  1.00  0.00     0.200 A 
ATOM     80  F   UNL A   1      38.715  34.065  41.870  1.00  0.00    -0.200 F 
ATOM     81  F   UNL A   1      40.179  36.363  41.980  1.00  0.00    -0.200 F 
ENDBRANCH  57  71
BRANCH  58  82
ATOM     82  C   UNL A   1      40.101  28.714  30.090  1.00  0.00     0.064 A 
ATOM     83  C   UNL A   1      40.706  29.233  28.936  1.00  0.00     0.173 A 
ATOM     84  C   UNL A   1      39.485  27.459  29.994  1.00  0.00     0.173 A 
ATOM     85  F   UNL A   1      41.291  30.440  28.972  1.00  0.00    -0.203 F 
ATOM     86  C   UNL A   1      40.670  28.538  27.730  1.00  0.00     0.198 A 
ATOM     87  C   UNL A   1      39.479  26.750  28.794  1.00  0.00     0.198 A 
ATOM     88  F   UNL A   1      38.897  26.913  31.068  1.00  0.00    -0.203 F 
ATOM     89  F   UNL A   1      41.207  29.083  26.629  1.00  0.00    -0.200 F 
ATOM     90  C   UNL A   1      40.061  27.294  27.660  1.00  0.00     0.200 A 
ATOM     91  F   UNL A   1      38.903  25.540  28.737  1.00  0.00    -0.200 F 
ATOM     92  F   UNL A   1      40.028  26.625  26.500  1.00  0.00    -0.200 F 
ENDBRANCH  58  82
BRANCH  70  93
ATOM     93  C   UNL A   1      44.304  28.762  35.651  1.00  0.00     0.064 A 
ATOM     94  C   UNL A   1      45.597  29.192  35.318  1.00  0.00     0.173 A 
ATOM     95  C   UNL A   1      44.177  27.566  36.376  1.00  0.00     0.173 A 
ATOM     96  F   UNL A   1      45.773  30.320  34.614  1.00  0.00    -0.203 F 
ATOM     97  C   UNL A   1      46.715  28.440  35.672  1.00  0.00     0.198 A 
ATOM     98  C   UNL A   1      45.298  26.835  36.758  1.00  0.00     0.198 A 
ATOM     99  F   UNL A   1      42.963  27.113  36.725  1.00  0.00    -0.203 F 
ATOM    100  F   UNL A   1      47.937  28.843  35.297  1.00  0.00    -0.200 F 
ATOM    101  C   UNL A   1      46.565  27.268  36.399  1.00  0.00     0.200 A 
ATOM    102  F   UNL A   1      45.152  25.712  37.474  1.00  0.00    -0.200 F 
ATOM    103  F   UNL A   1      47.643  26.552  36.747  1.00  0.00    -0.200 F 
ENDBRANCH  70  93
ENDBRANCH  44  45
ENDBRANCH  36  39
ENDBRANCH  34  35
ENDBRANCH  33  34
ENDBRANCH  32  33
ENDBRANCH   1  32
TORSDOF 16
ENDMDL
