MODEL 1
REMARK VINA RESULT:     -10.8      0.000      0.000
REMARK SMILES O=C(CCCCCC(F)(F)c1ccccc1)NCCCCCCNC(=O)c1ccc(-c2c3nc(c(-c4c(F)c(F)c(F)c(F)c4F)c4ccc([nH]4)c(-c4c(F)c(F)c(F)c(F)c4F)c4nc(c(-c5c(F)c(F)c(F)c(F)c5F)c5ccc2[nH]5)C=C4)C=C3)cc1
REMARK SMILES IDX 18 1 17 2 1 3 2 4 3 6 4 7 5 8 6 9 7 10 8 11 9 12 10 13 11 14
REMARK SMILES IDX 12 15 16 16 13 17 15 18 14 19 19 20 20 21 21 22 22 23 23 24
REMARK SMILES IDX 24 25 25 26 26 28 27 29 28 30 89 31 29 32 88 33 30 34 31 35
REMARK SMILES IDX 32 36 82 37 33 38 87 39 81 40 83 41 34 42 86 43 80 44 79 45
REMARK SMILES IDX 35 47 67 48 47 49 66 50 48 51 51 52 65 53 84 54 49 55 50 56
REMARK SMILES IDX 64 58 85 59 52 60 36 61 37 62 45 63 38 64 39 65 43 66 46 67
REMARK SMILES IDX 40 68 41 69 44 70 42 71 68 72 69 73 77 74 70 75 71 76 75 77
REMARK SMILES IDX 78 78 72 79 73 80 76 81 74 82 53 83 54 84 62 85 55 86 56 87
REMARK SMILES IDX 60 88 63 89 57 90 58 91 61 92 59 93
REMARK H PARENT 17 5 24 27 83 46 51 57
REMARK Flexibility Score: inf
ROOT
ATOM      1  C   UNL A   1      34.641  28.464  26.392  1.00  0.00     0.116 C 
ENDROOT
BRANCH   1   2
ATOM      2  N   UNL A   1      33.910  27.220  26.444  1.00  0.00    -0.356 N 
ATOM      3  O   UNL A   1      33.455  27.067  24.197  1.00  0.00    -0.275 OA
ATOM      4  C   UNL A   1      33.453  26.579  25.320  1.00  0.00     0.219 C 
ATOM      5  H   UNL A   1      33.732  26.815  27.324  1.00  0.00     0.163 HD
BRANCH   4   6
ATOM      6  C   UNL A   1      33.028  25.152  25.598  1.00  0.00     0.100 C 
BRANCH   6   7
ATOM      7  C   UNL A   1      31.575  24.938  25.174  1.00  0.00     0.010 C 
BRANCH   7   8
ATOM      8  C   UNL A   1      30.920  23.644  25.677  1.00  0.00     0.001 C 
BRANCH   8   9
ATOM      9  C   UNL A   1      31.868  22.506  26.072  1.00  0.00     0.007 C 
BRANCH   9  10
ATOM     10  C   UNL A   1      31.893  21.261  25.170  1.00  0.00     0.082 C 
BRANCH  10  11
ATOM     11  C   UNL A   1      32.713  21.363  23.868  1.00  0.00     0.273 C 
ATOM     12  F   UNL A   1      32.573  20.176  23.203  1.00  0.00    -0.201 F 
ATOM     13  F   UNL A   1      32.082  22.285  23.078  1.00  0.00    -0.201 F 
BRANCH  11  14
ATOM     14  C   UNL A   1      34.161  21.741  24.091  1.00  0.00     0.021 A 
ATOM     15  C   UNL A   1      34.723  22.840  23.419  1.00  0.00     0.010 A 
ATOM     16  C   UNL A   1      34.991  20.938  24.889  1.00  0.00     0.010 A 
ATOM     17  C   UNL A   1      36.100  23.061  23.459  1.00  0.00     0.001 A 
ATOM     18  C   UNL A   1      36.368  21.161  24.924  1.00  0.00     0.001 A 
ATOM     19  C   UNL A   1      36.923  22.209  24.192  1.00  0.00     0.000 A 
ENDBRANCH  11  14
ENDBRANCH  10  11
ENDBRANCH   9  10
ENDBRANCH   8   9
ENDBRANCH   7   8
ENDBRANCH   6   7
ENDBRANCH   4   6
ENDBRANCH   1   2
BRANCH   1  20
ATOM     20  C   UNL A   1      33.814  29.604  26.976  1.00  0.00     0.021 C 
BRANCH  20  21
ATOM     21  C   UNL A   1      32.849  30.270  25.981  1.00  0.00     0.002 C 
BRANCH  21  22
ATOM     22  C   UNL A   1      31.521  30.754  26.571  1.00  0.00     0.002 C 
BRANCH  22  23
ATOM     23  C   UNL A   1      31.396  32.268  26.737  1.00  0.00     0.021 C 
BRANCH  23  24
ATOM     24  C   UNL A   1      32.628  32.962  27.310  1.00  0.00     0.116 C 
BRANCH  24  25
ATOM     25  N   UNL A   1      32.375  34.346  27.677  1.00  0.00    -0.352 N 
ATOM     26  C   UNL A   1      32.974  35.111  28.647  1.00  0.00     0.251 C 
ATOM     27  H   UNL A   1      31.675  34.801  27.155  1.00  0.00     0.163 HD
ATOM     28  O   UNL A   1      32.528  36.223  28.919  1.00  0.00    -0.269 OA
BRANCH  26  29
ATOM     29  C   UNL A   1      34.138  34.586  29.395  1.00  0.00     0.039 A 
ATOM     30  C   UNL A   1      33.931  34.054  30.671  1.00  0.00     0.014 A 
ATOM     31  C   UNL A   1      35.424  34.608  28.845  1.00  0.00     0.014 A 
ATOM     32  C   UNL A   1      35.000  33.485  31.365  1.00  0.00     0.010 A 
ATOM     33  C   UNL A   1      36.472  33.970  29.506  1.00  0.00     0.010 A 
ATOM     34  C   UNL A   1      36.271  33.401  30.772  1.00  0.00    -0.014 A 
BRANCH  34  35
ATOM     35  C   UNL A   1      37.383  32.690  31.456  1.00  0.00     0.031 A 
ATOM     36  C   UNL A   1      38.075  31.530  30.799  1.00  0.00     0.074 A 
ATOM     37  C   UNL A   1      37.736  33.064  32.701  1.00  0.00     0.049 A 
ATOM     38  N   UNL A   1      39.062  30.794  31.246  1.00  0.00    -0.248 NA
ATOM     39  C   UNL A   1      37.580  31.128  29.475  1.00  0.00     0.031 C 
ATOM     40  C   UNL A   1      37.104  34.137  33.471  1.00  0.00     0.029 A 
ATOM     41  N   UNL A   1      38.713  32.587  33.539  1.00  0.00    -0.354 N 
ATOM     42  C   UNL A   1      39.299  29.840  30.265  1.00  0.00     0.074 A 
ATOM     43  C   UNL A   1      38.314  30.053  29.226  1.00  0.00     0.031 C 
ATOM     44  C   UNL A   1      37.733  34.263  34.649  1.00  0.00     0.029 A 
ATOM     45  C   UNL A   1      38.785  33.256  34.737  1.00  0.00     0.049 A 
ATOM     46  H   UNL A   1      39.307  31.838  33.305  1.00  0.00     0.167 HD
ATOM     47  C   UNL A   1      40.262  28.888  30.224  1.00  0.00     0.037 A 
ATOM     48  C   UNL A   1      39.607  33.078  35.789  1.00  0.00     0.037 A 
ATOM     49  C   UNL A   1      41.246  28.686  31.257  1.00  0.00     0.049 A 
ATOM     50  C   UNL A   1      40.658  32.004  35.725  1.00  0.00     0.074 A 
ATOM     51  C   UNL A   1      42.306  27.796  31.278  1.00  0.00     0.029 A 
ATOM     52  N   UNL A   1      41.282  29.375  32.461  1.00  0.00    -0.354 N 
ATOM     53  N   UNL A   1      40.931  31.166  34.755  1.00  0.00    -0.248 NA
ATOM     54  C   UNL A   1      41.521  31.856  36.905  1.00  0.00     0.031 C 
ATOM     55  C   UNL A   1      42.944  27.902  32.519  1.00  0.00     0.029 A 
ATOM     56  C   UNL A   1      42.323  28.904  33.247  1.00  0.00     0.049 A 
ATOM     57  H   UNL A   1      40.660  30.093  32.719  1.00  0.00     0.167 HD
ATOM     58  C   UNL A   1      42.008  30.409  35.193  1.00  0.00     0.074 A 
ATOM     59  C   UNL A   1      42.354  30.904  36.511  1.00  0.00     0.031 C 
ATOM     60  C   UNL A   1      42.652  29.397  34.562  1.00  0.00     0.037 A 
BRANCH  47  61
ATOM     61  C   UNL A   1      40.291  27.983  29.023  1.00  0.00     0.064 A 
ATOM     62  C   UNL A   1      41.024  28.305  27.871  1.00  0.00     0.173 A 
ATOM     63  C   UNL A   1      39.594  26.765  29.034  1.00  0.00     0.173 A 
ATOM     64  F   UNL A   1      41.703  29.460  27.802  1.00  0.00    -0.203 F 
ATOM     65  C   UNL A   1      41.024  27.465  26.759  1.00  0.00     0.198 A 
ATOM     66  C   UNL A   1      39.625  25.909  27.935  1.00  0.00     0.198 A 
ATOM     67  F   UNL A   1      38.883  26.400  30.111  1.00  0.00    -0.203 F 
ATOM     68  F   UNL A   1      41.680  27.826  25.648  1.00  0.00    -0.200 F 
ATOM     69  C   UNL A   1      40.330  26.265  26.795  1.00  0.00     0.200 A 
ATOM     70  F   UNL A   1      38.966  24.742  27.977  1.00  0.00    -0.200 F 
ATOM     71  F   UNL A   1      40.332  25.456  25.727  1.00  0.00    -0.200 F 
ENDBRANCH  47  61
BRANCH  48  72
ATOM     72  C   UNL A   1      39.490  33.964  36.977  1.00  0.00     0.064 A 
ATOM     73  C   UNL A   1      38.770  33.556  38.108  1.00  0.00     0.173 A 
ATOM     74  C   UNL A   1      40.097  35.227  37.010  1.00  0.00     0.173 A 
ATOM     75  F   UNL A   1      38.153  32.365  38.117  1.00  0.00    -0.203 F 
ATOM     76  C   UNL A   1      38.650  34.384  39.223  1.00  0.00     0.198 A 
ATOM     77  C   UNL A   1      40.002  36.042  38.137  1.00  0.00     0.198 A 
ATOM     78  F   UNL A   1      40.800  35.663  35.955  1.00  0.00    -0.203 F 
ATOM     79  F   UNL A   1      37.923  33.987  40.275  1.00  0.00    -0.200 F 
ATOM     80  C   UNL A   1      39.273  35.623  39.238  1.00  0.00     0.200 A 
ATOM     81  F   UNL A   1      40.619  37.231  38.153  1.00  0.00    -0.200 F 
ATOM     82  F   UNL A   1      39.166  36.416  40.314  1.00  0.00    -0.200 F 
ENDBRANCH  48  72
BRANCH  60  83
ATOM     83  C   UNL A   1      43.813  28.769  35.283  1.00  0.00     0.064 A 
ATOM     84  C   UNL A   1      45.122  29.258  35.140  1.00  0.00     0.173 A 
ATOM     85  C   UNL A   1      43.612  27.678  36.142  1.00  0.00     0.173 A 
ATOM     86  F   UNL A   1      45.371  30.289  34.320  1.00  0.00    -0.203 F 
ATOM     87  C   UNL A   1      46.188  28.653  35.801  1.00  0.00     0.198 A 
ATOM     88  C   UNL A   1      44.676  27.099  36.829  1.00  0.00     0.198 A 
ATOM     89  F   UNL A   1      42.382  27.174  36.321  1.00  0.00    -0.203 F 
ATOM     90  F   UNL A   1      47.436  29.098  35.601  1.00  0.00    -0.200 F 
ATOM     91  C   UNL A   1      45.964  27.579  36.649  1.00  0.00     0.200 A 
ATOM     92  F   UNL A   1      44.455  26.072  37.661  1.00  0.00    -0.200 F 
ATOM     93  F   UNL A   1      46.992  27.002  37.287  1.00  0.00    -0.200 F 
ENDBRANCH  60  83
ENDBRANCH  34  35
ENDBRANCH  26  29
ENDBRANCH  24  25
ENDBRANCH  23  24
ENDBRANCH  22  23
ENDBRANCH  21  22
ENDBRANCH  20  21
ENDBRANCH   1  20
TORSDOF 19
ENDMDL
MODEL 2
REMARK VINA RESULT:     -10.8      6.746     12.023
REMARK SMILES O=C(CCCCCC(F)(F)c1ccccc1)NCCCCCCNC(=O)c1ccc(-c2c3nc(c(-c4c(F)c(F)c(F)c(F)c4F)c4ccc([nH]4)c(-c4c(F)c(F)c(F)c(F)c4F)c4nc(c(-c5c(F)c(F)c(F)c(F)c5F)c5ccc2[nH]5)C=C4)C=C3)cc1
REMARK SMILES IDX 18 1 17 2 1 3 2 4 3 6 4 7 5 8 6 9 7 10 8 11 9 12 10 13 11 14
REMARK SMILES IDX 12 15 16 16 13 17 15 18 14 19 19 20 20 21 21 22 22 23 23 24
REMARK SMILES IDX 24 25 25 26 26 28 27 29 28 30 89 31 29 32 88 33 30 34 31 35
REMARK SMILES IDX 32 36 82 37 33 38 87 39 81 40 83 41 34 42 86 43 80 44 79 45
REMARK SMILES IDX 35 47 67 48 47 49 66 50 48 51 51 52 65 53 84 54 49 55 50 56
REMARK SMILES IDX 64 58 85 59 52 60 36 61 37 62 45 63 38 64 39 65 43 66 46 67
REMARK SMILES IDX 40 68 41 69 44 70 42 71 68 72 69 73 77 74 70 75 71 76 75 77
REMARK SMILES IDX 78 78 72 79 73 80 76 81 74 82 53 83 54 84 62 85 55 86 56 87
REMARK SMILES IDX 60 88 63 89 57 90 58 91 61 92 59 93
REMARK H PARENT 17 5 24 27 83 46 51 57
REMARK Flexibility Score: inf
ROOT
ATOM      1  C   UNL A   1      40.491  22.291  26.185  1.00  0.00     0.116 C 
ENDROOT
BRANCH   1   2
ATOM      2  N   UNL A   1      39.111  21.869  26.160  1.00  0.00    -0.356 N 
ATOM      3  O   UNL A   1      38.182  23.959  25.937  1.00  0.00    -0.275 OA
ATOM      4  C   UNL A   1      38.071  22.739  25.946  1.00  0.00     0.219 C 
ATOM      5  H   UNL A   1      38.907  20.916  26.301  1.00  0.00     0.163 HD
BRANCH   4   6
ATOM      6  C   UNL A   1      36.774  22.026  25.627  1.00  0.00     0.100 C 
BRANCH   6   7
ATOM      7  C   UNL A   1      36.561  21.963  24.114  1.00  0.00     0.010 C 
BRANCH   7   8
ATOM      8  C   UNL A   1      35.678  23.070  23.521  1.00  0.00     0.001 C 
BRANCH   8   9
ATOM      9  C   UNL A   1      34.231  23.134  24.025  1.00  0.00     0.007 C 
BRANCH   9  10
ATOM     10  C   UNL A   1      33.285  21.996  23.606  1.00  0.00     0.082 C 
BRANCH  10  11
ATOM     11  C   UNL A   1      32.937  20.950  24.684  1.00  0.00     0.273 C 
ATOM     12  F   UNL A   1      33.582  21.317  25.833  1.00  0.00    -0.201 F 
ATOM     13  F   UNL A   1      31.607  21.103  24.964  1.00  0.00    -0.201 F 
BRANCH  11  14
ATOM     14  C   UNL A   1      33.244  19.527  24.270  1.00  0.00     0.021 A 
ATOM     15  C   UNL A   1      34.380  18.868  24.770  1.00  0.00     0.010 A 
ATOM     16  C   UNL A   1      32.458  18.882  23.302  1.00  0.00     0.010 A 
ATOM     17  C   UNL A   1      34.778  17.644  24.232  1.00  0.00     0.001 A 
ATOM     18  C   UNL A   1      32.860  17.659  22.765  1.00  0.00     0.001 A 
ATOM     19  C   UNL A   1      34.031  17.052  23.215  1.00  0.00     0.000 A 
ENDBRANCH  11  14
ENDBRANCH  10  11
ENDBRANCH   9  10
ENDBRANCH   8   9
ENDBRANCH   7   8
ENDBRANCH   6   7
ENDBRANCH   4   6
ENDBRANCH   1   2
BRANCH   1  20
ATOM     20  C   UNL A   1      41.168  21.856  27.481  1.00  0.00     0.021 C 
BRANCH  20  21
ATOM     21  C   UNL A   1      42.204  20.732  27.316  1.00  0.00     0.002 C 
BRANCH  21  22
ATOM     22  C   UNL A   1      41.848  19.650  26.292  1.00  0.00     0.002 C 
BRANCH  22  23
ATOM     23  C   UNL A   1      42.651  18.355  26.409  1.00  0.00     0.021 C 
BRANCH  23  24
ATOM     24  C   UNL A   1      44.144  18.490  26.126  1.00  0.00     0.116 C 
BRANCH  24  25
ATOM     25  N   UNL A   1      44.449  18.504  24.703  1.00  0.00    -0.352 N 
ATOM     26  C   UNL A   1      44.676  19.575  23.875  1.00  0.00     0.251 C 
ATOM     27  H   UNL A   1      44.499  17.620  24.273  1.00  0.00     0.163 HD
ATOM     28  O   UNL A   1      44.772  19.406  22.661  1.00  0.00    -0.269 OA
BRANCH  26  29
ATOM     29  C   UNL A   1      44.773  20.941  24.435  1.00  0.00     0.039 A 
ATOM     30  C   UNL A   1      45.484  21.130  25.623  1.00  0.00     0.014 A 
ATOM     31  C   UNL A   1      44.176  22.032  23.795  1.00  0.00     0.014 A 
ATOM     32  C   UNL A   1      45.653  22.420  26.131  1.00  0.00     0.010 A 
ATOM     33  C   UNL A   1      44.412  23.324  24.261  1.00  0.00     0.010 A 
ATOM     34  C   UNL A   1      45.153  23.532  25.432  1.00  0.00    -0.014 A 
BRANCH  34  35
ATOM     35  C   UNL A   1      45.433  24.913  25.905  1.00  0.00     0.031 A 
ATOM     36  C   UNL A   1      44.356  25.739  26.548  1.00  0.00     0.074 A 
ATOM     37  C   UNL A   1      46.656  25.442  25.706  1.00  0.00     0.049 A 
ATOM     38  N   UNL A   1      44.420  26.960  27.019  1.00  0.00    -0.248 NA
ATOM     39  C   UNL A   1      43.026  25.124  26.657  1.00  0.00     0.031 C 
ATOM     40  C   UNL A   1      47.770  24.764  25.042  1.00  0.00     0.029 A 
ATOM     41  N   UNL A   1      47.169  26.670  26.044  1.00  0.00    -0.354 N 
ATOM     42  C   UNL A   1      43.140  27.260  27.471  1.00  0.00     0.074 A 
ATOM     43  C   UNL A   1      42.308  26.116  27.163  1.00  0.00     0.031 C 
ATOM     44  C   UNL A   1      48.845  25.567  25.056  1.00  0.00     0.029 A 
ATOM     45  C   UNL A   1      48.487  26.831  25.692  1.00  0.00     0.049 A 
ATOM     46  H   UNL A   1      46.643  27.369  26.495  1.00  0.00     0.167 HD
ATOM     47  C   UNL A   1      42.706  28.377  28.103  1.00  0.00     0.037 A 
ATOM     48  C   UNL A   1      49.315  27.879  25.862  1.00  0.00     0.037 A 
ATOM     49  C   UNL A   1      43.541  29.508  28.416  1.00  0.00     0.049 A 
ATOM     50  C   UNL A   1      48.804  29.113  26.553  1.00  0.00     0.074 A 
ATOM     51  C   UNL A   1      43.213  30.656  29.116  1.00  0.00     0.029 A 
ATOM     52  N   UNL A   1      44.869  29.641  28.035  1.00  0.00    -0.354 N 
ATOM     53  N   UNL A   1      47.617  29.351  27.056  1.00  0.00    -0.248 NA
ATOM     54  C   UNL A   1      49.753  30.224  26.706  1.00  0.00     0.031 C 
ATOM     55  C   UNL A   1      44.322  31.510  29.103  1.00  0.00     0.029 A 
ATOM     56  C   UNL A   1      45.363  30.867  28.452  1.00  0.00     0.049 A 
ATOM     57  H   UNL A   1      45.384  28.962  27.541  1.00  0.00     0.167 HD
ATOM     58  C   UNL A   1      47.681  30.624  27.604  1.00  0.00     0.074 A 
ATOM     59  C   UNL A   1      49.033  31.100  27.392  1.00  0.00     0.031 C 
ATOM     60  C   UNL A   1      46.709  31.335  28.226  1.00  0.00     0.037 A 
BRANCH  47  61
ATOM     61  C   UNL A   1      41.253  28.432  28.490  1.00  0.00     0.064 A 
ATOM     62  C   UNL A   1      40.272  28.927  27.617  1.00  0.00     0.173 A 
ATOM     63  C   UNL A   1      40.834  27.962  29.745  1.00  0.00     0.173 A 
ATOM     64  F   UNL A   1      40.617  29.396  26.408  1.00  0.00    -0.203 F 
ATOM     65  C   UNL A   1      38.934  28.989  28.000  1.00  0.00     0.198 A 
ATOM     66  C   UNL A   1      39.490  27.993  30.111  1.00  0.00     0.198 A 
ATOM     67  F   UNL A   1      41.726  27.471  30.617  1.00  0.00    -0.203 F 
ATOM     68  F   UNL A   1      38.026  29.525  27.172  1.00  0.00    -0.200 F 
ATOM     69  C   UNL A   1      38.543  28.516  29.243  1.00  0.00     0.200 A 
ATOM     70  F   UNL A   1      39.112  27.520  31.307  1.00  0.00    -0.200 F 
ATOM     71  F   UNL A   1      37.256  28.574  29.610  1.00  0.00    -0.200 F 
ENDBRANCH  47  61
BRANCH  48  72
ATOM     72  C   UNL A   1      50.725  27.789  25.401  1.00  0.00     0.064 A 
ATOM     73  C   UNL A   1      51.052  27.972  24.050  1.00  0.00     0.173 A 
ATOM     74  C   UNL A   1      51.772  27.528  26.296  1.00  0.00     0.173 A 
ATOM     75  F   UNL A   1      50.083  28.203  23.151  1.00  0.00    -0.203 F 
ATOM     76  C   UNL A   1      52.371  27.882  23.610  1.00  0.00     0.198 A 
ATOM     77  C   UNL A   1      53.095  27.469  25.860  1.00  0.00     0.198 A 
ATOM     78  F   UNL A   1      51.514  27.350  27.599  1.00  0.00    -0.203 F 
ATOM     79  F   UNL A   1      52.651  28.020  22.307  1.00  0.00    -0.200 F 
ATOM     80  C   UNL A   1      53.392  27.638  24.516  1.00  0.00     0.200 A 
ATOM     81  F   UNL A   1      54.079  27.251  26.742  1.00  0.00    -0.200 F 
ATOM     82  F   UNL A   1      54.662  27.562  24.094  1.00  0.00    -0.200 F 
ENDBRANCH  48  72
BRANCH  60  83
ATOM     83  C   UNL A   1      47.080  32.697  28.743  1.00  0.00     0.064 A 
ATOM     84  C   UNL A   1      46.903  33.854  27.967  1.00  0.00     0.173 A 
ATOM     85  C   UNL A   1      47.601  32.850  30.037  1.00  0.00     0.173 A 
ATOM     86  F   UNL A   1      46.423  33.763  26.719  1.00  0.00    -0.203 F 
ATOM     87  C   UNL A   1      47.269  35.106  28.455  1.00  0.00     0.198 A 
ATOM     88  C   UNL A   1      47.931  34.108  30.535  1.00  0.00     0.198 A 
ATOM     89  F   UNL A   1      47.785  31.779  30.824  1.00  0.00    -0.203 F 
ATOM     90  F   UNL A   1      47.148  36.189  27.674  1.00  0.00    -0.200 F 
ATOM     91  C   UNL A   1      47.776  35.233  29.740  1.00  0.00     0.200 A 
ATOM     92  F   UNL A   1      48.406  34.231  31.781  1.00  0.00    -0.200 F 
ATOM     93  F   UNL A   1      48.124  36.440  30.208  1.00  0.00    -0.200 F 
ENDBRANCH  60  83
ENDBRANCH  34  35
ENDBRANCH  26  29
ENDBRANCH  24  25
ENDBRANCH  23  24
ENDBRANCH  22  23
ENDBRANCH  21  22
ENDBRANCH  20  21
ENDBRANCH   1  20
TORSDOF 19
ENDMDL
MODEL 3
REMARK VINA RESULT:     -10.6      1.704      7.698
REMARK SMILES O=C(CCCCCC(F)(F)c1ccccc1)NCCCCCCNC(=O)c1ccc(-c2c3nc(c(-c4c(F)c(F)c(F)c(F)c4F)c4ccc([nH]4)c(-c4c(F)c(F)c(F)c(F)c4F)c4nc(c(-c5c(F)c(F)c(F)c(F)c5F)c5ccc2[nH]5)C=C4)C=C3)cc1
REMARK SMILES IDX 18 1 17 2 1 3 2 4 3 6 4 7 5 8 6 9 7 10 8 11 9 12 10 13 11 14
REMARK SMILES IDX 12 15 16 16 13 17 15 18 14 19 19 20 20 21 21 22 22 23 23 24
REMARK SMILES IDX 24 25 25 26 26 28 27 29 28 30 89 31 29 32 88 33 30 34 31 35
REMARK SMILES IDX 32 36 82 37 33 38 87 39 81 40 83 41 34 42 86 43 80 44 79 45
REMARK SMILES IDX 35 47 67 48 47 49 66 50 48 51 51 52 65 53 84 54 49 55 50 56
REMARK SMILES IDX 64 58 85 59 52 60 36 61 37 62 45 63 38 64 39 65 43 66 46 67
REMARK SMILES IDX 40 68 41 69 44 70 42 71 68 72 69 73 77 74 70 75 71 76 75 77
REMARK SMILES IDX 78 78 72 79 73 80 76 81 74 82 53 83 54 84 62 85 55 86 56 87
REMARK SMILES IDX 60 88 63 89 57 90 58 91 61 92 59 93
REMARK H PARENT 17 5 24 27 83 46 51 57
REMARK Flexibility Score: inf
ROOT
ATOM      1  C   UNL A   1      33.776  30.660  27.145  1.00  0.00     0.116 C 
ENDROOT
BRANCH   1   2
ATOM      2  N   UNL A   1      34.092  29.481  26.375  1.00  0.00    -0.356 N 
ATOM      3  O   UNL A   1      31.939  28.955  25.768  1.00  0.00    -0.275 OA
ATOM      4  C   UNL A   1      33.147  28.775  25.674  1.00  0.00     0.219 C 
ATOM      5  H   UNL A   1      35.026  29.170  26.352  1.00  0.00     0.163 HD
BRANCH   4   6
ATOM      6  C   UNL A   1      33.761  27.803  24.689  1.00  0.00     0.100 C 
BRANCH   6   7
ATOM      7  C   UNL A   1      32.880  27.677  23.446  1.00  0.00     0.010 C 
BRANCH   7   8
ATOM      8  C   UNL A   1      33.552  27.050  22.216  1.00  0.00     0.001 C 
BRANCH   8   9
ATOM      9  C   UNL A   1      32.999  25.699  21.748  1.00  0.00     0.007 C 
BRANCH   9  10
ATOM     10  C   UNL A   1      32.221  24.859  22.775  1.00  0.00     0.082 C 
BRANCH  10  11
ATOM     11  C   UNL A   1      32.852  23.517  23.196  1.00  0.00     0.273 C 
ATOM     12  F   UNL A   1      32.007  22.934  24.100  1.00  0.00    -0.201 F 
ATOM     13  F   UNL A   1      32.808  22.702  22.098  1.00  0.00    -0.201 F 
BRANCH  11  14
ATOM     14  C   UNL A   1      34.266  23.648  23.717  1.00  0.00     0.021 A 
ATOM     15  C   UNL A   1      35.346  23.115  22.993  1.00  0.00     0.010 A 
ATOM     16  C   UNL A   1      34.510  24.210  24.980  1.00  0.00     0.010 A 
ATOM     17  C   UNL A   1      36.616  23.048  23.567  1.00  0.00     0.001 A 
ATOM     18  C   UNL A   1      35.780  24.139  25.552  1.00  0.00     0.001 A 
ATOM     19  C   UNL A   1      36.827  23.539  24.855  1.00  0.00     0.000 A 
ENDBRANCH  11  14
ENDBRANCH  10  11
ENDBRANCH   9  10
ENDBRANCH   8   9
ENDBRANCH   7   8
ENDBRANCH   6   7
ENDBRANCH   4   6
ENDBRANCH   1   2
BRANCH   1  20
ATOM     20  C   UNL A   1      34.937  31.041  28.057  1.00  0.00     0.021 C 
BRANCH  20  21
ATOM     21  C   UNL A   1      34.637  32.195  29.027  1.00  0.00     0.002 C 
BRANCH  21  22
ATOM     22  C   UNL A   1      34.589  33.591  28.399  1.00  0.00     0.002 C 
BRANCH  22  23
ATOM     23  C   UNL A   1      33.327  34.397  28.702  1.00  0.00     0.021 C 
BRANCH  23  24
ATOM     24  C   UNL A   1      33.553  35.688  29.481  1.00  0.00     0.116 C 
BRANCH  24  25
ATOM     25  N   UNL A   1      32.600  35.866  30.566  1.00  0.00    -0.352 N 
ATOM     26  C   UNL A   1      32.680  35.445  31.869  1.00  0.00     0.251 C 
ATOM     27  H   UNL A   1      31.781  36.360  30.332  1.00  0.00     0.163 HD
ATOM     28  O   UNL A   1      31.709  35.555  32.614  1.00  0.00    -0.269 OA
BRANCH  26  29
ATOM     29  C   UNL A   1      33.925  34.826  32.376  1.00  0.00     0.039 A 
ATOM     30  C   UNL A   1      33.876  33.511  32.847  1.00  0.00     0.014 A 
ATOM     31  C   UNL A   1      35.135  35.527  32.382  1.00  0.00     0.014 A 
ATOM     32  C   UNL A   1      35.051  32.880  33.260  1.00  0.00     0.010 A 
ATOM     33  C   UNL A   1      36.317  34.870  32.721  1.00  0.00     0.010 A 
ATOM     34  C   UNL A   1      36.287  33.540  33.162  1.00  0.00    -0.014 A 
BRANCH  34  35
ATOM     35  C   UNL A   1      37.554  32.832  33.487  1.00  0.00     0.031 A 
ATOM     36  C   UNL A   1      38.297  33.129  34.758  1.00  0.00     0.074 A 
ATOM     37  C   UNL A   1      38.060  31.950  32.603  1.00  0.00     0.049 A 
ATOM     38  N   UNL A   1      39.414  32.610  35.204  1.00  0.00    -0.248 NA
ATOM     39  C   UNL A   1      37.725  34.162  35.633  1.00  0.00     0.031 C 
ATOM     40  C   UNL A   1      37.465  31.617  31.309  1.00  0.00     0.029 A 
ATOM     41  N   UNL A   1      39.190  31.172  32.659  1.00  0.00    -0.354 N 
ATOM     42  C   UNL A   1      39.681  33.257  36.404  1.00  0.00     0.074 A 
ATOM     43  C   UNL A   1      38.642  34.249  36.586  1.00  0.00     0.031 C 
ATOM     44  C   UNL A   1      38.210  30.675  30.711  1.00  0.00     0.029 A 
ATOM     45  C   UNL A   1      39.357  30.367  31.558  1.00  0.00     0.049 A 
ATOM     46  H   UNL A   1      39.820  31.189  33.415  1.00  0.00     0.167 HD
ATOM     47  C   UNL A   1      40.687  33.031  37.282  1.00  0.00     0.037 A 
ATOM     48  C   UNL A   1      40.327  29.480  31.265  1.00  0.00     0.037 A 
ATOM     49  C   UNL A   1      41.713  32.036  37.101  1.00  0.00     0.049 A 
ATOM     50  C   UNL A   1      41.441  29.258  32.250  1.00  0.00     0.074 A 
ATOM     51  C   UNL A   1      42.735  31.681  37.965  1.00  0.00     0.029 A 
ATOM     52  N   UNL A   1      41.858  31.246  35.969  1.00  0.00    -0.354 N 
ATOM     53  N   UNL A   1      41.634  29.811  33.422  1.00  0.00    -0.248 NA
ATOM     54  C   UNL A   1      42.470  28.280  31.871  1.00  0.00     0.031 C 
ATOM     55  C   UNL A   1      43.533  30.723  37.330  1.00  0.00     0.029 A 
ATOM     56  C   UNL A   1      42.973  30.432  36.097  1.00  0.00     0.049 A 
ATOM     57  H   UNL A   1      41.256  31.261  35.190  1.00  0.00     0.167 HD
ATOM     58  C   UNL A   1      42.790  29.235  33.932  1.00  0.00     0.074 A 
ATOM     59  C   UNL A   1      43.242  28.271  32.949  1.00  0.00     0.031 C 
ATOM     60  C   UNL A   1      43.420  29.482  35.107  1.00  0.00     0.037 A 
BRANCH  47  61
ATOM     61  C   UNL A   1      40.731  33.885  38.520  1.00  0.00     0.064 A 
ATOM     62  C   UNL A   1      40.016  33.547  39.679  1.00  0.00     0.173 A 
ATOM     63  C   UNL A   1      41.519  35.046  38.554  1.00  0.00     0.173 A 
ATOM     64  F   UNL A   1      39.241  32.452  39.700  1.00  0.00    -0.203 F 
ATOM     65  C   UNL A   1      40.053  34.361  40.809  1.00  0.00     0.198 A 
ATOM     66  C   UNL A   1      41.582  35.838  39.698  1.00  0.00     0.198 A 
ATOM     67  F   UNL A   1      42.230  35.414  37.478  1.00  0.00    -0.203 F 
ATOM     68  F   UNL A   1      39.310  34.049  41.881  1.00  0.00    -0.200 F 
ATOM     69  C   UNL A   1      40.841  35.501  40.820  1.00  0.00     0.200 A 
ATOM     70  F   UNL A   1      42.357  36.932  39.712  1.00  0.00    -0.200 F 
ATOM     71  F   UNL A   1      40.878  36.281  41.909  1.00  0.00    -0.200 F 
ENDBRANCH  47  61
BRANCH  48  72
ATOM     72  C   UNL A   1      40.263  28.709  29.995  1.00  0.00     0.064 A 
ATOM     73  C   UNL A   1      39.594  27.479  29.935  1.00  0.00     0.173 A 
ATOM     74  C   UNL A   1      40.859  29.186  28.819  1.00  0.00     0.173 A 
ATOM     75  F   UNL A   1      39.026  26.970  31.039  1.00  0.00    -0.203 F 
ATOM     76  C   UNL A   1      39.536  26.747  28.751  1.00  0.00     0.198 A 
ATOM     77  C   UNL A   1      40.774  28.468  27.627  1.00  0.00     0.198 A 
ATOM     78  F   UNL A   1      41.507  30.359  28.822  1.00  0.00    -0.203 F 
ATOM     79  F   UNL A   1      38.925  25.555  28.731  1.00  0.00    -0.200 F 
ATOM     80  C   UNL A   1      40.120  27.246  27.596  1.00  0.00     0.200 A 
ATOM     81  F   UNL A   1      41.325  28.962  26.510  1.00  0.00    -0.200 F 
ATOM     82  F   UNL A   1      40.055  26.547  26.454  1.00  0.00    -0.200 F 
ENDBRANCH  48  72
BRANCH  60  83
ATOM     83  C   UNL A   1      44.656  28.680  35.404  1.00  0.00     0.064 A 
ATOM     84  C   UNL A   1      44.590  27.434  36.048  1.00  0.00     0.173 A 
ATOM     85  C   UNL A   1      45.921  29.153  35.022  1.00  0.00     0.173 A 
ATOM     86  F   UNL A   1      43.408  26.942  36.447  1.00  0.00    -0.203 F 
ATOM     87  C   UNL A   1      45.747  26.712  36.331  1.00  0.00     0.198 A 
ATOM     88  C   UNL A   1      47.072  28.412  35.274  1.00  0.00     0.198 A 
ATOM     89  F   UNL A   1      46.042  30.335  34.398  1.00  0.00    -0.203 F 
ATOM     90  F   UNL A   1      45.665  25.555  37.002  1.00  0.00    -0.200 F 
ATOM     91  C   UNL A   1      46.985  27.198  35.939  1.00  0.00     0.200 A 
ATOM     92  F   UNL A   1      48.265  28.874  34.880  1.00  0.00    -0.200 F 
ATOM     93  F   UNL A   1      48.097  26.499  36.209  1.00  0.00    -0.200 F 
ENDBRANCH  60  83
ENDBRANCH  34  35
ENDBRANCH  26  29
ENDBRANCH  24  25
ENDBRANCH  23  24
ENDBRANCH  22  23
ENDBRANCH  21  22
ENDBRANCH  20  21
ENDBRANCH   1  20
TORSDOF 19
ENDMDL
