MODEL 1
REMARK VINA RESULT:     -12.7      0.000      0.000
REMARK SMILES Cc1ccc(C[C@H](C(=O)NCCCCCCNC(=O)c2ccc(-c3c4nc(c(-c5c(F)c(F)c(F)c(F)c5F)c5ccc([nH]5)c(-c5c(F)c(F)c(F)c(F)c5F)c5nc(c(-c6c(F)c(F)c(F)c(F)c6F)c6ccc3[nH]6)C=C5)C=C4)cc2)[C@@H]2CCCC[C@@H]2O)cc1
REMARK SMILES IDX 13 1 12 2 11 3 10 4 8 5 9 6 7 8 6 9 5 10 1 11 2 12 3 13
REMARK SMILES IDX 91 14 4 15 90 16 83 17 84 18 88 19 85 20 87 21 86 22 89 23
REMARK SMILES IDX 14 25 15 26 16 27 17 28 18 29 19 31 20 32 21 33 82 34 22 35
REMARK SMILES IDX 81 36 23 37 24 38 25 39 75 40 26 41 80 42 74 43 76 44 27 45
REMARK SMILES IDX 79 46 73 47 72 48 28 50 60 51 40 52 59 53 41 54 44 55 58 56
REMARK SMILES IDX 77 57 42 58 43 59 57 61 78 62 45 63 29 64 30 65 38 66 31 67
REMARK SMILES IDX 32 68 36 69 39 70 33 71 34 72 37 73 35 74 61 75 62 76 70 77
REMARK SMILES IDX 63 78 64 79 68 80 71 81 65 82 66 83 69 84 67 85 46 86 47 87
REMARK SMILES IDX 55 88 48 89 49 90 53 91 56 92 50 93 51 94 54 95 52 96
REMARK H PARENT 10 7 89 24 17 30 76 49 44 60
REMARK Flexibility Score: inf
ROOT
ATOM      1  C   UNL A   1      33.874  28.232  25.957  1.00  0.00     0.002 C 
ENDROOT
BRANCH   1   2
ATOM      2  C   UNL A   1      33.163  26.924  26.332  1.00  0.00     0.021 C 
BRANCH   2   3
ATOM      3  C   UNL A   1      31.644  26.892  26.104  1.00  0.00     0.116 C 
BRANCH   3   4
ATOM      4  N   UNL A   1      31.083  25.709  26.710  1.00  0.00    -0.356 N 
ATOM      5  C   UNL A   1      31.143  24.388  26.435  1.00  0.00     0.223 C 
ATOM      6  O   UNL A   1      30.454  23.718  27.211  1.00  0.00    -0.275 OA
ATOM      7  H   UNL A   1      30.532  25.910  27.501  1.00  0.00     0.163 HD
BRANCH   5   8
ATOM      8  C   UNL A   1      32.045  23.741  25.348  1.00  0.00     0.088 C 
BRANCH   8   9
ATOM      9  C   UNL A   1      32.837  22.585  26.068  1.00  0.00     0.049 C 
BRANCH   9  10
ATOM     10  C   UNL A   1      34.343  22.413  25.912  1.00  0.00    -0.047 A 
ATOM     11  C   UNL A   1      38.658  22.007  25.683  1.00  0.00     0.044 C 
ATOM     12  C   UNL A   1      37.170  22.175  25.742  1.00  0.00    -0.051 A 
ATOM     13  C   UNL A   1      36.343  21.093  25.448  1.00  0.00     0.004 A 
ATOM     14  C   UNL A   1      36.582  23.381  26.125  1.00  0.00     0.004 A 
ATOM     15  C   UNL A   1      34.953  21.218  25.519  1.00  0.00     0.004 A 
ATOM     16  C   UNL A   1      35.189  23.495  26.222  1.00  0.00     0.004 A 
ENDBRANCH   9  10
ENDBRANCH   8   9
BRANCH   8  17
ATOM     17  C   UNL A   1      31.345  23.307  23.996  1.00  0.00     0.030 C 
ATOM     18  C   UNL A   1      32.237  22.543  22.978  1.00  0.00     0.007 C 
ATOM     19  C   UNL A   1      30.750  24.451  23.131  1.00  0.00     0.118 C 
ATOM     20  C   UNL A   1      33.350  23.401  22.370  1.00  0.00     0.001 C 
ATOM     21  C   UNL A   1      31.819  25.410  22.596  1.00  0.00     0.032 C 
ATOM     22  C   UNL A   1      32.815  24.669  21.711  1.00  0.00     0.003 C 
BRANCH  19  23
ATOM     23  O   UNL A   1      29.735  25.166  23.790  1.00  0.00    -0.393 OA
ATOM     24  H   UNL A   1      29.707  24.900  24.723  1.00  0.00     0.210 HD
ENDBRANCH  19  23
ENDBRANCH   8  17
ENDBRANCH   5   8
ENDBRANCH   3   4
ENDBRANCH   2   3
ENDBRANCH   1   2
BRANCH   1  25
ATOM     25  C   UNL A   1      33.001  29.344  25.364  1.00  0.00     0.002 C 
BRANCH  25  26
ATOM     26  C   UNL A   1      32.715  30.530  26.282  1.00  0.00     0.021 C 
BRANCH  26  27
ATOM     27  C   UNL A   1      33.173  30.348  27.724  1.00  0.00     0.116 C 
BRANCH  27  28
ATOM     28  N   UNL A   1      33.957  31.464  28.234  1.00  0.00    -0.352 N 
ATOM     29  C   UNL A   1      35.245  31.487  28.738  1.00  0.00     0.251 C 
ATOM     30  H   UNL A   1      33.501  32.336  28.217  1.00  0.00     0.163 HD
ATOM     31  O   UNL A   1      35.714  32.527  29.176  1.00  0.00    -0.269 OA
BRANCH  29  32
ATOM     32  C   UNL A   1      36.108  30.287  28.605  1.00  0.00     0.039 A 
ATOM     33  C   UNL A   1      36.424  29.588  29.778  1.00  0.00     0.014 A 
ATOM     34  C   UNL A   1      36.759  29.982  27.414  1.00  0.00     0.014 A 
ATOM     35  C   UNL A   1      37.564  28.790  29.813  1.00  0.00     0.010 A 
ATOM     36  C   UNL A   1      37.940  29.270  27.466  1.00  0.00     0.010 A 
ATOM     37  C   UNL A   1      38.382  28.747  28.686  1.00  0.00    -0.014 A 
BRANCH  37  38
ATOM     38  C   UNL A   1      39.781  28.339  28.741  1.00  0.00     0.031 A 
ATOM     39  C   UNL A   1      40.190  26.964  28.400  1.00  0.00     0.074 A 
ATOM     40  C   UNL A   1      40.714  29.285  28.990  1.00  0.00     0.049 A 
ATOM     41  N   UNL A   1      41.309  26.426  28.754  1.00  0.00    -0.248 NA
ATOM     42  C   UNL A   1      39.328  26.055  27.659  1.00  0.00     0.031 C 
ATOM     43  C   UNL A   1      42.154  29.190  28.775  1.00  0.00     0.029 A 
ATOM     44  N   UNL A   1      40.543  30.496  29.686  1.00  0.00    -0.354 N 
ATOM     45  C   UNL A   1      41.447  25.242  28.063  1.00  0.00     0.074 A 
ATOM     46  C   UNL A   1      40.148  25.016  27.473  1.00  0.00     0.031 C 
ATOM     47  C   UNL A   1      42.767  30.102  29.544  1.00  0.00     0.029 A 
ATOM     48  C   UNL A   1      41.750  30.700  30.392  1.00  0.00     0.049 A 
ATOM     49  H   UNL A   1      39.749  31.078  29.680  1.00  0.00     0.167 HD
ATOM     50  C   UNL A   1      42.690  24.680  27.959  1.00  0.00     0.037 A 
ATOM     51  C   UNL A   1      41.782  30.709  31.756  1.00  0.00     0.037 A 
ATOM     52  C   UNL A   1      43.663  25.405  28.779  1.00  0.00     0.049 A 
ATOM     53  C   UNL A   1      42.685  29.661  32.360  1.00  0.00     0.074 A 
ATOM     54  C   UNL A   1      44.627  26.354  28.474  1.00  0.00     0.029 A 
ATOM     55  N   UNL A   1      43.527  25.416  30.165  1.00  0.00    -0.354 N 
ATOM     56  N   UNL A   1      43.103  28.606  31.718  1.00  0.00    -0.248 NA
ATOM     57  C   UNL A   1      43.151  29.691  33.744  1.00  0.00     0.031 C 
ATOM     58  C   UNL A   1      45.034  26.973  29.682  1.00  0.00     0.029 A 
ATOM     59  C   UNL A   1      44.332  26.392  30.723  1.00  0.00     0.049 A 
ATOM     60  H   UNL A   1      42.941  24.813  30.676  1.00  0.00     0.167 HD
ATOM     61  C   UNL A   1      43.838  27.818  32.562  1.00  0.00     0.074 A 
ATOM     62  C   UNL A   1      43.859  28.551  33.814  1.00  0.00     0.031 C 
ATOM     63  C   UNL A   1      44.350  26.619  32.158  1.00  0.00     0.037 A 
BRANCH  50  64
ATOM     64  C   UNL A   1      43.099  23.688  26.877  1.00  0.00     0.064 A 
ATOM     65  C   UNL A   1      42.735  22.324  26.975  1.00  0.00     0.173 A 
ATOM     66  C   UNL A   1      43.918  23.984  25.772  1.00  0.00     0.173 A 
ATOM     67  F   UNL A   1      41.846  21.897  27.880  1.00  0.00    -0.203 F 
ATOM     68  C   UNL A   1      43.267  21.336  26.139  1.00  0.00     0.198 A 
ATOM     69  C   UNL A   1      44.488  22.992  24.964  1.00  0.00     0.198 A 
ATOM     70  F   UNL A   1      44.141  25.241  25.381  1.00  0.00    -0.203 F 
ATOM     71  F   UNL A   1      42.899  20.057  26.304  1.00  0.00    -0.200 F 
ATOM     72  C   UNL A   1      44.178  21.665  25.160  1.00  0.00     0.200 A 
ATOM     73  F   UNL A   1      45.340  23.342  23.989  1.00  0.00    -0.200 F 
ATOM     74  F   UNL A   1      44.725  20.716  24.389  1.00  0.00    -0.200 F 
ENDBRANCH  50  64
BRANCH  51  75
ATOM     75  C   UNL A   1      40.525  31.201  32.375  1.00  0.00     0.064 A 
ATOM     76  C   UNL A   1      40.251  32.581  32.332  1.00  0.00     0.173 A 
ATOM     77  C   UNL A   1      39.462  30.337  32.661  1.00  0.00     0.173 A 
ATOM     78  F   UNL A   1      41.236  33.450  32.057  1.00  0.00    -0.203 F 
ATOM     79  C   UNL A   1      38.952  33.066  32.462  1.00  0.00     0.198 A 
ATOM     80  C   UNL A   1      38.162  30.828  32.799  1.00  0.00     0.198 A 
ATOM     81  F   UNL A   1      39.654  29.010  32.692  1.00  0.00    -0.203 F 
ATOM     82  F   UNL A   1      38.710  34.376  32.314  1.00  0.00    -0.200 F 
ATOM     83  C   UNL A   1      37.904  32.185  32.668  1.00  0.00     0.200 A 
ATOM     84  F   UNL A   1      37.142  29.973  32.967  1.00  0.00    -0.200 F 
ATOM     85  F   UNL A   1      36.643  32.638  32.704  1.00  0.00    -0.200 F 
ENDBRANCH  51  75
BRANCH  63  86
ATOM     86  C   UNL A   1      44.987  25.585  33.051  1.00  0.00     0.064 A 
ATOM     87  C   UNL A   1      46.356  25.275  33.035  1.00  0.00     0.173 A 
ATOM     88  C   UNL A   1      44.233  24.974  34.082  1.00  0.00     0.173 A 
ATOM     89  F   UNL A   1      47.194  25.872  32.176  1.00  0.00    -0.203 F 
ATOM     90  C   UNL A   1      46.921  24.379  33.947  1.00  0.00     0.198 A 
ATOM     91  C   UNL A   1      44.810  24.124  35.024  1.00  0.00     0.198 A 
ATOM     92  F   UNL A   1      42.919  25.205  34.217  1.00  0.00    -0.203 F 
ATOM     93  F   UNL A   1      48.227  24.088  33.868  1.00  0.00    -0.200 F 
ATOM     94  C   UNL A   1      46.152  23.815  34.949  1.00  0.00     0.200 A 
ATOM     95  F   UNL A   1      44.062  23.624  36.018  1.00  0.00    -0.200 F 
ATOM     96  F   UNL A   1      46.708  22.995  35.849  1.00  0.00    -0.200 F 
ENDBRANCH  63  86
ENDBRANCH  37  38
ENDBRANCH  29  32
ENDBRANCH  27  28
ENDBRANCH  26  27
ENDBRANCH  25  26
ENDBRANCH   1  25
TORSDOF 17
ENDMDL
MODEL 2
REMARK VINA RESULT:     -12.6      1.713      2.597
REMARK SMILES Cc1ccc(C[C@H](C(=O)NCCCCCCNC(=O)c2ccc(-c3c4nc(c(-c5c(F)c(F)c(F)c(F)c5F)c5ccc([nH]5)c(-c5c(F)c(F)c(F)c(F)c5F)c5nc(c(-c6c(F)c(F)c(F)c(F)c6F)c6ccc3[nH]6)C=C5)C=C4)cc2)[C@@H]2CCCC[C@@H]2O)cc1
REMARK SMILES IDX 13 1 12 2 11 3 10 4 8 5 9 6 7 8 6 9 5 10 1 11 2 12 3 13
REMARK SMILES IDX 91 14 4 15 90 16 83 17 84 18 88 19 85 20 87 21 86 22 89 23
REMARK SMILES IDX 14 25 15 26 16 27 17 28 18 29 19 31 20 32 21 33 82 34 22 35
REMARK SMILES IDX 81 36 23 37 24 38 25 39 75 40 26 41 80 42 74 43 76 44 27 45
REMARK SMILES IDX 79 46 73 47 72 48 28 50 60 51 40 52 59 53 41 54 44 55 58 56
REMARK SMILES IDX 77 57 42 58 43 59 57 61 78 62 45 63 29 64 30 65 38 66 31 67
REMARK SMILES IDX 32 68 36 69 39 70 33 71 34 72 37 73 35 74 61 75 62 76 70 77
REMARK SMILES IDX 63 78 64 79 68 80 71 81 65 82 66 83 69 84 67 85 46 86 47 87
REMARK SMILES IDX 55 88 48 89 49 90 53 91 56 92 50 93 51 94 54 95 52 96
REMARK H PARENT 10 7 89 24 17 30 76 49 44 60
REMARK Flexibility Score: inf
ROOT
ATOM      1  C   UNL A   1      31.752  27.874  27.015  1.00  0.00     0.002 C 
ENDROOT
BRANCH   1   2
ATOM      2  C   UNL A   1      32.483  26.675  26.398  1.00  0.00     0.021 C 
BRANCH   2   3
ATOM      3  C   UNL A   1      31.605  25.474  26.014  1.00  0.00     0.116 C 
BRANCH   3   4
ATOM      4  N   UNL A   1      31.797  24.403  26.962  1.00  0.00    -0.356 N 
ATOM      5  C   UNL A   1      32.545  23.279  26.977  1.00  0.00     0.223 C 
ATOM      6  O   UNL A   1      32.361  22.610  28.000  1.00  0.00    -0.275 OA
ATOM      7  H   UNL A   1      31.262  24.518  27.780  1.00  0.00     0.163 HD
BRANCH   5   8
ATOM      8  C   UNL A   1      33.602  22.892  25.906  1.00  0.00     0.088 C 
BRANCH   8   9
ATOM      9  C   UNL A   1      32.807  22.193  24.740  1.00  0.00     0.049 C 
BRANCH   9  10
ATOM     10  C   UNL A   1      33.067  20.748  24.332  1.00  0.00    -0.047 A 
ATOM     11  C   UNL A   1      33.807  16.575  23.400  1.00  0.00     0.044 C 
ATOM     12  C   UNL A   1      33.584  18.022  23.715  1.00  0.00    -0.051 A 
ATOM     13  C   UNL A   1      32.527  18.703  23.115  1.00  0.00     0.004 A 
ATOM     14  C   UNL A   1      34.386  18.706  24.630  1.00  0.00     0.004 A 
ATOM     15  C   UNL A   1      32.284  20.047  23.410  1.00  0.00     0.004 A 
ATOM     16  C   UNL A   1      34.122  20.046  24.945  1.00  0.00     0.004 A 
ENDBRANCH   9  10
ENDBRANCH   8   9
BRANCH   8  17
ATOM     17  C   UNL A   1      34.594  24.031  25.430  1.00  0.00     0.030 C 
ATOM     18  C   UNL A   1      34.462  24.476  23.946  1.00  0.00     0.007 C 
ATOM     19  C   UNL A   1      36.110  23.719  25.555  1.00  0.00     0.118 C 
ATOM     20  C   UNL A   1      34.882  23.399  22.941  1.00  0.00     0.001 C 
ATOM     21  C   UNL A   1      36.557  22.564  24.653  1.00  0.00     0.032 C 
ATOM     22  C   UNL A   1      36.301  22.894  23.186  1.00  0.00     0.003 C 
BRANCH  19  23
ATOM     23  O   UNL A   1      36.515  23.490  26.882  1.00  0.00    -0.393 OA
ATOM     24  H   UNL A   1      36.184  22.627  27.175  1.00  0.00     0.210 HD
ENDBRANCH  19  23
ENDBRANCH   8  17
ENDBRANCH   5   8
ENDBRANCH   3   4
ENDBRANCH   2   3
ENDBRANCH   1   2
BRANCH   1  25
ATOM     25  C   UNL A   1      31.890  29.215  26.285  1.00  0.00     0.002 C 
BRANCH  25  26
ATOM     26  C   UNL A   1      32.606  30.323  27.053  1.00  0.00     0.021 C 
BRANCH  26  27
ATOM     27  C   UNL A   1      34.063  30.030  27.390  1.00  0.00     0.116 C 
BRANCH  27  28
ATOM     28  N   UNL A   1      34.690  31.051  28.217  1.00  0.00    -0.352 N 
ATOM     29  C   UNL A   1      35.895  31.028  28.895  1.00  0.00     0.251 C 
ATOM     30  H   UNL A   1      34.176  31.886  28.308  1.00  0.00     0.163 HD
ATOM     31  O   UNL A   1      36.225  31.976  29.593  1.00  0.00    -0.269 OA
BRANCH  29  32
ATOM     32  C   UNL A   1      36.853  29.921  28.653  1.00  0.00     0.039 A 
ATOM     33  C   UNL A   1      37.001  28.964  29.665  1.00  0.00     0.014 A 
ATOM     34  C   UNL A   1      37.731  29.937  27.573  1.00  0.00     0.014 A 
ATOM     35  C   UNL A   1      38.171  28.213  29.732  1.00  0.00     0.010 A 
ATOM     36  C   UNL A   1      38.932  29.266  27.684  1.00  0.00     0.010 A 
ATOM     37  C   UNL A   1      39.182  28.471  28.808  1.00  0.00    -0.014 A 
BRANCH  37  38
ATOM     38  C   UNL A   1      40.573  28.099  29.036  1.00  0.00     0.031 A 
ATOM     39  C   UNL A   1      41.132  26.851  28.484  1.00  0.00     0.074 A 
ATOM     40  C   UNL A   1      41.379  28.988  29.659  1.00  0.00     0.049 A 
ATOM     41  N   UNL A   1      42.204  26.277  28.916  1.00  0.00    -0.248 NA
ATOM     42  C   UNL A   1      40.481  26.113  27.412  1.00  0.00     0.031 C 
ATOM     43  C   UNL A   1      42.837  28.984  29.705  1.00  0.00     0.029 A 
ATOM     44  N   UNL A   1      41.002  30.002  30.559  1.00  0.00    -0.354 N 
ATOM     45  C   UNL A   1      42.546  25.288  28.021  1.00  0.00     0.074 A 
ATOM     46  C   UNL A   1      41.391  25.167  27.160  1.00  0.00     0.031 C 
ATOM     47  C   UNL A   1      43.238  29.712  30.759  1.00  0.00     0.029 A 
ATOM     48  C   UNL A   1      42.047  30.072  31.508  1.00  0.00     0.049 A 
ATOM     49  H   UNL A   1      40.184  30.548  30.532  1.00  0.00     0.167 HD
ATOM     50  C   UNL A   1      43.823  24.798  28.033  1.00  0.00     0.037 A 
ATOM     51  C   UNL A   1      41.835  29.769  32.822  1.00  0.00     0.037 A 
ATOM     52  C   UNL A   1      44.581  25.343  29.162  1.00  0.00     0.049 A 
ATOM     53  C   UNL A   1      42.686  28.635  33.340  1.00  0.00     0.074 A 
ATOM     54  C   UNL A   1      45.515  26.362  29.262  1.00  0.00     0.029 A 
ATOM     55  N   UNL A   1      44.200  25.032  30.465  1.00  0.00    -0.354 N 
ATOM     56  N   UNL A   1      43.284  27.767  32.572  1.00  0.00    -0.248 NA
ATOM     57  C   UNL A   1      42.894  28.360  34.760  1.00  0.00     0.031 C 
ATOM     58  C   UNL A   1      45.657  26.699  30.631  1.00  0.00     0.029 A 
ATOM     59  C   UNL A   1      44.822  25.875  31.365  1.00  0.00     0.049 A 
ATOM     60  H   UNL A   1      43.575  24.311  30.709  1.00  0.00     0.167 HD
ATOM     61  C   UNL A   1      43.911  26.828  33.346  1.00  0.00     0.074 A 
ATOM     62  C   UNL A   1      43.656  27.254  34.709  1.00  0.00     0.031 C 
ATOM     63  C   UNL A   1      44.568  25.767  32.793  1.00  0.00     0.037 A 
BRANCH  50  64
ATOM     64  C   UNL A   1      44.487  24.092  26.857  1.00  0.00     0.064 A 
ATOM     65  C   UNL A   1      44.265  22.714  26.625  1.00  0.00     0.173 A 
ATOM     66  C   UNL A   1      45.414  24.678  25.977  1.00  0.00     0.173 A 
ATOM     67  F   UNL A   1      43.310  22.036  27.275  1.00  0.00    -0.203 F 
ATOM     68  C   UNL A   1      45.015  21.970  25.707  1.00  0.00     0.198 A 
ATOM     69  C   UNL A   1      46.198  23.928  25.092  1.00  0.00     0.198 A 
ATOM     70  F   UNL A   1      45.550  26.003  25.881  1.00  0.00    -0.203 F 
ATOM     71  F   UNL A   1      44.770  20.660  25.557  1.00  0.00    -0.200 F 
ATOM     72  C   UNL A   1      46.012  22.569  24.970  1.00  0.00     0.200 A 
ATOM     73  F   UNL A   1      47.134  24.542  24.353  1.00  0.00    -0.200 F 
ATOM     74  F   UNL A   1      46.763  21.851  24.125  1.00  0.00    -0.200 F 
ENDBRANCH  50  64
BRANCH  51  75
ATOM     75  C   UNL A   1      40.456  30.070  33.284  1.00  0.00     0.064 A 
ATOM     76  C   UNL A   1      40.114  31.411  33.545  1.00  0.00     0.173 A 
ATOM     77  C   UNL A   1      39.411  29.154  33.120  1.00  0.00     0.173 A 
ATOM     78  F   UNL A   1      41.081  32.328  33.705  1.00  0.00    -0.203 F 
ATOM     79  C   UNL A   1      38.788  31.836  33.535  1.00  0.00     0.198 A 
ATOM     80  C   UNL A   1      38.081  29.583  33.120  1.00  0.00     0.198 A 
ATOM     81  F   UNL A   1      39.672  27.868  32.846  1.00  0.00    -0.203 F 
ATOM     82  F   UNL A   1      38.501  33.137  33.685  1.00  0.00    -0.200 F 
ATOM     83  C   UNL A   1      37.774  30.925  33.295  1.00  0.00     0.200 A 
ATOM     84  F   UNL A   1      37.100  28.707  32.856  1.00  0.00    -0.200 F 
ATOM     85  F   UNL A   1      36.504  31.344  33.195  1.00  0.00    -0.200 F 
ENDBRANCH  51  75
BRANCH  63  86
ATOM     86  C   UNL A   1      45.106  24.574  33.540  1.00  0.00     0.064 A 
ATOM     87  C   UNL A   1      44.350  23.426  33.827  1.00  0.00     0.173 A 
ATOM     88  C   UNL A   1      46.482  24.496  33.860  1.00  0.00     0.173 A 
ATOM     89  F   UNL A   1      43.060  23.337  33.473  1.00  0.00    -0.203 F 
ATOM     90  C   UNL A   1      44.916  22.303  34.438  1.00  0.00     0.198 A 
ATOM     91  C   UNL A   1      47.055  23.354  34.418  1.00  0.00     0.198 A 
ATOM     92  F   UNL A   1      47.315  25.519  33.617  1.00  0.00    -0.203 F 
ATOM     93  F   UNL A   1      44.145  21.245  34.724  1.00  0.00    -0.200 F 
ATOM     94  C   UNL A   1      46.269  22.262  34.719  1.00  0.00     0.200 A 
ATOM     95  F   UNL A   1      48.377  23.312  34.641  1.00  0.00    -0.200 F 
ATOM     96  F   UNL A   1      46.816  21.166  35.260  1.00  0.00    -0.200 F 
ENDBRANCH  63  86
ENDBRANCH  37  38
ENDBRANCH  29  32
ENDBRANCH  27  28
ENDBRANCH  26  27
ENDBRANCH  25  26
ENDBRANCH   1  25
TORSDOF 17
ENDMDL
MODEL 3
REMARK VINA RESULT:     -12.6      1.671      3.529
REMARK SMILES Cc1ccc(C[C@H](C(=O)NCCCCCCNC(=O)c2ccc(-c3c4nc(c(-c5c(F)c(F)c(F)c(F)c5F)c5ccc([nH]5)c(-c5c(F)c(F)c(F)c(F)c5F)c5nc(c(-c6c(F)c(F)c(F)c(F)c6F)c6ccc3[nH]6)C=C5)C=C4)cc2)[C@@H]2CCCC[C@@H]2O)cc1
REMARK SMILES IDX 13 1 12 2 11 3 10 4 8 5 9 6 7 8 6 9 5 10 1 11 2 12 3 13
REMARK SMILES IDX 91 14 4 15 90 16 83 17 84 18 88 19 85 20 87 21 86 22 89 23
REMARK SMILES IDX 14 25 15 26 16 27 17 28 18 29 19 31 20 32 21 33 82 34 22 35
REMARK SMILES IDX 81 36 23 37 24 38 25 39 75 40 26 41 80 42 74 43 76 44 27 45
REMARK SMILES IDX 79 46 73 47 72 48 28 50 60 51 40 52 59 53 41 54 44 55 58 56
REMARK SMILES IDX 77 57 42 58 43 59 57 61 78 62 45 63 29 64 30 65 38 66 31 67
REMARK SMILES IDX 32 68 36 69 39 70 33 71 34 72 37 73 35 74 61 75 62 76 70 77
REMARK SMILES IDX 63 78 64 79 68 80 71 81 65 82 66 83 69 84 67 85 46 86 47 87
REMARK SMILES IDX 55 88 48 89 49 90 53 91 56 92 50 93 51 94 54 95 52 96
REMARK H PARENT 10 7 89 24 17 30 76 49 44 60
REMARK Flexibility Score: inf
ROOT
ATOM      1  C   UNL A   1      32.439  28.676  25.577  1.00  0.00     0.002 C 
ENDROOT
BRANCH   1   2
ATOM      2  C   UNL A   1      33.713  28.399  24.766  1.00  0.00     0.021 C 
BRANCH   2   3
ATOM      3  C   UNL A   1      33.743  28.973  23.341  1.00  0.00     0.116 C 
BRANCH   3   4
ATOM      4  N   UNL A   1      33.845  27.899  22.383  1.00  0.00    -0.356 N 
ATOM      5  C   UNL A   1      33.194  26.729  22.203  1.00  0.00     0.223 C 
ATOM      6  O   UNL A   1      33.651  26.081  21.257  1.00  0.00    -0.275 OA
ATOM      7  H   UNL A   1      34.546  28.053  21.710  1.00  0.00     0.163 HD
BRANCH   5   8
ATOM      8  C   UNL A   1      31.944  26.269  23.004  1.00  0.00     0.088 C 
BRANCH   8   9
ATOM      9  C   UNL A   1      30.693  26.704  22.151  1.00  0.00     0.049 C 
BRANCH   9  10
ATOM     10  C   UNL A   1      29.913  27.980  22.447  1.00  0.00    -0.047 A 
ATOM     11  C   UNL A   1      27.673  31.541  23.511  1.00  0.00     0.044 C 
ATOM     12  C   UNL A   1      28.419  30.299  23.129  1.00  0.00    -0.051 A 
ATOM     13  C   UNL A   1      29.643  30.405  22.471  1.00  0.00     0.004 A 
ATOM     14  C   UNL A   1      27.940  29.028  23.449  1.00  0.00     0.004 A 
ATOM     15  C   UNL A   1      30.368  29.262  22.125  1.00  0.00     0.004 A 
ATOM     16  C   UNL A   1      28.683  27.884  23.125  1.00  0.00     0.004 A 
ENDBRANCH   9  10
ENDBRANCH   8   9
BRANCH   8  17
ATOM     17  C   UNL A   1      31.913  24.760  23.485  1.00  0.00     0.030 C 
ATOM     18  C   UNL A   1      30.657  24.326  24.292  1.00  0.00     0.007 C 
ATOM     19  C   UNL A   1      33.079  24.307  24.404  1.00  0.00     0.118 C 
ATOM     20  C   UNL A   1      30.554  24.986  25.670  1.00  0.00     0.001 C 
ATOM     21  C   UNL A   1      33.088  25.030  25.755  1.00  0.00     0.032 C 
ATOM     22  C   UNL A   1      31.798  24.757  26.522  1.00  0.00     0.003 C 
BRANCH  19  23
ATOM     23  O   UNL A   1      34.337  24.409  23.784  1.00  0.00    -0.393 OA
ATOM     24  H   UNL A   1      34.222  24.712  22.870  1.00  0.00     0.210 HD
ENDBRANCH  19  23
ENDBRANCH   8  17
ENDBRANCH   5   8
ENDBRANCH   3   4
ENDBRANCH   2   3
ENDBRANCH   1   2
BRANCH   1  25
ATOM     25  C   UNL A   1      31.865  30.095  25.495  1.00  0.00     0.002 C 
BRANCH  25  26
ATOM     26  C   UNL A   1      32.145  30.998  26.693  1.00  0.00     0.021 C 
BRANCH  26  27
ATOM     27  C   UNL A   1      33.243  30.503  27.626  1.00  0.00     0.116 C 
BRANCH  27  28
ATOM     28  N   UNL A   1      34.025  31.572  28.229  1.00  0.00    -0.352 N 
ATOM     29  C   UNL A   1      35.292  31.540  28.785  1.00  0.00     0.251 C 
ATOM     30  H   UNL A   1      33.586  32.453  28.244  1.00  0.00     0.163 HD
ATOM     31  O   UNL A   1      35.761  32.545  29.300  1.00  0.00    -0.269 OA
BRANCH  29  32
ATOM     32  C   UNL A   1      36.137  30.333  28.618  1.00  0.00     0.039 A 
ATOM     33  C   UNL A   1      36.424  29.584  29.768  1.00  0.00     0.014 A 
ATOM     34  C   UNL A   1      36.802  30.063  27.426  1.00  0.00     0.014 A 
ATOM     35  C   UNL A   1      37.550  28.767  29.789  1.00  0.00     0.010 A 
ATOM     36  C   UNL A   1      37.971  29.330  27.469  1.00  0.00     0.010 A 
ATOM     37  C   UNL A   1      38.386  28.754  28.674  1.00  0.00    -0.014 A 
BRANCH  37  38
ATOM     38  C   UNL A   1      39.777  28.321  28.734  1.00  0.00     0.031 A 
ATOM     39  C   UNL A   1      40.164  26.942  28.382  1.00  0.00     0.074 A 
ATOM     40  C   UNL A   1      40.724  29.248  28.998  1.00  0.00     0.049 A 
ATOM     41  N   UNL A   1      41.271  26.381  28.738  1.00  0.00    -0.248 NA
ATOM     42  C   UNL A   1      39.291  26.056  27.627  1.00  0.00     0.031 C 
ATOM     43  C   UNL A   1      42.163  29.130  28.791  1.00  0.00     0.029 A 
ATOM     44  N   UNL A   1      40.569  30.455  29.704  1.00  0.00    -0.354 N 
ATOM     45  C   UNL A   1      41.394  25.202  28.036  1.00  0.00     0.074 A 
ATOM     46  C   UNL A   1      40.094  25.004  27.435  1.00  0.00     0.031 C 
ATOM     47  C   UNL A   1      42.787  30.024  29.573  1.00  0.00     0.029 A 
ATOM     48  C   UNL A   1      41.775  30.631  30.420  1.00  0.00     0.049 A 
ATOM     49  H   UNL A   1      39.786  31.051  29.699  1.00  0.00     0.167 HD
ATOM     50  C   UNL A   1      42.627  24.619  27.935  1.00  0.00     0.037 A 
ATOM     51  C   UNL A   1      41.799  30.627  31.784  1.00  0.00     0.037 A 
ATOM     52  C   UNL A   1      43.607  25.320  28.769  1.00  0.00     0.049 A 
ATOM     53  C   UNL A   1      42.680  29.557  32.384  1.00  0.00     0.074 A 
ATOM     54  C   UNL A   1      44.589  26.254  28.479  1.00  0.00     0.029 A 
ATOM     55  N   UNL A   1      43.462  25.320  30.153  1.00  0.00    -0.354 N 
ATOM     56  N   UNL A   1      43.083  28.501  31.734  1.00  0.00    -0.248 NA
ATOM     57  C   UNL A   1      43.136  29.566  33.771  1.00  0.00     0.031 C 
ATOM     58  C   UNL A   1      44.999  26.855  29.695  1.00  0.00     0.029 A 
ATOM     59  C   UNL A   1      44.280  26.276  30.725  1.00  0.00     0.049 A 
ATOM     60  H   UNL A   1      42.862  24.721  30.654  1.00  0.00     0.167 HD
ATOM     61  C   UNL A   1      43.799  27.693  32.575  1.00  0.00     0.074 A 
ATOM     62  C   UNL A   1      43.824  28.413  33.834  1.00  0.00     0.031 C 
ATOM     63  C   UNL A   1      44.293  26.488  32.163  1.00  0.00     0.037 A 
BRANCH  50  64
ATOM     64  C   UNL A   1      43.026  23.630  26.846  1.00  0.00     0.064 A 
ATOM     65  C   UNL A   1      42.709  22.257  26.968  1.00  0.00     0.173 A 
ATOM     66  C   UNL A   1      43.792  23.942  25.709  1.00  0.00     0.173 A 
ATOM     67  F   UNL A   1      41.869  21.810  27.910  1.00  0.00    -0.203 F 
ATOM     68  C   UNL A   1      43.240  21.278  26.120  1.00  0.00     0.198 A 
ATOM     69  C   UNL A   1      44.362  22.961  24.887  1.00  0.00     0.198 A 
ATOM     70  F   UNL A   1      43.961  25.202  25.299  1.00  0.00    -0.203 F 
ATOM     71  F   UNL A   1      42.918  19.990  26.309  1.00  0.00    -0.200 F 
ATOM     72  C   UNL A   1      44.102  21.627  25.105  1.00  0.00     0.200 A 
ATOM     73  F   UNL A   1      45.165  23.329  23.877  1.00  0.00    -0.200 F 
ATOM     74  F   UNL A   1      44.649  20.688  24.321  1.00  0.00    -0.200 F 
ENDBRANCH  50  64
BRANCH  51  75
ATOM     75  C   UNL A   1      40.546  31.134  32.400  1.00  0.00     0.064 A 
ATOM     76  C   UNL A   1      40.310  32.522  32.393  1.00  0.00     0.173 A 
ATOM     77  C   UNL A   1      39.456  30.291  32.646  1.00  0.00     0.173 A 
ATOM     78  F   UNL A   1      41.322  33.371  32.157  1.00  0.00    -0.203 F 
ATOM     79  C   UNL A   1      39.022  33.037  32.519  1.00  0.00     0.198 A 
ATOM     80  C   UNL A   1      38.168  30.813  32.781  1.00  0.00     0.198 A 
ATOM     81  F   UNL A   1      39.613  28.960  32.642  1.00  0.00    -0.203 F 
ATOM     82  F   UNL A   1      38.817  34.358  32.406  1.00  0.00    -0.200 F 
ATOM     83  C   UNL A   1      37.949  32.180  32.686  1.00  0.00     0.200 A 
ATOM     84  F   UNL A   1      37.124  29.982  32.910  1.00  0.00    -0.200 F 
ATOM     85  F   UNL A   1      36.699  32.666  32.717  1.00  0.00    -0.200 F 
ENDBRANCH  51  75
BRANCH  63  86
ATOM     86  C   UNL A   1      44.906  25.435  33.050  1.00  0.00     0.064 A 
ATOM     87  C   UNL A   1      46.282  25.164  33.104  1.00  0.00     0.173 A 
ATOM     88  C   UNL A   1      44.110  24.761  34.007  1.00  0.00     0.173 A 
ATOM     89  F   UNL A   1      47.151  25.820  32.323  1.00  0.00    -0.203 F 
ATOM     90  C   UNL A   1      46.818  24.245  34.012  1.00  0.00     0.198 A 
ATOM     91  C   UNL A   1      44.655  23.887  34.947  1.00  0.00     0.198 A 
ATOM     92  F   UNL A   1      42.784  24.949  34.071  1.00  0.00    -0.203 F 
ATOM     93  F   UNL A   1      48.134  23.994  34.001  1.00  0.00    -0.200 F 
ATOM     94  C   UNL A   1      46.008  23.619  34.941  1.00  0.00     0.200 A 
ATOM     95  F   UNL A   1      43.864  23.325  35.872  1.00  0.00    -0.200 F 
ATOM     96  F   UNL A   1      46.533  22.776  35.839  1.00  0.00    -0.200 F 
ENDBRANCH  63  86
ENDBRANCH  37  38
ENDBRANCH  29  32
ENDBRANCH  27  28
ENDBRANCH  26  27
ENDBRANCH  25  26
ENDBRANCH   1  25
TORSDOF 17
ENDMDL
