MODEL 1
REMARK VINA RESULT:     -11.6      0.000      0.000
REMARK SMILES CC(C)n1cncc1[C@@H](NC(=O)OC(C)(C)C)C(=O)NCCCCCCNC(=O)c1ccc(-c2c3nc(c(-c4c(F)c(F)c(F)c(F)c4F)c4ccc([nH]4)c(-c4c(F)c(F)c(F)c(F)c4F)c4nc(c(-c5c(F)c(F)c(F)c(F)c5F)c5ccc2[nH]5)C=C4)C=C3)cc1
REMARK SMILES IDX 23 1 22 2 21 3 20 4 18 5 19 6 9 8 8 9 4 10 5 11 6 12 7 13
REMARK SMILES IDX 2 14 1 15 3 16 10 17 11 18 12 20 13 21 14 22 15 23 16 24
REMARK SMILES IDX 17 25 24 26 25 27 26 28 27 29 28 30 29 32 30 33 31 34 92 35
REMARK SMILES IDX 32 36 91 37 33 38 34 39 35 40 85 41 36 42 90 43 84 44 86 45
REMARK SMILES IDX 37 46 89 47 83 48 82 49 38 51 70 52 50 53 69 54 51 55 54 56
REMARK SMILES IDX 68 57 87 58 52 59 53 60 67 62 88 63 55 64 39 65 40 66 48 67
REMARK SMILES IDX 41 68 42 69 46 70 49 71 43 72 44 73 47 74 45 75 71 76 72 77
REMARK SMILES IDX 80 78 73 79 74 80 78 81 81 82 75 83 76 84 79 85 77 86 56 87
REMARK SMILES IDX 57 88 65 89 58 90 59 91 63 92 66 93 60 94 61 95 64 96 62 97
REMARK H PARENT 20 7 10 19 27 31 86 50 54 61
REMARK Flexibility Score: inf
ROOT
ATOM      1  C   UNL A   1      39.465  21.223  25.866  1.00  0.00     0.002 C 
ENDROOT
BRANCH   1   2
ATOM      2  C   UNL A   1      38.929  22.586  26.304  1.00  0.00     0.021 C 
BRANCH   2   3
ATOM      3  C   UNL A   1      37.479  22.800  25.907  1.00  0.00     0.116 C 
BRANCH   3   4
ATOM      4  N   UNL A   1      37.317  22.915  24.479  1.00  0.00    -0.354 N 
ATOM      5  C   UNL A   1      36.169  22.871  23.744  1.00  0.00     0.248 C 
ATOM      6  O   UNL A   1      36.286  22.943  22.513  1.00  0.00    -0.272 OA
ATOM      7  H   UNL A   1      38.148  23.044  23.966  1.00  0.00     0.163 HD
BRANCH   5   8
ATOM      8  C   UNL A   1      34.775  22.582  24.384  1.00  0.00     0.223 C 
BRANCH   8   9
ATOM      9  C   UNL A   1      34.205  23.909  24.873  1.00  0.00     0.070 A 
ATOM     10  N   UNL A   1      33.418  24.173  25.986  1.00  0.00    -0.330 N 
ATOM     11  C   UNL A   1      33.340  25.550  26.097  1.00  0.00     0.199 A 
ATOM     12  N   UNL A   1      33.918  26.170  25.103  1.00  0.00    -0.245 NA
ATOM     13  C   UNL A   1      34.415  25.174  24.327  1.00  0.00     0.137 A 
BRANCH  10  14
ATOM     14  C   UNL A   1      32.609  23.335  26.872  1.00  0.00     0.082 C 
ATOM     15  C   UNL A   1      31.340  22.716  26.302  1.00  0.00     0.031 C 
ATOM     16  C   UNL A   1      33.441  22.248  27.571  1.00  0.00     0.031 C 
ENDBRANCH  10  14
ENDBRANCH   8   9
BRANCH   8  17
ATOM     17  N   UNL A   1      33.737  21.936  23.582  1.00  0.00    -0.304 N 
ATOM     18  C   UNL A   1      33.058  20.775  23.829  1.00  0.00     0.408 C 
ATOM     19  H   UNL A   1      33.494  22.402  22.749  1.00  0.00     0.168 HD
ATOM     20  O   UNL A   1      31.996  20.554  23.279  1.00  0.00    -0.225 OA
BRANCH  18  21
ATOM     21  O   UNL A   1      33.743  19.898  24.602  1.00  0.00    -0.444 OA
BRANCH  21  22
ATOM     22  C   UNL A   1      33.571  18.458  24.438  1.00  0.00     0.106 C 
ATOM     23  C   UNL A   1      32.814  18.136  23.150  1.00  0.00     0.056 C 
ATOM     24  C   UNL A   1      34.902  17.687  24.497  1.00  0.00     0.056 C 
ATOM     25  C   UNL A   1      32.708  18.019  25.634  1.00  0.00     0.056 C 
ENDBRANCH  21  22
ENDBRANCH  18  21
ENDBRANCH   8  17
ENDBRANCH   5   8
ENDBRANCH   3   4
ENDBRANCH   2   3
ENDBRANCH   1   2
BRANCH   1  26
ATOM     26  C   UNL A   1      40.751  20.750  26.565  1.00  0.00     0.002 C 
BRANCH  26  27
ATOM     27  C   UNL A   1      41.427  19.494  25.995  1.00  0.00     0.021 C 
BRANCH  27  28
ATOM     28  C   UNL A   1      42.840  19.274  26.510  1.00  0.00     0.116 C 
BRANCH  28  29
ATOM     29  N   UNL A   1      43.801  19.187  25.414  1.00  0.00    -0.352 N 
ATOM     30  C   UNL A   1      44.324  20.198  24.642  1.00  0.00     0.251 C 
ATOM     31  H   UNL A   1      44.118  18.281  25.198  1.00  0.00     0.163 HD
ATOM     32  O   UNL A   1      44.838  19.960  23.556  1.00  0.00    -0.269 OA
BRANCH  30  33
ATOM     33  C   UNL A   1      44.254  21.578  25.140  1.00  0.00     0.039 A 
ATOM     34  C   UNL A   1      43.297  22.463  24.641  1.00  0.00     0.014 A 
ATOM     35  C   UNL A   1      45.147  21.973  26.136  1.00  0.00     0.014 A 
ATOM     36  C   UNL A   1      43.193  23.725  25.215  1.00  0.00     0.010 A 
ATOM     37  C   UNL A   1      44.963  23.169  26.786  1.00  0.00     0.010 A 
ATOM     38  C   UNL A   1      44.013  24.061  26.305  1.00  0.00    -0.014 A 
BRANCH  38  39
ATOM     39  C   UNL A   1      43.793  25.310  27.023  1.00  0.00     0.031 A 
ATOM     40  C   UNL A   1      44.772  26.383  26.706  1.00  0.00     0.074 A 
ATOM     41  C   UNL A   1      42.699  25.557  27.772  1.00  0.00     0.049 A 
ATOM     42  N   UNL A   1      45.684  26.864  27.484  1.00  0.00    -0.248 NA
ATOM     43  C   UNL A   1      44.834  26.894  25.328  1.00  0.00     0.031 C 
ATOM     44  C   UNL A   1      41.492  24.739  27.926  1.00  0.00     0.029 A 
ATOM     45  N   UNL A   1      42.402  26.669  28.499  1.00  0.00    -0.354 N 
ATOM     46  C   UNL A   1      46.321  27.869  26.761  1.00  0.00     0.074 A 
ATOM     47  C   UNL A   1      45.874  27.731  25.399  1.00  0.00     0.031 C 
ATOM     48  C   UNL A   1      40.518  25.475  28.506  1.00  0.00     0.029 A 
ATOM     49  C   UNL A   1      41.081  26.747  28.918  1.00  0.00     0.049 A 
ATOM     50  H   UNL A   1      43.070  27.361  28.710  1.00  0.00     0.167 HD
ATOM     51  C   UNL A   1      46.983  28.874  27.401  1.00  0.00     0.037 A 
ATOM     52  C   UNL A   1      40.491  27.798  29.539  1.00  0.00     0.037 A 
ATOM     53  C   UNL A   1      47.210  28.539  28.786  1.00  0.00     0.049 A 
ATOM     54  C   UNL A   1      41.574  28.624  30.128  1.00  0.00     0.074 A 
ATOM     55  C   UNL A   1      47.899  27.543  29.448  1.00  0.00     0.029 A 
ATOM     56  N   UNL A   1      46.355  29.085  29.712  1.00  0.00    -0.354 N 
ATOM     57  N   UNL A   1      42.321  28.240  31.124  1.00  0.00    -0.248 NA
ATOM     58  C   UNL A   1      42.115  29.707  29.321  1.00  0.00     0.031 C 
ATOM     59  C   UNL A   1      47.091  27.228  30.582  1.00  0.00     0.029 A 
ATOM     60  C   UNL A   1      45.995  28.093  30.584  1.00  0.00     0.049 A 
ATOM     61  H   UNL A   1      46.056  30.022  29.743  1.00  0.00     0.167 HD
ATOM     62  C   UNL A   1      43.590  28.698  30.803  1.00  0.00     0.074 A 
ATOM     63  C   UNL A   1      43.381  29.685  29.746  1.00  0.00     0.031 C 
ATOM     64  C   UNL A   1      44.702  28.024  31.222  1.00  0.00     0.037 A 
BRANCH  51  65
ATOM     65  C   UNL A   1      47.080  30.300  26.913  1.00  0.00     0.064 A 
ATOM     66  C   UNL A   1      48.323  30.964  26.993  1.00  0.00     0.173 A 
ATOM     67  C   UNL A   1      45.963  31.131  26.682  1.00  0.00     0.173 A 
ATOM     68  F   UNL A   1      49.452  30.276  27.221  1.00  0.00    -0.203 F 
ATOM     69  C   UNL A   1      48.422  32.357  26.945  1.00  0.00     0.198 A 
ATOM     70  C   UNL A   1      46.074  32.517  26.580  1.00  0.00     0.198 A 
ATOM     71  F   UNL A   1      44.713  30.656  26.664  1.00  0.00    -0.203 F 
ATOM     72  F   UNL A   1      49.603  32.948  27.167  1.00  0.00    -0.200 F 
ATOM     73  C   UNL A   1      47.295  33.133  26.748  1.00  0.00     0.200 A 
ATOM     74  F   UNL A   1      44.967  33.253  26.407  1.00  0.00    -0.200 F 
ATOM     75  F   UNL A   1      47.375  34.469  26.771  1.00  0.00    -0.200 F 
ENDBRANCH  51  65
BRANCH  52  76
ATOM     76  C   UNL A   1      39.097  28.284  29.433  1.00  0.00     0.064 A 
ATOM     77  C   UNL A   1      38.305  28.460  30.581  1.00  0.00     0.173 A 
ATOM     78  C   UNL A   1      38.615  28.865  28.244  1.00  0.00     0.173 A 
ATOM     79  F   UNL A   1      38.711  27.971  31.762  1.00  0.00    -0.203 F 
ATOM     80  C   UNL A   1      37.124  29.208  30.549  1.00  0.00     0.198 A 
ATOM     81  C   UNL A   1      37.432  29.606  28.213  1.00  0.00     0.198 A 
ATOM     82  F   UNL A   1      39.331  28.809  27.113  1.00  0.00    -0.203 F 
ATOM     83  F   UNL A   1      36.433  29.415  31.680  1.00  0.00    -0.200 F 
ATOM     84  C   UNL A   1      36.696  29.792  29.368  1.00  0.00     0.200 A 
ATOM     85  F   UNL A   1      37.046  30.194  27.073  1.00  0.00    -0.200 F 
ATOM     86  F   UNL A   1      35.602  30.566  29.353  1.00  0.00    -0.200 F 
ENDBRANCH  52  76
BRANCH  64  87
ATOM     87  C   UNL A   1      44.524  26.973  32.283  1.00  0.00     0.064 A 
ATOM     88  C   UNL A   1      44.399  27.241  33.658  1.00  0.00     0.173 A 
ATOM     89  C   UNL A   1      44.343  25.648  31.867  1.00  0.00     0.173 A 
ATOM     90  F   UNL A   1      44.460  28.493  34.128  1.00  0.00    -0.203 F 
ATOM     91  C   UNL A   1      44.150  26.219  34.573  1.00  0.00     0.198 A 
ATOM     92  C   UNL A   1      44.056  24.635  32.777  1.00  0.00     0.198 A 
ATOM     93  F   UNL A   1      44.401  25.340  30.561  1.00  0.00    -0.203 F 
ATOM     94  F   UNL A   1      44.053  26.497  35.881  1.00  0.00    -0.200 F 
ATOM     95  C   UNL A   1      43.973  24.918  34.131  1.00  0.00     0.200 A 
ATOM     96  F   UNL A   1      43.837  23.389  32.339  1.00  0.00    -0.200 F 
ATOM     97  F   UNL A   1      43.695  23.942  35.006  1.00  0.00    -0.200 F 
ENDBRANCH  64  87
ENDBRANCH  38  39
ENDBRANCH  30  33
ENDBRANCH  28  29
ENDBRANCH  27  28
ENDBRANCH  26  27
ENDBRANCH   1  26
TORSDOF 18
ENDMDL
MODEL 2
REMARK VINA RESULT:     -11.5      1.328      2.856
REMARK SMILES CC(C)n1cncc1[C@@H](NC(=O)OC(C)(C)C)C(=O)NCCCCCCNC(=O)c1ccc(-c2c3nc(c(-c4c(F)c(F)c(F)c(F)c4F)c4ccc([nH]4)c(-c4c(F)c(F)c(F)c(F)c4F)c4nc(c(-c5c(F)c(F)c(F)c(F)c5F)c5ccc2[nH]5)C=C4)C=C3)cc1
REMARK SMILES IDX 23 1 22 2 21 3 20 4 18 5 19 6 9 8 8 9 4 10 5 11 6 12 7 13
REMARK SMILES IDX 2 14 1 15 3 16 10 17 11 18 12 20 13 21 14 22 15 23 16 24
REMARK SMILES IDX 17 25 24 26 25 27 26 28 27 29 28 30 29 32 30 33 31 34 92 35
REMARK SMILES IDX 32 36 91 37 33 38 34 39 35 40 85 41 36 42 90 43 84 44 86 45
REMARK SMILES IDX 37 46 89 47 83 48 82 49 38 51 70 52 50 53 69 54 51 55 54 56
REMARK SMILES IDX 68 57 87 58 52 59 53 60 67 62 88 63 55 64 39 65 40 66 48 67
REMARK SMILES IDX 41 68 42 69 46 70 49 71 43 72 44 73 47 74 45 75 71 76 72 77
REMARK SMILES IDX 80 78 73 79 74 80 78 81 81 82 75 83 76 84 79 85 77 86 56 87
REMARK SMILES IDX 57 88 65 89 58 90 59 91 63 92 66 93 60 94 61 95 64 96 62 97
REMARK H PARENT 20 7 10 19 27 31 86 50 54 61
REMARK Flexibility Score: inf
ROOT
ATOM      1  C   UNL A   1      39.052  21.853  26.118  1.00  0.00     0.002 C 
ENDROOT
BRANCH   1   2
ATOM      2  C   UNL A   1      38.529  23.234  26.513  1.00  0.00     0.021 C 
BRANCH   2   3
ATOM      3  C   UNL A   1      37.302  23.645  25.719  1.00  0.00     0.116 C 
BRANCH   3   4
ATOM      4  N   UNL A   1      37.362  23.188  24.352  1.00  0.00    -0.354 N 
ATOM      5  C   UNL A   1      36.429  23.324  23.366  1.00  0.00     0.248 C 
ATOM      6  O   UNL A   1      36.685  22.800  22.273  1.00  0.00    -0.272 OA
ATOM      7  H   UNL A   1      38.187  22.716  24.096  1.00  0.00     0.163 HD
BRANCH   5   8
ATOM      8  C   UNL A   1      35.028  23.962  23.620  1.00  0.00     0.223 C 
BRANCH   8   9
ATOM      9  C   UNL A   1      33.975  22.895  23.341  1.00  0.00     0.070 A 
ATOM     10  N   UNL A   1      33.672  21.747  24.062  1.00  0.00    -0.330 N 
ATOM     11  C   UNL A   1      32.512  21.230  23.511  1.00  0.00     0.199 A 
ATOM     12  N   UNL A   1      32.118  21.889  22.454  1.00  0.00    -0.245 NA
ATOM     13  C   UNL A   1      33.029  22.885  22.318  1.00  0.00     0.137 A 
BRANCH  10  14
ATOM     14  C   UNL A   1      34.382  20.982  25.087  1.00  0.00     0.082 C 
ATOM     15  C   UNL A   1      34.162  21.371  26.543  1.00  0.00     0.031 C 
ATOM     16  C   UNL A   1      34.191  19.467  24.926  1.00  0.00     0.031 C 
ENDBRANCH  10  14
ENDBRANCH   8   9
BRANCH   8  17
ATOM     17  N   UNL A   1      34.727  24.531  24.933  1.00  0.00    -0.304 N 
ATOM     18  C   UNL A   1      34.014  25.659  25.238  1.00  0.00     0.408 C 
ATOM     19  H   UNL A   1      35.086  24.034  25.704  1.00  0.00     0.168 HD
ATOM     20  O   UNL A   1      33.545  25.809  26.350  1.00  0.00    -0.225 OA
BRANCH  18  21
ATOM     21  O   UNL A   1      34.021  26.589  24.253  1.00  0.00    -0.444 OA
BRANCH  21  22
ATOM     22  C   UNL A   1      32.785  26.988  23.587  1.00  0.00     0.106 C 
ATOM     23  C   UNL A   1      31.688  25.944  23.791  1.00  0.00     0.056 C 
ATOM     24  C   UNL A   1      32.298  28.383  24.017  1.00  0.00     0.056 C 
ATOM     25  C   UNL A   1      33.136  27.042  22.090  1.00  0.00     0.056 C 
ENDBRANCH  21  22
ENDBRANCH  18  21
ENDBRANCH   8  17
ENDBRANCH   5   8
ENDBRANCH   3   4
ENDBRANCH   2   3
ENDBRANCH   1   2
BRANCH   1  26
ATOM     26  C   UNL A   1      40.326  21.385  26.842  1.00  0.00     0.002 C 
BRANCH  26  27
ATOM     27  C   UNL A   1      40.944  20.061  26.368  1.00  0.00     0.021 C 
BRANCH  27  28
ATOM     28  C   UNL A   1      42.286  19.748  27.010  1.00  0.00     0.116 C 
BRANCH  28  29
ATOM     29  N   UNL A   1      43.332  19.574  26.007  1.00  0.00    -0.352 N 
ATOM     30  C   UNL A   1      43.957  20.528  25.237  1.00  0.00     0.251 C 
ATOM     31  H   UNL A   1      43.631  18.649  25.861  1.00  0.00     0.163 HD
ATOM     32  O   UNL A   1      44.552  20.218  24.212  1.00  0.00    -0.269 OA
BRANCH  30  33
ATOM     33  C   UNL A   1      43.899  21.932  25.664  1.00  0.00     0.039 A 
ATOM     34  C   UNL A   1      43.042  22.831  25.025  1.00  0.00     0.014 A 
ATOM     35  C   UNL A   1      44.699  22.338  26.731  1.00  0.00     0.014 A 
ATOM     36  C   UNL A   1      42.936  24.123  25.528  1.00  0.00     0.010 A 
ATOM     37  C   UNL A   1      44.502  23.571  27.304  1.00  0.00     0.010 A 
ATOM     38  C   UNL A   1      43.651  24.477  26.684  1.00  0.00    -0.014 A 
BRANCH  38  39
ATOM     39  C   UNL A   1      43.413  25.768  27.318  1.00  0.00     0.031 A 
ATOM     40  C   UNL A   1      44.371  26.834  26.922  1.00  0.00     0.074 A 
ATOM     41  C   UNL A   1      42.321  26.045  28.058  1.00  0.00     0.049 A 
ATOM     42  N   UNL A   1      45.280  27.382  27.657  1.00  0.00    -0.248 NA
ATOM     43  C   UNL A   1      44.414  27.251  25.512  1.00  0.00     0.031 C 
ATOM     44  C   UNL A   1      41.130  25.219  28.277  1.00  0.00     0.029 A 
ATOM     45  N   UNL A   1      42.010  27.199  28.711  1.00  0.00    -0.354 N 
ATOM     46  C   UNL A   1      45.894  28.347  26.863  1.00  0.00     0.074 A 
ATOM     47  C   UNL A   1      45.440  28.109  25.517  1.00  0.00     0.031 C 
ATOM     48  C   UNL A   1      40.147  25.976  28.815  1.00  0.00     0.029 A 
ATOM     49  C   UNL A   1      40.691  27.283  29.135  1.00  0.00     0.049 A 
ATOM     50  H   UNL A   1      42.667  27.915  28.869  1.00  0.00     0.167 HD
ATOM     51  C   UNL A   1      46.542  29.403  27.428  1.00  0.00     0.037 A 
ATOM     52  C   UNL A   1      40.087  28.363  29.689  1.00  0.00     0.037 A 
ATOM     53  C   UNL A   1      46.786  29.167  28.830  1.00  0.00     0.049 A 
ATOM     54  C   UNL A   1      41.159  29.245  30.211  1.00  0.00     0.074 A 
ATOM     55  C   UNL A   1      47.497  28.230  29.553  1.00  0.00     0.029 A 
ATOM     56  N   UNL A   1      45.928  29.759  29.725  1.00  0.00    -0.354 N 
ATOM     57  N   UNL A   1      41.920  28.942  31.224  1.00  0.00    -0.248 NA
ATOM     58  C   UNL A   1      41.675  30.280  29.329  1.00  0.00     0.031 C 
ATOM     59  C   UNL A   1      46.703  27.978  30.712  1.00  0.00     0.029 A 
ATOM     60  C   UNL A   1      45.592  28.822  30.664  1.00  0.00     0.049 A 
ATOM     61  H   UNL A   1      45.613  30.691  29.695  1.00  0.00     0.167 HD
ATOM     62  C   UNL A   1      43.178  29.399  30.863  1.00  0.00     0.074 A 
ATOM     63  C   UNL A   1      42.945  30.309  29.744  1.00  0.00     0.031 C 
ATOM     64  C   UNL A   1      44.305  28.775  31.317  1.00  0.00     0.037 A 
BRANCH  51  65
ATOM     65  C   UNL A   1      46.611  30.794  26.844  1.00  0.00     0.064 A 
ATOM     66  C   UNL A   1      47.845  31.479  26.857  1.00  0.00     0.173 A 
ATOM     67  C   UNL A   1      45.479  31.593  26.579  1.00  0.00     0.173 A 
ATOM     68  F   UNL A   1      48.988  30.823  27.110  1.00  0.00    -0.203 F 
ATOM     69  C   UNL A   1      47.923  32.867  26.714  1.00  0.00     0.198 A 
ATOM     70  C   UNL A   1      45.567  32.971  26.383  1.00  0.00     0.198 A 
ATOM     71  F   UNL A   1      44.235  31.102  26.615  1.00  0.00    -0.203 F 
ATOM     72  F   UNL A   1      49.100  33.487  26.875  1.00  0.00    -0.200 F 
ATOM     73  C   UNL A   1      46.783  33.613  26.487  1.00  0.00     0.200 A 
ATOM     74  F   UNL A   1      44.447  33.679  26.181  1.00  0.00    -0.200 F 
ATOM     75  F   UNL A   1      46.844  34.948  26.419  1.00  0.00    -0.200 F 
ENDBRANCH  51  65
BRANCH  52  76
ATOM     76  C   UNL A   1      38.683  28.816  29.563  1.00  0.00     0.064 A 
ATOM     77  C   UNL A   1      37.900  29.063  30.702  1.00  0.00     0.173 A 
ATOM     78  C   UNL A   1      38.180  29.300  28.339  1.00  0.00     0.173 A 
ATOM     79  F   UNL A   1      38.324  28.669  31.912  1.00  0.00    -0.203 F 
ATOM     80  C   UNL A   1      36.705  29.787  30.628  1.00  0.00     0.198 A 
ATOM     81  C   UNL A   1      36.985  30.017  28.266  1.00  0.00     0.198 A 
ATOM     82  F   UNL A   1      38.887  29.173  27.207  1.00  0.00    -0.203 F 
ATOM     83  F   UNL A   1      36.021  30.065  31.748  1.00  0.00    -0.200 F 
ATOM     84  C   UNL A   1      36.256  30.275  29.412  1.00  0.00     0.200 A 
ATOM     85  F   UNL A   1      36.578  30.514  27.090  1.00  0.00    -0.200 F 
ATOM     86  F   UNL A   1      35.149  31.028  29.351  1.00  0.00    -0.200 F 
ENDBRANCH  52  76
BRANCH  64  87
ATOM     87  C   UNL A   1      44.153  27.794  32.448  1.00  0.00     0.064 A 
ATOM     88  C   UNL A   1      44.033  26.402  32.285  1.00  0.00     0.173 A 
ATOM     89  C   UNL A   1      44.266  28.282  33.756  1.00  0.00     0.173 A 
ATOM     90  F   UNL A   1      44.018  25.846  31.068  1.00  0.00    -0.203 F 
ATOM     91  C   UNL A   1      43.983  25.549  33.386  1.00  0.00     0.198 A 
ATOM     92  C   UNL A   1      44.255  27.425  34.852  1.00  0.00     0.198 A 
ATOM     93  F   UNL A   1      44.434  29.597  33.971  1.00  0.00    -0.203 F 
ATOM     94  F   UNL A   1      43.850  24.226  33.206  1.00  0.00    -0.200 F 
ATOM     95  C   UNL A   1      44.100  26.060  34.668  1.00  0.00     0.200 A 
ATOM     96  F   UNL A   1      44.419  27.920  36.086  1.00  0.00    -0.200 F 
ATOM     97  F   UNL A   1      44.092  25.236  35.725  1.00  0.00    -0.200 F 
ENDBRANCH  64  87
ENDBRANCH  38  39
ENDBRANCH  30  33
ENDBRANCH  28  29
ENDBRANCH  27  28
ENDBRANCH  26  27
ENDBRANCH   1  26
TORSDOF 18
ENDMDL
MODEL 3
REMARK VINA RESULT:     -11.5      2.982      8.450
REMARK SMILES CC(C)n1cncc1[C@@H](NC(=O)OC(C)(C)C)C(=O)NCCCCCCNC(=O)c1ccc(-c2c3nc(c(-c4c(F)c(F)c(F)c(F)c4F)c4ccc([nH]4)c(-c4c(F)c(F)c(F)c(F)c4F)c4nc(c(-c5c(F)c(F)c(F)c(F)c5F)c5ccc2[nH]5)C=C4)C=C3)cc1
REMARK SMILES IDX 23 1 22 2 21 3 20 4 18 5 19 6 9 8 8 9 4 10 5 11 6 12 7 13
REMARK SMILES IDX 2 14 1 15 3 16 10 17 11 18 12 20 13 21 14 22 15 23 16 24
REMARK SMILES IDX 17 25 24 26 25 27 26 28 27 29 28 30 29 32 30 33 31 34 92 35
REMARK SMILES IDX 32 36 91 37 33 38 34 39 35 40 85 41 36 42 90 43 84 44 86 45
REMARK SMILES IDX 37 46 89 47 83 48 82 49 38 51 70 52 50 53 69 54 51 55 54 56
REMARK SMILES IDX 68 57 87 58 52 59 53 60 67 62 88 63 55 64 39 65 40 66 48 67
REMARK SMILES IDX 41 68 42 69 46 70 49 71 43 72 44 73 47 74 45 75 71 76 72 77
REMARK SMILES IDX 80 78 73 79 74 80 78 81 81 82 75 83 76 84 79 85 77 86 56 87
REMARK SMILES IDX 57 88 65 89 58 90 59 91 63 92 66 93 60 94 61 95 64 96 62 97
REMARK H PARENT 20 7 10 19 27 31 86 50 54 61
REMARK Flexibility Score: inf
ROOT
ATOM      1  C   UNL A   1      33.229  28.125  25.057  1.00  0.00     0.002 C 
ENDROOT
BRANCH   1   2
ATOM      2  C   UNL A   1      33.881  27.220  26.103  1.00  0.00     0.021 C 
BRANCH   2   3
ATOM      3  C   UNL A   1      33.632  25.746  25.838  1.00  0.00     0.116 C 
BRANCH   3   4
ATOM      4  N   UNL A   1      34.423  25.250  24.740  1.00  0.00    -0.354 N 
ATOM      5  C   UNL A   1      34.007  24.610  23.609  1.00  0.00     0.248 C 
ATOM      6  O   UNL A   1      34.884  24.228  22.823  1.00  0.00    -0.272 OA
ATOM      7  H   UNL A   1      35.394  25.393  24.815  1.00  0.00     0.163 HD
BRANCH   5   8
ATOM      8  C   UNL A   1      32.515  24.219  23.369  1.00  0.00     0.223 C 
BRANCH   8   9
ATOM      9  C   UNL A   1      31.800  25.441  22.804  1.00  0.00     0.070 A 
ATOM     10  N   UNL A   1      30.699  26.126  23.300  1.00  0.00    -0.330 N 
ATOM     11  C   UNL A   1      30.570  27.273  22.537  1.00  0.00     0.199 A 
ATOM     12  N   UNL A   1      31.424  27.320  21.549  1.00  0.00    -0.245 NA
ATOM     13  C   UNL A   1      32.154  26.184  21.679  1.00  0.00     0.137 A 
BRANCH  10  14
ATOM     14  C   UNL A   1      29.664  25.797  24.281  1.00  0.00     0.082 C 
ATOM     15  C   UNL A   1      30.022  25.911  25.757  1.00  0.00     0.031 C 
ATOM     16  C   UNL A   1      28.346  26.539  24.014  1.00  0.00     0.031 C 
ENDBRANCH  10  14
ENDBRANCH   8   9
BRANCH   8  17
ATOM     17  N   UNL A   1      32.201  23.092  22.492  1.00  0.00    -0.304 N 
ATOM     18  C   UNL A   1      32.319  21.752  22.739  1.00  0.00     0.408 C 
ATOM     19  H   UNL A   1      31.857  23.332  21.601  1.00  0.00     0.168 HD
ATOM     20  O   UNL A   1      31.695  20.946  22.075  1.00  0.00    -0.225 OA
BRANCH  18  21
ATOM     21  O   UNL A   1      33.266  21.450  23.660  1.00  0.00    -0.444 OA
BRANCH  21  22
ATOM     22  C   UNL A   1      32.897  20.928  24.972  1.00  0.00     0.106 C 
ATOM     23  C   UNL A   1      31.615  21.581  25.485  1.00  0.00     0.056 C 
ATOM     24  C   UNL A   1      32.776  19.394  24.994  1.00  0.00     0.056 C 
ATOM     25  C   UNL A   1      34.056  21.331  25.902  1.00  0.00     0.056 C 
ENDBRANCH  21  22
ENDBRANCH  18  21
ENDBRANCH   8  17
ENDBRANCH   5   8
ENDBRANCH   3   4
ENDBRANCH   2   3
ENDBRANCH   1   2
BRANCH   1  26
ATOM     26  C   UNL A   1      33.064  29.602  25.455  1.00  0.00     0.002 C 
BRANCH  26  27
ATOM     27  C   UNL A   1      32.515  29.881  26.862  1.00  0.00     0.021 C 
BRANCH  27  28
ATOM     28  C   UNL A   1      33.567  30.377  27.842  1.00  0.00     0.116 C 
BRANCH  28  29
ATOM     29  N   UNL A   1      34.104  31.674  27.440  1.00  0.00    -0.352 N 
ATOM     30  C   UNL A   1      35.328  32.229  27.731  1.00  0.00     0.251 C 
ATOM     31  H   UNL A   1      33.509  32.226  26.886  1.00  0.00     0.163 HD
ATOM     32  O   UNL A   1      35.513  33.436  27.630  1.00  0.00    -0.269 OA
BRANCH  30  33
ATOM     33  C   UNL A   1      36.419  31.349  28.171  1.00  0.00     0.039 A 
ATOM     34  C   UNL A   1      36.536  30.056  27.656  1.00  0.00     0.014 A 
ATOM     35  C   UNL A   1      37.343  31.841  29.092  1.00  0.00     0.014 A 
ATOM     36  C   UNL A   1      37.642  29.294  28.015  1.00  0.00     0.010 A 
ATOM     37  C   UNL A   1      38.496  31.140  29.347  1.00  0.00     0.010 A 
ATOM     38  C   UNL A   1      38.632  29.853  28.841  1.00  0.00    -0.014 A 
BRANCH  38  39
ATOM     39  C   UNL A   1      39.874  29.130  29.079  1.00  0.00     0.031 A 
ATOM     40  C   UNL A   1      40.179  28.886  30.514  1.00  0.00     0.074 A 
ATOM     41  C   UNL A   1      40.605  28.560  28.099  1.00  0.00     0.049 A 
ATOM     42  N   UNL A   1      41.125  29.418  31.214  1.00  0.00    -0.248 NA
ATOM     43  C   UNL A   1      39.251  28.057  31.299  1.00  0.00     0.031 C 
ATOM     44  C   UNL A   1      40.281  28.426  26.677  1.00  0.00     0.029 A 
ATOM     45  N   UNL A   1      41.783  27.886  28.204  1.00  0.00    -0.354 N 
ATOM     46  C   UNL A   1      41.033  28.854  32.484  1.00  0.00     0.074 A 
ATOM     47  C   UNL A   1      39.773  28.158  32.525  1.00  0.00     0.031 C 
ATOM     48  C   UNL A   1      41.118  27.532  26.104  1.00  0.00     0.029 A 
ATOM     49  C   UNL A   1      42.137  27.166  27.071  1.00  0.00     0.049 A 
ATOM     50  H   UNL A   1      42.339  27.908  29.017  1.00  0.00     0.167 HD
ATOM     51  C   UNL A   1      42.116  28.819  33.309  1.00  0.00     0.037 A 
ATOM     52  C   UNL A   1      43.182  26.311  26.950  1.00  0.00     0.037 A 
ATOM     53  C   UNL A   1      43.149  29.711  32.841  1.00  0.00     0.049 A 
ATOM     54  C   UNL A   1      44.146  26.642  28.028  1.00  0.00     0.074 A 
ATOM     55  C   UNL A   1      43.242  31.072  32.631  1.00  0.00     0.029 A 
ATOM     56  N   UNL A   1      44.192  29.152  32.145  1.00  0.00    -0.354 N 
ATOM     57  N   UNL A   1      44.837  27.746  28.072  1.00  0.00    -0.248 NA
ATOM     58  C   UNL A   1      44.018  25.934  29.292  1.00  0.00     0.031 C 
ATOM     59  C   UNL A   1      44.030  31.210  31.450  1.00  0.00     0.029 A 
ATOM     60  C   UNL A   1      44.429  29.935  31.047  1.00  0.00     0.049 A 
ATOM     61  H   UNL A   1      44.682  28.335  32.392  1.00  0.00     0.167 HD
ATOM     62  C   UNL A   1      44.838  28.103  29.412  1.00  0.00     0.074 A 
ATOM     63  C   UNL A   1      44.419  26.899  30.125  1.00  0.00     0.031 C 
ATOM     64  C   UNL A   1      44.899  29.415  29.784  1.00  0.00     0.037 A 
BRANCH  51  65
ATOM     65  C   UNL A   1      42.420  27.719  34.298  1.00  0.00     0.064 A 
ATOM     66  C   UNL A   1      42.981  26.513  33.825  1.00  0.00     0.173 A 
ATOM     67  C   UNL A   1      41.895  27.670  35.607  1.00  0.00     0.173 A 
ATOM     68  F   UNL A   1      43.500  26.438  32.590  1.00  0.00    -0.203 F 
ATOM     69  C   UNL A   1      42.928  25.330  34.568  1.00  0.00     0.198 A 
ATOM     70  C   UNL A   1      41.894  26.500  36.366  1.00  0.00     0.198 A 
ATOM     71  F   UNL A   1      41.260  28.709  36.160  1.00  0.00    -0.203 F 
ATOM     72  F   UNL A   1      43.345  24.181  34.020  1.00  0.00    -0.200 F 
ATOM     73  C   UNL A   1      42.375  25.323  35.834  1.00  0.00     0.200 A 
ATOM     74  F   UNL A   1      41.337  26.509  37.586  1.00  0.00    -0.200 F 
ATOM     75  F   UNL A   1      42.259  24.180  36.521  1.00  0.00    -0.200 F 
ENDBRANCH  51  65
BRANCH  52  76
ATOM     76  C   UNL A   1      43.286  25.069  26.152  1.00  0.00     0.064 A 
ATOM     77  C   UNL A   1      44.337  24.885  25.237  1.00  0.00     0.173 A 
ATOM     78  C   UNL A   1      42.537  23.924  26.483  1.00  0.00     0.173 A 
ATOM     79  F   UNL A   1      45.123  25.917  24.895  1.00  0.00    -0.203 F 
ATOM     80  C   UNL A   1      44.645  23.624  24.717  1.00  0.00     0.198 A 
ATOM     81  C   UNL A   1      42.842  22.667  25.959  1.00  0.00     0.198 A 
ATOM     82  F   UNL A   1      41.559  23.984  27.398  1.00  0.00    -0.203 F 
ATOM     83  F   UNL A   1      45.699  23.476  23.902  1.00  0.00    -0.200 F 
ATOM     84  C   UNL A   1      43.906  22.514  25.090  1.00  0.00     0.200 A 
ATOM     85  F   UNL A   1      42.142  21.594  26.353  1.00  0.00    -0.200 F 
ATOM     86  F   UNL A   1      44.244  21.295  24.647  1.00  0.00    -0.200 F 
ENDBRANCH  52  76
BRANCH  64  87
ATOM     87  C   UNL A   1      45.275  30.423  28.733  1.00  0.00     0.064 A 
ATOM     88  C   UNL A   1      44.363  31.040  27.858  1.00  0.00     0.173 A 
ATOM     89  C   UNL A   1      46.600  30.876  28.706  1.00  0.00     0.173 A 
ATOM     90  F   UNL A   1      43.060  30.735  27.887  1.00  0.00    -0.203 F 
ATOM     91  C   UNL A   1      44.776  32.030  26.966  1.00  0.00     0.198 A 
ATOM     92  C   UNL A   1      47.001  31.892  27.843  1.00  0.00     0.198 A 
ATOM     93  F   UNL A   1      47.504  30.361  29.555  1.00  0.00    -0.203 F 
ATOM     94  F   UNL A   1      43.891  32.590  26.128  1.00  0.00    -0.200 F 
ATOM     95  C   UNL A   1      46.092  32.460  26.965  1.00  0.00     0.200 A 
ATOM     96  F   UNL A   1      48.264  32.338  27.881  1.00  0.00    -0.200 F 
ATOM     97  F   UNL A   1      46.480  33.439  26.137  1.00  0.00    -0.200 F 
ENDBRANCH  64  87
ENDBRANCH  38  39
ENDBRANCH  30  33
ENDBRANCH  28  29
ENDBRANCH  27  28
ENDBRANCH  26  27
ENDBRANCH   1  26
TORSDOF 18
ENDMDL
