MODEL 1
REMARK VINA RESULT:     -11.5      0.000      0.000
REMARK SMILES CC(C)(C)c1nnc(CSc2csc(C(=O)NCCCCCCNC(=O)c3ccc(-c4c5nc(c(-c6c(F)c(F)c(F)c(F)c6F)c6ccc([nH]6)c(-c6c(F)c(F)c(F)c(F)c6F)c6nc(c(-c7c(F)c(F)c(F)c(F)c7F)c7ccc4[nH]7)C=C6)C=C5)cc3)c2)o1
REMARK SMILES IDX 19 1 18 2 17 3 15 4 16 5 14 7 11 8 12 9 90 10 13 11 10 12
REMARK SMILES IDX 9 13 8 14 5 15 6 16 91 17 7 18 2 19 1 20 3 21 4 22 20 23
REMARK SMILES IDX 21 24 22 25 23 26 24 27 25 28 26 30 27 31 28 32 89 33 29 34
REMARK SMILES IDX 88 35 30 36 31 37 32 38 82 39 33 40 87 41 81 42 83 43 34 44
REMARK SMILES IDX 86 45 80 46 79 47 35 49 67 50 47 51 66 52 48 53 51 54 65 55
REMARK SMILES IDX 84 56 49 57 50 58 64 60 85 61 52 62 36 63 37 64 45 65 38 66
REMARK SMILES IDX 39 67 43 68 46 69 40 70 41 71 44 72 42 73 68 74 69 75 77 76
REMARK SMILES IDX 70 77 71 78 75 79 78 80 72 81 73 82 76 83 74 84 53 85 54 86
REMARK SMILES IDX 62 87 55 88 56 89 60 90 63 91 57 92 58 93 61 94 59 95
REMARK H PARENT 17 6 24 29 83 48 51 59
REMARK Flexibility Score: inf
ROOT
ATOM      1  C   UNL A   1      30.173  29.431  23.875  1.00  0.00     0.021 C 
ENDROOT
BRANCH   1   2
ATOM      2  C   UNL A   1      30.885  28.549  22.847  1.00  0.00     0.116 C 
BRANCH   2   3
ATOM      3  N   UNL A   1      32.275  28.942  22.722  1.00  0.00    -0.351 N 
ATOM      4  C   UNL A   1      33.458  28.293  22.979  1.00  0.00     0.261 C 
ATOM      5  O   UNL A   1      34.471  28.947  22.714  1.00  0.00    -0.268 OA
ATOM      6  H   UNL A   1      32.396  29.858  22.383  1.00  0.00     0.163 HD
BRANCH   4   7
ATOM      7  C   UNL A   1      33.500  26.925  23.482  1.00  0.00     0.093 A 
ATOM      8  C   UNL A   1      33.703  24.617  23.769  1.00  0.00     0.019 A 
ATOM      9  C   UNL A   1      33.669  25.023  25.079  1.00  0.00     0.080 A 
ATOM     10  C   UNL A   1      33.506  25.691  22.857  1.00  0.00     0.040 A 
ATOM     11  S   UNL A   1      33.514  26.718  25.200  1.00  0.00    -0.137 S 
BRANCH   8  12
ATOM     12  S   UNL A   1      33.971  22.966  23.238  1.00  0.00    -0.115 SA
BRANCH  12  13
ATOM     13  C   UNL A   1      34.081  22.125  24.856  1.00  0.00     0.174 C 
BRANCH  13  14
ATOM     14  C   UNL A   1      33.445  20.783  24.871  1.00  0.00     0.226 A 
ATOM     15  C   UNL A   1      33.375  18.658  24.707  1.00  0.00     0.221 A 
ATOM     16  N   UNL A   1      32.153  19.055  24.998  1.00  0.00    -0.112 NA
ATOM     17  O   UNL A   1      34.258  19.706  24.617  1.00  0.00    -0.424 OA
ATOM     18  N   UNL A   1      32.199  20.429  25.113  1.00  0.00    -0.112 NA
BRANCH  15  19
ATOM     19  C   UNL A   1      33.910  17.272  24.488  1.00  0.00     0.040 C 
ATOM     20  C   UNL A   1      33.876  16.915  22.992  1.00  0.00     0.021 C 
ATOM     21  C   UNL A   1      33.053  16.250  25.256  1.00  0.00     0.021 C 
ATOM     22  C   UNL A   1      35.358  17.191  25.000  1.00  0.00     0.021 C 
ENDBRANCH  15  19
ENDBRANCH  13  14
ENDBRANCH  12  13
ENDBRANCH   8  12
ENDBRANCH   4   7
ENDBRANCH   2   3
ENDBRANCH   1   2
BRANCH   1  23
ATOM     23  C   UNL A   1      31.109  29.991  24.958  1.00  0.00     0.002 C 
BRANCH  23  24
ATOM     24  C   UNL A   1      30.791  31.419  25.421  1.00  0.00     0.002 C 
BRANCH  24  25
ATOM     25  C   UNL A   1      31.277  31.776  26.829  1.00  0.00     0.021 C 
BRANCH  25  26
ATOM     26  C   UNL A   1      32.605  32.528  26.876  1.00  0.00     0.116 C 
BRANCH  26  27
ATOM     27  N   UNL A   1      32.445  33.882  27.382  1.00  0.00    -0.352 N 
ATOM     28  C   UNL A   1      33.085  34.510  28.421  1.00  0.00     0.251 C 
ATOM     29  H   UNL A   1      31.779  34.430  26.909  1.00  0.00     0.163 HD
ATOM     30  O   UNL A   1      32.678  35.594  28.826  1.00  0.00    -0.269 OA
BRANCH  28  31
ATOM     31  C   UNL A   1      34.257  33.881  29.070  1.00  0.00     0.039 A 
ATOM     32  C   UNL A   1      34.040  32.936  30.076  1.00  0.00     0.014 A 
ATOM     33  C   UNL A   1      35.562  34.248  28.725  1.00  0.00     0.014 A 
ATOM     34  C   UNL A   1      35.127  32.324  30.702  1.00  0.00     0.010 A 
ATOM     35  C   UNL A   1      36.646  33.595  29.308  1.00  0.00     0.010 A 
ATOM     36  C   UNL A   1      36.439  32.632  30.307  1.00  0.00    -0.014 A 
BRANCH  36  37
ATOM     37  C   UNL A   1      37.601  31.953  30.935  1.00  0.00     0.031 A 
ATOM     38  C   UNL A   1      38.050  32.338  32.317  1.00  0.00     0.074 A 
ATOM     39  C   UNL A   1      38.283  31.024  30.239  1.00  0.00     0.049 A 
ATOM     40  N   UNL A   1      39.059  31.883  33.017  1.00  0.00    -0.248 NA
ATOM     41  C   UNL A   1      37.275  33.390  32.994  1.00  0.00     0.031 C 
ATOM     42  C   UNL A   1      37.979  30.603  28.871  1.00  0.00     0.029 A 
ATOM     43  N   UNL A   1      39.378  30.273  30.584  1.00  0.00    -0.354 N 
ATOM     44  C   UNL A   1      39.049  32.601  34.206  1.00  0.00     0.074 A 
ATOM     45  C   UNL A   1      37.964  33.553  34.115  1.00  0.00     0.031 C 
ATOM     46  C   UNL A   1      38.852  29.653  28.499  1.00  0.00     0.029 A 
ATOM     47  C   UNL A   1      39.792  29.418  29.592  1.00  0.00     0.049 A 
ATOM     48  H   UNL A   1      39.823  30.339  31.459  1.00  0.00     0.167 HD
ATOM     49  C   UNL A   1      39.858  32.463  35.283  1.00  0.00     0.037 A 
ATOM     50  C   UNL A   1      40.815  28.543  29.568  1.00  0.00     0.037 A 
ATOM     51  C   UNL A   1      40.921  31.497  35.382  1.00  0.00     0.049 A 
ATOM     52  C   UNL A   1      41.686  28.395  30.785  1.00  0.00     0.074 A 
ATOM     53  C   UNL A   1      41.758  31.238  36.455  1.00  0.00     0.029 A 
ATOM     54  N   UNL A   1      41.294  30.628  34.367  1.00  0.00    -0.354 N 
ATOM     55  N   UNL A   1      41.623  29.030  31.930  1.00  0.00    -0.248 NA
ATOM     56  C   UNL A   1      42.763  27.399  30.710  1.00  0.00     0.031 C 
ATOM     57  C   UNL A   1      42.660  30.238  36.076  1.00  0.00     0.029 A 
ATOM     58  C   UNL A   1      42.359  29.844  34.782  1.00  0.00     0.049 A 
ATOM     59  H   UNL A   1      40.866  30.577  33.482  1.00  0.00     0.167 HD
ATOM     60  C   UNL A   1      42.634  28.497  32.718  1.00  0.00     0.074 A 
ATOM     61  C   UNL A   1      43.283  27.473  31.926  1.00  0.00     0.031 C 
ATOM     62  C   UNL A   1      42.992  28.827  33.982  1.00  0.00     0.037 A 
BRANCH  49  63
ATOM     63  C   UNL A   1      39.620  33.378  36.449  1.00  0.00     0.064 A 
ATOM     64  C   UNL A   1      40.196  34.656  36.509  1.00  0.00     0.173 A 
ATOM     65  C   UNL A   1      38.781  32.987  37.502  1.00  0.00     0.173 A 
ATOM     66  F   UNL A   1      41.016  35.072  35.533  1.00  0.00    -0.203 F 
ATOM     67  C   UNL A   1      39.964  35.497  37.594  1.00  0.00     0.198 A 
ATOM     68  C   UNL A   1      38.528  33.842  38.572  1.00  0.00     0.198 A 
ATOM     69  F   UNL A   1      38.199  31.778  37.492  1.00  0.00    -0.203 F 
ATOM     70  F   UNL A   1      40.563  36.695  37.652  1.00  0.00    -0.200 F 
ATOM     71  C   UNL A   1      39.126  35.092  38.621  1.00  0.00     0.200 A 
ATOM     72  F   UNL A   1      37.707  33.454  39.559  1.00  0.00    -0.200 F 
ATOM     73  F   UNL A   1      38.897  35.905  39.662  1.00  0.00    -0.200 F 
ENDBRANCH  49  63
BRANCH  50  74
ATOM     74  C   UNL A   1      41.048  27.711  28.360  1.00  0.00     0.064 A 
ATOM     75  C   UNL A   1      40.426  26.462  28.219  1.00  0.00     0.173 A 
ATOM     76  C   UNL A   1      41.889  28.144  27.326  1.00  0.00     0.173 A 
ATOM     77  F   UNL A   1      39.629  25.998  29.192  1.00  0.00    -0.203 F 
ATOM     78  C   UNL A   1      40.653  25.669  27.097  1.00  0.00     0.198 A 
ATOM     79  C   UNL A   1      42.096  27.361  26.192  1.00  0.00     0.198 A 
ATOM     80  F   UNL A   1      42.503  29.333  27.413  1.00  0.00    -0.203 F 
ATOM     81  F   UNL A   1      40.081  24.461  27.005  1.00  0.00    -0.200 F 
ATOM     82  C   UNL A   1      41.484  26.121  26.082  1.00  0.00     0.200 A 
ATOM     83  F   UNL A   1      42.890  27.806  25.208  1.00  0.00    -0.200 F 
ATOM     84  F   UNL A   1      41.699  25.359  25.001  1.00  0.00    -0.200 F 
ENDBRANCH  50  74
BRANCH  62  85
ATOM     85  C   UNL A   1      44.122  28.054  34.595  1.00  0.00     0.064 A 
ATOM     86  C   UNL A   1      43.902  26.851  35.282  1.00  0.00     0.173 A 
ATOM     87  C   UNL A   1      45.444  28.512  34.477  1.00  0.00     0.173 A 
ATOM     88  F   UNL A   1      42.654  26.380  35.436  1.00  0.00    -0.203 F 
ATOM     89  C   UNL A   1      44.960  26.148  35.852  1.00  0.00     0.198 A 
ATOM     90  C   UNL A   1      46.502  27.792  35.024  1.00  0.00     0.198 A 
ATOM     91  F   UNL A   1      45.708  29.653  33.826  1.00  0.00    -0.203 F 
ATOM     92  F   UNL A   1      44.720  25.027  36.546  1.00  0.00    -0.200 F 
ATOM     93  C   UNL A   1      46.259  26.617  35.718  1.00  0.00     0.200 A 
ATOM     94  F   UNL A   1      47.757  28.240  34.886  1.00  0.00    -0.200 F 
ATOM     95  F   UNL A   1      47.275  25.938  36.267  1.00  0.00    -0.200 F 
ENDBRANCH  62  85
ENDBRANCH  36  37
ENDBRANCH  28  31
ENDBRANCH  26  27
ENDBRANCH  25  26
ENDBRANCH  24  25
ENDBRANCH  23  24
ENDBRANCH   1  23
TORSDOF 17
ENDMDL
MODEL 2
REMARK VINA RESULT:     -11.5      0.434      7.248
REMARK SMILES CC(C)(C)c1nnc(CSc2csc(C(=O)NCCCCCCNC(=O)c3ccc(-c4c5nc(c(-c6c(F)c(F)c(F)c(F)c6F)c6ccc([nH]6)c(-c6c(F)c(F)c(F)c(F)c6F)c6nc(c(-c7c(F)c(F)c(F)c(F)c7F)c7ccc4[nH]7)C=C6)C=C5)cc3)c2)o1
REMARK SMILES IDX 19 1 18 2 17 3 15 4 16 5 14 7 11 8 12 9 90 10 13 11 10 12
REMARK SMILES IDX 9 13 8 14 5 15 6 16 91 17 7 18 2 19 1 20 3 21 4 22 20 23
REMARK SMILES IDX 21 24 22 25 23 26 24 27 25 28 26 30 27 31 28 32 89 33 29 34
REMARK SMILES IDX 88 35 30 36 31 37 32 38 82 39 33 40 87 41 81 42 83 43 34 44
REMARK SMILES IDX 86 45 80 46 79 47 35 49 67 50 47 51 66 52 48 53 51 54 65 55
REMARK SMILES IDX 84 56 49 57 50 58 64 60 85 61 52 62 36 63 37 64 45 65 38 66
REMARK SMILES IDX 39 67 43 68 46 69 40 70 41 71 44 72 42 73 68 74 69 75 77 76
REMARK SMILES IDX 70 77 71 78 75 79 78 80 72 81 73 82 76 83 74 84 53 85 54 86
REMARK SMILES IDX 62 87 55 88 56 89 60 90 63 91 57 92 58 93 61 94 59 95
REMARK H PARENT 17 6 24 29 83 48 51 59
REMARK Flexibility Score: inf
ROOT
ATOM      1  C   UNL A   1      30.178  29.736  23.847  1.00  0.00     0.021 C 
ENDROOT
BRANCH   1   2
ATOM      2  C   UNL A   1      30.839  28.658  22.984  1.00  0.00     0.116 C 
BRANCH   2   3
ATOM      3  N   UNL A   1      32.244  28.958  22.790  1.00  0.00    -0.351 N 
ATOM      4  C   UNL A   1      33.391  28.223  22.964  1.00  0.00     0.261 C 
ATOM      5  O   UNL A   1      34.431  28.813  22.657  1.00  0.00    -0.268 OA
ATOM      6  H   UNL A   1      32.409  29.872  22.465  1.00  0.00     0.163 HD
BRANCH   4   7
ATOM      7  C   UNL A   1      33.366  26.843  23.434  1.00  0.00     0.093 A 
ATOM      8  C   UNL A   1      33.480  24.524  23.671  1.00  0.00     0.019 A 
ATOM      9  C   UNL A   1      33.400  24.898  24.987  1.00  0.00     0.080 A 
ATOM     10  C   UNL A   1      33.359  25.625  22.779  1.00  0.00     0.040 A 
ATOM     11  S   UNL A   1      33.297  26.595  25.145  1.00  0.00    -0.137 S 
BRANCH   8  12
ATOM     12  S   UNL A   1      33.716  22.878  23.110  1.00  0.00    -0.115 SA
BRANCH  12  13
ATOM     13  C   UNL A   1      33.994  22.033  24.706  1.00  0.00     0.174 C 
BRANCH  13  14
ATOM     14  C   UNL A   1      33.389  20.679  24.774  1.00  0.00     0.226 A 
ATOM     15  C   UNL A   1      33.349  18.553  24.616  1.00  0.00     0.221 A 
ATOM     16  N   UNL A   1      32.147  18.926  25.008  1.00  0.00    -0.112 NA
ATOM     17  O   UNL A   1      34.199  19.619  24.453  1.00  0.00    -0.424 OA
ATOM     18  N   UNL A   1      32.175  20.300  25.118  1.00  0.00    -0.112 NA
BRANCH  15  19
ATOM     19  C   UNL A   1      33.892  17.178  24.354  1.00  0.00     0.040 C 
ATOM     20  C   UNL A   1      35.280  17.019  24.998  1.00  0.00     0.021 C 
ATOM     21  C   UNL A   1      34.026  16.944  22.838  1.00  0.00     0.021 C 
ATOM     22  C   UNL A   1      32.934  16.125  24.936  1.00  0.00     0.021 C 
ENDBRANCH  15  19
ENDBRANCH  13  14
ENDBRANCH  12  13
ENDBRANCH   8  12
ENDBRANCH   4   7
ENDBRANCH   2   3
ENDBRANCH   1   2
BRANCH   1  23
ATOM     23  C   UNL A   1      31.044  30.188  25.035  1.00  0.00     0.002 C 
BRANCH  23  24
ATOM     24  C   UNL A   1      30.771  31.613  25.535  1.00  0.00     0.002 C 
BRANCH  24  25
ATOM     25  C   UNL A   1      31.357  31.947  26.911  1.00  0.00     0.021 C 
BRANCH  25  26
ATOM     26  C   UNL A   1      32.646  32.763  26.876  1.00  0.00     0.116 C 
BRANCH  26  27
ATOM     27  N   UNL A   1      32.454  34.109  27.391  1.00  0.00    -0.352 N 
ATOM     28  C   UNL A   1      33.045  34.730  28.463  1.00  0.00     0.251 C 
ATOM     29  H   UNL A   1      31.803  34.657  26.897  1.00  0.00     0.163 HD
ATOM     30  O   UNL A   1      32.611  35.806  28.864  1.00  0.00    -0.269 OA
BRANCH  28  31
ATOM     31  C   UNL A   1      34.195  34.104  29.152  1.00  0.00     0.039 A 
ATOM     32  C   UNL A   1      33.945  33.171  30.161  1.00  0.00     0.014 A 
ATOM     33  C   UNL A   1      35.511  34.462  28.840  1.00  0.00     0.014 A 
ATOM     34  C   UNL A   1      35.011  32.562  30.825  1.00  0.00     0.010 A 
ATOM     35  C   UNL A   1      36.574  33.810  29.462  1.00  0.00     0.010 A 
ATOM     36  C   UNL A   1      36.335  32.859  30.464  1.00  0.00    -0.014 A 
BRANCH  36  37
ATOM     37  C   UNL A   1      37.476  32.184  31.133  1.00  0.00     0.031 A 
ATOM     38  C   UNL A   1      38.255  31.118  30.415  1.00  0.00     0.074 A 
ATOM     39  C   UNL A   1      37.777  32.497  32.407  1.00  0.00     0.049 A 
ATOM     40  N   UNL A   1      39.259  30.394  30.844  1.00  0.00    -0.248 NA
ATOM     41  C   UNL A   1      37.836  30.807  29.040  1.00  0.00     0.031 C 
ATOM     42  C   UNL A   1      37.063  33.475  33.229  1.00  0.00     0.029 A 
ATOM     43  N   UNL A   1      38.760  32.018  33.238  1.00  0.00    -0.354 N 
ATOM     44  C   UNL A   1      39.581  29.537  29.800  1.00  0.00     0.074 A 
ATOM     45  C   UNL A   1      38.637  29.796  28.734  1.00  0.00     0.031 C 
ATOM     46  C   UNL A   1      37.642  33.540  34.438  1.00  0.00     0.029 A 
ATOM     47  C   UNL A   1      38.751  32.591  34.486  1.00  0.00     0.049 A 
ATOM     48  H   UNL A   1      39.409  31.331  32.965  1.00  0.00     0.167 HD
ATOM     49  C   UNL A   1      40.585  28.630  29.730  1.00  0.00     0.037 A 
ATOM     50  C   UNL A   1      39.549  32.375  35.548  1.00  0.00     0.037 A 
ATOM     51  C   UNL A   1      41.539  28.393  30.782  1.00  0.00     0.049 A 
ATOM     52  C   UNL A   1      40.669  31.378  35.437  1.00  0.00     0.074 A 
ATOM     53  C   UNL A   1      42.630  27.539  30.783  1.00  0.00     0.029 A 
ATOM     54  N   UNL A   1      41.516  29.012  32.023  1.00  0.00    -0.354 N 
ATOM     55  N   UNL A   1      41.007  30.623  34.421  1.00  0.00    -0.248 NA
ATOM     56  C   UNL A   1      41.527  31.213  36.618  1.00  0.00     0.031 C 
ATOM     57  C   UNL A   1      43.244  27.616  32.038  1.00  0.00     0.029 A 
ATOM     58  C   UNL A   1      42.563  28.548  32.803  1.00  0.00     0.049 A 
ATOM     59  H   UNL A   1      40.853  29.682  32.307  1.00  0.00     0.167 HD
ATOM     60  C   UNL A   1      42.126  29.911  34.829  1.00  0.00     0.074 A 
ATOM     61  C   UNL A   1      42.422  30.339  36.181  1.00  0.00     0.031 C 
ATOM     62  C   UNL A   1      42.844  28.986  34.147  1.00  0.00     0.037 A 
BRANCH  49  63
ATOM     63  C   UNL A   1      40.708  27.830  28.466  1.00  0.00     0.064 A 
ATOM     64  C   UNL A   1      41.486  28.277  27.387  1.00  0.00     0.173 A 
ATOM     65  C   UNL A   1      40.069  26.588  28.344  1.00  0.00     0.173 A 
ATOM     66  F   UNL A   1      42.107  29.464  27.450  1.00  0.00    -0.203 F 
ATOM     67  C   UNL A   1      41.596  27.523  26.222  1.00  0.00     0.198 A 
ATOM     68  C   UNL A   1      40.204  25.823  27.188  1.00  0.00     0.198 A 
ATOM     69  F   UNL A   1      39.318  26.110  29.349  1.00  0.00    -0.203 F 
ATOM     70  F   UNL A   1      42.306  27.991  25.187  1.00  0.00    -0.200 F 
ATOM     71  C   UNL A   1      40.961  26.294  26.126  1.00  0.00     0.200 A 
ATOM     72  F   UNL A   1      39.600  24.630  27.101  1.00  0.00    -0.200 F 
ATOM     73  F   UNL A   1      41.072  25.566  25.006  1.00  0.00    -0.200 F 
ENDBRANCH  49  63
BRANCH  50  74
ATOM     74  C   UNL A   1      39.339  33.146  36.800  1.00  0.00     0.064 A 
ATOM     75  C   UNL A   1      40.039  34.338  37.034  1.00  0.00     0.173 A 
ATOM     76  C   UNL A   1      38.436  32.713  37.782  1.00  0.00     0.173 A 
ATOM     77  F   UNL A   1      40.928  34.780  36.132  1.00  0.00    -0.203 F 
ATOM     78  C   UNL A   1      39.860  35.057  38.213  1.00  0.00     0.198 A 
ATOM     79  C   UNL A   1      38.239  33.447  38.950  1.00  0.00     0.198 A 
ATOM     80  F   UNL A   1      37.740  31.582  37.601  1.00  0.00    -0.203 F 
ATOM     81  F   UNL A   1      40.574  36.170  38.432  1.00  0.00    -0.200 F 
ATOM     82  C   UNL A   1      38.956  34.614  39.168  1.00  0.00     0.200 A 
ATOM     83  F   UNL A   1      37.357  33.023  39.864  1.00  0.00    -0.200 F 
ATOM     84  F   UNL A   1      38.782  35.309  40.300  1.00  0.00    -0.200 F 
ENDBRANCH  50  74
BRANCH  62  85
ATOM     85  C   UNL A   1      44.034  28.394  34.843  1.00  0.00     0.064 A 
ATOM     86  C   UNL A   1      43.946  27.186  35.550  1.00  0.00     0.173 A 
ATOM     87  C   UNL A   1      45.282  29.034  34.786  1.00  0.00     0.173 A 
ATOM     88  F   UNL A   1      42.770  26.546  35.648  1.00  0.00    -0.203 F 
ATOM     89  C   UNL A   1      45.057  26.653  36.197  1.00  0.00     0.198 A 
ATOM     90  C   UNL A   1      46.397  28.484  35.410  1.00  0.00     0.198 A 
ATOM     91  F   UNL A   1      45.420  30.188  34.118  1.00  0.00    -0.203 F 
ATOM     92  F   UNL A   1      44.938  25.524  36.908  1.00  0.00    -0.200 F 
ATOM     93  C   UNL A   1      46.282  27.300  36.122  1.00  0.00     0.200 A 
ATOM     94  F   UNL A   1      47.583  29.103  35.328  1.00  0.00    -0.200 F 
ATOM     95  F   UNL A   1      47.351  26.784  36.745  1.00  0.00    -0.200 F 
ENDBRANCH  62  85
ENDBRANCH  36  37
ENDBRANCH  28  31
ENDBRANCH  26  27
ENDBRANCH  25  26
ENDBRANCH  24  25
ENDBRANCH  23  24
ENDBRANCH   1  23
TORSDOF 17
ENDMDL
MODEL 3
REMARK VINA RESULT:     -11.5      2.193      3.538
REMARK SMILES CC(C)(C)c1nnc(CSc2csc(C(=O)NCCCCCCNC(=O)c3ccc(-c4c5nc(c(-c6c(F)c(F)c(F)c(F)c6F)c6ccc([nH]6)c(-c6c(F)c(F)c(F)c(F)c6F)c6nc(c(-c7c(F)c(F)c(F)c(F)c7F)c7ccc4[nH]7)C=C6)C=C5)cc3)c2)o1
REMARK SMILES IDX 19 1 18 2 17 3 15 4 16 5 14 7 11 8 12 9 90 10 13 11 10 12
REMARK SMILES IDX 9 13 8 14 5 15 6 16 91 17 7 18 2 19 1 20 3 21 4 22 20 23
REMARK SMILES IDX 21 24 22 25 23 26 24 27 25 28 26 30 27 31 28 32 89 33 29 34
REMARK SMILES IDX 88 35 30 36 31 37 32 38 82 39 33 40 87 41 81 42 83 43 34 44
REMARK SMILES IDX 86 45 80 46 79 47 35 49 67 50 47 51 66 52 48 53 51 54 65 55
REMARK SMILES IDX 84 56 49 57 50 58 64 60 85 61 52 62 36 63 37 64 45 65 38 66
REMARK SMILES IDX 39 67 43 68 46 69 40 70 41 71 44 72 42 73 68 74 69 75 77 76
REMARK SMILES IDX 70 77 71 78 75 79 78 80 72 81 73 82 76 83 74 84 53 85 54 86
REMARK SMILES IDX 62 87 55 88 56 89 60 90 63 91 57 92 58 93 61 94 59 95
REMARK H PARENT 17 6 24 29 83 48 51 59
REMARK Flexibility Score: inf
ROOT
ATOM      1  C   UNL A   1      34.383  31.333  28.243  1.00  0.00     0.021 C 
ENDROOT
BRANCH   1   2
ATOM      2  C   UNL A   1      33.762  30.525  27.101  1.00  0.00     0.116 C 
BRANCH   2   3
ATOM      3  N   UNL A   1      32.833  29.543  27.624  1.00  0.00    -0.351 N 
ATOM      4  C   UNL A   1      32.061  28.574  27.031  1.00  0.00     0.261 C 
ATOM      5  O   UNL A   1      31.403  27.887  27.818  1.00  0.00    -0.268 OA
ATOM      6  H   UNL A   1      32.736  29.577  28.603  1.00  0.00     0.163 HD
BRANCH   4   7
ATOM      7  C   UNL A   1      32.062  28.356  25.589  1.00  0.00     0.093 A 
ATOM      8  C   UNL A   1      32.265  27.515  23.421  1.00  0.00     0.019 A 
ATOM      9  C   UNL A   1      31.484  28.616  23.182  1.00  0.00     0.080 A 
ATOM     10  C   UNL A   1      32.680  27.421  24.778  1.00  0.00     0.040 A 
ATOM     11  S   UNL A   1      31.157  29.470  24.623  1.00  0.00    -0.137 S 
BRANCH   8  12
ATOM     12  S   UNL A   1      32.716  26.325  22.213  1.00  0.00    -0.115 SA
BRANCH  12  13
ATOM     13  C   UNL A   1      31.705  24.908  22.768  1.00  0.00     0.174 C 
BRANCH  13  14
ATOM     14  C   UNL A   1      32.508  23.717  23.142  1.00  0.00     0.226 A 
ATOM     15  C   UNL A   1      34.191  22.670  23.928  1.00  0.00     0.221 A 
ATOM     16  N   UNL A   1      33.327  21.755  23.534  1.00  0.00    -0.112 NA
ATOM     17  O   UNL A   1      33.733  23.946  23.716  1.00  0.00    -0.424 OA
ATOM     18  N   UNL A   1      32.235  22.432  23.033  1.00  0.00    -0.112 NA
BRANCH  15  19
ATOM     19  C   UNL A   1      35.540  22.507  24.566  1.00  0.00     0.040 C 
ATOM     20  C   UNL A   1      36.649  22.589  23.502  1.00  0.00     0.021 C 
ATOM     21  C   UNL A   1      35.631  21.137  25.263  1.00  0.00     0.021 C 
ATOM     22  C   UNL A   1      35.754  23.612  25.613  1.00  0.00     0.021 C 
ENDBRANCH  15  19
ENDBRANCH  13  14
ENDBRANCH  12  13
ENDBRANCH   8  12
ENDBRANCH   4   7
ENDBRANCH   2   3
ENDBRANCH   1   2
BRANCH   1  23
ATOM     23  C   UNL A   1      34.527  32.831  27.929  1.00  0.00     0.002 C 
BRANCH  23  24
ATOM     24  C   UNL A   1      34.307  33.772  29.122  1.00  0.00     0.002 C 
BRANCH  24  25
ATOM     25  C   UNL A   1      33.064  34.663  29.033  1.00  0.00     0.021 C 
BRANCH  25  26
ATOM     26  C   UNL A   1      33.265  36.092  29.529  1.00  0.00     0.116 C 
BRANCH  26  27
ATOM     27  N   UNL A   1      32.520  36.356  30.749  1.00  0.00    -0.352 N 
ATOM     28  C   UNL A   1      32.701  35.850  32.012  1.00  0.00     0.251 C 
ATOM     29  H   UNL A   1      31.776  36.992  30.656  1.00  0.00     0.163 HD
ATOM     30  O   UNL A   1      31.850  36.040  32.876  1.00  0.00    -0.269 OA
BRANCH  28  31
ATOM     31  C   UNL A   1      33.909  35.062  32.339  1.00  0.00     0.039 A 
ATOM     32  C   UNL A   1      35.162  35.665  32.199  1.00  0.00     0.014 A 
ATOM     33  C   UNL A   1      33.818  33.724  32.738  1.00  0.00     0.014 A 
ATOM     34  C   UNL A   1      36.319  34.946  32.504  1.00  0.00     0.010 A 
ATOM     35  C   UNL A   1      34.969  33.026  33.099  1.00  0.00     0.010 A 
ATOM     36  C   UNL A   1      36.230  33.627  32.979  1.00  0.00    -0.014 A 
BRANCH  36  37
ATOM     37  C   UNL A   1      37.452  32.869  33.350  1.00  0.00     0.031 A 
ATOM     38  C   UNL A   1      38.164  33.159  34.640  1.00  0.00     0.074 A 
ATOM     39  C   UNL A   1      37.947  31.951  32.498  1.00  0.00     0.049 A 
ATOM     40  N   UNL A   1      39.261  32.626  35.120  1.00  0.00    -0.248 NA
ATOM     41  C   UNL A   1      37.581  34.204  35.496  1.00  0.00     0.031 C 
ATOM     42  C   UNL A   1      37.377  31.617  31.192  1.00  0.00     0.029 A 
ATOM     43  N   UNL A   1      39.047  31.138  32.599  1.00  0.00    -0.354 N 
ATOM     44  C   UNL A   1      39.504  33.278  36.322  1.00  0.00     0.074 A 
ATOM     45  C   UNL A   1      38.470  34.278  36.477  1.00  0.00     0.031 C 
ATOM     46  C   UNL A   1      38.118  30.654  30.622  1.00  0.00     0.029 A 
ATOM     47  C   UNL A   1      39.230  30.322  31.510  1.00  0.00     0.049 A 
ATOM     48  H   UNL A   1      39.648  31.138  33.378  1.00  0.00     0.167 HD
ATOM     49  C   UNL A   1      40.489  33.049  37.223  1.00  0.00     0.037 A 
ATOM     50  C   UNL A   1      40.185  29.408  31.257  1.00  0.00     0.037 A 
ATOM     51  C   UNL A   1      41.502  32.036  37.079  1.00  0.00     0.049 A 
ATOM     52  C   UNL A   1      41.255  29.159  32.283  1.00  0.00     0.074 A 
ATOM     53  C   UNL A   1      42.507  31.686  37.965  1.00  0.00     0.029 A 
ATOM     54  N   UNL A   1      41.639  31.210  35.973  1.00  0.00    -0.354 N 
ATOM     55  N   UNL A   1      41.435  29.733  33.447  1.00  0.00    -0.248 NA
ATOM     56  C   UNL A   1      42.249  28.125  31.964  1.00  0.00     0.031 C 
ATOM     57  C   UNL A   1      43.273  30.672  37.380  1.00  0.00     0.029 A 
ATOM     58  C   UNL A   1      42.721  30.361  36.148  1.00  0.00     0.049 A 
ATOM     59  H   UNL A   1      41.054  31.224  35.182  1.00  0.00     0.167 HD
ATOM     60  C   UNL A   1      42.545  29.118  34.009  1.00  0.00     0.074 A 
ATOM     61  C   UNL A   1      42.986  28.111  33.065  1.00  0.00     0.031 C 
ATOM     62  C   UNL A   1      43.145  29.363  35.198  1.00  0.00     0.037 A 
BRANCH  49  63
ATOM     63  C   UNL A   1      40.515  33.909  38.453  1.00  0.00     0.064 A 
ATOM     64  C   UNL A   1      39.786  33.567  39.602  1.00  0.00     0.173 A 
ATOM     65  C   UNL A   1      41.304  35.067  38.497  1.00  0.00     0.173 A 
ATOM     66  F   UNL A   1      39.007  32.476  39.607  1.00  0.00    -0.203 F 
ATOM     67  C   UNL A   1      39.822  34.371  40.739  1.00  0.00     0.198 A 
ATOM     68  C   UNL A   1      41.360  35.853  39.645  1.00  0.00     0.198 A 
ATOM     69  F   UNL A   1      42.027  35.436  37.428  1.00  0.00    -0.203 F 
ATOM     70  F   UNL A   1      39.080  34.051  41.808  1.00  0.00    -0.200 F 
ATOM     71  C   UNL A   1      40.614  35.509  40.762  1.00  0.00     0.200 A 
ATOM     72  F   UNL A   1      42.136  36.946  39.671  1.00  0.00    -0.200 F 
ATOM     73  F   UNL A   1      40.653  36.278  41.859  1.00  0.00    -0.200 F 
ENDBRANCH  49  63
BRANCH  50  74
ATOM     74  C   UNL A   1      40.151  28.634  29.990  1.00  0.00     0.064 A 
ATOM     75  C   UNL A   1      39.493  27.397  29.923  1.00  0.00     0.173 A 
ATOM     76  C   UNL A   1      40.768  29.111  28.825  1.00  0.00     0.173 A 
ATOM     77  F   UNL A   1      38.905  26.892  31.017  1.00  0.00    -0.203 F 
ATOM     78  C   UNL A   1      39.472  26.658  28.743  1.00  0.00     0.198 A 
ATOM     79  C   UNL A   1      40.724  28.382  27.639  1.00  0.00     0.198 A 
ATOM     80  F   UNL A   1      41.406  30.290  28.838  1.00  0.00    -0.203 F 
ATOM     81  F   UNL A   1      38.873  25.459  28.716  1.00  0.00    -0.200 F 
ATOM     82  C   UNL A   1      40.083  27.153  27.600  1.00  0.00     0.200 A 
ATOM     83  F   UNL A   1      41.306  28.868  26.534  1.00  0.00    -0.200 F 
ATOM     84  F   UNL A   1      40.058  26.442  26.464  1.00  0.00    -0.200 F 
ENDBRANCH  50  74
BRANCH  62  85
ATOM     85  C   UNL A   1      44.328  28.512  35.556  1.00  0.00     0.064 A 
ATOM     86  C   UNL A   1      45.630  28.865  35.173  1.00  0.00     0.173 A 
ATOM     87  C   UNL A   1      44.158  27.340  36.309  1.00  0.00     0.173 A 
ATOM     88  F   UNL A   1      45.841  29.967  34.438  1.00  0.00    -0.203 F 
ATOM     89  C   UNL A   1      46.717  28.061  35.506  1.00  0.00     0.198 A 
ATOM     90  C   UNL A   1      45.250  26.554  36.665  1.00  0.00     0.198 A 
ATOM     91  F   UNL A   1      42.934  26.962  36.705  1.00  0.00    -0.203 F 
ATOM     92  F   UNL A   1      47.946  28.392  35.087  1.00  0.00    -0.200 F 
ATOM     93  C   UNL A   1      46.526  26.910  36.256  1.00  0.00     0.200 A 
ATOM     94  F   UNL A   1      45.067  25.448  37.398  1.00  0.00    -0.200 F 
ATOM     95  F   UNL A   1      47.574  26.138  36.577  1.00  0.00    -0.200 F 
ENDBRANCH  62  85
ENDBRANCH  36  37
ENDBRANCH  28  31
ENDBRANCH  26  27
ENDBRANCH  25  26
ENDBRANCH  24  25
ENDBRANCH  23  24
ENDBRANCH   1  23
TORSDOF 17
ENDMDL
