MODEL 1
REMARK VINA RESULT:     -12.8      0.000      0.000
REMARK SMILES CCc1cc(OC(F)(F)F)cc2c1O[C@@H](C(F)(F)F)C(C(=O)NCCCCCCNC(=O)c1ccc(-c3c4nc(c(-c5c(F)c(F)c(F)c(F)c5F)c5ccc([nH]5)c(-c5c(F)c(F)c(F)c(F)c5F)c5nc(c(-c6c(F)c(F)c(F)c(F)c6F)c6ccc3[nH]6)C=C5)C=C4)cc1)=C2
REMARK SMILES IDX 26 1 25 2 24 3 23 4 21 5 22 6 20 8 3 9 4 10 13 11 5 12 12 13
REMARK SMILES IDX 14 14 11 15 96 16 15 17 2 18 1 19 6 20 7 21 8 22 9 23 10 24
REMARK SMILES IDX 16 25 17 26 18 27 19 28 27 29 28 30 29 31 30 32 31 33 32 35
REMARK SMILES IDX 33 36 34 37 95 38 35 39 94 40 36 41 37 42 38 43 88 44 39 45
REMARK SMILES IDX 93 46 87 47 89 48 40 49 92 50 86 51 85 52 41 54 73 55 53 56
REMARK SMILES IDX 72 57 54 58 57 59 71 60 90 61 55 62 56 63 70 65 91 66 58 67
REMARK SMILES IDX 42 68 43 69 51 70 44 71 45 72 49 73 52 74 46 75 47 76 50 77
REMARK SMILES IDX 48 78 74 79 75 80 83 81 76 82 77 83 81 84 84 85 78 86 79 87
REMARK SMILES IDX 82 88 80 89 59 90 60 91 68 92 61 93 62 94 66 95 69 96 63 97
REMARK SMILES IDX 64 98 67 99 65 100
REMARK H PARENT 23 7 30 34 89 53 57 64
REMARK Flexibility Score: inf
ROOT
ATOM      1  C   UNL A   1      32.468  29.934  27.130  1.00  0.00     0.002 C 
ENDROOT
BRANCH   1   2
ATOM      2  C   UNL A   1      32.062  28.460  27.275  1.00  0.00     0.021 C 
BRANCH   2   3
ATOM      3  C   UNL A   1      32.989  27.505  26.510  1.00  0.00     0.116 C 
BRANCH   3   4
ATOM      4  N   UNL A   1      32.893  27.782  25.087  1.00  0.00    -0.352 N 
ATOM      5  C   UNL A   1      33.197  27.055  23.982  1.00  0.00     0.251 C 
ATOM      6  O   UNL A   1      33.241  27.642  22.904  1.00  0.00    -0.270 OA
ATOM      7  H   UNL A   1      32.535  28.677  24.885  1.00  0.00     0.163 HD
BRANCH   5   8
ATOM      8  C   UNL A   1      33.386  25.580  24.011  1.00  0.00     0.067 C 
ATOM      9  C   UNL A   1      33.460  21.379  24.357  1.00  0.00    -0.002 A 
ATOM     10  C   UNL A   1      34.605  20.773  24.908  1.00  0.00     0.054 A 
ATOM     11  C   UNL A   1      33.449  22.778  24.197  1.00  0.00     0.131 A 
ATOM     12  C   UNL A   1      35.695  21.540  25.328  1.00  0.00     0.130 A 
ATOM     13  C   UNL A   1      34.545  23.547  24.587  1.00  0.00     0.021 A 
ATOM     14  O   UNL A   1      32.305  23.345  23.713  1.00  0.00    -0.475 OA
ATOM     15  C   UNL A   1      35.659  22.924  25.157  1.00  0.00     0.058 A 
ATOM     16  C   UNL A   1      34.492  24.997  24.491  1.00  0.00     0.025 C 
ATOM     17  C   UNL A   1      32.312  24.746  23.318  1.00  0.00     0.314 C 
BRANCH   9  18
ATOM     18  C   UNL A   1      32.279  20.556  23.874  1.00  0.00     0.036 C 
ATOM     19  C   UNL A   1      32.549  19.079  23.606  1.00  0.00     0.009 C 
ENDBRANCH   9  18
BRANCH  12  20
ATOM     20  O   UNL A   1      36.835  21.079  25.922  1.00  0.00    -0.406 OA
BRANCH  20  21
ATOM     21  C   UNL A   1      37.953  20.803  25.095  1.00  0.00     0.573 C 
ATOM     22  F   UNL A   1      39.047  21.475  25.509  1.00  0.00    -0.132 F 
ATOM     23  F   UNL A   1      38.216  19.480  25.067  1.00  0.00    -0.132 F 
ATOM     24  F   UNL A   1      37.666  21.203  23.836  1.00  0.00    -0.132 F 
ENDBRANCH  20  21
ENDBRANCH  12  20
BRANCH  17  25
ATOM     25  C   UNL A   1      30.853  25.249  23.424  1.00  0.00     0.429 C 
ATOM     26  F   UNL A   1      30.571  26.238  22.549  1.00  0.00    -0.167 F 
ATOM     27  F   UNL A   1      29.974  24.250  23.130  1.00  0.00    -0.167 F 
ATOM     28  F   UNL A   1      30.545  25.681  24.669  1.00  0.00    -0.167 F 
ENDBRANCH  17  25
ENDBRANCH   5   8
ENDBRANCH   3   4
ENDBRANCH   2   3
ENDBRANCH   1   2
BRANCH   1  29
ATOM     29  C   UNL A   1      31.588  30.747  26.172  1.00  0.00     0.002 C 
BRANCH  29  30
ATOM     30  C   UNL A   1      31.408  32.218  26.555  1.00  0.00     0.021 C 
BRANCH  30  31
ATOM     31  C   UNL A   1      32.581  32.809  27.332  1.00  0.00     0.116 C 
BRANCH  31  32
ATOM     32  N   UNL A   1      32.382  34.224  27.609  1.00  0.00    -0.352 N 
ATOM     33  C   UNL A   1      32.966  35.015  28.567  1.00  0.00     0.251 C 
ATOM     34  H   UNL A   1      31.734  34.680  27.025  1.00  0.00     0.163 HD
ATOM     35  O   UNL A   1      32.506  36.122  28.823  1.00  0.00    -0.269 OA
BRANCH  33  36
ATOM     36  C   UNL A   1      34.149  34.520  29.303  1.00  0.00     0.039 A 
ATOM     37  C   UNL A   1      33.974  33.984  30.581  1.00  0.00     0.014 A 
ATOM     38  C   UNL A   1      35.423  34.591  28.734  1.00  0.00     0.014 A 
ATOM     39  C   UNL A   1      35.070  33.450  31.260  1.00  0.00     0.010 A 
ATOM     40  C   UNL A   1      36.503  34.000  29.383  1.00  0.00     0.010 A 
ATOM     41  C   UNL A   1      36.335  33.414  30.648  1.00  0.00    -0.014 A 
BRANCH  41  42
ATOM     42  C   UNL A   1      37.482  32.731  31.295  1.00  0.00     0.031 A 
ATOM     43  C   UNL A   1      38.156  31.568  30.625  1.00  0.00     0.074 A 
ATOM     44  C   UNL A   1      37.865  33.119  32.527  1.00  0.00     0.049 A 
ATOM     45  N   UNL A   1      39.121  30.803  31.070  1.00  0.00    -0.248 NA
ATOM     46  C   UNL A   1      37.664  31.200  29.289  1.00  0.00     0.031 C 
ATOM     47  C   UNL A   1      37.257  34.205  33.298  1.00  0.00     0.029 A 
ATOM     48  N   UNL A   1      38.848  32.635  33.354  1.00  0.00    -0.354 N 
ATOM     49  C   UNL A   1      39.347  29.863  30.075  1.00  0.00     0.074 A 
ATOM     50  C   UNL A   1      38.385  30.119  29.025  1.00  0.00     0.031 C 
ATOM     51  C   UNL A   1      37.891  34.317  34.475  1.00  0.00     0.029 A 
ATOM     52  C   UNL A   1      38.919  33.285  34.562  1.00  0.00     0.049 A 
ATOM     53  H   UNL A   1      39.445  31.892  33.106  1.00  0.00     0.167 HD
ATOM     54  C   UNL A   1      40.285  28.886  30.034  1.00  0.00     0.037 A 
ATOM     55  C   UNL A   1      39.714  33.065  35.626  1.00  0.00     0.037 A 
ATOM     56  C   UNL A   1      41.248  28.644  31.078  1.00  0.00     0.049 A 
ATOM     57  C   UNL A   1      40.730  31.958  35.565  1.00  0.00     0.074 A 
ATOM     58  C   UNL A   1      42.280  27.721  31.104  1.00  0.00     0.029 A 
ATOM     59  N   UNL A   1      41.292  29.325  32.288  1.00  0.00    -0.354 N 
ATOM     60  N   UNL A   1      40.984  31.121  34.588  1.00  0.00    -0.248 NA
ATOM     61  C   UNL A   1      41.571  31.765  36.754  1.00  0.00     0.031 C 
ATOM     62  C   UNL A   1      42.911  27.805  32.349  1.00  0.00     0.029 A 
ATOM     63  C   UNL A   1      42.311  28.818  33.079  1.00  0.00     0.049 A 
ATOM     64  H   UNL A   1      40.688  30.058  32.545  1.00  0.00     0.167 HD
ATOM     65  C   UNL A   1      42.026  30.319  35.033  1.00  0.00     0.074 A 
ATOM     66  C   UNL A   1      42.371  30.784  36.361  1.00  0.00     0.031 C 
ATOM     67  C   UNL A   1      42.640  29.288  34.401  1.00  0.00     0.037 A 
BRANCH  54  68
ATOM     68  C   UNL A   1      40.320  28.002  28.821  1.00  0.00     0.064 A 
ATOM     69  C   UNL A   1      41.058  28.347  27.678  1.00  0.00     0.173 A 
ATOM     70  C   UNL A   1      39.642  26.774  28.816  1.00  0.00     0.173 A 
ATOM     71  F   UNL A   1      41.716  29.515  27.626  1.00  0.00    -0.203 F 
ATOM     72  C   UNL A   1      41.094  27.508  26.567  1.00  0.00     0.198 A 
ATOM     73  C   UNL A   1      39.706  25.923  27.716  1.00  0.00     0.198 A 
ATOM     74  F   UNL A   1      38.925  26.391  29.883  1.00  0.00    -0.203 F 
ATOM     75  F   UNL A   1      41.768  27.880  25.470  1.00  0.00    -0.200 F 
ATOM     76  C   UNL A   1      40.425  26.294  26.589  1.00  0.00     0.200 A 
ATOM     77  F   UNL A   1      39.070  24.743  27.744  1.00  0.00    -0.200 F 
ATOM     78  F   UNL A   1      40.469  25.483  25.523  1.00  0.00    -0.200 F 
ENDBRANCH  54  68
BRANCH  55  79
ATOM     79  C   UNL A   1      39.586  33.918  36.837  1.00  0.00     0.064 A 
ATOM     80  C   UNL A   1      38.790  33.519  37.919  1.00  0.00     0.173 A 
ATOM     81  C   UNL A   1      40.253  35.149  36.936  1.00  0.00     0.173 A 
ATOM     82  F   UNL A   1      38.117  32.360  37.863  1.00  0.00    -0.203 F 
ATOM     83  C   UNL A   1      38.649  34.326  39.046  1.00  0.00     0.198 A 
ATOM     84  C   UNL A   1      40.135  35.941  38.076  1.00  0.00     0.198 A 
ATOM     85  F   UNL A   1      41.031  35.575  35.932  1.00  0.00    -0.203 F 
ATOM     86  F   UNL A   1      37.844  33.941  40.046  1.00  0.00    -0.200 F 
ATOM     87  C   UNL A   1      39.326  35.533  39.126  1.00  0.00     0.200 A 
ATOM     88  F   UNL A   1      40.805  37.099  38.157  1.00  0.00    -0.200 F 
ATOM     89  F   UNL A   1      39.195  36.307  40.213  1.00  0.00    -0.200 F 
ENDBRANCH  55  79
BRANCH  67  90
ATOM     90  C   UNL A   1      43.760  28.606  35.132  1.00  0.00     0.064 A 
ATOM     91  C   UNL A   1      43.532  27.491  35.952  1.00  0.00     0.173 A 
ATOM     92  C   UNL A   1      45.082  29.054  34.985  1.00  0.00     0.173 A 
ATOM     93  F   UNL A   1      42.284  27.034  36.137  1.00  0.00    -0.203 F 
ATOM     94  C   UNL A   1      44.582  26.867  36.619  1.00  0.00     0.198 A 
ATOM     95  C   UNL A   1      46.133  28.407  35.628  1.00  0.00     0.198 A 
ATOM     96  F   UNL A   1      45.356  30.113  34.208  1.00  0.00    -0.203 F 
ATOM     97  F   UNL A   1      44.333  25.835  37.438  1.00  0.00    -0.200 F 
ATOM     98  C   UNL A   1      45.882  27.320  36.451  1.00  0.00     0.200 A 
ATOM     99  F   UNL A   1      47.391  28.838  35.453  1.00  0.00    -0.200 F 
ATOM    100  F   UNL A   1      46.892  26.714  37.089  1.00  0.00    -0.200 F 
ENDBRANCH  67  90
ENDBRANCH  41  42
ENDBRANCH  33  36
ENDBRANCH  31  32
ENDBRANCH  30  31
ENDBRANCH  29  30
ENDBRANCH   1  29
TORSDOF 17
ENDMDL
MODEL 2
REMARK VINA RESULT:     -12.3      6.106     10.826
REMARK SMILES CCc1cc(OC(F)(F)F)cc2c1O[C@@H](C(F)(F)F)C(C(=O)NCCCCCCNC(=O)c1ccc(-c3c4nc(c(-c5c(F)c(F)c(F)c(F)c5F)c5ccc([nH]5)c(-c5c(F)c(F)c(F)c(F)c5F)c5nc(c(-c6c(F)c(F)c(F)c(F)c6F)c6ccc3[nH]6)C=C5)C=C4)cc1)=C2
REMARK SMILES IDX 26 1 25 2 24 3 23 4 21 5 22 6 20 8 3 9 4 10 13 11 5 12 12 13
REMARK SMILES IDX 14 14 11 15 96 16 15 17 2 18 1 19 6 20 7 21 8 22 9 23 10 24
REMARK SMILES IDX 16 25 17 26 18 27 19 28 27 29 28 30 29 31 30 32 31 33 32 35
REMARK SMILES IDX 33 36 34 37 95 38 35 39 94 40 36 41 37 42 38 43 88 44 39 45
REMARK SMILES IDX 93 46 87 47 89 48 40 49 92 50 86 51 85 52 41 54 73 55 53 56
REMARK SMILES IDX 72 57 54 58 57 59 71 60 90 61 55 62 56 63 70 65 91 66 58 67
REMARK SMILES IDX 42 68 43 69 51 70 44 71 45 72 49 73 52 74 46 75 47 76 50 77
REMARK SMILES IDX 48 78 74 79 75 80 83 81 76 82 77 83 81 84 84 85 78 86 79 87
REMARK SMILES IDX 82 88 80 89 59 90 60 91 68 92 61 93 62 94 66 95 69 96 63 97
REMARK SMILES IDX 64 98 67 99 65 100
REMARK H PARENT 23 7 30 34 89 53 57 64
REMARK Flexibility Score: inf
ROOT
ATOM      1  C   UNL A   1      40.496  22.346  26.908  1.00  0.00     0.002 C 
ENDROOT
BRANCH   1   2
ATOM      2  C   UNL A   1      39.364  21.723  26.078  1.00  0.00     0.021 C 
BRANCH   2   3
ATOM      3  C   UNL A   1      38.113  22.610  26.008  1.00  0.00     0.116 C 
BRANCH   3   4
ATOM      4  N   UNL A   1      37.765  22.837  24.615  1.00  0.00    -0.352 N 
ATOM      5  C   UNL A   1      36.582  23.024  23.977  1.00  0.00     0.251 C 
ATOM      6  O   UNL A   1      36.573  22.948  22.751  1.00  0.00    -0.270 OA
ATOM      7  H   UNL A   1      38.545  22.860  24.015  1.00  0.00     0.163 HD
BRANCH   5   8
ATOM      8  C   UNL A   1      35.332  23.404  24.688  1.00  0.00     0.067 C 
ATOM      9  C   UNL A   1      31.541  24.141  26.379  1.00  0.00    -0.002 A 
ATOM     10  C   UNL A   1      31.092  25.473  26.461  1.00  0.00     0.054 A 
ATOM     11  C   UNL A   1      32.825  23.894  25.857  1.00  0.00     0.131 A 
ATOM     12  C   UNL A   1      31.881  26.529  25.999  1.00  0.00     0.130 A 
ATOM     13  C   UNL A   1      33.630  24.946  25.420  1.00  0.00     0.021 A 
ATOM     14  O   UNL A   1      33.213  22.590  25.735  1.00  0.00    -0.475 OA
ATOM     15  C   UNL A   1      33.151  26.257  25.488  1.00  0.00     0.058 A 
ATOM     16  C   UNL A   1      34.922  24.673  24.811  1.00  0.00     0.025 C 
ATOM     17  C   UNL A   1      34.599  22.282  25.417  1.00  0.00     0.314 C 
BRANCH   9  18
ATOM     18  C   UNL A   1      30.703  22.986  26.899  1.00  0.00     0.036 C 
ATOM     19  C   UNL A   1      29.253  23.305  27.245  1.00  0.00     0.009 C 
ENDBRANCH   9  18
BRANCH  12  20
ATOM     20  O   UNL A   1      31.541  27.851  25.976  1.00  0.00    -0.406 OA
BRANCH  20  21
ATOM     21  C   UNL A   1      31.784  28.623  27.140  1.00  0.00     0.573 C 
ATOM     22  F   UNL A   1      31.049  28.183  28.182  1.00  0.00    -0.132 F 
ATOM     23  F   UNL A   1      33.093  28.602  27.467  1.00  0.00    -0.132 F 
ATOM     24  F   UNL A   1      31.433  29.904  26.889  1.00  0.00    -0.132 F 
ENDBRANCH  20  21
ENDBRANCH  12  20
BRANCH  17  25
ATOM     25  C   UNL A   1      34.606  20.886  24.749  1.00  0.00     0.429 C 
ATOM     26  F   UNL A   1      35.842  20.349  24.665  1.00  0.00    -0.167 F 
ATOM     27  F   UNL A   1      33.878  19.997  25.480  1.00  0.00    -0.167 F 
ATOM     28  F   UNL A   1      34.064  20.904  23.509  1.00  0.00    -0.167 F 
ENDBRANCH  17  25
ENDBRANCH   5   8
ENDBRANCH   3   4
ENDBRANCH   2   3
ENDBRANCH   1   2
BRANCH   1  29
ATOM     29  C   UNL A   1      41.801  21.540  26.914  1.00  0.00     0.002 C 
BRANCH  29  30
ATOM     30  C   UNL A   1      41.702  20.152  26.278  1.00  0.00     0.021 C 
BRANCH  30  31
ATOM     31  C   UNL A   1      42.899  19.248  26.561  1.00  0.00     0.116 C 
BRANCH  31  32
ATOM     32  N   UNL A   1      43.580  18.860  25.334  1.00  0.00    -0.352 N 
ATOM     33  C   UNL A   1      44.263  19.639  24.434  1.00  0.00     0.251 C 
ATOM     34  H   UNL A   1      43.545  17.900  25.119  1.00  0.00     0.163 HD
ATOM     35  O   UNL A   1      44.563  19.195  23.331  1.00  0.00    -0.269 OA
BRANCH  33  36
ATOM     36  C   UNL A   1      44.625  21.027  24.793  1.00  0.00     0.039 A 
ATOM     37  C   UNL A   1      44.207  22.071  23.965  1.00  0.00     0.014 A 
ATOM     38  C   UNL A   1      45.378  21.292  25.940  1.00  0.00     0.014 A 
ATOM     39  C   UNL A   1      44.482  23.390  24.327  1.00  0.00     0.010 A 
ATOM     40  C   UNL A   1      45.595  22.609  26.334  1.00  0.00     0.010 A 
ATOM     41  C   UNL A   1      45.140  23.671  25.536  1.00  0.00    -0.014 A 
BRANCH  41  42
ATOM     42  C   UNL A   1      45.322  25.067  26.005  1.00  0.00     0.031 A 
ATOM     43  C   UNL A   1      46.676  25.716  25.969  1.00  0.00     0.074 A 
ATOM     44  C   UNL A   1      44.270  25.723  26.535  1.00  0.00     0.049 A 
ATOM     45  N   UNL A   1      47.039  26.896  26.403  1.00  0.00    -0.248 NA
ATOM     46  C   UNL A   1      47.771  24.923  25.390  1.00  0.00     0.031 C 
ATOM     47  C   UNL A   1      42.917  25.181  26.666  1.00  0.00     0.029 A 
ATOM     48  N   UNL A   1      44.178  26.982  27.074  1.00  0.00    -0.354 N 
ATOM     49  C   UNL A   1      48.402  26.986  26.156  1.00  0.00     0.074 A 
ATOM     50  C   UNL A   1      48.812  25.722  25.583  1.00  0.00     0.031 C 
ATOM     51  C   UNL A   1      42.126  26.106  27.231  1.00  0.00     0.029 A 
ATOM     52  C   UNL A   1      42.923  27.288  27.540  1.00  0.00     0.049 A 
ATOM     53  H   UNL A   1      44.939  27.606  27.122  1.00  0.00     0.167 HD
ATOM     54  C   UNL A   1      49.231  28.035  26.373  1.00  0.00     0.037 A 
ATOM     55  C   UNL A   1      42.470  28.393  28.163  1.00  0.00     0.037 A 
ATOM     56  C   UNL A   1      48.814  29.294  26.933  1.00  0.00     0.049 A 
ATOM     57  C   UNL A   1      43.417  29.534  28.413  1.00  0.00     0.074 A 
ATOM     58  C   UNL A   1      49.564  30.441  27.133  1.00  0.00     0.029 A 
ATOM     59  N   UNL A   1      47.533  29.571  27.393  1.00  0.00    -0.354 N 
ATOM     60  N   UNL A   1      44.688  29.635  28.110  1.00  0.00    -0.248 NA
ATOM     61  C   UNL A   1      42.866  30.714  29.094  1.00  0.00     0.031 C 
ATOM     62  C   UNL A   1      48.753  31.390  27.765  1.00  0.00     0.029 A 
ATOM     63  C   UNL A   1      47.482  30.857  27.907  1.00  0.00     0.049 A 
ATOM     64  H   UNL A   1      46.775  28.945  27.360  1.00  0.00     0.167 HD
ATOM     65  C   UNL A   1      45.084  30.895  28.539  1.00  0.00     0.074 A 
ATOM     66  C   UNL A   1      43.911  31.529  29.106  1.00  0.00     0.031 C 
ATOM     67  C   UNL A   1      46.308  31.473  28.473  1.00  0.00     0.037 A 
BRANCH  54  68
ATOM     68  C   UNL A   1      50.677  27.869  26.002  1.00  0.00     0.064 A 
ATOM     69  C   UNL A   1      51.127  28.056  24.687  1.00  0.00     0.173 A 
ATOM     70  C   UNL A   1      51.632  27.563  26.984  1.00  0.00     0.173 A 
ATOM     71  F   UNL A   1      50.254  28.340  23.708  1.00  0.00    -0.203 F 
ATOM     72  C   UNL A   1      52.474  27.916  24.362  1.00  0.00     0.198 A 
ATOM     73  C   UNL A   1      52.983  27.455  26.662  1.00  0.00     0.198 A 
ATOM     74  F   UNL A   1      51.259  27.380  28.259  1.00  0.00    -0.203 F 
ATOM     75  F   UNL A   1      52.874  28.053  23.090  1.00  0.00    -0.200 F 
ATOM     76  C   UNL A   1      53.402  27.624  25.351  1.00  0.00     0.200 A 
ATOM     77  F   UNL A   1      53.880  27.186  27.621  1.00  0.00    -0.200 F 
ATOM     78  F   UNL A   1      54.699  27.499  25.039  1.00  0.00    -0.200 F 
ENDBRANCH  54  68
BRANCH  55  79
ATOM     79  C   UNL A   1      41.045  28.477  28.582  1.00  0.00     0.064 A 
ATOM     80  C   UNL A   1      40.063  28.955  27.703  1.00  0.00     0.173 A 
ATOM     81  C   UNL A   1      40.638  28.085  29.865  1.00  0.00     0.173 A 
ATOM     82  F   UNL A   1      40.407  29.361  26.472  1.00  0.00    -0.203 F 
ATOM     83  C   UNL A   1      38.731  29.057  28.100  1.00  0.00     0.198 A 
ATOM     84  C   UNL A   1      39.300  28.159  30.250  1.00  0.00     0.198 A 
ATOM     85  F   UNL A   1      41.536  27.615  30.742  1.00  0.00    -0.203 F 
ATOM     86  F   UNL A   1      37.821  29.562  27.255  1.00  0.00    -0.200 F 
ATOM     87  C   UNL A   1      38.350  28.654  29.369  1.00  0.00     0.200 A 
ATOM     88  F   UNL A   1      38.933  27.751  31.472  1.00  0.00    -0.200 F 
ATOM     89  F   UNL A   1      37.067  28.746  29.748  1.00  0.00    -0.200 F 
ENDBRANCH  55  79
BRANCH  67  90
ATOM     90  C   UNL A   1      46.437  32.869  29.011  1.00  0.00     0.064 A 
ATOM     91  C   UNL A   1      46.202  33.993  28.205  1.00  0.00     0.173 A 
ATOM     92  C   UNL A   1      46.771  33.084  30.357  1.00  0.00     0.173 A 
ATOM     93  F   UNL A   1      45.897  33.840  26.908  1.00  0.00    -0.203 F 
ATOM     94  C   UNL A   1      46.322  35.280  28.720  1.00  0.00     0.198 A 
ATOM     95  C   UNL A   1      46.857  34.372  30.877  1.00  0.00     0.198 A 
ATOM     96  F   UNL A   1      47.000  32.044  31.173  1.00  0.00    -0.203 F 
ATOM     97  F   UNL A   1      46.143  36.339  27.918  1.00  0.00    -0.200 F 
ATOM     98  C   UNL A   1      46.641  35.470  30.057  1.00  0.00     0.200 A 
ATOM     99  F   UNL A   1      47.153  34.553  32.172  1.00  0.00    -0.200 F 
ATOM    100  F   UNL A   1      46.750  36.710  30.552  1.00  0.00    -0.200 F 
ENDBRANCH  67  90
ENDBRANCH  41  42
ENDBRANCH  33  36
ENDBRANCH  31  32
ENDBRANCH  30  31
ENDBRANCH  29  30
ENDBRANCH   1  29
TORSDOF 17
ENDMDL
MODEL 3
REMARK VINA RESULT:     -12.2      5.445     11.084
REMARK SMILES CCc1cc(OC(F)(F)F)cc2c1O[C@@H](C(F)(F)F)C(C(=O)NCCCCCCNC(=O)c1ccc(-c3c4nc(c(-c5c(F)c(F)c(F)c(F)c5F)c5ccc([nH]5)c(-c5c(F)c(F)c(F)c(F)c5F)c5nc(c(-c6c(F)c(F)c(F)c(F)c6F)c6ccc3[nH]6)C=C5)C=C4)cc1)=C2
REMARK SMILES IDX 26 1 25 2 24 3 23 4 21 5 22 6 20 8 3 9 4 10 13 11 5 12 12 13
REMARK SMILES IDX 14 14 11 15 96 16 15 17 2 18 1 19 6 20 7 21 8 22 9 23 10 24
REMARK SMILES IDX 16 25 17 26 18 27 19 28 27 29 28 30 29 31 30 32 31 33 32 35
REMARK SMILES IDX 33 36 34 37 95 38 35 39 94 40 36 41 37 42 38 43 88 44 39 45
REMARK SMILES IDX 93 46 87 47 89 48 40 49 92 50 86 51 85 52 41 54 73 55 53 56
REMARK SMILES IDX 72 57 54 58 57 59 71 60 90 61 55 62 56 63 70 65 91 66 58 67
REMARK SMILES IDX 42 68 43 69 51 70 44 71 45 72 49 73 52 74 46 75 47 76 50 77
REMARK SMILES IDX 48 78 74 79 75 80 83 81 76 82 77 83 81 84 84 85 78 86 79 87
REMARK SMILES IDX 82 88 80 89 59 90 60 91 68 92 61 93 62 94 66 95 69 96 63 97
REMARK SMILES IDX 64 98 67 99 65 100
REMARK H PARENT 23 7 30 34 89 53 57 64
REMARK Flexibility Score: inf
ROOT
ATOM      1  C   UNL A   1      37.967  23.426  26.264  1.00  0.00     0.002 C 
ENDROOT
BRANCH   1   2
ATOM      2  C   UNL A   1      37.190  23.782  24.988  1.00  0.00     0.021 C 
BRANCH   2   3
ATOM      3  C   UNL A   1      36.517  22.566  24.337  1.00  0.00     0.116 C 
BRANCH   3   4
ATOM      4  N   UNL A   1      35.684  21.895  25.320  1.00  0.00    -0.352 N 
ATOM      5  C   UNL A   1      34.608  22.294  26.046  1.00  0.00     0.251 C 
ATOM      6  O   UNL A   1      34.256  21.585  26.985  1.00  0.00    -0.270 OA
ATOM      7  H   UNL A   1      35.955  20.965  25.495  1.00  0.00     0.163 HD
BRANCH   5   8
ATOM      8  C   UNL A   1      33.795  23.488  25.695  1.00  0.00     0.067 C 
ATOM      9  C   UNL A   1      31.561  26.734  24.196  1.00  0.00    -0.002 A 
ATOM     10  C   UNL A   1      31.907  28.034  24.613  1.00  0.00     0.054 A 
ATOM     11  C   UNL A   1      32.275  25.644  24.729  1.00  0.00     0.131 A 
ATOM     12  C   UNL A   1      32.960  28.248  25.505  1.00  0.00     0.130 A 
ATOM     13  C   UNL A   1      33.309  25.849  25.643  1.00  0.00     0.021 A 
ATOM     14  O   UNL A   1      31.958  24.400  24.265  1.00  0.00    -0.475 OA
ATOM     15  C   UNL A   1      33.650  27.150  26.020  1.00  0.00     0.058 A 
ATOM     16  C   UNL A   1      34.090  24.722  26.127  1.00  0.00     0.025 C 
ATOM     17  C   UNL A   1      32.498  23.226  24.935  1.00  0.00     0.314 C 
BRANCH   9  18
ATOM     18  C   UNL A   1      30.404  26.486  23.245  1.00  0.00     0.036 C 
ATOM     19  C   UNL A   1      29.018  26.398  23.876  1.00  0.00     0.009 C 
ENDBRANCH   9  18
BRANCH  12  20
ATOM     20  O   UNL A   1      33.423  29.456  25.945  1.00  0.00    -0.406 OA
BRANCH  20  21
ATOM     21  C   UNL A   1      32.747  30.077  27.024  1.00  0.00     0.573 C 
ATOM     22  F   UNL A   1      32.101  31.191  26.622  1.00  0.00    -0.132 F 
ATOM     23  F   UNL A   1      31.871  29.226  27.598  1.00  0.00    -0.132 F 
ATOM     24  F   UNL A   1      33.659  30.433  27.956  1.00  0.00    -0.132 F 
ENDBRANCH  20  21
ENDBRANCH  12  20
BRANCH  17  25
ATOM     25  C   UNL A   1      32.512  22.081  23.894  1.00  0.00     0.429 C 
ATOM     26  F   UNL A   1      32.494  20.855  24.459  1.00  0.00    -0.167 F 
ATOM     27  F   UNL A   1      31.400  22.129  23.109  1.00  0.00    -0.167 F 
ATOM     28  F   UNL A   1      33.577  22.153  23.062  1.00  0.00    -0.167 F 
ENDBRANCH  17  25
ENDBRANCH   5   8
ENDBRANCH   3   4
ENDBRANCH   2   3
ENDBRANCH   1   2
BRANCH   1  29
ATOM     29  C   UNL A   1      39.277  22.665  26.022  1.00  0.00     0.002 C 
BRANCH  29  30
ATOM     30  C   UNL A   1      39.275  21.212  26.502  1.00  0.00     0.021 C 
BRANCH  30  31
ATOM     31  C   UNL A   1      39.455  20.185  25.387  1.00  0.00     0.116 C 
BRANCH  31  32
ATOM     32  N   UNL A   1      40.370  19.123  25.778  1.00  0.00    -0.352 N 
ATOM     33  C   UNL A   1      41.695  19.200  26.128  1.00  0.00     0.251 C 
ATOM     34  H   UNL A   1      39.983  18.218  25.792  1.00  0.00     0.163 HD
ATOM     35  O   UNL A   1      42.381  18.186  26.189  1.00  0.00    -0.269 OA
BRANCH  33  36
ATOM     36  C   UNL A   1      42.300  20.517  26.419  1.00  0.00     0.039 A 
ATOM     37  C   UNL A   1      42.761  21.299  25.357  1.00  0.00     0.014 A 
ATOM     38  C   UNL A   1      42.414  20.974  27.735  1.00  0.00     0.014 A 
ATOM     39  C   UNL A   1      43.271  22.573  25.610  1.00  0.00     0.010 A 
ATOM     40  C   UNL A   1      42.861  22.270  27.980  1.00  0.00     0.010 A 
ATOM     41  C   UNL A   1      43.284  23.085  26.918  1.00  0.00    -0.014 A 
BRANCH  41  42
ATOM     42  C   UNL A   1      43.695  24.484  27.191  1.00  0.00     0.031 A 
ATOM     43  C   UNL A   1      42.694  25.496  27.672  1.00  0.00     0.074 A 
ATOM     44  C   UNL A   1      44.964  24.857  26.931  1.00  0.00     0.049 A 
ATOM     45  N   UNL A   1      42.852  26.776  27.891  1.00  0.00    -0.248 NA
ATOM     46  C   UNL A   1      41.328  25.007  27.915  1.00  0.00     0.031 C 
ATOM     47  C   UNL A   1      46.014  23.977  26.418  1.00  0.00     0.029 A 
ATOM     48  N   UNL A   1      45.581  26.078  27.048  1.00  0.00    -0.354 N 
ATOM     49  C   UNL A   1      41.610  27.248  28.290  1.00  0.00     0.074 A 
ATOM     50  C   UNL A   1      40.695  26.127  28.234  1.00  0.00     0.031 C 
ATOM     51  C   UNL A   1      47.150  24.679  26.282  1.00  0.00     0.029 A 
ATOM     52  C   UNL A   1      46.898  26.067  26.656  1.00  0.00     0.049 A 
ATOM     53  H   UNL A   1      45.124  26.884  27.382  1.00  0.00     0.167 HD
ATOM     54  C   UNL A   1      41.269  28.498  28.686  1.00  0.00     0.037 A 
ATOM     55  C   UNL A   1      47.796  27.067  26.590  1.00  0.00     0.037 A 
ATOM     56  C   UNL A   1      42.187  29.605  28.751  1.00  0.00     0.049 A 
ATOM     57  C   UNL A   1      47.385  28.451  27.011  1.00  0.00     0.074 A 
ATOM     58  C   UNL A   1      41.955  30.895  29.199  1.00  0.00     0.029 A 
ATOM     59  N   UNL A   1      43.515  29.557  28.347  1.00  0.00    -0.354 N 
ATOM     60  N   UNL A   1      46.226  28.869  27.456  1.00  0.00    -0.248 NA
ATOM     61  C   UNL A   1      48.408  29.501  26.920  1.00  0.00     0.031 C 
ATOM     62  C   UNL A   1      43.124  31.640  29.014  1.00  0.00     0.029 A 
ATOM     63  C   UNL A   1      44.103  30.803  28.504  1.00  0.00     0.049 A 
ATOM     64  H   UNL A   1      43.971  28.756  28.001  1.00  0.00     0.167 HD
ATOM     65  C   UNL A   1      46.384  30.223  27.721  1.00  0.00     0.074 A 
ATOM     66  C   UNL A   1      47.759  30.551  27.405  1.00  0.00     0.031 C 
ATOM     67  C   UNL A   1      45.472  31.115  28.181  1.00  0.00     0.037 A 
BRANCH  54  68
ATOM     68  C   UNL A   1      39.840  28.739  29.081  1.00  0.00     0.064 A 
ATOM     69  C   UNL A   1      39.406  28.589  30.406  1.00  0.00     0.173 A 
ATOM     70  C   UNL A   1      38.902  29.169  28.130  1.00  0.00     0.173 A 
ATOM     71  F   UNL A   1      40.260  28.170  31.353  1.00  0.00    -0.203 F 
ATOM     72  C   UNL A   1      38.082  28.833  30.760  1.00  0.00     0.198 A 
ATOM     73  C   UNL A   1      37.586  29.443  28.493  1.00  0.00     0.198 A 
ATOM     74  F   UNL A   1      39.263  29.335  26.849  1.00  0.00    -0.203 F 
ATOM     75  F   UNL A   1      37.680  28.638  32.024  1.00  0.00    -0.200 F 
ATOM     76  C   UNL A   1      37.174  29.267  29.805  1.00  0.00     0.200 A 
ATOM     77  F   UNL A   1      36.713  29.876  27.572  1.00  0.00    -0.200 F 
ATOM     78  F   UNL A   1      35.903  29.512  30.149  1.00  0.00    -0.200 F 
ENDBRANCH  54  68
BRANCH  55  79
ATOM     79  C   UNL A   1      49.179  26.792  26.116  1.00  0.00     0.064 A 
ATOM     80  C   UNL A   1      49.528  26.974  24.770  1.00  0.00     0.173 A 
ATOM     81  C   UNL A   1      50.176  26.340  26.994  1.00  0.00     0.173 A 
ATOM     82  F   UNL A   1      48.604  27.384  23.889  1.00  0.00    -0.203 F 
ATOM     83  C   UNL A   1      50.816  26.695  24.317  1.00  0.00     0.198 A 
ATOM     84  C   UNL A   1      51.471  26.091  26.545  1.00  0.00     0.198 A 
ATOM     85  F   UNL A   1      49.896  26.156  28.291  1.00  0.00    -0.203 F 
ATOM     86  F   UNL A   1      51.109  26.833  23.017  1.00  0.00    -0.200 F 
ATOM     87  C   UNL A   1      51.787  26.260  25.205  1.00  0.00     0.200 A 
ATOM     88  F   UNL A   1      52.412  25.688  27.409  1.00  0.00    -0.200 F 
ATOM     89  F   UNL A   1      53.028  25.998  24.770  1.00  0.00    -0.200 F 
ENDBRANCH  55  79
BRANCH  67  90
ATOM     90  C   UNL A   1      45.939  32.527  28.387  1.00  0.00     0.064 A 
ATOM     91  C   UNL A   1      46.535  32.937  29.589  1.00  0.00     0.173 A 
ATOM     92  C   UNL A   1      45.814  33.475  27.359  1.00  0.00     0.173 A 
ATOM     93  F   UNL A   1      46.662  32.073  30.608  1.00  0.00    -0.203 F 
ATOM     94  C   UNL A   1      46.966  34.249  29.763  1.00  0.00     0.198 A 
ATOM     95  C   UNL A   1      46.276  34.777  27.525  1.00  0.00     0.198 A 
ATOM     96  F   UNL A   1      45.257  33.133  26.188  1.00  0.00    -0.203 F 
ATOM     97  F   UNL A   1      47.486  34.630  30.938  1.00  0.00    -0.200 F 
ATOM     98  C   UNL A   1      46.844  35.166  28.729  1.00  0.00     0.200 A 
ATOM     99  F   UNL A   1      46.170  35.658  26.520  1.00  0.00    -0.200 F 
ATOM    100  F   UNL A   1      47.265  36.426  28.897  1.00  0.00    -0.200 F 
ENDBRANCH  67  90
ENDBRANCH  41  42
ENDBRANCH  33  36
ENDBRANCH  31  32
ENDBRANCH  30  31
ENDBRANCH  29  30
ENDBRANCH   1  29
TORSDOF 17
ENDMDL
