MODEL 1
REMARK VINA RESULT:     -13.5      0.000      0.000
REMARK SMILES O=C(NCCCCCCNC(=O)[C@H]1CC=CC[C@@H]1C(=O)Nc1nn(Cc2ccccc2F)cc1Br)c1ccc(-c2c3nc(c(-c4c(F)c(F)c(F)c(F)c4F)c4ccc([nH]4)c(-c4c(F)c(F)c(F)c(F)c4F)c4nc(c(-c5c(F)c(F)c(F)c(F)c5F)c5ccc2[nH]5)C=C4)C=C3)cc1
REMARK SMILES IDX 7 1 6 2 5 3 4 4 3 5 1 6 2 7 36 9 37 10 98 11 38 12 97 13
REMARK SMILES IDX 39 14 40 15 41 16 91 17 42 18 96 19 90 20 92 21 43 22 95 23
REMARK SMILES IDX 89 24 88 25 44 27 76 28 56 29 75 30 57 31 60 32 74 33 93 34
REMARK SMILES IDX 58 35 59 36 73 38 94 39 61 40 45 41 46 42 54 43 47 44 48 45
REMARK SMILES IDX 52 46 55 47 49 48 50 49 53 50 51 51 77 52 78 53 86 54 79 55
REMARK SMILES IDX 80 56 84 57 87 58 81 59 82 60 85 61 83 62 62 63 63 64 71 65
REMARK SMILES IDX 64 66 65 67 69 68 72 69 66 70 67 71 70 72 68 73 8 74 9 75
REMARK SMILES IDX 10 76 11 77 12 79 13 80 14 81 18 82 15 83 17 84 16 85 19 86
REMARK SMILES IDX 20 87 21 88 22 90 23 91 34 92 24 93 33 94 35 95 25 96 26 97
REMARK SMILES IDX 27 98 31 99 28 100 30 101 32 102 29 103
REMARK H PARENT 3 8 92 26 60 37 10 78 21 89
REMARK Flexibility Score: inf
ROOT
ATOM      1  C   UNL A   1      33.386  28.111  26.736  1.00  0.00     0.002 C 
ENDROOT
BRANCH   1   2
ATOM      2  C   UNL A   1      34.171  29.184  27.493  1.00  0.00     0.002 C 
BRANCH   2   3
ATOM      3  C   UNL A   1      33.613  30.606  27.375  1.00  0.00     0.021 C 
BRANCH   3   4
ATOM      4  C   UNL A   1      34.558  31.703  27.867  1.00  0.00     0.116 C 
BRANCH   4   5
ATOM      5  N   UNL A   1      34.439  31.978  29.282  1.00  0.00    -0.352 N 
ATOM      6  O   UNL A   1      34.839  32.244  31.436  1.00  0.00    -0.269 OA
ATOM      7  C   UNL A   1      35.253  31.799  30.370  1.00  0.00     0.251 C 
ATOM      8  H   UNL A   1      33.576  32.387  29.518  1.00  0.00     0.163 HD
BRANCH   7   9
ATOM      9  C   UNL A   1      36.562  31.083  30.349  1.00  0.00     0.039 A 
ATOM     10  C   UNL A   1      37.821  31.677  30.258  1.00  0.00     0.014 A 
ATOM     11  C   UNL A   1      36.494  29.678  30.411  1.00  0.00     0.014 A 
ATOM     12  C   UNL A   1      38.973  30.899  30.174  1.00  0.00     0.010 A 
ATOM     13  C   UNL A   1      37.643  28.894  30.349  1.00  0.00     0.010 A 
ATOM     14  C   UNL A   1      38.885  29.508  30.206  1.00  0.00    -0.014 A 
BRANCH  14  15
ATOM     15  C   UNL A   1      40.134  28.748  30.198  1.00  0.00     0.031 A 
ATOM     16  C   UNL A   1      40.803  28.555  31.523  1.00  0.00     0.074 A 
ATOM     17  C   UNL A   1      40.600  28.106  29.110  1.00  0.00     0.049 A 
ATOM     18  N   UNL A   1      42.040  28.769  31.850  1.00  0.00    -0.248 NA
ATOM     19  C   UNL A   1      39.965  28.080  32.635  1.00  0.00     0.031 C 
ATOM     20  C   UNL A   1      39.929  27.911  27.824  1.00  0.00     0.029 A 
ATOM     21  N   UNL A   1      41.753  27.388  28.976  1.00  0.00    -0.354 N 
ATOM     22  C   UNL A   1      42.176  28.321  33.166  1.00  0.00     0.074 A 
ATOM     23  C   UNL A   1      40.853  27.984  33.624  1.00  0.00     0.031 C 
ATOM     24  C   UNL A   1      40.584  26.957  27.126  1.00  0.00     0.029 A 
ATOM     25  C   UNL A   1      41.780  26.573  27.856  1.00  0.00     0.049 A 
ATOM     26  H   UNL A   1      42.499  27.443  29.618  1.00  0.00     0.167 HD
ATOM     27  C   UNL A   1      43.388  28.103  33.746  1.00  0.00     0.037 A 
ATOM     28  C   UNL A   1      42.678  25.596  27.590  1.00  0.00     0.037 A 
ATOM     29  C   UNL A   1      44.435  28.848  33.104  1.00  0.00     0.049 A 
ATOM     30  C   UNL A   1      43.884  25.840  28.417  1.00  0.00     0.074 A 
ATOM     31  C   UNL A   1      44.690  30.189  32.899  1.00  0.00     0.029 A 
ATOM     32  N   UNL A   1      45.328  28.185  32.303  1.00  0.00    -0.354 N 
ATOM     33  N   UNL A   1      44.719  26.826  28.246  1.00  0.00    -0.248 NA
ATOM     34  C   UNL A   1      43.992  25.144  29.691  1.00  0.00     0.031 C 
ATOM     35  C   UNL A   1      45.361  30.255  31.643  1.00  0.00     0.029 A 
ATOM     36  C   UNL A   1      45.480  28.946  31.175  1.00  0.00     0.049 A 
ATOM     37  H   UNL A   1      45.774  27.330  32.501  1.00  0.00     0.167 HD
ATOM     38  C   UNL A   1      45.169  27.131  29.519  1.00  0.00     0.074 A 
ATOM     39  C   UNL A   1      44.790  25.991  30.342  1.00  0.00     0.031 C 
ATOM     40  C   UNL A   1      45.560  28.397  29.843  1.00  0.00     0.037 A 
BRANCH  27  41
ATOM     41  C   UNL A   1      43.673  26.990  34.727  1.00  0.00     0.064 A 
ATOM     42  C   UNL A   1      43.878  25.648  34.339  1.00  0.00     0.173 A 
ATOM     43  C   UNL A   1      44.044  27.299  36.052  1.00  0.00     0.173 A 
ATOM     44  F   UNL A   1      43.665  25.233  33.085  1.00  0.00    -0.203 F 
ATOM     45  C   UNL A   1      44.420  24.695  35.202  1.00  0.00     0.198 A 
ATOM     46  C   UNL A   1      44.637  26.355  36.896  1.00  0.00     0.198 A 
ATOM     47  F   UNL A   1      43.921  28.550  36.523  1.00  0.00    -0.203 F 
ATOM     48  F   UNL A   1      44.614  23.443  34.764  1.00  0.00    -0.200 F 
ATOM     49  C   UNL A   1      44.827  25.055  36.469  1.00  0.00     0.200 A 
ATOM     50  F   UNL A   1      45.084  26.729  38.103  1.00  0.00    -0.200 F 
ATOM     51  F   UNL A   1      45.446  24.164  37.255  1.00  0.00    -0.200 F 
ENDBRANCH  27  41
BRANCH  28  52
ATOM     52  C   UNL A   1      42.450  24.310  26.893  1.00  0.00     0.064 A 
ATOM     53  C   UNL A   1      41.596  23.327  27.430  1.00  0.00     0.173 A 
ATOM     54  C   UNL A   1      43.276  23.909  25.831  1.00  0.00     0.173 A 
ATOM     55  F   UNL A   1      40.831  23.587  28.500  1.00  0.00    -0.203 F 
ATOM     56  C   UNL A   1      41.578  22.020  26.943  1.00  0.00     0.198 A 
ATOM     57  C   UNL A   1      43.268  22.594  25.354  1.00  0.00     0.198 A 
ATOM     58  F   UNL A   1      44.152  24.770  25.294  1.00  0.00    -0.203 F 
ATOM     59  F   UNL A   1      40.783  21.108  27.520  1.00  0.00    -0.200 F 
ATOM     60  C   UNL A   1      42.425  21.650  25.917  1.00  0.00     0.200 A 
ATOM     61  F   UNL A   1      44.120  22.230  24.386  1.00  0.00    -0.200 F 
ATOM     62  F   UNL A   1      42.460  20.377  25.500  1.00  0.00    -0.200 F 
ENDBRANCH  28  52
BRANCH  40  63
ATOM     63  C   UNL A   1      45.792  29.371  28.726  1.00  0.00     0.064 A 
ATOM     64  C   UNL A   1      47.111  29.652  28.345  1.00  0.00     0.173 A 
ATOM     65  C   UNL A   1      44.771  30.140  28.142  1.00  0.00     0.173 A 
ATOM     66  F   UNL A   1      48.131  28.992  28.918  1.00  0.00    -0.203 F 
ATOM     67  C   UNL A   1      47.398  30.652  27.420  1.00  0.00     0.198 A 
ATOM     68  C   UNL A   1      45.057  31.113  27.187  1.00  0.00     0.198 A 
ATOM     69  F   UNL A   1      43.497  30.003  28.532  1.00  0.00    -0.203 F 
ATOM     70  F   UNL A   1      48.672  30.937  27.120  1.00  0.00    -0.200 F 
ATOM     71  C   UNL A   1      46.371  31.374  26.834  1.00  0.00     0.200 A 
ATOM     72  F   UNL A   1      44.064  31.829  26.638  1.00  0.00    -0.200 F 
ATOM     73  F   UNL A   1      46.650  32.344  25.951  1.00  0.00    -0.200 F 
ENDBRANCH  40  63
ENDBRANCH  14  15
ENDBRANCH   7   9
ENDBRANCH   4   5
ENDBRANCH   3   4
ENDBRANCH   2   3
ENDBRANCH   1   2
BRANCH   1  74
ATOM     74  C   UNL A   1      31.860  28.182  26.891  1.00  0.00     0.021 C 
BRANCH  74  75
ATOM     75  C   UNL A   1      31.090  27.110  26.120  1.00  0.00     0.116 C 
BRANCH  75  76
ATOM     76  N   UNL A   1      31.143  25.845  26.818  1.00  0.00    -0.356 N 
ATOM     77  C   UNL A   1      31.720  24.666  26.462  1.00  0.00     0.224 C 
ATOM     78  H   UNL A   1      30.687  25.835  27.690  1.00  0.00     0.163 HD
ATOM     79  O   UNL A   1      31.474  23.702  27.187  1.00  0.00    -0.275 OA
BRANCH  77  80
ATOM     80  C   UNL A   1      32.652  24.603  25.250  1.00  0.00     0.095 C 
ATOM     81  C   UNL A   1      33.611  23.409  25.407  1.00  0.00     0.041 C 
ATOM     82  C   UNL A   1      31.833  24.535  23.941  1.00  0.00     0.095 C 
ATOM     83  C   UNL A   1      33.019  22.098  24.983  1.00  0.00    -0.030 C 
ATOM     84  C   UNL A   1      31.108  23.179  23.777  1.00  0.00     0.041 C 
ATOM     85  C   UNL A   1      31.887  21.996  24.275  1.00  0.00    -0.030 C 
BRANCH  82  86
ATOM     86  C   UNL A   1      32.693  24.818  22.693  1.00  0.00     0.229 C 
ATOM     87  O   UNL A   1      33.539  24.018  22.283  1.00  0.00    -0.274 OA
ATOM     88  N   UNL A   1      32.441  25.939  21.941  1.00  0.00    -0.308 N 
ATOM     89  H   UNL A   1      32.735  25.917  21.001  1.00  0.00     0.171 HD
BRANCH  88  90
ATOM     90  C   UNL A   1      31.822  27.092  22.369  1.00  0.00     0.168 A 
ATOM     91  N   UNL A   1      30.501  27.249  22.329  1.00  0.00    -0.153 NA
ATOM     92  C   UNL A   1      32.428  28.232  22.933  1.00  0.00     0.080 A 
ATOM     93  N   UNL A   1      30.268  28.481  22.809  1.00  0.00    -0.265 N 
ATOM     94  C   UNL A   1      31.416  29.130  23.172  1.00  0.00     0.127 A 
ATOM     95  Br  UNL A   1      34.262  28.497  23.181  1.00  0.00    -0.045 Br
BRANCH  93  96
ATOM     96  C   UNL A   1      28.892  28.932  23.010  1.00  0.00     0.182 C 
BRANCH  96  97
ATOM     97  C   UNL A   1      28.607  30.273  22.383  1.00  0.00     0.009 A 
ATOM     98  C   UNL A   1      28.175  30.379  21.053  1.00  0.00     0.008 A 
ATOM     99  C   UNL A   1      28.758  31.450  23.129  1.00  0.00     0.128 A 
ATOM    100  C   UNL A   1      27.890  31.632  20.501  1.00  0.00     0.001 A 
ATOM    101  C   UNL A   1      28.454  32.695  22.589  1.00  0.00     0.039 A 
ATOM    102  F   UNL A   1      29.215  31.394  24.388  1.00  0.00    -0.207 F 
ATOM    103  C   UNL A   1      28.017  32.788  21.271  1.00  0.00     0.003 A 
ENDBRANCH  96  97
ENDBRANCH  93  96
ENDBRANCH  88  90
ENDBRANCH  82  86
ENDBRANCH  77  80
ENDBRANCH  75  76
ENDBRANCH  74  75
ENDBRANCH   1  74
TORSDOF 17
ENDMDL
MODEL 2
REMARK VINA RESULT:     -13.0      3.668      9.606
REMARK SMILES O=C(NCCCCCCNC(=O)[C@H]1CC=CC[C@@H]1C(=O)Nc1nn(Cc2ccccc2F)cc1Br)c1ccc(-c2c3nc(c(-c4c(F)c(F)c(F)c(F)c4F)c4ccc([nH]4)c(-c4c(F)c(F)c(F)c(F)c4F)c4nc(c(-c5c(F)c(F)c(F)c(F)c5F)c5ccc2[nH]5)C=C4)C=C3)cc1
REMARK SMILES IDX 7 1 6 2 5 3 4 4 3 5 1 6 2 7 36 9 37 10 98 11 38 12 97 13
REMARK SMILES IDX 39 14 40 15 41 16 91 17 42 18 96 19 90 20 92 21 43 22 95 23
REMARK SMILES IDX 89 24 88 25 44 27 76 28 56 29 75 30 57 31 60 32 74 33 93 34
REMARK SMILES IDX 58 35 59 36 73 38 94 39 61 40 45 41 46 42 54 43 47 44 48 45
REMARK SMILES IDX 52 46 55 47 49 48 50 49 53 50 51 51 77 52 78 53 86 54 79 55
REMARK SMILES IDX 80 56 84 57 87 58 81 59 82 60 85 61 83 62 62 63 63 64 71 65
REMARK SMILES IDX 64 66 65 67 69 68 72 69 66 70 67 71 70 72 68 73 8 74 9 75
REMARK SMILES IDX 10 76 11 77 12 79 13 80 14 81 18 82 15 83 17 84 16 85 19 86
REMARK SMILES IDX 20 87 21 88 22 90 23 91 34 92 24 93 33 94 35 95 25 96 26 97
REMARK SMILES IDX 27 98 31 99 28 100 30 101 32 102 29 103
REMARK H PARENT 3 8 92 26 60 37 10 78 21 89
REMARK Flexibility Score: inf
ROOT
ATOM      1  C   UNL A   1      36.841  22.491  24.235  1.00  0.00     0.002 C 
ENDROOT
BRANCH   1   2
ATOM      2  C   UNL A   1      37.455  22.012  25.552  1.00  0.00     0.002 C 
BRANCH   2   3
ATOM      3  C   UNL A   1      38.663  22.817  26.040  1.00  0.00     0.021 C 
BRANCH   3   4
ATOM      4  C   UNL A   1      39.839  21.968  26.526  1.00  0.00     0.116 C 
BRANCH   4   5
ATOM      5  N   UNL A   1      41.066  22.210  25.802  1.00  0.00    -0.352 N 
ATOM      6  O   UNL A   1      42.962  23.061  25.056  1.00  0.00    -0.269 OA
ATOM      7  C   UNL A   1      41.958  23.249  25.737  1.00  0.00     0.251 C 
ATOM      8  H   UNL A   1      41.319  21.458  25.221  1.00  0.00     0.163 HD
BRANCH   7   9
ATOM      9  C   UNL A   1      41.775  24.575  26.397  1.00  0.00     0.039 A 
ATOM     10  C   UNL A   1      41.119  25.679  25.854  1.00  0.00     0.014 A 
ATOM     11  C   UNL A   1      42.342  24.705  27.680  1.00  0.00     0.014 A 
ATOM     12  C   UNL A   1      41.075  26.891  26.537  1.00  0.00     0.010 A 
ATOM     13  C   UNL A   1      42.284  25.909  28.378  1.00  0.00     0.010 A 
ATOM     14  C   UNL A   1      41.668  27.011  27.793  1.00  0.00    -0.014 A 
BRANCH  14  15
ATOM     15  C   UNL A   1      41.517  28.284  28.496  1.00  0.00     0.031 A 
ATOM     16  C   UNL A   1      42.580  29.309  28.251  1.00  0.00     0.074 A 
ATOM     17  C   UNL A   1      40.418  28.611  29.202  1.00  0.00     0.049 A 
ATOM     18  N   UNL A   1      43.262  29.997  29.113  1.00  0.00    -0.248 NA
ATOM     19  C   UNL A   1      42.941  29.580  26.851  1.00  0.00     0.031 C 
ATOM     20  C   UNL A   1      39.153  27.880  29.288  1.00  0.00     0.029 A 
ATOM     21  N   UNL A   1      40.172  29.751  29.912  1.00  0.00    -0.354 N 
ATOM     22  C   UNL A   1      44.035  30.893  28.369  1.00  0.00     0.074 A 
ATOM     23  C   UNL A   1      43.858  30.537  26.985  1.00  0.00     0.031 C 
ATOM     24  C   UNL A   1      38.212  28.688  29.825  1.00  0.00     0.029 A 
ATOM     25  C   UNL A   1      38.836  29.935  30.233  1.00  0.00     0.049 A 
ATOM     26  H   UNL A   1      40.879  30.386  30.172  1.00  0.00     0.167 HD
ATOM     27  C   UNL A   1      44.647  31.973  28.927  1.00  0.00     0.037 A 
ATOM     28  C   UNL A   1      38.273  31.063  30.723  1.00  0.00     0.037 A 
ATOM     29  C   UNL A   1      44.858  31.805  30.338  1.00  0.00     0.049 A 
ATOM     30  C   UNL A   1      39.348  31.900  31.309  1.00  0.00     0.074 A 
ATOM     31  C   UNL A   1      45.563  30.909  31.116  1.00  0.00     0.029 A 
ATOM     32  N   UNL A   1      44.071  32.504  31.216  1.00  0.00    -0.354 N 
ATOM     33  N   UNL A   1      40.009  31.611  32.393  1.00  0.00    -0.248 NA
ATOM     34  C   UNL A   1      39.933  32.941  30.478  1.00  0.00     0.031 C 
ATOM     35  C   UNL A   1      44.808  30.782  32.319  1.00  0.00     0.029 A 
ATOM     36  C   UNL A   1      43.699  31.621  32.194  1.00  0.00     0.049 A 
ATOM     37  H   UNL A   1      43.823  33.455  31.155  1.00  0.00     0.167 HD
ATOM     38  C   UNL A   1      41.276  32.130  32.182  1.00  0.00     0.074 A 
ATOM     39  C   UNL A   1      41.132  33.039  31.054  1.00  0.00     0.031 C 
ATOM     40  C   UNL A   1      42.374  31.566  32.762  1.00  0.00     0.037 A 
BRANCH  27  41
ATOM     41  C   UNL A   1      44.804  33.309  28.240  1.00  0.00     0.064 A 
ATOM     42  C   UNL A   1      43.757  34.249  28.121  1.00  0.00     0.173 A 
ATOM     43  C   UNL A   1      46.093  33.802  27.948  1.00  0.00     0.173 A 
ATOM     44  F   UNL A   1      42.497  33.951  28.462  1.00  0.00    -0.203 F 
ATOM     45  C   UNL A   1      43.981  35.576  27.753  1.00  0.00     0.198 A 
ATOM     46  C   UNL A   1      46.320  35.145  27.631  1.00  0.00     0.198 A 
ATOM     47  F   UNL A   1      47.170  33.007  28.053  1.00  0.00    -0.203 F 
ATOM     48  F   UNL A   1      42.946  36.425  27.685  1.00  0.00    -0.200 F 
ATOM     49  C   UNL A   1      45.264  36.031  27.537  1.00  0.00     0.200 A 
ATOM     50  F   UNL A   1      47.575  35.591  27.482  1.00  0.00    -0.200 F 
ATOM     51  F   UNL A   1      45.484  37.329  27.290  1.00  0.00    -0.200 F 
ENDBRANCH  27  41
BRANCH  28  52
ATOM     52  C   UNL A   1      36.917  31.598  30.458  1.00  0.00     0.064 A 
ATOM     53  C   UNL A   1      36.553  32.071  29.182  1.00  0.00     0.173 A 
ATOM     54  C   UNL A   1      36.046  31.910  31.514  1.00  0.00     0.173 A 
ATOM     55  F   UNL A   1      37.361  31.900  28.126  1.00  0.00    -0.203 F 
ATOM     56  C   UNL A   1      35.395  32.821  28.977  1.00  0.00     0.198 A 
ATOM     57  C   UNL A   1      34.893  32.674  31.309  1.00  0.00     0.198 A 
ATOM     58  F   UNL A   1      36.343  31.537  32.767  1.00  0.00    -0.203 F 
ATOM     59  F   UNL A   1      35.117  33.290  27.753  1.00  0.00    -0.200 F 
ATOM     60  C   UNL A   1      34.574  33.136  30.042  1.00  0.00     0.200 A 
ATOM     61  F   UNL A   1      34.122  33.011  32.351  1.00  0.00    -0.200 F 
ATOM     62  F   UNL A   1      33.502  33.918  29.857  1.00  0.00    -0.200 F 
ENDBRANCH  28  52
BRANCH  40  63
ATOM     63  C   UNL A   1      42.158  30.579  33.871  1.00  0.00     0.064 A 
ATOM     64  C   UNL A   1      42.420  30.984  35.187  1.00  0.00     0.173 A 
ATOM     65  C   UNL A   1      41.857  29.223  33.657  1.00  0.00     0.173 A 
ATOM     66  F   UNL A   1      42.774  32.254  35.442  1.00  0.00    -0.203 F 
ATOM     67  C   UNL A   1      42.380  30.077  36.242  1.00  0.00     0.198 A 
ATOM     68  C   UNL A   1      41.779  28.325  34.720  1.00  0.00     0.198 A 
ATOM     69  F   UNL A   1      41.698  28.740  32.418  1.00  0.00    -0.203 F 
ATOM     70  F   UNL A   1      42.693  30.481  37.481  1.00  0.00    -0.200 F 
ATOM     71  C   UNL A   1      42.049  28.752  36.010  1.00  0.00     0.200 A 
ATOM     72  F   UNL A   1      41.484  27.037  34.492  1.00  0.00    -0.200 F 
ATOM     73  F   UNL A   1      42.023  27.877  37.026  1.00  0.00    -0.200 F 
ENDBRANCH  40  63
ENDBRANCH  14  15
ENDBRANCH   7   9
ENDBRANCH   4   5
ENDBRANCH   3   4
ENDBRANCH   2   3
ENDBRANCH   1   2
BRANCH   1  74
ATOM     74  C   UNL A   1      35.780  23.593  24.368  1.00  0.00     0.021 C 
BRANCH  74  75
ATOM     75  C   UNL A   1      34.509  23.356  23.552  1.00  0.00     0.116 C 
BRANCH  75  76
ATOM     76  N   UNL A   1      34.093  24.575  22.893  1.00  0.00    -0.356 N 
ATOM     77  C   UNL A   1      33.125  25.469  23.227  1.00  0.00     0.224 C 
ATOM     78  H   UNL A   1      34.589  24.790  22.072  1.00  0.00     0.163 HD
ATOM     79  O   UNL A   1      32.883  26.343  22.394  1.00  0.00    -0.275 OA
BRANCH  77  80
ATOM     80  C   UNL A   1      32.438  25.384  24.592  1.00  0.00     0.095 C 
ATOM     81  C   UNL A   1      31.924  26.780  24.992  1.00  0.00     0.041 C 
ATOM     82  C   UNL A   1      31.312  24.325  24.566  1.00  0.00     0.095 C 
ATOM     83  C   UNL A   1      30.601  27.135  24.381  1.00  0.00    -0.030 C 
ATOM     84  C   UNL A   1      30.110  24.774  23.702  1.00  0.00     0.041 C 
ATOM     85  C   UNL A   1      29.803  26.242  23.784  1.00  0.00    -0.030 C 
BRANCH  82  86
ATOM     86  C   UNL A   1      30.824  23.949  25.979  1.00  0.00     0.229 C 
ATOM     87  O   UNL A   1      30.172  24.730  26.678  1.00  0.00    -0.274 OA
ATOM     88  N   UNL A   1      31.016  22.670  26.441  1.00  0.00    -0.308 N 
ATOM     89  H   UNL A   1      30.410  22.361  27.153  1.00  0.00     0.171 HD
BRANCH  88  90
ATOM     90  C   UNL A   1      31.971  21.777  26.008  1.00  0.00     0.168 A 
ATOM     91  N   UNL A   1      31.712  20.841  25.099  1.00  0.00    -0.153 NA
ATOM     92  C   UNL A   1      33.325  21.718  26.393  1.00  0.00     0.080 A 
ATOM     93  N   UNL A   1      32.860  20.163  24.940  1.00  0.00    -0.265 N 
ATOM     94  C   UNL A   1      33.870  20.648  25.725  1.00  0.00     0.127 A 
ATOM     95  Br  UNL A   1      34.161  22.810  27.658  1.00  0.00    -0.045 Br
BRANCH  93  96
ATOM     96  C   UNL A   1      32.953  19.126  23.913  1.00  0.00     0.182 C 
BRANCH  96  97
ATOM     97  C   UNL A   1      33.242  17.758  24.474  1.00  0.00     0.009 A 
ATOM     98  C   UNL A   1      32.210  16.920  24.922  1.00  0.00     0.008 A 
ATOM     99  C   UNL A   1      34.559  17.286  24.548  1.00  0.00     0.128 A 
ATOM    100  C   UNL A   1      32.499  15.643  25.413  1.00  0.00     0.001 A 
ATOM    101  C   UNL A   1      34.848  16.008  25.015  1.00  0.00     0.039 A 
ATOM    102  F   UNL A   1      35.578  18.075  24.175  1.00  0.00    -0.207 F 
ATOM    103  C   UNL A   1      33.816  15.182  25.448  1.00  0.00     0.003 A 
ENDBRANCH  96  97
ENDBRANCH  93  96
ENDBRANCH  88  90
ENDBRANCH  82  86
ENDBRANCH  77  80
ENDBRANCH  75  76
ENDBRANCH  74  75
ENDBRANCH   1  74
TORSDOF 17
ENDMDL
MODEL 3
REMARK VINA RESULT:     -13.0      3.369      8.374
REMARK SMILES O=C(NCCCCCCNC(=O)[C@H]1CC=CC[C@@H]1C(=O)Nc1nn(Cc2ccccc2F)cc1Br)c1ccc(-c2c3nc(c(-c4c(F)c(F)c(F)c(F)c4F)c4ccc([nH]4)c(-c4c(F)c(F)c(F)c(F)c4F)c4nc(c(-c5c(F)c(F)c(F)c(F)c5F)c5ccc2[nH]5)C=C4)C=C3)cc1
REMARK SMILES IDX 7 1 6 2 5 3 4 4 3 5 1 6 2 7 36 9 37 10 98 11 38 12 97 13
REMARK SMILES IDX 39 14 40 15 41 16 91 17 42 18 96 19 90 20 92 21 43 22 95 23
REMARK SMILES IDX 89 24 88 25 44 27 76 28 56 29 75 30 57 31 60 32 74 33 93 34
REMARK SMILES IDX 58 35 59 36 73 38 94 39 61 40 45 41 46 42 54 43 47 44 48 45
REMARK SMILES IDX 52 46 55 47 49 48 50 49 53 50 51 51 77 52 78 53 86 54 79 55
REMARK SMILES IDX 80 56 84 57 87 58 81 59 82 60 85 61 83 62 62 63 63 64 71 65
REMARK SMILES IDX 64 66 65 67 69 68 72 69 66 70 67 71 70 72 68 73 8 74 9 75
REMARK SMILES IDX 10 76 11 77 12 79 13 80 14 81 18 82 15 83 17 84 16 85 19 86
REMARK SMILES IDX 20 87 21 88 22 90 23 91 34 92 24 93 33 94 35 95 25 96 26 97
REMARK SMILES IDX 27 98 31 99 28 100 30 101 32 102 29 103
REMARK H PARENT 3 8 92 26 60 37 10 78 21 89
REMARK Flexibility Score: inf
ROOT
ATOM      1  C   UNL A   1      39.681  21.903  26.492  1.00  0.00     0.002 C 
ENDROOT
BRANCH   1   2
ATOM      2  C   UNL A   1      40.751  20.928  26.989  1.00  0.00     0.002 C 
BRANCH   2   3
ATOM      3  C   UNL A   1      41.048  19.753  26.053  1.00  0.00     0.021 C 
BRANCH   3   4
ATOM      4  C   UNL A   1      42.470  19.199  26.160  1.00  0.00     0.116 C 
BRANCH   4   5
ATOM      5  N   UNL A   1      43.340  19.625  25.087  1.00  0.00    -0.352 N 
ATOM      6  O   UNL A   1      44.742  20.752  23.808  1.00  0.00    -0.269 OA
ATOM      7  C   UNL A   1      44.006  20.785  24.790  1.00  0.00     0.251 C 
ATOM      8  H   UNL A   1      43.488  18.921  24.415  1.00  0.00     0.163 HD
BRANCH   7   9
ATOM      9  C   UNL A   1      43.871  22.066  25.543  1.00  0.00     0.039 A 
ATOM     10  C   UNL A   1      44.517  22.388  26.737  1.00  0.00     0.014 A 
ATOM     11  C   UNL A   1      42.991  23.014  24.988  1.00  0.00     0.014 A 
ATOM     12  C   UNL A   1      44.254  23.590  27.389  1.00  0.00     0.010 A 
ATOM     13  C   UNL A   1      42.739  24.228  25.623  1.00  0.00     0.010 A 
ATOM     14  C   UNL A   1      43.357  24.505  26.839  1.00  0.00    -0.014 A 
BRANCH  14  15
ATOM     15  C   UNL A   1      43.186  25.785  27.526  1.00  0.00     0.031 A 
ATOM     16  C   UNL A   1      44.197  26.844  27.219  1.00  0.00     0.074 A 
ATOM     17  C   UNL A   1      42.106  26.083  28.272  1.00  0.00     0.049 A 
ATOM     18  N   UNL A   1      44.887  27.575  28.038  1.00  0.00    -0.248 NA
ATOM     19  C   UNL A   1      44.488  27.102  25.799  1.00  0.00     0.031 C 
ATOM     20  C   UNL A   1      40.875  25.306  28.425  1.00  0.00     0.029 A 
ATOM     21  N   UNL A   1      41.845  27.226  28.972  1.00  0.00    -0.354 N 
ATOM     22  C   UNL A   1      45.593  28.484  27.247  1.00  0.00     0.074 A 
ATOM     23  C   UNL A   1      45.372  28.096  25.878  1.00  0.00     0.031 C 
ATOM     24  C   UNL A   1      39.926  26.088  28.987  1.00  0.00     0.029 A 
ATOM     25  C   UNL A   1      40.518  27.365  29.346  1.00  0.00     0.049 A 
ATOM     26  H   UNL A   1      42.537  27.892  29.190  1.00  0.00     0.167 HD
ATOM     27  C   UNL A   1      46.185  29.598  27.759  1.00  0.00     0.037 A 
ATOM     28  C   UNL A   1      39.932  28.480  29.840  1.00  0.00     0.037 A 
ATOM     29  C   UNL A   1      46.461  29.465  29.162  1.00  0.00     0.049 A 
ATOM     30  C   UNL A   1      40.997  29.368  30.365  1.00  0.00     0.074 A 
ATOM     31  C   UNL A   1      47.233  28.612  29.925  1.00  0.00     0.029 A 
ATOM     32  N   UNL A   1      45.685  30.150  30.061  1.00  0.00    -0.354 N 
ATOM     33  N   UNL A   1      41.714  29.125  31.425  1.00  0.00    -0.248 NA
ATOM     34  C   UNL A   1      41.506  30.415  29.492  1.00  0.00     0.031 C 
ATOM     35  C   UNL A   1      46.534  28.479  31.161  1.00  0.00     0.029 A 
ATOM     36  C   UNL A   1      45.390  29.272  31.069  1.00  0.00     0.049 A 
ATOM     37  H   UNL A   1      45.398  31.090  29.994  1.00  0.00     0.167 HD
ATOM     38  C   UNL A   1      42.950  29.688  31.151  1.00  0.00     0.074 A 
ATOM     39  C   UNL A   1      42.724  30.569  30.014  1.00  0.00     0.031 C 
ATOM     40  C   UNL A   1      44.092  29.177  31.693  1.00  0.00     0.037 A 
BRANCH  27  41
ATOM     41  C   UNL A   1      46.262  30.926  27.042  1.00  0.00     0.064 A 
ATOM     42  C   UNL A   1      45.124  31.694  26.711  1.00  0.00     0.173 A 
ATOM     43  C   UNL A   1      47.496  31.598  26.939  1.00  0.00     0.173 A 
ATOM     44  F   UNL A   1      43.882  31.219  26.857  1.00  0.00    -0.203 F 
ATOM     45  C   UNL A   1      45.214  33.031  26.319  1.00  0.00     0.198 A 
ATOM     46  C   UNL A   1      47.578  32.952  26.599  1.00  0.00     0.198 A 
ATOM     47  F   UNL A   1      48.643  30.977  27.257  1.00  0.00    -0.203 F 
ATOM     48  F   UNL A   1      44.094  33.714  26.043  1.00  0.00    -0.200 F 
ATOM     49  C   UNL A   1      46.436  33.668  26.292  1.00  0.00     0.200 A 
ATOM     50  F   UNL A   1      48.762  33.578  26.635  1.00  0.00    -0.200 F 
ATOM     51  F   UNL A   1      46.505  34.978  26.021  1.00  0.00    -0.200 F 
ENDBRANCH  27  41
BRANCH  28  52
ATOM     52  C   UNL A   1      38.547  28.957  29.623  1.00  0.00     0.064 A 
ATOM     53  C   UNL A   1      38.108  29.382  28.354  1.00  0.00     0.173 A 
ATOM     54  C   UNL A   1      37.713  29.267  30.710  1.00  0.00     0.173 A 
ATOM     55  F   UNL A   1      38.873  29.211  27.267  1.00  0.00    -0.203 F 
ATOM     56  C   UNL A   1      36.915  30.083  28.183  1.00  0.00     0.198 A 
ATOM     57  C   UNL A   1      36.524  29.982  30.538  1.00  0.00     0.198 A 
ATOM     58  F   UNL A   1      38.079  28.940  31.958  1.00  0.00    -0.203 F 
ATOM     59  F   UNL A   1      36.564  30.507  26.961  1.00  0.00    -0.200 F 
ATOM     60  C   UNL A   1      36.131  30.397  29.276  1.00  0.00     0.200 A 
ATOM     61  F   UNL A   1      35.788  30.320  31.606  1.00  0.00    -0.200 F 
ATOM     62  F   UNL A   1      35.023  31.134  29.120  1.00  0.00    -0.200 F 
ENDBRANCH  28  52
BRANCH  40  63
ATOM     63  C   UNL A   1      43.961  28.205  32.828  1.00  0.00     0.064 A 
ATOM     64  C   UNL A   1      44.138  28.675  34.137  1.00  0.00     0.173 A 
ATOM     65  C   UNL A   1      43.825  26.817  32.650  1.00  0.00     0.173 A 
ATOM     66  F   UNL A   1      44.335  29.985  34.360  1.00  0.00    -0.203 F 
ATOM     67  C   UNL A   1      44.174  27.800  35.219  1.00  0.00     0.198 A 
ATOM     68  C   UNL A   1      43.823  25.947  33.738  1.00  0.00     0.198 A 
ATOM     69  F   UNL A   1      43.758  26.284  31.424  1.00  0.00    -0.203 F 
ATOM     70  F   UNL A   1      44.405  28.273  36.451  1.00  0.00    -0.200 F 
ATOM     71  C   UNL A   1      44.006  26.439  35.021  1.00  0.00     0.200 A 
ATOM     72  F   UNL A   1      43.685  24.627  33.544  1.00  0.00    -0.200 F 
ATOM     73  F   UNL A   1      44.053  25.597  36.063  1.00  0.00    -0.200 F 
ENDBRANCH  40  63
ENDBRANCH  14  15
ENDBRANCH   7   9
ENDBRANCH   4   5
ENDBRANCH   3   4
ENDBRANCH   2   3
ENDBRANCH   1   2
BRANCH   1  74
ATOM     74  C   UNL A   1      38.565  21.276  25.644  1.00  0.00     0.021 C 
BRANCH  74  75
ATOM     75  C   UNL A   1      37.363  22.188  25.397  1.00  0.00     0.116 C 
BRANCH  75  76
ATOM     76  N   UNL A   1      36.306  21.903  26.343  1.00  0.00    -0.356 N 
ATOM     77  C   UNL A   1      34.989  21.639  26.138  1.00  0.00     0.224 C 
ATOM     78  H   UNL A   1      36.586  21.901  27.287  1.00  0.00     0.163 HD
ATOM     79  O   UNL A   1      34.283  21.585  27.146  1.00  0.00    -0.275 OA
BRANCH  77  80
ATOM     80  C   UNL A   1      34.468  21.384  24.721  1.00  0.00     0.095 C 
ATOM     81  C   UNL A   1      34.806  19.940  24.308  1.00  0.00     0.041 C 
ATOM     82  C   UNL A   1      32.954  21.684  24.639  1.00  0.00     0.095 C 
ATOM     83  C   UNL A   1      33.830  18.921  24.818  1.00  0.00    -0.030 C 
ATOM     84  C   UNL A   1      32.111  20.643  25.412  1.00  0.00     0.041 C 
ATOM     85  C   UNL A   1      32.637  19.239  25.334  1.00  0.00    -0.030 C 
BRANCH  82  86
ATOM     86  C   UNL A   1      32.451  21.782  23.185  1.00  0.00     0.229 C 
ATOM     87  O   UNL A   1      32.174  20.781  22.517  1.00  0.00    -0.274 OA
ATOM     88  N   UNL A   1      32.193  23.016  22.642  1.00  0.00    -0.308 N 
ATOM     89  H   UNL A   1      31.562  23.045  21.887  1.00  0.00     0.171 HD
BRANCH  88  90
ATOM     90  C   UNL A   1      32.728  24.219  23.048  1.00  0.00     0.168 A 
ATOM     91  N   UNL A   1      33.135  24.434  24.296  1.00  0.00    -0.153 NA
ATOM     92  C   UNL A   1      32.968  25.360  22.257  1.00  0.00     0.080 A 
ATOM     93  N   UNL A   1      33.580  25.700  24.319  1.00  0.00    -0.265 N 
ATOM     94  C   UNL A   1      33.479  26.315  23.101  1.00  0.00     0.127 A 
ATOM     95  Br  UNL A   1      32.549  25.554  20.446  1.00  0.00    -0.045 Br
BRANCH  93  96
ATOM     96  C   UNL A   1      34.212  26.224  25.529  1.00  0.00     0.182 C 
BRANCH  96  97
ATOM     97  C   UNL A   1      33.468  27.387  26.133  1.00  0.00     0.009 A 
ATOM     98  C   UNL A   1      33.988  28.689  26.084  1.00  0.00     0.008 A 
ATOM     99  C   UNL A   1      32.226  27.191  26.750  1.00  0.00     0.128 A 
ATOM    100  C   UNL A   1      33.267  29.758  26.625  1.00  0.00     0.001 A 
ATOM    101  C   UNL A   1      31.497  28.255  27.270  1.00  0.00     0.039 A 
ATOM    102  F   UNL A   1      31.718  25.955  26.861  1.00  0.00    -0.207 F 
ATOM    103  C   UNL A   1      32.017  29.544  27.207  1.00  0.00     0.003 A 
ENDBRANCH  96  97
ENDBRANCH  93  96
ENDBRANCH  88  90
ENDBRANCH  82  86
ENDBRANCH  77  80
ENDBRANCH  75  76
ENDBRANCH  74  75
ENDBRANCH   1  74
TORSDOF 17
ENDMDL
