MODEL 1
REMARK VINA RESULT:     -13.6      0.000      0.000
REMARK SMILES C[C@@H]1CN(C(=O)Nc2ccc(O)c(C(=O)NCCCCCCNC(=O)c3ccc(-c4c5nc(c(-c6c(F)c(F)c(F)c(F)c6F)c6ccc([nH]6)c(-c6c(F)c(F)c(F)c(F)c6F)c6nc(c(-c7c(F)c(F)c(F)c(F)c7F)c7ccc4[nH]7)C=C6)C=C5)cc3)c2)C[C@H]1C
REMARK SMILES IDX 20 1 19 2 18 3 17 4 16 5 14 6 15 7 13 9 8 10 9 11 89 12
REMARK SMILES IDX 10 13 11 14 7 15 1 16 2 17 3 18 91 19 4 20 90 21 92 22 5 23
REMARK SMILES IDX 6 24 12 26 21 28 22 29 23 30 24 31 25 33 26 34 27 35 88 36
REMARK SMILES IDX 28 37 87 38 29 39 30 40 31 41 81 42 32 43 86 44 80 45 82 46
REMARK SMILES IDX 33 47 85 48 79 49 78 50 34 52 66 53 46 54 65 55 47 56 50 57
REMARK SMILES IDX 64 58 83 59 48 60 49 61 63 63 84 64 51 65 35 66 36 67 44 68
REMARK SMILES IDX 37 69 38 70 42 71 45 72 39 73 40 74 43 75 41 76 67 77 68 78
REMARK SMILES IDX 76 79 69 80 70 81 74 82 77 83 71 84 72 85 75 86 73 87 52 88
REMARK SMILES IDX 53 89 61 90 54 91 55 92 59 93 62 94 56 95 57 96 60 97 58 98
REMARK H PARENT 16 8 7 25 12 27 23 32 82 51 50 62
REMARK Flexibility Score: inf
ROOT
ATOM      1  C   UNL A   1      31.619  30.750  26.220  1.00  0.00     0.002 C 
ENDROOT
BRANCH   1   2
ATOM      2  C   UNL A   1      32.334  29.847  27.230  1.00  0.00     0.002 C 
BRANCH   2   3
ATOM      3  C   UNL A   1      33.810  29.586  26.920  1.00  0.00     0.021 C 
BRANCH   3   4
ATOM      4  C   UNL A   1      34.053  28.358  26.036  1.00  0.00     0.116 C 
BRANCH   4   5
ATOM      5  N   UNL A   1      34.008  28.737  24.643  1.00  0.00    -0.352 N 
ATOM      6  C   UNL A   1      33.110  28.471  23.646  1.00  0.00     0.255 C 
ATOM      7  O   UNL A   1      33.402  28.900  22.525  1.00  0.00    -0.269 OA
ATOM      8  H   UNL A   1      34.767  29.293  24.357  1.00  0.00     0.163 HD
BRANCH   6   9
ATOM      9  C   UNL A   1      31.786  27.802  23.816  1.00  0.00     0.083 A 
ATOM     10  C   UNL A   1      30.556  26.275  25.275  1.00  0.00     0.043 A 
ATOM     11  C   UNL A   1      29.407  26.453  24.516  1.00  0.00     0.030 A 
ATOM     12  C   UNL A   1      31.704  27.009  24.980  1.00  0.00     0.044 A 
ATOM     13  C   UNL A   1      29.457  27.236  23.369  1.00  0.00     0.049 A 
ATOM     14  C   UNL A   1      30.648  27.879  23.003  1.00  0.00     0.128 A 
BRANCH  10  15
ATOM     15  N   UNL A   1      30.607  25.364  26.331  1.00  0.00    -0.308 N 
ATOM     16  C   UNL A   1      33.716  22.959  22.623  1.00  0.00     0.010 C 
ATOM     17  C   UNL A   1      32.442  22.614  23.377  1.00  0.00     0.010 C 
ATOM     18  C   UNL A   1      31.866  23.829  24.098  1.00  0.00     0.125 C 
ATOM     19  C   UNL A   1      32.611  21.602  24.511  1.00  0.00     0.010 C 
ATOM     20  N   UNL A   1      31.165  23.313  25.268  1.00  0.00    -0.324 N 
ATOM     21  C   UNL A   1      31.382  21.878  25.383  1.00  0.00     0.125 C 
ATOM     22  C   UNL A   1      32.675  20.164  24.024  1.00  0.00     0.010 C 
ATOM     23  C   UNL A   1      30.625  24.002  26.330  1.00  0.00     0.321 C 
ATOM     24  O   UNL A   1      30.275  23.427  27.364  1.00  0.00    -0.248 OA
ATOM     25  H   UNL A   1      30.635  25.775  27.226  1.00  0.00     0.171 HD
ENDBRANCH  10  15
BRANCH  14  26
ATOM     26  O   UNL A   1      30.605  28.591  21.843  1.00  0.00    -0.507 OA
ATOM     27  H   UNL A   1      30.091  29.374  21.792  1.00  0.00     0.293 HD
ENDBRANCH  14  26
ENDBRANCH   6   9
ENDBRANCH   4   5
ENDBRANCH   3   4
ENDBRANCH   2   3
ENDBRANCH   1   2
BRANCH   1  28
ATOM     28  C   UNL A   1      31.415  32.195  26.681  1.00  0.00     0.021 C 
BRANCH  28  29
ATOM     29  C   UNL A   1      32.652  32.833  27.303  1.00  0.00     0.116 C 
BRANCH  29  30
ATOM     30  N   UNL A   1      32.436  34.241  27.601  1.00  0.00    -0.352 N 
ATOM     31  C   UNL A   1      32.989  35.010  28.595  1.00  0.00     0.251 C 
ATOM     32  H   UNL A   1      31.805  34.707  27.006  1.00  0.00     0.163 HD
ATOM     33  O   UNL A   1      32.519  36.107  28.871  1.00  0.00    -0.269 OA
BRANCH  31  34
ATOM     34  C   UNL A   1      34.156  34.496  29.338  1.00  0.00     0.039 A 
ATOM     35  C   UNL A   1      33.959  33.877  30.575  1.00  0.00     0.014 A 
ATOM     36  C   UNL A   1      35.442  34.628  28.808  1.00  0.00     0.014 A 
ATOM     37  C   UNL A   1      35.052  33.331  31.252  1.00  0.00     0.010 A 
ATOM     38  C   UNL A   1      36.517  34.021  29.447  1.00  0.00     0.010 A 
ATOM     39  C   UNL A   1      36.332  33.368  30.676  1.00  0.00    -0.014 A 
BRANCH  39  40
ATOM     40  C   UNL A   1      37.499  32.734  31.338  1.00  0.00     0.031 A 
ATOM     41  C   UNL A   1      38.209  31.588  30.673  1.00  0.00     0.074 A 
ATOM     42  C   UNL A   1      37.864  33.134  32.571  1.00  0.00     0.049 A 
ATOM     43  N   UNL A   1      39.173  30.832  31.131  1.00  0.00    -0.248 NA
ATOM     44  C   UNL A   1      37.753  31.227  29.321  1.00  0.00     0.031 C 
ATOM     45  C   UNL A   1      37.227  34.207  33.336  1.00  0.00     0.029 A 
ATOM     46  N   UNL A   1      38.852  32.673  33.407  1.00  0.00    -0.354 N 
ATOM     47  C   UNL A   1      39.427  29.899  30.133  1.00  0.00     0.074 A 
ATOM     48  C   UNL A   1      38.479  30.148  29.070  1.00  0.00     0.031 C 
ATOM     49  C   UNL A   1      37.849  34.334  34.519  1.00  0.00     0.029 A 
ATOM     50  C   UNL A   1      38.898  33.324  34.615  1.00  0.00     0.049 A 
ATOM     51  H   UNL A   1      39.468  31.946  33.162  1.00  0.00     0.167 HD
ATOM     52  C   UNL A   1      40.380  28.938  30.100  1.00  0.00     0.037 A 
ATOM     53  C   UNL A   1      39.688  33.118  35.686  1.00  0.00     0.037 A 
ATOM     54  C   UNL A   1      41.334  28.710  31.153  1.00  0.00     0.049 A 
ATOM     55  C   UNL A   1      40.725  32.027  35.632  1.00  0.00     0.074 A 
ATOM     56  C   UNL A   1      42.375  27.801  31.193  1.00  0.00     0.029 A 
ATOM     57  N   UNL A   1      41.360  29.402  32.357  1.00  0.00    -0.354 N 
ATOM     58  N   UNL A   1      40.997  31.193  34.659  1.00  0.00    -0.248 NA
ATOM     59  C   UNL A   1      41.566  31.853  36.824  1.00  0.00     0.031 C 
ATOM     60  C   UNL A   1      42.998  27.902  32.441  1.00  0.00     0.029 A 
ATOM     61  C   UNL A   1      42.383  28.918  33.156  1.00  0.00     0.049 A 
ATOM     62  H   UNL A   1      40.743  30.127  32.605  1.00  0.00     0.167 HD
ATOM     63  C   UNL A   1      42.061  30.420  35.105  1.00  0.00     0.074 A 
ATOM     64  C   UNL A   1      42.391  30.892  36.434  1.00  0.00     0.031 C 
ATOM     65  C   UNL A   1      42.706  29.410  34.472  1.00  0.00     0.037 A 
BRANCH  52  66
ATOM     66  C   UNL A   1      40.438  28.057  28.884  1.00  0.00     0.064 A 
ATOM     67  C   UNL A   1      39.727  26.850  28.814  1.00  0.00     0.173 A 
ATOM     68  C   UNL A   1      41.184  28.445  27.760  1.00  0.00     0.173 A 
ATOM     69  F   UNL A   1      39.006  26.428  29.864  1.00  0.00    -0.203 F 
ATOM     70  C   UNL A   1      39.784  26.048  27.676  1.00  0.00     0.198 A 
ATOM     71  C   UNL A   1      41.213  27.657  26.613  1.00  0.00     0.198 A 
ATOM     72  F   UNL A   1      41.880  29.592  27.771  1.00  0.00    -0.203 F 
ATOM     73  F   UNL A   1      39.138  24.875  27.653  1.00  0.00    -0.200 F 
ATOM     74  C   UNL A   1      40.520  26.456  26.575  1.00  0.00     0.200 A 
ATOM     75  F   UNL A   1      41.913  28.059  25.543  1.00  0.00    -0.200 F 
ATOM     76  F   UNL A   1      40.568  25.688  25.477  1.00  0.00    -0.200 F 
ENDBRANCH  52  66
BRANCH  53  77
ATOM     77  C   UNL A   1      39.541  33.970  36.896  1.00  0.00     0.064 A 
ATOM     78  C   UNL A   1      38.771  33.544  37.987  1.00  0.00     0.173 A 
ATOM     79  C   UNL A   1      40.156  35.228  36.984  1.00  0.00     0.173 A 
ATOM     80  F   UNL A   1      38.147  32.358  37.943  1.00  0.00    -0.203 F 
ATOM     81  C   UNL A   1      38.602  34.352  39.110  1.00  0.00     0.198 A 
ATOM     82  C   UNL A   1      40.012  36.022  38.120  1.00  0.00     0.198 A 
ATOM     83  F   UNL A   1      40.909  35.681  35.971  1.00  0.00    -0.203 F 
ATOM     84  F   UNL A   1      37.819  33.942  40.116  1.00  0.00    -0.200 F 
ATOM     85  C   UNL A   1      39.226  35.588  39.177  1.00  0.00     0.200 A 
ATOM     86  F   UNL A   1      40.631  37.208  38.187  1.00  0.00    -0.200 F 
ATOM     87  F   UNL A   1      39.067  36.365  40.258  1.00  0.00    -0.200 F 
ENDBRANCH  53  77
BRANCH  65  88
ATOM     88  C   UNL A   1      43.863  28.773  35.186  1.00  0.00     0.064 A 
ATOM     89  C   UNL A   1      45.175  29.249  35.038  1.00  0.00     0.173 A 
ATOM     90  C   UNL A   1      43.648  27.706  36.071  1.00  0.00     0.173 A 
ATOM     91  F   UNL A   1      45.436  30.257  34.192  1.00  0.00    -0.203 F 
ATOM     92  C   UNL A   1      46.230  28.664  35.735  1.00  0.00     0.198 A 
ATOM     93  C   UNL A   1      44.699  27.146  36.790  1.00  0.00     0.198 A 
ATOM     94  F   UNL A   1      42.411  27.217  36.254  1.00  0.00    -0.203 F 
ATOM     95  F   UNL A   1      47.481  29.105  35.543  1.00  0.00    -0.200 F 
ATOM     96  C   UNL A   1      45.990  27.621  36.616  1.00  0.00     0.200 A 
ATOM     97  F   UNL A   1      44.463  26.148  37.653  1.00  0.00    -0.200 F 
ATOM     98  F   UNL A   1      47.006  27.068  37.293  1.00  0.00    -0.200 F 
ENDBRANCH  65  88
ENDBRANCH  39  40
ENDBRANCH  31  34
ENDBRANCH  29  30
ENDBRANCH  28  29
ENDBRANCH   1  28
TORSDOF 15
ENDMDL
MODEL 2
REMARK VINA RESULT:     -13.3      0.501      7.296
REMARK SMILES C[C@@H]1CN(C(=O)Nc2ccc(O)c(C(=O)NCCCCCCNC(=O)c3ccc(-c4c5nc(c(-c6c(F)c(F)c(F)c(F)c6F)c6ccc([nH]6)c(-c6c(F)c(F)c(F)c(F)c6F)c6nc(c(-c7c(F)c(F)c(F)c(F)c7F)c7ccc4[nH]7)C=C6)C=C5)cc3)c2)C[C@H]1C
REMARK SMILES IDX 20 1 19 2 18 3 17 4 16 5 14 6 15 7 13 9 8 10 9 11 89 12
REMARK SMILES IDX 10 13 11 14 7 15 1 16 2 17 3 18 91 19 4 20 90 21 92 22 5 23
REMARK SMILES IDX 6 24 12 26 21 28 22 29 23 30 24 31 25 33 26 34 27 35 88 36
REMARK SMILES IDX 28 37 87 38 29 39 30 40 31 41 81 42 32 43 86 44 80 45 82 46
REMARK SMILES IDX 33 47 85 48 79 49 78 50 34 52 66 53 46 54 65 55 47 56 50 57
REMARK SMILES IDX 64 58 83 59 48 60 49 61 63 63 84 64 51 65 35 66 36 67 44 68
REMARK SMILES IDX 37 69 38 70 42 71 45 72 39 73 40 74 43 75 41 76 67 77 68 78
REMARK SMILES IDX 76 79 69 80 70 81 74 82 77 83 71 84 72 85 75 86 73 87 52 88
REMARK SMILES IDX 53 89 61 90 54 91 55 92 59 93 62 94 56 95 57 96 60 97 58 98
REMARK H PARENT 16 8 7 25 12 27 23 32 82 51 50 62
REMARK Flexibility Score: inf
ROOT
ATOM      1  C   UNL A   1      31.489  30.907  26.144  1.00  0.00     0.002 C 
ENDROOT
BRANCH   1   2
ATOM      2  C   UNL A   1      32.176  29.962  27.134  1.00  0.00     0.002 C 
BRANCH   2   3
ATOM      3  C   UNL A   1      33.662  29.719  26.859  1.00  0.00     0.021 C 
BRANCH   3   4
ATOM      4  C   UNL A   1      33.942  28.482  25.999  1.00  0.00     0.116 C 
BRANCH   4   5
ATOM      5  N   UNL A   1      33.883  28.832  24.599  1.00  0.00    -0.352 N 
ATOM      6  C   UNL A   1      32.990  28.523  23.609  1.00  0.00     0.255 C 
ATOM      7  O   UNL A   1      33.268  28.938  22.479  1.00  0.00    -0.269 OA
ATOM      8  H   UNL A   1      34.627  29.403  24.299  1.00  0.00     0.163 HD
BRANCH   6   9
ATOM      9  C   UNL A   1      31.685  27.823  23.797  1.00  0.00     0.083 A 
ATOM     10  C   UNL A   1      30.510  26.269  25.273  1.00  0.00     0.043 A 
ATOM     11  C   UNL A   1      29.348  26.418  24.528  1.00  0.00     0.030 A 
ATOM     12  C   UNL A   1      31.636  27.030  24.962  1.00  0.00     0.044 A 
ATOM     13  C   UNL A   1      29.365  27.200  23.379  1.00  0.00     0.049 A 
ATOM     14  C   UNL A   1      30.535  27.871  22.997  1.00  0.00     0.128 A 
BRANCH  10  15
ATOM     15  N   UNL A   1      30.596  25.362  26.329  1.00  0.00    -0.308 N 
ATOM     16  C   UNL A   1      33.615  22.965  22.543  1.00  0.00     0.010 C 
ATOM     17  C   UNL A   1      32.365  22.614  23.333  1.00  0.00     0.010 C 
ATOM     18  C   UNL A   1      31.802  23.828  24.067  1.00  0.00     0.125 C 
ATOM     19  C   UNL A   1      32.572  21.606  24.465  1.00  0.00     0.010 C 
ATOM     20  N   UNL A   1      31.137  23.310  25.257  1.00  0.00    -0.324 N 
ATOM     21  C   UNL A   1      31.366  21.878  25.369  1.00  0.00     0.125 C 
ATOM     22  C   UNL A   1      32.631  20.168  23.980  1.00  0.00     0.010 C 
ATOM     23  C   UNL A   1      30.622  24.000  26.331  1.00  0.00     0.321 C 
ATOM     24  O   UNL A   1      30.304  23.425  27.376  1.00  0.00    -0.248 OA
ATOM     25  H   UNL A   1      30.646  25.774  27.222  1.00  0.00     0.171 HD
ENDBRANCH  10  15
BRANCH  14  26
ATOM     26  O   UNL A   1      30.461  28.580  21.838  1.00  0.00    -0.507 OA
ATOM     27  H   UNL A   1      30.712  29.484  21.824  1.00  0.00     0.293 HD
ENDBRANCH  14  26
ENDBRANCH   6   9
ENDBRANCH   4   5
ENDBRANCH   3   4
ENDBRANCH   2   3
ENDBRANCH   1   2
BRANCH   1  28
ATOM     28  C   UNL A   1      31.380  32.360  26.612  1.00  0.00     0.021 C 
BRANCH  28  29
ATOM     29  C   UNL A   1      32.668  32.925  27.199  1.00  0.00     0.116 C 
BRANCH  29  30
ATOM     30  N   UNL A   1      32.498  34.303  27.636  1.00  0.00    -0.352 N 
ATOM     31  C   UNL A   1      33.063  34.946  28.710  1.00  0.00     0.251 C 
ATOM     32  H   UNL A   1      31.893  34.850  27.085  1.00  0.00     0.163 HD
ATOM     33  O   UNL A   1      32.628  36.026  29.092  1.00  0.00    -0.269 OA
BRANCH  31  34
ATOM     34  C   UNL A   1      34.199  34.317  29.411  1.00  0.00     0.039 A 
ATOM     35  C   UNL A   1      33.952  33.502  30.519  1.00  0.00     0.014 A 
ATOM     36  C   UNL A   1      35.507  34.534  28.968  1.00  0.00     0.014 A 
ATOM     37  C   UNL A   1      35.017  32.852  31.145  1.00  0.00     0.010 A 
ATOM     38  C   UNL A   1      36.557  33.829  29.546  1.00  0.00     0.010 A 
ATOM     39  C   UNL A   1      36.322  32.983  30.641  1.00  0.00    -0.014 A 
BRANCH  39  40
ATOM     40  C   UNL A   1      37.463  32.249  31.242  1.00  0.00     0.031 A 
ATOM     41  C   UNL A   1      37.981  32.645  32.596  1.00  0.00     0.074 A 
ATOM     42  C   UNL A   1      38.082  31.285  30.533  1.00  0.00     0.049 A 
ATOM     43  N   UNL A   1      39.030  32.205  33.243  1.00  0.00    -0.248 NA
ATOM     44  C   UNL A   1      37.236  33.698  33.304  1.00  0.00     0.031 C 
ATOM     45  C   UNL A   1      37.697  30.840  29.193  1.00  0.00     0.029 A 
ATOM     46  N   UNL A   1      39.179  30.515  30.836  1.00  0.00    -0.354 N 
ATOM     47  C   UNL A   1      39.079  32.937  34.423  1.00  0.00     0.074 A 
ATOM     48  C   UNL A   1      37.988  33.886  34.378  1.00  0.00     0.031 C 
ATOM     49  C   UNL A   1      38.531  29.866  28.796  1.00  0.00     0.029 A 
ATOM     50  C   UNL A   1      39.536  29.648  29.833  1.00  0.00     0.049 A 
ATOM     51  H   UNL A   1      39.662  30.579  31.691  1.00  0.00     0.167 HD
ATOM     52  C   UNL A   1      39.941  32.810  35.459  1.00  0.00     0.037 A 
ATOM     53  C   UNL A   1      40.567  28.786  29.752  1.00  0.00     0.037 A 
ATOM     54  C   UNL A   1      41.010  31.848  35.506  1.00  0.00     0.049 A 
ATOM     55  C   UNL A   1      41.525  28.680  30.909  1.00  0.00     0.074 A 
ATOM     56  C   UNL A   1      41.904  31.600  36.532  1.00  0.00     0.029 A 
ATOM     57  N   UNL A   1      41.331  30.974  34.477  1.00  0.00    -0.354 N 
ATOM     58  N   UNL A   1      41.523  29.332  32.046  1.00  0.00    -0.248 NA
ATOM     59  C   UNL A   1      42.625  27.717  30.772  1.00  0.00     0.031 C 
ATOM     60  C   UNL A   1      42.799  30.615  36.105  1.00  0.00     0.029 A 
ATOM     61  C   UNL A   1      42.427  30.205  34.835  1.00  0.00     0.049 A 
ATOM     62  H   UNL A   1      40.851  30.911  33.619  1.00  0.00     0.167 HD
ATOM     63  C   UNL A   1      42.597  28.835  32.773  1.00  0.00     0.074 A 
ATOM     64  C   UNL A   1      43.222  27.819  31.951  1.00  0.00     0.031 C 
ATOM     65  C   UNL A   1      43.027  29.188  34.009  1.00  0.00     0.037 A 
BRANCH  52  66
ATOM     66  C   UNL A   1      39.765  33.736  36.629  1.00  0.00     0.064 A 
ATOM     67  C   UNL A   1      40.382  34.995  36.672  1.00  0.00     0.173 A 
ATOM     68  C   UNL A   1      38.936  33.375  37.703  1.00  0.00     0.173 A 
ATOM     69  F   UNL A   1      41.192  35.385  35.676  1.00  0.00    -0.203 F 
ATOM     70  C   UNL A   1      40.202  35.846  37.760  1.00  0.00     0.198 A 
ATOM     71  C   UNL A   1      38.733  34.242  38.774  1.00  0.00     0.198 A 
ATOM     72  F   UNL A   1      38.318  32.185  37.712  1.00  0.00    -0.203 F 
ATOM     73  F   UNL A   1      40.844  37.022  37.801  1.00  0.00    -0.200 F 
ATOM     74  C   UNL A   1      39.372  35.472  38.805  1.00  0.00     0.200 A 
ATOM     75  F   UNL A   1      37.919  33.886  39.777  1.00  0.00    -0.200 F 
ATOM     76  F   UNL A   1      39.193  36.296  39.848  1.00  0.00    -0.200 F 
ENDBRANCH  52  66
BRANCH  53  77
ATOM     77  C   UNL A   1      40.740  27.943  28.540  1.00  0.00     0.064 A 
ATOM     78  C   UNL A   1      41.495  28.397  27.449  1.00  0.00     0.173 A 
ATOM     79  C   UNL A   1      40.151  26.674  28.440  1.00  0.00     0.173 A 
ATOM     80  F   UNL A   1      42.063  29.612  27.488  1.00  0.00    -0.203 F 
ATOM     81  C   UNL A   1      41.634  27.626  26.297  1.00  0.00     0.198 A 
ATOM     82  C   UNL A   1      40.316  25.890  27.300  1.00  0.00     0.198 A 
ATOM     83  F   UNL A   1      39.424  26.188  29.457  1.00  0.00    -0.203 F 
ATOM     84  F   UNL A   1      42.318  28.107  25.250  1.00  0.00    -0.200 F 
ATOM     85  C   UNL A   1      41.049  26.371  26.225  1.00  0.00     0.200 A 
ATOM     86  F   UNL A   1      39.762  24.672  27.242  1.00  0.00    -0.200 F 
ATOM     87  F   UNL A   1      41.184  25.628  25.119  1.00  0.00    -0.200 F 
ENDBRANCH  53  77
BRANCH  65  88
ATOM     88  C   UNL A   1      44.203  28.443  34.571  1.00  0.00     0.064 A 
ATOM     89  C   UNL A   1      45.516  28.914  34.424  1.00  0.00     0.173 A 
ATOM     90  C   UNL A   1      44.007  27.267  35.312  1.00  0.00     0.173 A 
ATOM     91  F   UNL A   1      45.758  30.025  33.711  1.00  0.00    -0.203 F 
ATOM     92  C   UNL A   1      46.590  28.224  34.980  1.00  0.00     0.198 A 
ATOM     93  C   UNL A   1      45.079  26.599  35.894  1.00  0.00     0.198 A 
ATOM     94  F   UNL A   1      42.770  26.777  35.488  1.00  0.00    -0.203 F 
ATOM     95  F   UNL A   1      47.840  28.668  34.788  1.00  0.00    -0.200 F 
ATOM     96  C   UNL A   1      46.370  27.073  35.722  1.00  0.00     0.200 A 
ATOM     97  F   UNL A   1      44.863  25.495  36.624  1.00  0.00    -0.200 F 
ATOM     98  F   UNL A   1      47.404  26.418  36.266  1.00  0.00    -0.200 F 
ENDBRANCH  65  88
ENDBRANCH  39  40
ENDBRANCH  31  34
ENDBRANCH  29  30
ENDBRANCH  28  29
ENDBRANCH   1  28
TORSDOF 15
ENDMDL
MODEL 3
REMARK VINA RESULT:     -13.2      5.676     11.147
REMARK SMILES C[C@@H]1CN(C(=O)Nc2ccc(O)c(C(=O)NCCCCCCNC(=O)c3ccc(-c4c5nc(c(-c6c(F)c(F)c(F)c(F)c6F)c6ccc([nH]6)c(-c6c(F)c(F)c(F)c(F)c6F)c6nc(c(-c7c(F)c(F)c(F)c(F)c7F)c7ccc4[nH]7)C=C6)C=C5)cc3)c2)C[C@H]1C
REMARK SMILES IDX 20 1 19 2 18 3 17 4 16 5 14 6 15 7 13 9 8 10 9 11 89 12
REMARK SMILES IDX 10 13 11 14 7 15 1 16 2 17 3 18 91 19 4 20 90 21 92 22 5 23
REMARK SMILES IDX 6 24 12 26 21 28 22 29 23 30 24 31 25 33 26 34 27 35 88 36
REMARK SMILES IDX 28 37 87 38 29 39 30 40 31 41 81 42 32 43 86 44 80 45 82 46
REMARK SMILES IDX 33 47 85 48 79 49 78 50 34 52 66 53 46 54 65 55 47 56 50 57
REMARK SMILES IDX 64 58 83 59 48 60 49 61 63 63 84 64 51 65 35 66 36 67 44 68
REMARK SMILES IDX 37 69 38 70 42 71 45 72 39 73 40 74 43 75 41 76 67 77 68 78
REMARK SMILES IDX 76 79 69 80 70 81 74 82 77 83 71 84 72 85 75 86 73 87 52 88
REMARK SMILES IDX 53 89 61 90 54 91 55 92 59 93 62 94 56 95 57 96 60 97 58 98
REMARK H PARENT 16 8 7 25 12 27 23 32 82 51 50 62
REMARK Flexibility Score: inf
ROOT
ATOM      1  C   UNL A   1      37.000  20.568  24.898  1.00  0.00     0.002 C 
ENDROOT
BRANCH   1   2
ATOM      2  C   UNL A   1      37.422  22.008  24.595  1.00  0.00     0.002 C 
BRANCH   2   3
ATOM      3  C   UNL A   1      37.439  22.938  25.811  1.00  0.00     0.021 C 
BRANCH   3   4
ATOM      4  C   UNL A   1      36.089  23.597  26.110  1.00  0.00     0.116 C 
BRANCH   4   5
ATOM      5  N   UNL A   1      35.268  22.704  26.892  1.00  0.00    -0.352 N 
ATOM      6  C   UNL A   1      34.124  22.011  26.600  1.00  0.00     0.255 C 
ATOM      7  O   UNL A   1      33.625  21.371  27.531  1.00  0.00    -0.269 OA
ATOM      8  H   UNL A   1      35.592  22.566  27.811  1.00  0.00     0.163 HD
BRANCH   6   9
ATOM      9  C   UNL A   1      33.496  21.890  25.251  1.00  0.00     0.083 A 
ATOM     10  C   UNL A   1      33.379  22.966  23.060  1.00  0.00     0.043 A 
ATOM     11  C   UNL A   1      32.582  21.934  22.580  1.00  0.00     0.030 A 
ATOM     12  C   UNL A   1      33.900  22.897  24.351  1.00  0.00     0.044 A 
ATOM     13  C   UNL A   1      32.176  20.924  23.443  1.00  0.00     0.049 A 
ATOM     14  C   UNL A   1      32.602  20.919  24.778  1.00  0.00     0.128 A 
BRANCH  10  15
ATOM     15  N   UNL A   1      33.669  24.092  22.289  1.00  0.00    -0.308 N 
ATOM     16  C   UNL A   1      29.938  26.001  25.700  1.00  0.00     0.010 C 
ATOM     17  C   UNL A   1      30.077  25.861  24.193  1.00  0.00     0.010 C 
ATOM     18  C   UNL A   1      31.254  24.966  23.815  1.00  0.00     0.125 C 
ATOM     19  C   UNL A   1      30.390  27.158  23.445  1.00  0.00     0.010 C 
ATOM     20  N   UNL A   1      31.724  25.439  22.518  1.00  0.00    -0.324 N 
ATOM     21  C   UNL A   1      31.000  26.643  22.137  1.00  0.00     0.125 C 
ATOM     22  C   UNL A   1      29.166  28.028  23.220  1.00  0.00     0.010 C 
ATOM     23  C   UNL A   1      32.859  25.085  21.825  1.00  0.00     0.321 C 
ATOM     24  O   UNL A   1      33.256  25.738  20.856  1.00  0.00    -0.248 OA
ATOM     25  H   UNL A   1      34.616  24.184  22.037  1.00  0.00     0.171 HD
ENDBRANCH  10  15
BRANCH  14  26
ATOM     26  O   UNL A   1      32.120  19.908  25.552  1.00  0.00    -0.507 OA
ATOM     27  H   UNL A   1      31.196  19.766  25.615  1.00  0.00     0.293 HD
ENDBRANCH  14  26
ENDBRANCH   6   9
ENDBRANCH   4   5
ENDBRANCH   3   4
ENDBRANCH   2   3
ENDBRANCH   1   2
BRANCH   1  28
ATOM     28  C   UNL A   1      38.151  19.561  24.967  1.00  0.00     0.021 C 
BRANCH  28  29
ATOM     29  C   UNL A   1      39.368  20.057  25.741  1.00  0.00     0.116 C 
BRANCH  29  30
ATOM     30  N   UNL A   1      40.362  19.006  25.905  1.00  0.00    -0.352 N 
ATOM     31  C   UNL A   1      41.721  19.118  26.062  1.00  0.00     0.251 C 
ATOM     32  H   UNL A   1      40.009  18.086  25.903  1.00  0.00     0.163 HD
ATOM     33  O   UNL A   1      42.448  18.141  25.935  1.00  0.00    -0.269 OA
BRANCH  31  34
ATOM     34  C   UNL A   1      42.303  20.437  26.380  1.00  0.00     0.039 A 
ATOM     35  C   UNL A   1      42.830  21.217  25.348  1.00  0.00     0.014 A 
ATOM     36  C   UNL A   1      42.326  20.897  27.699  1.00  0.00     0.014 A 
ATOM     37  C   UNL A   1      43.322  22.492  25.632  1.00  0.00     0.010 A 
ATOM     38  C   UNL A   1      42.749  22.194  27.970  1.00  0.00     0.010 A 
ATOM     39  C   UNL A   1      43.253  23.003  26.939  1.00  0.00    -0.014 A 
BRANCH  39  40
ATOM     40  C   UNL A   1      43.702  24.380  27.259  1.00  0.00     0.031 A 
ATOM     41  C   UNL A   1      42.716  25.392  27.772  1.00  0.00     0.074 A 
ATOM     42  C   UNL A   1      44.976  24.741  27.007  1.00  0.00     0.049 A 
ATOM     43  N   UNL A   1      42.883  26.669  28.004  1.00  0.00    -0.248 NA
ATOM     44  C   UNL A   1      41.351  24.908  28.030  1.00  0.00     0.031 C 
ATOM     45  C   UNL A   1      46.015  23.860  26.471  1.00  0.00     0.029 A 
ATOM     46  N   UNL A   1      45.610  25.949  27.155  1.00  0.00    -0.354 N 
ATOM     47  C   UNL A   1      41.645  27.141  28.420  1.00  0.00     0.074 A 
ATOM     48  C   UNL A   1      40.724  26.028  28.354  1.00  0.00     0.031 C 
ATOM     49  C   UNL A   1      47.159  24.551  26.351  1.00  0.00     0.029 A 
ATOM     50  C   UNL A   1      46.925  25.933  26.758  1.00  0.00     0.049 A 
ATOM     51  H   UNL A   1      45.164  26.751  27.511  1.00  0.00     0.167 HD
ATOM     52  C   UNL A   1      41.315  28.385  28.840  1.00  0.00     0.037 A 
ATOM     53  C   UNL A   1      47.834  26.925  26.713  1.00  0.00     0.037 A 
ATOM     54  C   UNL A   1      42.243  29.482  28.924  1.00  0.00     0.049 A 
ATOM     55  C   UNL A   1      47.435  28.305  27.166  1.00  0.00     0.074 A 
ATOM     56  C   UNL A   1      42.023  30.766  29.390  1.00  0.00     0.029 A 
ATOM     57  N   UNL A   1      43.572  29.422  28.529  1.00  0.00    -0.354 N 
ATOM     58  N   UNL A   1      46.278  28.725  27.616  1.00  0.00    -0.248 NA
ATOM     59  C   UNL A   1      48.469  29.347  27.106  1.00  0.00     0.031 C 
ATOM     60  C   UNL A   1      43.202  31.499  29.226  1.00  0.00     0.029 A 
ATOM     61  C   UNL A   1      44.176  30.655  28.715  1.00  0.00     0.049 A 
ATOM     62  H   UNL A   1      44.019  28.622  28.168  1.00  0.00     0.167 HD
ATOM     63  C   UNL A   1      46.453  30.067  27.926  1.00  0.00     0.074 A 
ATOM     64  C   UNL A   1      47.832  30.389  27.620  1.00  0.00     0.031 C 
ATOM     65  C   UNL A   1      45.554  30.954  28.418  1.00  0.00     0.037 A 
BRANCH  52  66
ATOM     66  C   UNL A   1      39.888  28.628  29.242  1.00  0.00     0.064 A 
ATOM     67  C   UNL A   1      39.446  28.416  30.557  1.00  0.00     0.173 A 
ATOM     68  C   UNL A   1      38.959  29.115  28.309  1.00  0.00     0.173 A 
ATOM     69  F   UNL A   1      40.290  27.941  31.485  1.00  0.00    -0.203 F 
ATOM     70  C   UNL A   1      38.121  28.653  30.916  1.00  0.00     0.198 A 
ATOM     71  C   UNL A   1      37.643  29.382  28.680  1.00  0.00     0.198 A 
ATOM     72  F   UNL A   1      39.328  29.340  27.040  1.00  0.00    -0.203 F 
ATOM     73  F   UNL A   1      37.711  28.393  32.165  1.00  0.00    -0.200 F 
ATOM     74  C   UNL A   1      37.224  29.143  29.980  1.00  0.00     0.200 A 
ATOM     75  F   UNL A   1      36.781  29.870  27.778  1.00  0.00    -0.200 F 
ATOM     76  F   UNL A   1      35.951  29.379  30.329  1.00  0.00    -0.200 F 
ENDBRANCH  52  66
BRANCH  53  77
ATOM     77  C   UNL A   1      49.215  26.649  26.237  1.00  0.00     0.064 A 
ATOM     78  C   UNL A   1      49.580  26.897  24.907  1.00  0.00     0.173 A 
ATOM     79  C   UNL A   1      50.194  26.125  27.094  1.00  0.00     0.173 A 
ATOM     80  F   UNL A   1      48.675  27.379  24.042  1.00  0.00    -0.203 F 
ATOM     81  C   UNL A   1      50.864  26.609  24.445  1.00  0.00     0.198 A 
ATOM     82  C   UNL A   1      51.486  25.868  26.640  1.00  0.00     0.198 A 
ATOM     83  F   UNL A   1      49.900  25.876  28.379  1.00  0.00    -0.203 F 
ATOM     84  F   UNL A   1      51.170  26.808  23.156  1.00  0.00    -0.200 F 
ATOM     85  C   UNL A   1      51.817  26.100  25.314  1.00  0.00     0.200 A 
ATOM     86  F   UNL A   1      52.408  25.391  27.487  1.00  0.00    -0.200 F 
ATOM     87  F   UNL A   1      53.052  25.826  24.872  1.00  0.00    -0.200 F 
ENDBRANCH  53  77
BRANCH  65  88
ATOM     88  C   UNL A   1      46.039  32.346  28.701  1.00  0.00     0.064 A 
ATOM     89  C   UNL A   1      45.954  33.367  27.743  1.00  0.00     0.173 A 
ATOM     90  C   UNL A   1      46.548  32.674  29.967  1.00  0.00     0.173 A 
ATOM     91  F   UNL A   1      45.489  33.101  26.513  1.00  0.00    -0.203 F 
ATOM     92  C   UNL A   1      46.380  34.660  28.036  1.00  0.00     0.198 A 
ATOM     93  C   UNL A   1      46.942  33.974  30.267  1.00  0.00     0.198 A 
ATOM     94  F   UNL A   1      46.645  31.736  30.921  1.00  0.00    -0.203 F 
ATOM     95  F   UNL A   1      46.333  35.609  27.091  1.00  0.00    -0.200 F 
ATOM     96  C   UNL A   1      46.865  34.965  29.300  1.00  0.00     0.200 A 
ATOM     97  F   UNL A   1      47.395  34.270  31.493  1.00  0.00    -0.200 F 
ATOM     98  F   UNL A   1      47.264  36.212  29.583  1.00  0.00    -0.200 F 
ENDBRANCH  65  88
ENDBRANCH  39  40
ENDBRANCH  31  34
ENDBRANCH  29  30
ENDBRANCH  28  29
ENDBRANCH   1  28
TORSDOF 15
ENDMDL
