MODEL 1
REMARK VINA RESULT:     -12.1      0.000      0.000
REMARK SMILES Cc1cc(C)cc(-c2ccc([C@@H](C)C(=O)NCCCCCCNC(=O)c3ccc(-c4c5nc(c(-c6c(F)c(F)c(F)c(F)c6F)c6ccc([nH]6)c(-c6c(F)c(F)c(F)c(F)c6F)c6nc(c(-c7c(F)c(F)c(F)c(F)c7F)c7ccc4[nH]7)C=C6)C=C5)cc3)cc2F)c1
REMARK SMILES IDX 19 1 18 2 17 3 16 4 14 5 15 6 12 8 13 9 11 10 8 11 9 12
REMARK SMILES IDX 90 13 10 14 89 15 91 16 7 17 1 18 2 19 3 20 92 21 4 22 5 23
REMARK SMILES IDX 6 24 20 25 21 26 22 27 23 28 24 29 25 31 26 32 27 33 88 34
REMARK SMILES IDX 28 35 87 36 29 37 30 38 31 39 81 40 32 41 86 42 80 43 82 44
REMARK SMILES IDX 33 45 85 46 79 47 78 48 34 50 66 51 46 52 65 53 47 54 50 55
REMARK SMILES IDX 64 56 83 57 48 58 49 59 63 61 84 62 51 63 35 64 36 65 44 66
REMARK SMILES IDX 37 67 38 68 42 69 45 70 39 71 40 72 43 73 41 74 67 75 68 76
REMARK SMILES IDX 76 77 69 78 70 79 74 80 77 81 71 82 72 83 75 84 73 85 52 86
REMARK SMILES IDX 53 87 61 88 54 89 55 90 59 91 62 92 56 93 57 94 60 95 58 96
REMARK H PARENT 16 7 23 30 82 49 50 60
REMARK Flexibility Score: inf
ROOT
ATOM      1  C   UNL A   1      33.947  25.668  24.890  1.00  0.00     0.002 C 
ENDROOT
BRANCH   1   2
ATOM      2  C   UNL A   1      35.136  24.734  25.141  1.00  0.00     0.021 C 
BRANCH   2   3
ATOM      3  C   UNL A   1      34.878  23.283  24.727  1.00  0.00     0.116 C 
BRANCH   3   4
ATOM      4  N   UNL A   1      34.625  22.437  25.875  1.00  0.00    -0.356 N 
ATOM      5  C   UNL A   1      33.564  21.653  26.205  1.00  0.00     0.227 C 
ATOM      6  O   UNL A   1      33.599  21.123  27.321  1.00  0.00    -0.274 OA
ATOM      7  H   UNL A   1      35.354  22.430  26.537  1.00  0.00     0.163 HD
BRANCH   5   8
ATOM      8  C   UNL A   1      32.371  21.393  25.272  1.00  0.00     0.105 C 
ATOM      9  C   UNL A   1      32.662  20.386  24.157  1.00  0.00     0.023 C 
BRANCH   8  10
ATOM     10  C   UNL A   1      31.637  22.657  24.852  1.00  0.00    -0.033 A 
ATOM     11  C   UNL A   1      30.354  25.120  24.151  1.00  0.00     0.017 A 
ATOM     12  C   UNL A   1      30.870  24.248  23.176  1.00  0.00     0.012 A 
ATOM     13  C   UNL A   1      30.475  24.708  25.484  1.00  0.00     0.131 A 
ATOM     14  C   UNL A   1      31.467  23.030  23.517  1.00  0.00     0.005 A 
ATOM     15  C   UNL A   1      31.117  23.514  25.834  1.00  0.00     0.044 A 
ATOM     16  F   UNL A   1      29.970  25.456  26.478  1.00  0.00    -0.206 F 
BRANCH  11  17
ATOM     17  C   UNL A   1      29.739  26.405  23.749  1.00  0.00    -0.015 A 
ATOM     18  C   UNL A   1      30.685  29.668  21.986  1.00  0.00     0.044 C 
ATOM     19  C   UNL A   1      29.878  28.600  22.664  1.00  0.00    -0.050 A 
ATOM     20  C   UNL A   1      28.506  28.789  22.866  1.00  0.00     0.006 A 
ATOM     21  C   UNL A   1      30.479  27.411  23.103  1.00  0.00     0.012 A 
ATOM     22  C   UNL A   1      27.740  27.813  23.507  1.00  0.00    -0.050 A 
ATOM     23  C   UNL A   1      26.268  28.019  23.708  1.00  0.00     0.044 C 
ATOM     24  C   UNL A   1      28.367  26.642  23.956  1.00  0.00     0.012 A 
ENDBRANCH  11  17
ENDBRANCH   8  10
ENDBRANCH   5   8
ENDBRANCH   3   4
ENDBRANCH   2   3
ENDBRANCH   1   2
BRANCH   1  25
ATOM     25  C   UNL A   1      33.584  26.590  26.061  1.00  0.00     0.002 C 
BRANCH  25  26
ATOM     26  C   UNL A   1      32.765  27.832  25.693  1.00  0.00     0.021 C 
BRANCH  26  27
ATOM     27  C   UNL A   1      33.596  29.044  25.278  1.00  0.00     0.116 C 
BRANCH  27  28
ATOM     28  N   UNL A   1      33.030  30.286  25.782  1.00  0.00    -0.352 N 
ATOM     29  C   UNL A   1      33.371  31.019  26.890  1.00  0.00     0.251 C 
ATOM     30  H   UNL A   1      32.290  30.656  25.248  1.00  0.00     0.163 HD
ATOM     31  O   UNL A   1      32.633  31.914  27.288  1.00  0.00    -0.269 OA
BRANCH  29  32
ATOM     32  C   UNL A   1      34.626  30.729  27.617  1.00  0.00     0.039 A 
ATOM     33  C   UNL A   1      35.620  31.711  27.667  1.00  0.00     0.014 A 
ATOM     34  C   UNL A   1      34.841  29.482  28.211  1.00  0.00     0.014 A 
ATOM     35  C   UNL A   1      36.806  31.461  28.360  1.00  0.00     0.010 A 
ATOM     36  C   UNL A   1      35.996  29.257  28.955  1.00  0.00     0.010 A 
ATOM     37  C   UNL A   1      36.991  30.243  29.034  1.00  0.00    -0.014 A 
BRANCH  37  38
ATOM     38  C   UNL A   1      38.218  29.982  29.829  1.00  0.00     0.031 A 
ATOM     39  C   UNL A   1      39.287  29.071  29.296  1.00  0.00     0.074 A 
ATOM     40  C   UNL A   1      38.338  30.520  31.058  1.00  0.00     0.049 A 
ATOM     41  N   UNL A   1      40.389  28.664  29.874  1.00  0.00    -0.248 NA
ATOM     42  C   UNL A   1      39.082  28.524  27.946  1.00  0.00     0.031 C 
ATOM     43  C   UNL A   1      37.348  31.387  31.699  1.00  0.00     0.029 A 
ATOM     44  N   UNL A   1      39.339  30.409  31.991  1.00  0.00    -0.354 N 
ATOM     45  C   UNL A   1      40.996  27.806  28.967  1.00  0.00     0.074 A 
ATOM     46  C   UNL A   1      40.122  27.713  27.818  1.00  0.00     0.031 C 
ATOM     47  C   UNL A   1      37.799  31.747  32.911  1.00  0.00     0.029 A 
ATOM     48  C   UNL A   1      39.090  31.107  33.150  1.00  0.00     0.049 A 
ATOM     49  H   UNL A   1      40.156  29.881  31.846  1.00  0.00     0.167 HD
ATOM     50  C   UNL A   1      42.187  27.172  29.077  1.00  0.00     0.037 A 
ATOM     51  C   UNL A   1      39.817  31.212  34.279  1.00  0.00     0.037 A 
ATOM     52  C   UNL A   1      43.071  27.296  30.206  1.00  0.00     0.049 A 
ATOM     53  C   UNL A   1      41.138  30.499  34.373  1.00  0.00     0.074 A 
ATOM     54  C   UNL A   1      44.329  26.747  30.378  1.00  0.00     0.029 A 
ATOM     55  N   UNL A   1      42.790  28.022  31.354  1.00  0.00    -0.354 N 
ATOM     56  N   UNL A   1      41.727  29.736  33.487  1.00  0.00    -0.248 NA
ATOM     57  C   UNL A   1      41.896  30.665  35.621  1.00  0.00     0.031 C 
ATOM     58  C   UNL A   1      44.791  27.102  31.649  1.00  0.00     0.029 A 
ATOM     59  C   UNL A   1      43.843  27.915  32.248  1.00  0.00     0.049 A 
ATOM     60  H   UNL A   1      41.965  28.537  31.510  1.00  0.00     0.167 HD
ATOM     61  C   UNL A   1      42.931  29.346  34.057  1.00  0.00     0.074 A 
ATOM     62  C   UNL A   1      42.996  29.969  35.363  1.00  0.00     0.031 C 
ATOM     63  C   UNL A   1      43.894  28.545  33.543  1.00  0.00     0.037 A 
BRANCH  50  64
ATOM     64  C   UNL A   1      42.624  26.292  27.943  1.00  0.00     0.064 A 
ATOM     65  C   UNL A   1      43.488  26.784  26.952  1.00  0.00     0.173 A 
ATOM     66  C   UNL A   1      42.124  24.990  27.791  1.00  0.00     0.173 A 
ATOM     67  F   UNL A   1      43.990  28.025  27.048  1.00  0.00    -0.203 F 
ATOM     68  C   UNL A   1      43.820  26.011  25.844  1.00  0.00     0.198 A 
ATOM     69  C   UNL A   1      42.480  24.210  26.694  1.00  0.00     0.198 A 
ATOM     70  F   UNL A   1      41.303  24.470  28.714  1.00  0.00    -0.203 F 
ATOM     71  F   UNL A   1      44.619  26.515  24.892  1.00  0.00    -0.200 F 
ATOM     72  C   UNL A   1      43.319  24.725  25.716  1.00  0.00     0.200 A 
ATOM     73  F   UNL A   1      42.013  22.959  26.583  1.00  0.00    -0.200 F 
ATOM     74  F   UNL A   1      43.645  23.980  24.651  1.00  0.00    -0.200 F 
ENDBRANCH  50  64
BRANCH  51  75
ATOM     75  C   UNL A   1      39.315  32.052  35.397  1.00  0.00     0.064 A 
ATOM     76  C   UNL A   1      39.650  33.410  35.497  1.00  0.00     0.173 A 
ATOM     77  C   UNL A   1      38.517  31.499  36.408  1.00  0.00     0.173 A 
ATOM     78  F   UNL A   1      40.416  33.984  34.558  1.00  0.00    -0.203 F 
ATOM     79  C   UNL A   1      39.221  34.178  36.578  1.00  0.00     0.198 A 
ATOM     80  C   UNL A   1      38.068  32.274  37.475  1.00  0.00     0.198 A 
ATOM     81  F   UNL A   1      38.156  30.209  36.345  1.00  0.00    -0.203 F 
ATOM     82  F   UNL A   1      39.584  35.465  36.669  1.00  0.00    -0.200 F 
ATOM     83  C   UNL A   1      38.427  33.611  37.563  1.00  0.00     0.200 A 
ATOM     84  F   UNL A   1      37.282  31.729  38.413  1.00  0.00    -0.200 F 
ATOM     85  F   UNL A   1      38.007  34.353  38.597  1.00  0.00    -0.200 F 
ENDBRANCH  51  75
BRANCH  63  86
ATOM     86  C   UNL A   1      45.117  28.299  34.378  1.00  0.00     0.064 A 
ATOM     87  C   UNL A   1      46.272  29.073  34.191  1.00  0.00     0.173 A 
ATOM     88  C   UNL A   1      45.174  27.242  35.297  1.00  0.00     0.173 A 
ATOM     89  F   UNL A   1      46.270  30.090  33.316  1.00  0.00    -0.203 F 
ATOM     90  C   UNL A   1      47.446  28.785  34.880  1.00  0.00     0.198 A 
ATOM     91  C   UNL A   1      46.342  26.975  36.006  1.00  0.00     0.198 A 
ATOM     92  F   UNL A   1      44.091  26.482  35.520  1.00  0.00    -0.203 F 
ATOM     93  F   UNL A   1      48.549  29.514  34.657  1.00  0.00    -0.200 F 
ATOM     94  C   UNL A   1      47.480  27.738  35.788  1.00  0.00     0.200 A 
ATOM     95  F   UNL A   1      46.367  25.976  36.899  1.00  0.00    -0.200 F 
ATOM     96  F   UNL A   1      48.609  27.465  36.456  1.00  0.00    -0.200 F 
ENDBRANCH  63  86
ENDBRANCH  37  38
ENDBRANCH  29  32
ENDBRANCH  27  28
ENDBRANCH  26  27
ENDBRANCH  25  26
ENDBRANCH   1  25
TORSDOF 15
ENDMDL
MODEL 2
REMARK VINA RESULT:     -11.8      0.450      7.382
REMARK SMILES Cc1cc(C)cc(-c2ccc([C@@H](C)C(=O)NCCCCCCNC(=O)c3ccc(-c4c5nc(c(-c6c(F)c(F)c(F)c(F)c6F)c6ccc([nH]6)c(-c6c(F)c(F)c(F)c(F)c6F)c6nc(c(-c7c(F)c(F)c(F)c(F)c7F)c7ccc4[nH]7)C=C6)C=C5)cc3)cc2F)c1
REMARK SMILES IDX 19 1 18 2 17 3 16 4 14 5 15 6 12 8 13 9 11 10 8 11 9 12
REMARK SMILES IDX 90 13 10 14 89 15 91 16 7 17 1 18 2 19 3 20 92 21 4 22 5 23
REMARK SMILES IDX 6 24 20 25 21 26 22 27 23 28 24 29 25 31 26 32 27 33 88 34
REMARK SMILES IDX 28 35 87 36 29 37 30 38 31 39 81 40 32 41 86 42 80 43 82 44
REMARK SMILES IDX 33 45 85 46 79 47 78 48 34 50 66 51 46 52 65 53 47 54 50 55
REMARK SMILES IDX 64 56 83 57 48 58 49 59 63 61 84 62 51 63 35 64 36 65 44 66
REMARK SMILES IDX 37 67 38 68 42 69 45 70 39 71 40 72 43 73 41 74 67 75 68 76
REMARK SMILES IDX 76 77 69 78 70 79 74 80 77 81 71 82 72 83 75 84 73 85 52 86
REMARK SMILES IDX 53 87 61 88 54 89 55 90 59 91 62 92 56 93 57 94 60 95 58 96
REMARK H PARENT 16 7 23 30 82 49 50 60
REMARK Flexibility Score: inf
ROOT
ATOM      1  C   UNL A   1      34.114  25.407  24.581  1.00  0.00     0.002 C 
ENDROOT
BRANCH   1   2
ATOM      2  C   UNL A   1      35.316  24.460  24.673  1.00  0.00     0.021 C 
BRANCH   2   3
ATOM      3  C   UNL A   1      34.959  22.988  24.454  1.00  0.00     0.116 C 
BRANCH   3   4
ATOM      4  N   UNL A   1      34.686  22.314  25.706  1.00  0.00    -0.356 N 
ATOM      5  C   UNL A   1      33.576  21.678  26.167  1.00  0.00     0.227 C 
ATOM      6  O   UNL A   1      33.616  21.284  27.338  1.00  0.00    -0.274 OA
ATOM      7  H   UNL A   1      35.441  22.317  26.337  1.00  0.00     0.163 HD
BRANCH   5   8
ATOM      8  C   UNL A   1      32.322  21.421  25.317  1.00  0.00     0.105 C 
ATOM      9  C   UNL A   1      32.517  20.367  24.225  1.00  0.00     0.023 C 
BRANCH   8  10
ATOM     10  C   UNL A   1      31.600  22.691  24.894  1.00  0.00    -0.033 A 
ATOM     11  C   UNL A   1      30.351  25.166  24.174  1.00  0.00     0.017 A 
ATOM     12  C   UNL A   1      30.740  24.222  23.208  1.00  0.00     0.012 A 
ATOM     13  C   UNL A   1      30.581  24.820  25.513  1.00  0.00     0.131 A 
ATOM     14  C   UNL A   1      31.320  22.999  23.561  1.00  0.00     0.005 A 
ATOM     15  C   UNL A   1      31.207  23.621  25.869  1.00  0.00     0.044 A 
ATOM     16  F   UNL A   1      30.200  25.641  26.504  1.00  0.00    -0.206 F 
BRANCH  11  17
ATOM     17  C   UNL A   1      29.750  26.452  23.759  1.00  0.00    -0.015 A 
ATOM     18  C   UNL A   1      30.744  29.704  21.999  1.00  0.00     0.044 C 
ATOM     19  C   UNL A   1      29.919  28.643  22.668  1.00  0.00    -0.050 A 
ATOM     20  C   UNL A   1      28.546  28.840  22.847  1.00  0.00     0.006 A 
ATOM     21  C   UNL A   1      30.507  27.452  23.121  1.00  0.00     0.012 A 
ATOM     22  C   UNL A   1      27.764  27.871  23.478  1.00  0.00    -0.050 A 
ATOM     23  C   UNL A   1      26.290  28.086  23.654  1.00  0.00     0.044 C 
ATOM     24  C   UNL A   1      28.376  26.699  23.941  1.00  0.00     0.012 A 
ENDBRANCH  11  17
ENDBRANCH   8  10
ENDBRANCH   5   8
ENDBRANCH   3   4
ENDBRANCH   2   3
ENDBRANCH   1   2
BRANCH   1  25
ATOM     25  C   UNL A   1      33.949  26.367  25.766  1.00  0.00     0.002 C 
BRANCH  25  26
ATOM     26  C   UNL A   1      33.114  27.622  25.487  1.00  0.00     0.021 C 
BRANCH  26  27
ATOM     27  C   UNL A   1      33.927  28.864  25.132  1.00  0.00     0.116 C 
BRANCH  27  28
ATOM     28  N   UNL A   1      33.308  30.079  25.639  1.00  0.00    -0.352 N 
ATOM     29  C   UNL A   1      33.547  30.768  26.800  1.00  0.00     0.251 C 
ATOM     30  H   UNL A   1      32.610  30.465  25.060  1.00  0.00     0.163 HD
ATOM     31  O   UNL A   1      32.768  31.639  27.172  1.00  0.00    -0.269 OA
BRANCH  29  32
ATOM     32  C   UNL A   1      34.741  30.458  27.616  1.00  0.00     0.039 A 
ATOM     33  C   UNL A   1      34.750  29.290  28.384  1.00  0.00     0.014 A 
ATOM     34  C   UNL A   1      35.830  31.334  27.657  1.00  0.00     0.014 A 
ATOM     35  C   UNL A   1      35.874  28.974  29.150  1.00  0.00     0.010 A 
ATOM     36  C   UNL A   1      36.974  30.985  28.369  1.00  0.00     0.010 A 
ATOM     37  C   UNL A   1      37.006  29.804  29.125  1.00  0.00    -0.014 A 
BRANCH  37  38
ATOM     38  C   UNL A   1      38.235  29.453  29.883  1.00  0.00     0.031 A 
ATOM     39  C   UNL A   1      38.492  30.058  31.234  1.00  0.00     0.074 A 
ATOM     40  C   UNL A   1      39.146  28.634  29.323  1.00  0.00     0.049 A 
ATOM     41  N   UNL A   1      39.538  29.933  32.009  1.00  0.00    -0.248 NA
ATOM     42  C   UNL A   1      37.447  30.941  31.775  1.00  0.00     0.031 C 
ATOM     43  C   UNL A   1      39.028  28.019  28.001  1.00  0.00     0.029 A 
ATOM     44  N   UNL A   1      40.358  28.188  29.791  1.00  0.00    -0.354 N 
ATOM     45  C   UNL A   1      39.285  30.728  33.118  1.00  0.00     0.074 A 
ATOM     46  C   UNL A   1      38.007  31.370  32.898  1.00  0.00     0.031 C 
ATOM     47  C   UNL A   1      40.110  27.258  27.772  1.00  0.00     0.029 A 
ATOM     48  C   UNL A   1      41.016  27.362  28.912  1.00  0.00     0.049 A 
ATOM     49  H   UNL A   1      40.720  28.436  30.672  1.00  0.00     0.167 HD
ATOM     50  C   UNL A   1      40.042  30.890  34.228  1.00  0.00     0.037 A 
ATOM     51  C   UNL A   1      42.219  26.763  29.010  1.00  0.00     0.037 A 
ATOM     52  C   UNL A   1      41.295  30.222  34.459  1.00  0.00     0.049 A 
ATOM     53  C   UNL A   1      43.039  26.957  30.257  1.00  0.00     0.074 A 
ATOM     54  C   UNL A   1      42.100  30.269  35.584  1.00  0.00     0.029 A 
ATOM     55  N   UNL A   1      41.923  29.383  33.551  1.00  0.00    -0.354 N 
ATOM     56  N   UNL A   1      42.762  27.669  31.322  1.00  0.00    -0.248 NA
ATOM     57  C   UNL A   1      44.333  26.265  30.316  1.00  0.00     0.031 C 
ATOM     58  C   UNL A   1      43.239  29.496  35.339  1.00  0.00     0.029 A 
ATOM     59  C   UNL A   1      43.119  28.926  34.082  1.00  0.00     0.049 A 
ATOM     60  H   UNL A   1      41.572  29.147  32.662  1.00  0.00     0.167 HD
ATOM     61  C   UNL A   1      43.834  27.495  32.186  1.00  0.00     0.074 A 
ATOM     62  C   UNL A   1      44.762  26.599  31.527  1.00  0.00     0.031 C 
ATOM     63  C   UNL A   1      44.030  28.030  33.415  1.00  0.00     0.037 A 
BRANCH  50  64
ATOM     64  C   UNL A   1      39.537  31.816  35.296  1.00  0.00     0.064 A 
ATOM     65  C   UNL A   1      38.613  31.364  36.251  1.00  0.00     0.173 A 
ATOM     66  C   UNL A   1      39.903  33.169  35.326  1.00  0.00     0.173 A 
ATOM     67  F   UNL A   1      38.226  30.079  36.262  1.00  0.00    -0.203 F 
ATOM     68  C   UNL A   1      38.062  32.237  37.184  1.00  0.00     0.198 A 
ATOM     69  C   UNL A   1      39.371  34.034  36.278  1.00  0.00     0.198 A 
ATOM     70  F   UNL A   1      40.790  33.649  34.442  1.00  0.00    -0.203 F 
ATOM     71  F   UNL A   1      37.154  31.791  38.064  1.00  0.00    -0.200 F 
ATOM     72  C   UNL A   1      38.443  33.571  37.199  1.00  0.00     0.200 A 
ATOM     73  F   UNL A   1      39.756  35.318  36.305  1.00  0.00    -0.200 F 
ATOM     74  F   UNL A   1      37.916  34.409  38.102  1.00  0.00    -0.200 F 
ENDBRANCH  50  64
BRANCH  51  75
ATOM     75  C   UNL A   1      42.699  25.899  27.901  1.00  0.00     0.064 A 
ATOM     76  C   UNL A   1      42.346  24.544  27.824  1.00  0.00     0.173 A 
ATOM     77  C   UNL A   1      43.554  26.408  26.914  1.00  0.00     0.173 A 
ATOM     78  F   UNL A   1      41.536  24.008  28.749  1.00  0.00    -0.203 F 
ATOM     79  C   UNL A   1      42.845  23.728  26.813  1.00  0.00     0.198 A 
ATOM     80  C   UNL A   1      44.032  25.597  25.888  1.00  0.00     0.198 A 
ATOM     81  F   UNL A   1      43.905  27.703  26.935  1.00  0.00    -0.203 F 
ATOM     82  F   UNL A   1      42.520  22.427  26.782  1.00  0.00    -0.200 F 
ATOM     83  C   UNL A   1      43.684  24.255  25.842  1.00  0.00     0.200 A 
ATOM     84  F   UNL A   1      44.824  26.115  24.939  1.00  0.00    -0.200 F 
ATOM     85  F   UNL A   1      44.156  23.471  24.864  1.00  0.00    -0.200 F 
ENDBRANCH  51  75
BRANCH  63  86
ATOM     86  C   UNL A   1      45.285  27.658  34.147  1.00  0.00     0.064 A 
ATOM     87  C   UNL A   1      45.315  26.525  34.976  1.00  0.00     0.173 A 
ATOM     88  C   UNL A   1      46.428  28.468  34.098  1.00  0.00     0.173 A 
ATOM     89  F   UNL A   1      44.243  25.723  35.063  1.00  0.00    -0.203 F 
ATOM     90  C   UNL A   1      46.437  26.230  35.745  1.00  0.00     0.198 A 
ATOM     91  C   UNL A   1      47.558  28.154  34.848  1.00  0.00     0.198 A 
ATOM     92  F   UNL A   1      46.452  29.554  33.311  1.00  0.00    -0.203 F 
ATOM     93  F   UNL A   1      46.428  25.166  36.558  1.00  0.00    -0.200 F 
ATOM     94  C   UNL A   1      47.557  27.043  35.679  1.00  0.00     0.200 A 
ATOM     95  F   UNL A   1      48.649  28.928  34.766  1.00  0.00    -0.200 F 
ATOM     96  F   UNL A   1      48.640  26.754  36.414  1.00  0.00    -0.200 F 
ENDBRANCH  63  86
ENDBRANCH  37  38
ENDBRANCH  29  32
ENDBRANCH  27  28
ENDBRANCH  26  27
ENDBRANCH  25  26
ENDBRANCH   1  25
TORSDOF 15
ENDMDL
MODEL 3
REMARK VINA RESULT:     -11.8      2.722      7.547
REMARK SMILES Cc1cc(C)cc(-c2ccc([C@@H](C)C(=O)NCCCCCCNC(=O)c3ccc(-c4c5nc(c(-c6c(F)c(F)c(F)c(F)c6F)c6ccc([nH]6)c(-c6c(F)c(F)c(F)c(F)c6F)c6nc(c(-c7c(F)c(F)c(F)c(F)c7F)c7ccc4[nH]7)C=C6)C=C5)cc3)cc2F)c1
REMARK SMILES IDX 19 1 18 2 17 3 16 4 14 5 15 6 12 8 13 9 11 10 8 11 9 12
REMARK SMILES IDX 90 13 10 14 89 15 91 16 7 17 1 18 2 19 3 20 92 21 4 22 5 23
REMARK SMILES IDX 6 24 20 25 21 26 22 27 23 28 24 29 25 31 26 32 27 33 88 34
REMARK SMILES IDX 28 35 87 36 29 37 30 38 31 39 81 40 32 41 86 42 80 43 82 44
REMARK SMILES IDX 33 45 85 46 79 47 78 48 34 50 66 51 46 52 65 53 47 54 50 55
REMARK SMILES IDX 64 56 83 57 48 58 49 59 63 61 84 62 51 63 35 64 36 65 44 66
REMARK SMILES IDX 37 67 38 68 42 69 45 70 39 71 40 72 43 73 41 74 67 75 68 76
REMARK SMILES IDX 76 77 69 78 70 79 74 80 77 81 71 82 72 83 75 84 73 85 52 86
REMARK SMILES IDX 53 87 61 88 54 89 55 90 59 91 62 92 56 93 57 94 60 95 58 96
REMARK H PARENT 16 7 23 30 82 49 50 60
REMARK Flexibility Score: inf
ROOT
ATOM      1  C   UNL A   1      34.129  25.553  25.571  1.00  0.00     0.002 C 
ENDROOT
BRANCH   1   2
ATOM      2  C   UNL A   1      35.310  24.682  25.127  1.00  0.00     0.021 C 
BRANCH   2   3
ATOM      3  C   UNL A   1      34.933  23.225  24.850  1.00  0.00     0.116 C 
BRANCH   3   4
ATOM      4  N   UNL A   1      34.633  22.510  26.073  1.00  0.00    -0.356 N 
ATOM      5  C   UNL A   1      33.540  21.801  26.462  1.00  0.00     0.227 C 
ATOM      6  O   UNL A   1      33.539  21.387  27.627  1.00  0.00    -0.274 OA
ATOM      7  H   UNL A   1      35.351  22.546  26.746  1.00  0.00     0.163 HD
BRANCH   5   8
ATOM      8  C   UNL A   1      32.352  21.487  25.539  1.00  0.00     0.105 C 
ATOM      9  C   UNL A   1      32.647  20.412  24.491  1.00  0.00     0.023 C 
BRANCH   8  10
ATOM     10  C   UNL A   1      31.625  22.725  25.036  1.00  0.00    -0.033 A 
ATOM     11  C   UNL A   1      30.361  25.144  24.169  1.00  0.00     0.017 A 
ATOM     12  C   UNL A   1      30.827  24.182  23.257  1.00  0.00     0.012 A 
ATOM     13  C   UNL A   1      30.523  24.845  25.528  1.00  0.00     0.131 A 
ATOM     14  C   UNL A   1      31.414  22.985  23.680  1.00  0.00     0.005 A 
ATOM     15  C   UNL A   1      31.156  23.674  25.957  1.00  0.00     0.044 A 
ATOM     16  F   UNL A   1      30.066  25.686  26.469  1.00  0.00    -0.206 F 
BRANCH  11  17
ATOM     17  C   UNL A   1      29.755  26.402  23.679  1.00  0.00    -0.015 A 
ATOM     18  C   UNL A   1      26.378  28.206  23.676  1.00  0.00     0.044 C 
ATOM     19  C   UNL A   1      27.836  27.916  23.469  1.00  0.00    -0.050 A 
ATOM     20  C   UNL A   1      28.656  28.873  22.860  1.00  0.00     0.006 A 
ATOM     21  C   UNL A   1      28.393  26.694  23.875  1.00  0.00     0.012 A 
ATOM     22  C   UNL A   1      30.012  28.617  22.647  1.00  0.00    -0.050 A 
ATOM     23  C   UNL A   1      30.884  29.653  22.004  1.00  0.00     0.044 C 
ATOM     24  C   UNL A   1      30.541  27.380  23.041  1.00  0.00     0.012 A 
ENDBRANCH  11  17
ENDBRANCH   8  10
ENDBRANCH   5   8
ENDBRANCH   3   4
ENDBRANCH   2   3
ENDBRANCH   1   2
BRANCH   1  25
ATOM     25  C   UNL A   1      33.728  26.659  24.587  1.00  0.00     0.002 C 
BRANCH  25  26
ATOM     26  C   UNL A   1      33.382  28.011  25.220  1.00  0.00     0.021 C 
BRANCH  26  27
ATOM     27  C   UNL A   1      33.931  28.215  26.630  1.00  0.00     0.116 C 
BRANCH  27  28
ATOM     28  N   UNL A   1      33.740  29.580  27.093  1.00  0.00    -0.352 N 
ATOM     29  C   UNL A   1      34.533  30.352  27.903  1.00  0.00     0.251 C 
ATOM     30  H   UNL A   1      32.916  30.017  26.777  1.00  0.00     0.163 HD
ATOM     31  O   UNL A   1      34.100  31.397  28.376  1.00  0.00    -0.269 OA
BRANCH  29  32
ATOM     32  C   UNL A   1      35.913  29.924  28.219  1.00  0.00     0.039 A 
ATOM     33  C   UNL A   1      36.909  30.084  27.251  1.00  0.00     0.014 A 
ATOM     34  C   UNL A   1      36.217  29.329  29.448  1.00  0.00     0.014 A 
ATOM     35  C   UNL A   1      38.220  29.698  27.536  1.00  0.00     0.010 A 
ATOM     36  C   UNL A   1      37.536  29.005  29.754  1.00  0.00     0.010 A 
ATOM     37  C   UNL A   1      38.549  29.183  28.800  1.00  0.00    -0.014 A 
BRANCH  37  38
ATOM     38  C   UNL A   1      39.949  28.826  29.144  1.00  0.00     0.031 A 
ATOM     39  C   UNL A   1      40.807  29.786  29.919  1.00  0.00     0.074 A 
ATOM     40  C   UNL A   1      40.464  27.663  28.703  1.00  0.00     0.049 A 
ATOM     41  N   UNL A   1      42.070  29.685  30.247  1.00  0.00    -0.248 NA
ATOM     42  C   UNL A   1      40.171  31.035  30.365  1.00  0.00     0.031 C 
ATOM     43  C   UNL A   1      39.743  26.669  27.907  1.00  0.00     0.029 A 
ATOM     44  N   UNL A   1      41.718  27.123  28.853  1.00  0.00    -0.354 N 
ATOM     45  C   UNL A   1      42.381  30.858  30.921  1.00  0.00     0.074 A 
ATOM     46  C   UNL A   1      41.189  31.678  30.918  1.00  0.00     0.031 C 
ATOM     47  C   UNL A   1      40.557  25.632  27.656  1.00  0.00     0.029 A 
ATOM     48  C   UNL A   1      41.868  25.902  28.239  1.00  0.00     0.049 A 
ATOM     49  H   UNL A   1      42.441  27.567  29.351  1.00  0.00     0.167 HD
ATOM     50  C   UNL A   1      43.550  31.208  31.507  1.00  0.00     0.037 A 
ATOM     51  C   UNL A   1      42.943  25.096  28.149  1.00  0.00     0.037 A 
ATOM     52  C   UNL A   1      44.722  30.373  31.539  1.00  0.00     0.049 A 
ATOM     53  C   UNL A   1      44.230  25.507  28.812  1.00  0.00     0.074 A 
ATOM     54  C   UNL A   1      45.930  30.613  32.169  1.00  0.00     0.029 A 
ATOM     55  N   UNL A   1      44.830  29.138  30.917  1.00  0.00    -0.354 N 
ATOM     56  N   UNL A   1      44.493  26.594  29.494  1.00  0.00    -0.248 NA
ATOM     57  C   UNL A   1      45.364  24.580  28.697  1.00  0.00     0.031 C 
ATOM     58  C   UNL A   1      46.788  29.544  31.890  1.00  0.00     0.029 A 
ATOM     59  C   UNL A   1      46.096  28.615  31.129  1.00  0.00     0.049 A 
ATOM     60  H   UNL A   1      44.116  28.699  30.402  1.00  0.00     0.167 HD
ATOM     61  C   UNL A   1      45.813  26.475  29.907  1.00  0.00     0.074 A 
ATOM     62  C   UNL A   1      46.294  25.203  29.411  1.00  0.00     0.031 C 
ATOM     63  C   UNL A   1      46.558  27.344  30.632  1.00  0.00     0.037 A 
BRANCH  50  64
ATOM     64  C   UNL A   1      43.627  32.546  32.181  1.00  0.00     0.064 A 
ATOM     65  C   UNL A   1      43.246  32.690  33.524  1.00  0.00     0.173 A 
ATOM     66  C   UNL A   1      43.999  33.701  31.477  1.00  0.00     0.173 A 
ATOM     67  F   UNL A   1      42.877  31.616  34.241  1.00  0.00    -0.203 F 
ATOM     68  C   UNL A   1      43.219  33.942  34.131  1.00  0.00     0.198 A 
ATOM     69  C   UNL A   1      43.996  34.948  32.095  1.00  0.00     0.198 A 
ATOM     70  F   UNL A   1      44.380  33.616  30.195  1.00  0.00    -0.203 F 
ATOM     71  F   UNL A   1      42.817  34.059  35.406  1.00  0.00    -0.200 F 
ATOM     72  C   UNL A   1      43.596  35.070  33.418  1.00  0.00     0.200 A 
ATOM     73  F   UNL A   1      44.382  36.034  31.411  1.00  0.00    -0.200 F 
ATOM     74  F   UNL A   1      43.575  36.273  34.006  1.00  0.00    -0.200 F 
ENDBRANCH  50  64
BRANCH  51  75
ATOM     75  C   UNL A   1      42.832  23.805  27.422  1.00  0.00     0.064 A 
ATOM     76  C   UNL A   1      43.216  23.687  26.079  1.00  0.00     0.173 A 
ATOM     77  C   UNL A   1      42.303  22.671  28.053  1.00  0.00     0.173 A 
ATOM     78  F   UNL A   1      43.721  24.746  25.429  1.00  0.00    -0.203 F 
ATOM     79  C   UNL A   1      43.056  22.488  25.389  1.00  0.00     0.198 A 
ATOM     80  C   UNL A   1      42.168  21.464  27.369  1.00  0.00     0.198 A 
ATOM     81  F   UNL A   1      41.939  22.730  29.343  1.00  0.00    -0.203 F 
ATOM     82  F   UNL A   1      43.399  22.411  24.095  1.00  0.00    -0.200 F 
ATOM     83  C   UNL A   1      42.538  21.376  26.035  1.00  0.00     0.200 A 
ATOM     84  F   UNL A   1      41.688  20.386  28.003  1.00  0.00    -0.200 F 
ATOM     85  F   UNL A   1      42.394  20.220  25.373  1.00  0.00    -0.200 F 
ENDBRANCH  51  75
BRANCH  63  86
ATOM     86  C   UNL A   1      47.970  26.953  30.954  1.00  0.00     0.064 A 
ATOM     87  C   UNL A   1      49.021  27.315  30.096  1.00  0.00     0.173 A 
ATOM     88  C   UNL A   1      48.272  26.147  32.061  1.00  0.00     0.173 A 
ATOM     89  F   UNL A   1      48.781  28.077  29.018  1.00  0.00    -0.203 F 
ATOM     90  C   UNL A   1      50.318  26.866  30.324  1.00  0.00     0.198 A 
ATOM     91  C   UNL A   1      49.576  25.724  32.301  1.00  0.00     0.198 A 
ATOM     92  F   UNL A   1      47.304  25.787  32.917  1.00  0.00    -0.203 F 
ATOM     93  F   UNL A   1      51.298  27.192  29.470  1.00  0.00    -0.200 F 
ATOM     94  C   UNL A   1      50.595  26.074  31.427  1.00  0.00     0.200 A 
ATOM     95  F   UNL A   1      49.846  24.976  33.380  1.00  0.00    -0.200 F 
ATOM     96  F   UNL A   1      51.846  25.648  31.650  1.00  0.00    -0.200 F 
ENDBRANCH  63  86
ENDBRANCH  37  38
ENDBRANCH  29  32
ENDBRANCH  27  28
ENDBRANCH  26  27
ENDBRANCH  25  26
ENDBRANCH   1  25
TORSDOF 15
ENDMDL
