MODEL 1
REMARK VINA RESULT:     -11.8      0.000      0.000
REMARK SMILES N#C[C@H]1CN(c2cc(C(=O)NCCCCCCNC(=O)c3ccc(-c4c5nc(c(-c6c(F)c(F)c(F)c(F)c6F)c6ccc([nH]6)c(-c6c(F)c(F)c(F)c(F)c6F)c6nc(c(-c7c(F)c(F)c(F)c(F)c7F)c7ccc4[nH]7)C=C6)C=C5)cc3)c(N)cc2F)CCO1
REMARK SMILES IDX 14 1 13 2 12 3 11 4 9 5 10 6 8 8 6 9 7 10 87 11 86 12 88 13
REMARK SMILES IDX 84 14 5 15 3 16 4 17 91 18 90 19 89 20 2 21 1 22 85 23 15 26
REMARK SMILES IDX 16 27 17 28 18 29 19 30 20 32 21 33 22 34 83 35 23 36 82 37
REMARK SMILES IDX 24 38 25 39 26 40 76 41 27 42 81 43 75 44 77 45 28 46 80 47
REMARK SMILES IDX 74 48 73 49 29 51 61 52 41 53 60 54 42 55 45 56 59 57 78 58
REMARK SMILES IDX 43 59 44 60 58 62 79 63 46 64 30 65 31 66 39 67 32 68 33 69
REMARK SMILES IDX 37 70 40 71 34 72 35 73 38 74 36 75 62 76 63 77 71 78 64 79
REMARK SMILES IDX 65 80 69 81 72 82 66 83 67 84 70 85 68 86 47 87 48 88 56 89
REMARK SMILES IDX 49 90 50 91 54 92 57 93 51 94 52 95 55 96 53 97
REMARK H PARENT 11 7 85 24 85 25 18 31 77 50 45 61
REMARK Flexibility Score: inf
ROOT
ATOM      1  C   UNL A   1      38.475  22.521  25.754  1.00  0.00     0.002 C 
ENDROOT
BRANCH   1   2
ATOM      2  C   UNL A   1      37.564  23.710  26.062  1.00  0.00     0.021 C 
BRANCH   2   3
ATOM      3  C   UNL A   1      36.073  23.490  25.842  1.00  0.00     0.116 C 
BRANCH   3   4
ATOM      4  N   UNL A   1      35.380  22.820  26.920  1.00  0.00    -0.352 N 
ATOM      5  C   UNL A   1      34.320  21.940  26.879  1.00  0.00     0.253 C 
ATOM      6  O   UNL A   1      33.934  21.469  27.951  1.00  0.00    -0.269 OA
ATOM      7  H   UNL A   1      35.717  23.023  27.822  1.00  0.00     0.163 HD
BRANCH   5   8
ATOM      8  C   UNL A   1      33.578  21.585  25.624  1.00  0.00     0.065 A 
ATOM      9  C   UNL A   1      32.525  22.515  23.603  1.00  0.00     0.074 A 
ATOM     10  C   UNL A   1      33.249  22.683  24.790  1.00  0.00     0.045 A 
ATOM     11  C   UNL A   1      32.294  21.201  23.183  1.00  0.00     0.148 A 
ATOM     12  C   UNL A   1      32.597  20.110  23.985  1.00  0.00     0.067 A 
ATOM     13  F   UNL A   1      31.706  20.968  21.999  1.00  0.00    -0.205 F 
ATOM     14  C   UNL A   1      33.122  20.300  25.266  1.00  0.00     0.047 A 
BRANCH   9  15
ATOM     15  N   UNL A   1      31.979  23.593  22.942  1.00  0.00    -0.363 N 
ATOM     16  C   UNL A   1      30.766  25.613  23.656  1.00  0.00     0.240 C 
ATOM     17  C   UNL A   1      30.643  24.131  23.218  1.00  0.00     0.164 C 
ATOM     18  O   UNL A   1      31.533  26.384  22.696  1.00  0.00    -0.360 OA
ATOM     19  C   UNL A   1      32.860  25.850  22.553  1.00  0.00     0.183 C 
ATOM     20  C   UNL A   1      32.819  24.404  22.050  1.00  0.00     0.145 C 
BRANCH  16  21
ATOM     21  C   UNL A   1      29.421  26.201  23.807  1.00  0.00     0.096 C 
ATOM     22  N   UNL A   1      28.366  26.670  23.903  1.00  0.00    -0.195 NA
ENDBRANCH  16  21
ENDBRANCH   9  15
BRANCH  14  23
ATOM     23  N   UNL A   1      33.123  19.196  26.113  1.00  0.00    -0.398 N 
ATOM     24  H   UNL A   1      32.302  18.667  26.234  1.00  0.00     0.156 HD
ATOM     25  H   UNL A   1      33.946  18.945  26.592  1.00  0.00     0.156 HD
ENDBRANCH  14  23
ENDBRANCH   5   8
ENDBRANCH   3   4
ENDBRANCH   2   3
ENDBRANCH   1   2
BRANCH   1  26
ATOM     26  C   UNL A   1      37.874  21.387  24.916  1.00  0.00     0.002 C 
BRANCH  26  27
ATOM     27  C   UNL A   1      38.566  20.026  25.010  1.00  0.00     0.021 C 
BRANCH  27  28
ATOM     28  C   UNL A   1      39.385  19.792  26.273  1.00  0.00     0.116 C 
BRANCH  28  29
ATOM     29  N   UNL A   1      40.514  18.901  26.057  1.00  0.00    -0.352 N 
ATOM     30  C   UNL A   1      41.853  19.193  25.978  1.00  0.00     0.251 C 
ATOM     31  H   UNL A   1      40.283  17.950  25.952  1.00  0.00     0.163 HD
ATOM     32  O   UNL A   1      42.654  18.331  25.636  1.00  0.00    -0.269 OA
BRANCH  30  33
ATOM     33  C   UNL A   1      42.327  20.560  26.281  1.00  0.00     0.039 A 
ATOM     34  C   UNL A   1      42.567  21.440  25.223  1.00  0.00     0.014 A 
ATOM     35  C   UNL A   1      42.529  20.974  27.600  1.00  0.00     0.014 A 
ATOM     36  C   UNL A   1      42.950  22.756  25.492  1.00  0.00     0.010 A 
ATOM     37  C   UNL A   1      42.823  22.307  27.868  1.00  0.00     0.010 A 
ATOM     38  C   UNL A   1      43.044  23.211  26.818  1.00  0.00    -0.014 A 
BRANCH  38  39
ATOM     39  C   UNL A   1      43.379  24.624  27.127  1.00  0.00     0.031 A 
ATOM     40  C   UNL A   1      44.773  25.139  26.898  1.00  0.00     0.074 A 
ATOM     41  C   UNL A   1      42.446  25.429  27.670  1.00  0.00     0.049 A 
ATOM     42  N   UNL A   1      45.276  26.319  27.158  1.00  0.00    -0.248 NA
ATOM     43  C   UNL A   1      45.737  24.188  26.323  1.00  0.00     0.031 C 
ATOM     44  C   UNL A   1      41.068  25.040  27.970  1.00  0.00     0.029 A 
ATOM     45  N   UNL A   1      42.516  26.740  28.069  1.00  0.00    -0.354 N 
ATOM     46  C   UNL A   1      46.612  26.249  26.785  1.00  0.00     0.074 A 
ATOM     47  C   UNL A   1      46.858  24.890  26.354  1.00  0.00     0.031 C 
ATOM     48  C   UNL A   1      40.411  26.100  28.469  1.00  0.00     0.029 A 
ATOM     49  C   UNL A   1      41.335  27.226  28.573  1.00  0.00     0.049 A 
ATOM     50  H   UNL A   1      43.336  27.281  28.001  1.00  0.00     0.167 HD
ATOM     51  C   UNL A   1      47.542  27.236  26.773  1.00  0.00     0.037 A 
ATOM     52  C   UNL A   1      41.032  28.442  29.068  1.00  0.00     0.037 A 
ATOM     53  C   UNL A   1      47.290  28.585  27.210  1.00  0.00     0.049 A 
ATOM     54  C   UNL A   1      42.099  29.503  29.108  1.00  0.00     0.074 A 
ATOM     55  C   UNL A   1      48.152  29.667  27.211  1.00  0.00     0.029 A 
ATOM     56  N   UNL A   1      46.087  29.033  27.738  1.00  0.00    -0.354 N 
ATOM     57  N   UNL A   1      43.342  29.446  28.696  1.00  0.00    -0.248 NA
ATOM     58  C   UNL A   1      41.715  30.801  29.680  1.00  0.00     0.031 C 
ATOM     59  C   UNL A   1      47.493  30.749  27.805  1.00  0.00     0.029 A 
ATOM     60  C   UNL A   1      46.195  30.367  28.100  1.00  0.00     0.049 A 
ATOM     61  H   UNL A   1      45.276  28.484  27.840  1.00  0.00     0.167 HD
ATOM     62  C   UNL A   1      43.879  30.708  28.922  1.00  0.00     0.074 A 
ATOM     63  C   UNL A   1      42.820  31.511  29.498  1.00  0.00     0.031 C 
ATOM     64  C   UNL A   1      45.132  31.160  28.668  1.00  0.00     0.037 A 
BRANCH  51  65
ATOM     65  C   UNL A   1      48.920  26.875  26.287  1.00  0.00     0.064 A 
ATOM     66  C   UNL A   1      49.300  27.044  24.946  1.00  0.00     0.173 A 
ATOM     67  C   UNL A   1      49.873  26.347  27.172  1.00  0.00     0.173 A 
ATOM     68  F   UNL A   1      48.427  27.538  24.054  1.00  0.00    -0.203 F 
ATOM     69  C   UNL A   1      50.556  26.645  24.498  1.00  0.00     0.198 A 
ATOM     70  C   UNL A   1      51.144  25.990  26.728  1.00  0.00     0.198 A 
ATOM     71  F   UNL A   1      49.574  26.172  28.468  1.00  0.00    -0.203 F 
ATOM     72  F   UNL A   1      50.862  26.739  23.197  1.00  0.00    -0.200 F 
ATOM     73  C   UNL A   1      51.480  26.123  25.390  1.00  0.00     0.200 A 
ATOM     74  F   UNL A   1      52.042  25.504  27.597  1.00  0.00    -0.200 F 
ATOM     75  F   UNL A   1      52.687  25.736  24.958  1.00  0.00    -0.200 F 
ENDBRANCH  51  65
BRANCH  52  76
ATOM     76  C   UNL A   1      39.649  28.731  29.530  1.00  0.00     0.064 A 
ATOM     77  C   UNL A   1      38.702  29.279  28.654  1.00  0.00     0.173 A 
ATOM     78  C   UNL A   1      39.242  28.465  30.846  1.00  0.00     0.173 A 
ATOM     79  F   UNL A   1      39.047  29.569  27.390  1.00  0.00    -0.203 F 
ATOM     80  C   UNL A   1      37.407  29.567  29.079  1.00  0.00     0.198 A 
ATOM     81  C   UNL A   1      37.937  28.723  31.261  1.00  0.00     0.198 A 
ATOM     82  F   UNL A   1      40.107  27.936  31.723  1.00  0.00    -0.203 F 
ATOM     83  F   UNL A   1      36.536  30.133  28.233  1.00  0.00    -0.200 F 
ATOM     84  C   UNL A   1      37.024  29.282  30.381  1.00  0.00     0.200 A 
ATOM     85  F   UNL A   1      37.566  28.429  32.515  1.00  0.00    -0.200 F 
ATOM     86  F   UNL A   1      35.775  29.552  30.789  1.00  0.00    -0.200 F 
ENDBRANCH  52  76
BRANCH  64  87
ATOM     87  C   UNL A   1      45.420  32.606  28.963  1.00  0.00     0.064 A 
ATOM     88  C   UNL A   1      45.993  33.019  30.176  1.00  0.00     0.173 A 
ATOM     89  C   UNL A   1      45.156  33.590  27.997  1.00  0.00     0.173 A 
ATOM     90  F   UNL A   1      46.253  32.123  31.140  1.00  0.00    -0.203 F 
ATOM     91  C   UNL A   1      46.262  34.365  30.420  1.00  0.00     0.198 A 
ATOM     92  C   UNL A   1      45.462  34.928  28.228  1.00  0.00     0.198 A 
ATOM     93  F   UNL A   1      44.614  33.251  26.817  1.00  0.00    -0.203 F 
ATOM     94  F   UNL A   1      46.756  34.741  31.607  1.00  0.00    -0.200 F 
ATOM     95  C   UNL A   1      46.006  35.316  29.443  1.00  0.00     0.200 A 
ATOM     96  F   UNL A   1      45.233  35.841  27.276  1.00  0.00    -0.200 F 
ATOM     97  F   UNL A   1      46.277  36.607  29.676  1.00  0.00    -0.200 F 
ENDBRANCH  64  87
ENDBRANCH  38  39
ENDBRANCH  30  33
ENDBRANCH  28  29
ENDBRANCH  27  28
ENDBRANCH  26  27
ENDBRANCH   1  26
TORSDOF 16
ENDMDL
MODEL 2
REMARK VINA RESULT:     -11.7      5.503     11.021
REMARK SMILES N#C[C@H]1CN(c2cc(C(=O)NCCCCCCNC(=O)c3ccc(-c4c5nc(c(-c6c(F)c(F)c(F)c(F)c6F)c6ccc([nH]6)c(-c6c(F)c(F)c(F)c(F)c6F)c6nc(c(-c7c(F)c(F)c(F)c(F)c7F)c7ccc4[nH]7)C=C6)C=C5)cc3)c(N)cc2F)CCO1
REMARK SMILES IDX 14 1 13 2 12 3 11 4 9 5 10 6 8 8 6 9 7 10 87 11 86 12 88 13
REMARK SMILES IDX 84 14 5 15 3 16 4 17 91 18 90 19 89 20 2 21 1 22 85 23 15 26
REMARK SMILES IDX 16 27 17 28 18 29 19 30 20 32 21 33 22 34 83 35 23 36 82 37
REMARK SMILES IDX 24 38 25 39 26 40 76 41 27 42 81 43 75 44 77 45 28 46 80 47
REMARK SMILES IDX 74 48 73 49 29 51 61 52 41 53 60 54 42 55 45 56 59 57 78 58
REMARK SMILES IDX 43 59 44 60 58 62 79 63 46 64 30 65 31 66 39 67 32 68 33 69
REMARK SMILES IDX 37 70 40 71 34 72 35 73 38 74 36 75 62 76 63 77 71 78 64 79
REMARK SMILES IDX 65 80 69 81 72 82 66 83 67 84 70 85 68 86 47 87 48 88 56 89
REMARK SMILES IDX 49 90 50 91 54 92 57 93 51 94 52 95 55 96 53 97
REMARK H PARENT 11 7 85 24 85 25 18 31 77 50 45 61
REMARK Flexibility Score: inf
ROOT
ATOM      1  C   UNL A   1      32.917  30.445  26.339  1.00  0.00     0.002 C 
ENDROOT
BRANCH   1   2
ATOM      2  C   UNL A   1      33.180  29.074  26.965  1.00  0.00     0.021 C 
BRANCH   2   3
ATOM      3  C   UNL A   1      33.973  28.089  26.117  1.00  0.00     0.116 C 
BRANCH   3   4
ATOM      4  N   UNL A   1      34.295  28.539  24.782  1.00  0.00    -0.352 N 
ATOM      5  C   UNL A   1      33.508  28.595  23.652  1.00  0.00     0.253 C 
ATOM      6  O   UNL A   1      34.015  29.066  22.632  1.00  0.00    -0.269 OA
ATOM      7  H   UNL A   1      35.220  28.855  24.660  1.00  0.00     0.163 HD
BRANCH   5   8
ATOM      8  C   UNL A   1      32.110  28.054  23.582  1.00  0.00     0.065 A 
ATOM      9  C   UNL A   1      30.679  26.149  24.198  1.00  0.00     0.074 A 
ATOM     10  C   UNL A   1      31.919  26.798  24.211  1.00  0.00     0.045 A 
ATOM     11  C   UNL A   1      29.592  26.870  23.692  1.00  0.00     0.148 A 
ATOM     12  C   UNL A   1      29.754  28.096  23.062  1.00  0.00     0.067 A 
ATOM     13  F   UNL A   1      28.355  26.351  23.754  1.00  0.00    -0.205 F 
ATOM     14  C   UNL A   1      31.030  28.636  22.887  1.00  0.00     0.047 A 
BRANCH   9  15
ATOM     15  N   UNL A   1      30.561  24.827  24.567  1.00  0.00    -0.363 N 
ATOM     16  C   UNL A   1      31.918  22.808  24.183  1.00  0.00     0.240 C 
ATOM     17  C   UNL A   1      30.767  23.700  23.651  1.00  0.00     0.164 C 
ATOM     18  O   UNL A   1      31.690  22.421  25.563  1.00  0.00    -0.360 OA
ATOM     19  C   UNL A   1      31.595  23.579  26.409  1.00  0.00     0.183 C 
ATOM     20  C   UNL A   1      30.427  24.476  25.987  1.00  0.00     0.145 C 
BRANCH  16  21
ATOM     21  C   UNL A   1      32.043  21.602  23.342  1.00  0.00     0.096 C 
ATOM     22  N   UNL A   1      32.153  20.667  22.667  1.00  0.00    -0.195 NA
ENDBRANCH  16  21
ENDBRANCH   9  15
BRANCH  14  23
ATOM     23  N   UNL A   1      31.143  29.703  22.001  1.00  0.00    -0.398 N 
ATOM     24  H   UNL A   1      30.736  30.571  22.222  1.00  0.00     0.156 HD
ATOM     25  H   UNL A   1      31.630  29.589  21.154  1.00  0.00     0.156 HD
ENDBRANCH  14  23
ENDBRANCH   5   8
ENDBRANCH   3   4
ENDBRANCH   2   3
ENDBRANCH   1   2
BRANCH   1  26
ATOM     26  C   UNL A   1      31.504  31.018  26.498  1.00  0.00     0.002 C 
BRANCH  26  27
ATOM     27  C   UNL A   1      31.403  32.519  26.777  1.00  0.00     0.021 C 
BRANCH  27  28
ATOM     28  C   UNL A   1      32.687  33.187  27.251  1.00  0.00     0.116 C 
BRANCH  28  29
ATOM     29  N   UNL A   1      32.465  34.516  27.795  1.00  0.00    -0.352 N 
ATOM     30  C   UNL A   1      33.075  35.139  28.856  1.00  0.00     0.251 C 
ATOM     31  H   UNL A   1      31.776  35.048  27.335  1.00  0.00     0.163 HD
ATOM     32  O   UNL A   1      32.650  36.211  29.272  1.00  0.00    -0.269 OA
BRANCH  30  33
ATOM     33  C   UNL A   1      34.232  34.499  29.516  1.00  0.00     0.039 A 
ATOM     34  C   UNL A   1      34.028  33.805  30.712  1.00  0.00     0.014 A 
ATOM     35  C   UNL A   1      35.511  34.580  28.960  1.00  0.00     0.014 A 
ATOM     36  C   UNL A   1      35.096  33.138  31.315  1.00  0.00     0.010 A 
ATOM     37  C   UNL A   1      36.553  33.841  29.513  1.00  0.00     0.010 A 
ATOM     38  C   UNL A   1      36.359  33.119  30.700  1.00  0.00    -0.014 A 
BRANCH  38  39
ATOM     39  C   UNL A   1      37.491  32.356  31.286  1.00  0.00     0.031 A 
ATOM     40  C   UNL A   1      38.000  32.695  32.659  1.00  0.00     0.074 A 
ATOM     41  C   UNL A   1      38.099  31.400  30.559  1.00  0.00     0.049 A 
ATOM     42  N   UNL A   1      39.011  32.188  33.318  1.00  0.00    -0.248 NA
ATOM     43  C   UNL A   1      37.294  33.768  33.376  1.00  0.00     0.031 C 
ATOM     44  C   UNL A   1      37.720  31.000  29.204  1.00  0.00     0.029 A 
ATOM     45  N   UNL A   1      39.167  30.592  30.857  1.00  0.00    -0.354 N 
ATOM     46  C   UNL A   1      39.064  32.881  34.520  1.00  0.00     0.074 A 
ATOM     47  C   UNL A   1      38.034  33.897  34.465  1.00  0.00     0.031 C 
ATOM     48  C   UNL A   1      38.517  29.997  28.802  1.00  0.00     0.029 A 
ATOM     49  C   UNL A   1      39.495  29.719  29.850  1.00  0.00     0.049 A 
ATOM     50  H   UNL A   1      39.654  30.635  31.713  1.00  0.00     0.167 HD
ATOM     51  C   UNL A   1      39.876  32.673  35.585  1.00  0.00     0.037 A 
ATOM     52  C   UNL A   1      40.478  28.800  29.777  1.00  0.00     0.037 A 
ATOM     53  C   UNL A   1      40.903  31.664  35.629  1.00  0.00     0.049 A 
ATOM     54  C   UNL A   1      41.412  28.631  30.946  1.00  0.00     0.074 A 
ATOM     55  C   UNL A   1      41.760  31.350  36.669  1.00  0.00     0.029 A 
ATOM     56  N   UNL A   1      41.222  30.815  34.579  1.00  0.00    -0.354 N 
ATOM     57  N   UNL A   1      41.415  29.250  32.101  1.00  0.00    -0.248 NA
ATOM     58  C   UNL A   1      42.477  27.631  30.798  1.00  0.00     0.031 C 
ATOM     59  C   UNL A   1      42.643  30.360  36.223  1.00  0.00     0.029 A 
ATOM     60  C   UNL A   1      42.286  30.000  34.934  1.00  0.00     0.049 A 
ATOM     61  H   UNL A   1      40.760  30.794  33.709  1.00  0.00     0.167 HD
ATOM     62  C   UNL A   1      42.454  28.689  32.833  1.00  0.00     0.074 A 
ATOM     63  C   UNL A   1      43.052  27.673  31.992  1.00  0.00     0.031 C 
ATOM     64  C   UNL A   1      42.870  28.985  34.089  1.00  0.00     0.037 A 
BRANCH  51  65
ATOM     65  C   UNL A   1      39.689  33.572  36.778  1.00  0.00     0.064 A 
ATOM     66  C   UNL A   1      38.851  33.217  37.848  1.00  0.00     0.173 A 
ATOM     67  C   UNL A   1      40.350  34.807  36.851  1.00  0.00     0.173 A 
ATOM     68  F   UNL A   1      38.189  32.051  37.829  1.00  0.00    -0.203 F 
ATOM     69  C   UNL A   1      38.638  34.087  38.913  1.00  0.00     0.198 A 
ATOM     70  C   UNL A   1      40.168  35.656  37.940  1.00  0.00     0.198 A 
ATOM     71  F   UNL A   1      41.172  35.197  35.865  1.00  0.00    -0.203 F 
ATOM     72  F   UNL A   1      37.769  33.760  39.879  1.00  0.00    -0.200 F 
ATOM     73  C   UNL A   1      39.300  35.304  38.961  1.00  0.00     0.200 A 
ATOM     74  F   UNL A   1      40.825  36.824  37.994  1.00  0.00    -0.200 F 
ATOM     75  F   UNL A   1      39.091  36.143  39.985  1.00  0.00    -0.200 F 
ENDBRANCH  51  65
BRANCH  52  76
ATOM     76  C   UNL A   1      40.605  27.944  28.568  1.00  0.00     0.064 A 
ATOM     77  C   UNL A   1      41.366  28.366  27.469  1.00  0.00     0.173 A 
ATOM     78  C   UNL A   1      39.977  26.693  28.483  1.00  0.00     0.173 A 
ATOM     79  F   UNL A   1      41.970  29.564  27.494  1.00  0.00    -0.203 F 
ATOM     80  C   UNL A   1      41.481  27.580  26.326  1.00  0.00     0.198 A 
ATOM     81  C   UNL A   1      40.120  25.892  27.352  1.00  0.00     0.198 A 
ATOM     82  F   UNL A   1      39.242  26.238  29.508  1.00  0.00    -0.203 F 
ATOM     83  F   UNL A   1      42.177  28.029  25.273  1.00  0.00    -0.200 F 
ATOM     84  C   UNL A   1      40.863  26.339  26.271  1.00  0.00     0.200 A 
ATOM     85  F   UNL A   1      39.536  24.686  27.310  1.00  0.00    -0.200 F 
ATOM     86  F   UNL A   1      40.981  25.578  25.173  1.00  0.00    -0.200 F 
ENDBRANCH  52  76
BRANCH  64  87
ATOM     87  C   UNL A   1      43.996  28.167  34.659  1.00  0.00     0.064 A 
ATOM     88  C   UNL A   1      45.337  28.559  34.536  1.00  0.00     0.173 A 
ATOM     89  C   UNL A   1      43.722  26.991  35.375  1.00  0.00     0.173 A 
ATOM     90  F   UNL A   1      45.658  29.666  33.850  1.00  0.00    -0.203 F 
ATOM     91  C   UNL A   1      46.362  27.789  35.083  1.00  0.00     0.198 A 
ATOM     92  C   UNL A   1      44.745  26.245  35.954  1.00  0.00     0.198 A 
ATOM     93  F   UNL A   1      42.456  26.571  35.529  1.00  0.00    -0.203 F 
ATOM     94  F   UNL A   1      47.639  28.154  34.904  1.00  0.00    -0.200 F 
ATOM     95  C   UNL A   1      46.065  26.639  35.799  1.00  0.00     0.200 A 
ATOM     96  F   UNL A   1      44.453  25.146  36.663  1.00  0.00    -0.200 F 
ATOM     97  F   UNL A   1      47.051  25.908  36.335  1.00  0.00    -0.200 F 
ENDBRANCH  64  87
ENDBRANCH  38  39
ENDBRANCH  30  33
ENDBRANCH  28  29
ENDBRANCH  27  28
ENDBRANCH  26  27
ENDBRANCH   1  26
TORSDOF 16
ENDMDL
MODEL 3
REMARK VINA RESULT:     -11.7      4.562      8.182
REMARK SMILES N#C[C@H]1CN(c2cc(C(=O)NCCCCCCNC(=O)c3ccc(-c4c5nc(c(-c6c(F)c(F)c(F)c(F)c6F)c6ccc([nH]6)c(-c6c(F)c(F)c(F)c(F)c6F)c6nc(c(-c7c(F)c(F)c(F)c(F)c7F)c7ccc4[nH]7)C=C6)C=C5)cc3)c(N)cc2F)CCO1
REMARK SMILES IDX 14 1 13 2 12 3 11 4 9 5 10 6 8 8 6 9 7 10 87 11 86 12 88 13
REMARK SMILES IDX 84 14 5 15 3 16 4 17 91 18 90 19 89 20 2 21 1 22 85 23 15 26
REMARK SMILES IDX 16 27 17 28 18 29 19 30 20 32 21 33 22 34 83 35 23 36 82 37
REMARK SMILES IDX 24 38 25 39 26 40 76 41 27 42 81 43 75 44 77 45 28 46 80 47
REMARK SMILES IDX 74 48 73 49 29 51 61 52 41 53 60 54 42 55 45 56 59 57 78 58
REMARK SMILES IDX 43 59 44 60 58 62 79 63 46 64 30 65 31 66 39 67 32 68 33 69
REMARK SMILES IDX 37 70 40 71 34 72 35 73 38 74 36 75 62 76 63 77 71 78 64 79
REMARK SMILES IDX 65 80 69 81 72 82 66 83 67 84 70 85 68 86 47 87 48 88 56 89
REMARK SMILES IDX 49 90 50 91 54 92 57 93 51 94 52 95 55 96 53 97
REMARK H PARENT 11 7 85 24 85 25 18 31 77 50 45 61
REMARK Flexibility Score: inf
ROOT
ATOM      1  C   UNL A   1      32.452  27.066  22.225  1.00  0.00     0.002 C 
ENDROOT
BRANCH   1   2
ATOM      2  C   UNL A   1      30.976  27.182  22.609  1.00  0.00     0.021 C 
BRANCH   2   3
ATOM      3  C   UNL A   1      30.502  26.282  23.742  1.00  0.00     0.116 C 
BRANCH   3   4
ATOM      4  N   UNL A   1      30.521  26.881  25.058  1.00  0.00    -0.352 N 
ATOM      5  C   UNL A   1      31.128  26.450  26.217  1.00  0.00     0.253 C 
ATOM      6  O   UNL A   1      31.028  27.174  27.210  1.00  0.00    -0.269 OA
ATOM      7  H   UNL A   1      30.024  27.727  25.138  1.00  0.00     0.163 HD
BRANCH   5   8
ATOM      8  C   UNL A   1      31.832  25.132  26.351  1.00  0.00     0.065 A 
ATOM      9  C   UNL A   1      33.974  23.974  25.992  1.00  0.00     0.074 A 
ATOM     10  C   UNL A   1      33.194  25.136  25.959  1.00  0.00     0.045 A 
ATOM     11  C   UNL A   1      33.405  22.847  26.595  1.00  0.00     0.148 A 
ATOM     12  C   UNL A   1      32.071  22.814  26.978  1.00  0.00     0.067 A 
ATOM     13  F   UNL A   1      34.136  21.734  26.762  1.00  0.00    -0.205 F 
ATOM     14  C   UNL A   1      31.241  23.912  26.739  1.00  0.00     0.047 A 
BRANCH   9  15
ATOM     15  N   UNL A   1      35.199  23.918  25.365  1.00  0.00    -0.363 N 
ATOM     16  C   UNL A   1      37.141  22.411  25.517  1.00  0.00     0.240 C 
ATOM     17  C   UNL A   1      36.468  23.696  26.066  1.00  0.00     0.164 C 
ATOM     18  O   UNL A   1      37.257  22.454  24.071  1.00  0.00    -0.360 OA
ATOM     19  C   UNL A   1      35.964  22.578  23.458  1.00  0.00     0.183 C 
ATOM     20  C   UNL A   1      35.265  23.868  23.899  1.00  0.00     0.145 C 
BRANCH  16  21
ATOM     21  C   UNL A   1      38.479  22.253  26.120  1.00  0.00     0.096 C 
ATOM     22  N   UNL A   1      39.532  22.111  26.581  1.00  0.00    -0.195 NA
ENDBRANCH  16  21
ENDBRANCH   9  15
BRANCH  14  23
ATOM     23  N   UNL A   1      29.872  23.704  26.874  1.00  0.00    -0.398 N 
ATOM     24  H   UNL A   1      29.325  24.345  27.382  1.00  0.00     0.156 HD
ATOM     25  H   UNL A   1      29.452  22.916  26.461  1.00  0.00     0.156 HD
ENDBRANCH  14  23
ENDBRANCH   5   8
ENDBRANCH   3   4
ENDBRANCH   2   3
ENDBRANCH   1   2
BRANCH   1  26
ATOM     26  C   UNL A   1      33.475  27.535  23.266  1.00  0.00     0.002 C 
BRANCH  26  27
ATOM     27  C   UNL A   1      33.298  28.955  23.806  1.00  0.00     0.021 C 
BRANCH  27  28
ATOM     28  C   UNL A   1      33.524  29.122  25.304  1.00  0.00     0.116 C 
BRANCH  28  29
ATOM     29  N   UNL A   1      32.965  30.358  25.825  1.00  0.00    -0.352 N 
ATOM     30  C   UNL A   1      33.373  31.117  26.894  1.00  0.00     0.251 C 
ATOM     31  H   UNL A   1      32.180  30.700  25.341  1.00  0.00     0.163 HD
ATOM     32  O   UNL A   1      32.684  32.053  27.286  1.00  0.00    -0.269 OA
BRANCH  30  33
ATOM     33  C   UNL A   1      34.632  30.787  27.592  1.00  0.00     0.039 A 
ATOM     34  C   UNL A   1      35.628  31.763  27.685  1.00  0.00     0.014 A 
ATOM     35  C   UNL A   1      34.831  29.524  28.156  1.00  0.00     0.014 A 
ATOM     36  C   UNL A   1      36.798  31.492  28.399  1.00  0.00     0.010 A 
ATOM     37  C   UNL A   1      35.956  29.287  28.941  1.00  0.00     0.010 A 
ATOM     38  C   UNL A   1      36.954  30.265  29.065  1.00  0.00    -0.014 A 
BRANCH  38  39
ATOM     39  C   UNL A   1      38.157  29.983  29.889  1.00  0.00     0.031 A 
ATOM     40  C   UNL A   1      39.246  29.093  29.358  1.00  0.00     0.074 A 
ATOM     41  C   UNL A   1      38.242  30.478  31.139  1.00  0.00     0.049 A 
ATOM     42  N   UNL A   1      40.342  28.681  29.943  1.00  0.00    -0.248 NA
ATOM     43  C   UNL A   1      39.064  28.576  27.993  1.00  0.00     0.031 C 
ATOM     44  C   UNL A   1      37.238  31.326  31.781  1.00  0.00     0.029 A 
ATOM     45  N   UNL A   1      39.217  30.335  32.094  1.00  0.00    -0.354 N 
ATOM     46  C   UNL A   1      40.973  27.855  29.023  1.00  0.00     0.074 A 
ATOM     47  C   UNL A   1      40.101  27.763  27.872  1.00  0.00     0.031 C 
ATOM     48  C   UNL A   1      37.666  31.661  33.008  1.00  0.00     0.029 A 
ATOM     49  C   UNL A   1      38.948  31.009  33.260  1.00  0.00     0.049 A 
ATOM     50  H   UNL A   1      40.032  29.799  31.957  1.00  0.00     0.167 HD
ATOM     51  C   UNL A   1      42.184  27.252  29.115  1.00  0.00     0.037 A 
ATOM     52  C   UNL A   1      39.654  31.089  34.404  1.00  0.00     0.037 A 
ATOM     53  C   UNL A   1      43.044  27.343  30.266  1.00  0.00     0.049 A 
ATOM     54  C   UNL A   1      40.965  30.355  34.509  1.00  0.00     0.074 A 
ATOM     55  C   UNL A   1      44.301  26.797  30.450  1.00  0.00     0.029 A 
ATOM     56  N   UNL A   1      42.725  28.016  31.438  1.00  0.00    -0.354 N 
ATOM     57  N   UNL A   1      41.583  29.627  33.611  1.00  0.00    -0.248 NA
ATOM     58  C   UNL A   1      41.678  30.461  35.789  1.00  0.00     0.031 C 
ATOM     59  C   UNL A   1      44.712  27.078  31.758  1.00  0.00     0.029 A 
ATOM     60  C   UNL A   1      43.748  27.868  32.363  1.00  0.00     0.049 A 
ATOM     61  H   UNL A   1      41.895  28.523  31.591  1.00  0.00     0.167 HD
ATOM     62  C   UNL A   1      42.773  29.220  34.201  1.00  0.00     0.074 A 
ATOM     63  C   UNL A   1      42.793  29.792  35.532  1.00  0.00     0.031 C 
ATOM     64  C   UNL A   1      43.761  28.448  33.684  1.00  0.00     0.037 A 
BRANCH  51  65
ATOM     65  C   UNL A   1      42.631  26.427  27.938  1.00  0.00     0.064 A 
ATOM     66  C   UNL A   1      42.291  25.070  27.812  1.00  0.00     0.173 A 
ATOM     67  C   UNL A   1      43.418  26.997  26.925  1.00  0.00     0.173 A 
ATOM     68  F   UNL A   1      41.546  24.471  28.753  1.00  0.00    -0.203 F 
ATOM     69  C   UNL A   1      42.766  24.305  26.751  1.00  0.00     0.198 A 
ATOM     70  C   UNL A   1      43.856  26.238  25.843  1.00  0.00     0.198 A 
ATOM     71  F   UNL A   1      43.768  28.291  26.984  1.00  0.00    -0.203 F 
ATOM     72  F   UNL A   1      42.496  22.993  26.700  1.00  0.00    -0.200 F 
ATOM     73  C   UNL A   1      43.545  24.889  25.765  1.00  0.00     0.200 A 
ATOM     74  F   UNL A   1      44.592  26.810  24.880  1.00  0.00    -0.200 F 
ATOM     75  F   UNL A   1      44.006  24.151  24.747  1.00  0.00    -0.200 F 
ENDBRANCH  51  65
BRANCH  52  76
ATOM     76  C   UNL A   1      39.153  31.923  35.528  1.00  0.00     0.064 A 
ATOM     77  C   UNL A   1      38.334  31.369  36.521  1.00  0.00     0.173 A 
ATOM     78  C   UNL A   1      39.482  33.282  35.639  1.00  0.00     0.173 A 
ATOM     79  F   UNL A   1      37.976  30.078  36.450  1.00  0.00    -0.203 F 
ATOM     80  C   UNL A   1      37.847  32.144  37.571  1.00  0.00     0.198 A 
ATOM     81  C   UNL A   1      39.022  34.049  36.707  1.00  0.00     0.198 A 
ATOM     82  F   UNL A   1      40.267  33.861  34.719  1.00  0.00    -0.203 F 
ATOM     83  F   UNL A   1      37.029  31.598  38.480  1.00  0.00    -0.200 F 
ATOM     84  C   UNL A   1      38.198  33.482  37.667  1.00  0.00     0.200 A 
ATOM     85  F   UNL A   1      39.378  35.337  36.806  1.00  0.00    -0.200 F 
ATOM     86  F   UNL A   1      37.736  34.226  38.682  1.00  0.00    -0.200 F 
ENDBRANCH  52  76
BRANCH  64  87
ATOM     87  C   UNL A   1      44.977  28.214  34.538  1.00  0.00     0.064 A 
ATOM     88  C   UNL A   1      46.065  29.099  34.541  1.00  0.00     0.173 A 
ATOM     89  C   UNL A   1      45.033  27.106  35.398  1.00  0.00     0.173 A 
ATOM     90  F   UNL A   1      46.071  30.166  33.728  1.00  0.00    -0.203 F 
ATOM     91  C   UNL A   1      47.176  28.866  35.350  1.00  0.00     0.198 A 
ATOM     92  C   UNL A   1      46.126  26.898  36.234  1.00  0.00     0.198 A 
ATOM     93  F   UNL A   1      44.017  26.230  35.441  1.00  0.00    -0.203 F 
ATOM     94  F   UNL A   1      48.228  29.694  35.293  1.00  0.00    -0.200 F 
ATOM     95  C   UNL A   1      47.201  27.772  36.202  1.00  0.00     0.200 A 
ATOM     96  F   UNL A   1      46.139  25.852  37.071  1.00  0.00    -0.200 F 
ATOM     97  F   UNL A   1      48.264  27.558  36.989  1.00  0.00    -0.200 F 
ENDBRANCH  64  87
ENDBRANCH  38  39
ENDBRANCH  30  33
ENDBRANCH  28  29
ENDBRANCH  27  28
ENDBRANCH  26  27
ENDBRANCH   1  26
TORSDOF 16
ENDMDL
