MODEL 1
REMARK VINA RESULT:     -13.7      0.000      0.000
REMARK SMILES COc1ccccc1[C@@H]1C[N@@H+](Cc2cn3cc(C)ccc3n2)C[C@H]1C(=O)NCCCCCCNC(=O)c1ccc(-c2c3nc(c(-c4c(F)c(F)c(F)c(F)c4F)c4ccc([nH]4)c(-c4c(F)c(F)c(F)c(F)c4F)c4nc(c(-c5c(F)c(F)c(F)c(F)c5F)c5ccc2[nH]5)C=C4)C=C3)cc1
REMARK SMILES IDX 30 1 29 2 28 3 27 4 25 5 26 6 24 8 9 9 10 10 11 11 23 12
REMARK SMILES IDX 8 14 3 15 4 16 5 17 7 18 6 19 2 20 1 21 12 22 13 23 14 24
REMARK SMILES IDX 22 25 15 26 21 27 16 28 20 29 17 30 19 31 18 32 31 33 32 34
REMARK SMILES IDX 33 35 34 36 35 37 36 39 37 40 38 41 99 42 39 43 98 44 40 45
REMARK SMILES IDX 41 46 42 47 92 48 43 49 97 50 91 51 93 52 44 53 96 54 90 55
REMARK SMILES IDX 89 56 45 58 77 59 57 60 76 61 58 62 61 63 75 64 94 65 59 66
REMARK SMILES IDX 60 67 74 69 95 70 62 71 46 72 47 73 55 74 48 75 49 76 53 77
REMARK SMILES IDX 56 78 50 79 51 80 54 81 52 82 78 83 79 84 87 85 80 86 81 87
REMARK SMILES IDX 85 88 88 89 82 90 83 91 86 92 84 93 63 94 64 95 72 96 65 97
REMARK SMILES IDX 66 98 70 99 73 100 67 101 68 102 71 103 69 104
REMARK H PARENT 27 7 11 13 34 38 93 57 61 68
REMARK Flexibility Score: inf
ROOT
ATOM      1  C   UNL A   1      33.359  27.678  26.411  1.00  0.00     0.002 C 
ENDROOT
BRANCH   1   2
ATOM      2  C   UNL A   1      33.805  26.766  25.278  1.00  0.00     0.021 C 
BRANCH   2   3
ATOM      3  C   UNL A   1      34.160  25.295  25.565  1.00  0.00     0.116 C 
BRANCH   3   4
ATOM      4  N   UNL A   1      35.022  24.721  24.511  1.00  0.00    -0.356 N 
ATOM      5  C   UNL A   1      34.899  23.791  23.519  1.00  0.00     0.229 C 
ATOM      6  O   UNL A   1      35.989  23.314  23.157  1.00  0.00    -0.275 OA
ATOM      7  H   UNL A   1      35.924  25.113  24.529  1.00  0.00     0.163 HD
BRANCH   5   8
ATOM      8  C   UNL A   1      33.642  23.372  22.717  1.00  0.00     0.146 C 
ATOM      9  C   UNL A   1      32.637  22.418  23.438  1.00  0.00     0.096 C 
ATOM     10  C   UNL A   1      31.250  22.834  22.922  1.00  0.00     0.272 C 
ATOM     11  N   UNL A   1      31.360  24.269  22.612  1.00  0.00    -0.329 N 
ATOM     12  C   UNL A   1      32.735  24.442  22.106  1.00  0.00     0.276 C 
ATOM     13  H   UNL A   1      30.680  24.548  21.904  1.00  0.00     0.348 HD
BRANCH   9  14
ATOM     14  C   UNL A   1      32.839  20.945  23.751  1.00  0.00     0.004 A 
ATOM     15  C   UNL A   1      33.694  20.360  24.688  1.00  0.00     0.122 A 
ATOM     16  C   UNL A   1      33.823  18.955  24.740  1.00  0.00     0.047 A 
ATOM     17  C   UNL A   1      33.150  18.114  23.852  1.00  0.00     0.004 A 
ATOM     18  C   UNL A   1      32.185  20.051  22.848  1.00  0.00     0.008 A 
ATOM     19  C   UNL A   1      32.341  18.669  22.881  1.00  0.00     0.001 A 
BRANCH  15  20
ATOM     20  O   UNL A   1      34.604  21.013  25.471  1.00  0.00    -0.496 OA
ATOM     21  C   UNL A   1      34.125  21.475  26.721  1.00  0.00     0.278 C 
ENDBRANCH  15  20
ENDBRANCH   9  14
BRANCH  11  22
ATOM     22  C   UNL A   1      30.937  25.198  23.697  1.00  0.00     0.321 C 
BRANCH  22  23
ATOM     23  C   UNL A   1      30.385  26.541  23.283  1.00  0.00     0.114 A 
ATOM     24  C   UNL A   1      30.894  27.580  22.515  1.00  0.00     0.122 A 
ATOM     25  N   UNL A   1      29.154  26.910  23.736  1.00  0.00    -0.228 NA
ATOM     26  N   UNL A   1      29.901  28.547  22.470  1.00  0.00    -0.306 N 
ATOM     27  C   UNL A   1      28.808  27.996  23.096  1.00  0.00     0.137 A 
ATOM     28  C   UNL A   1      29.896  29.869  22.026  1.00  0.00     0.096 A 
ATOM     29  C   UNL A   1      27.582  28.710  23.099  1.00  0.00     0.048 A 
ATOM     30  C   UNL A   1      28.793  30.631  22.222  1.00  0.00    -0.034 A 
ATOM     31  C   UNL A   1      27.576  29.992  22.711  1.00  0.00     0.009 A 
ATOM     32  C   UNL A   1      28.691  32.109  22.047  1.00  0.00     0.046 C 
ENDBRANCH  22  23
ENDBRANCH  11  22
ENDBRANCH   5   8
ENDBRANCH   3   4
ENDBRANCH   2   3
ENDBRANCH   1   2
BRANCH   1  33
ATOM     33  C   UNL A   1      34.284  28.847  26.740  1.00  0.00     0.002 C 
BRANCH  33  34
ATOM     34  C   UNL A   1      33.673  30.020  27.525  1.00  0.00     0.021 C 
BRANCH  34  35
ATOM     35  C   UNL A   1      34.513  31.293  27.554  1.00  0.00     0.116 C 
BRANCH  35  36
ATOM     36  N   UNL A   1      34.348  32.054  28.787  1.00  0.00    -0.352 N 
ATOM     37  C   UNL A   1      35.020  31.929  29.987  1.00  0.00     0.251 C 
ATOM     38  H   UNL A   1      33.659  32.756  28.760  1.00  0.00     0.163 HD
ATOM     39  O   UNL A   1      34.567  32.420  31.005  1.00  0.00    -0.269 OA
BRANCH  37  40
ATOM     40  C   UNL A   1      36.323  31.234  30.028  1.00  0.00     0.039 A 
ATOM     41  C   UNL A   1      36.395  29.846  30.219  1.00  0.00     0.014 A 
ATOM     42  C   UNL A   1      37.487  31.990  29.965  1.00  0.00     0.014 A 
ATOM     43  C   UNL A   1      37.642  29.226  30.326  1.00  0.00     0.010 A 
ATOM     44  C   UNL A   1      38.705  31.362  29.970  1.00  0.00     0.010 A 
ATOM     45  C   UNL A   1      38.796  30.003  30.220  1.00  0.00    -0.014 A 
BRANCH  45  46
ATOM     46  C   UNL A   1      40.135  29.432  30.181  1.00  0.00     0.031 A 
ATOM     47  C   UNL A   1      40.729  29.265  31.531  1.00  0.00     0.074 A 
ATOM     48  C   UNL A   1      40.637  28.819  29.086  1.00  0.00     0.049 A 
ATOM     49  N   UNL A   1      41.755  29.879  32.015  1.00  0.00    -0.248 NA
ATOM     50  C   UNL A   1      39.999  28.452  32.521  1.00  0.00     0.031 C 
ATOM     51  C   UNL A   1      39.978  28.620  27.793  1.00  0.00     0.029 A 
ATOM     52  N   UNL A   1      41.801  28.129  28.927  1.00  0.00    -0.354 N 
ATOM     53  C   UNL A   1      41.938  29.355  33.291  1.00  0.00     0.074 A 
ATOM     54  C   UNL A   1      40.708  28.693  33.626  1.00  0.00     0.031 C 
ATOM     55  C   UNL A   1      40.630  27.669  27.085  1.00  0.00     0.029 A 
ATOM     56  C   UNL A   1      41.845  27.318  27.794  1.00  0.00     0.049 A 
ATOM     57  H   UNL A   1      42.551  28.197  29.562  1.00  0.00     0.167 HD
ATOM     58  C   UNL A   1      43.195  29.233  33.803  1.00  0.00     0.037 A 
ATOM     59  C   UNL A   1      42.803  26.407  27.480  1.00  0.00     0.037 A 
ATOM     60  C   UNL A   1      44.118  30.062  33.053  1.00  0.00     0.049 A 
ATOM     61  C   UNL A   1      43.997  26.736  28.296  1.00  0.00     0.074 A 
ATOM     62  C   UNL A   1      44.209  31.407  32.750  1.00  0.00     0.029 A 
ATOM     63  N   UNL A   1      44.942  29.426  32.158  1.00  0.00    -0.354 N 
ATOM     64  N   UNL A   1      44.713  27.812  28.135  1.00  0.00    -0.248 NA
ATOM     65  C   UNL A   1      44.130  26.086  29.590  1.00  0.00     0.031 C 
ATOM     66  C   UNL A   1      44.720  31.458  31.417  1.00  0.00     0.029 A 
ATOM     67  C   UNL A   1      44.981  30.152  31.001  1.00  0.00     0.049 A 
ATOM     68  H   UNL A   1      45.424  28.584  32.322  1.00  0.00     0.167 HD
ATOM     69  C   UNL A   1      45.017  28.226  29.423  1.00  0.00     0.074 A 
ATOM     70  C   UNL A   1      44.730  27.068  30.268  1.00  0.00     0.031 C 
ATOM     71  C   UNL A   1      45.176  29.554  29.702  1.00  0.00     0.037 A 
BRANCH  58  72
ATOM     72  C   UNL A   1      43.681  28.031  34.606  1.00  0.00     0.064 A 
ATOM     73  C   UNL A   1      43.451  26.746  34.066  1.00  0.00     0.173 A 
ATOM     74  C   UNL A   1      44.020  28.045  35.977  1.00  0.00     0.173 A 
ATOM     75  F   UNL A   1      43.163  26.592  32.765  1.00  0.00    -0.203 F 
ATOM     76  C   UNL A   1      43.383  25.604  34.868  1.00  0.00     0.198 A 
ATOM     77  C   UNL A   1      43.995  26.895  36.766  1.00  0.00     0.198 A 
ATOM     78  F   UNL A   1      44.303  29.163  36.650  1.00  0.00    -0.203 F 
ATOM     79  F   UNL A   1      42.987  24.442  34.332  1.00  0.00    -0.200 F 
ATOM     80  C   UNL A   1      43.630  25.684  36.223  1.00  0.00     0.200 A 
ATOM     81  F   UNL A   1      44.244  26.996  38.079  1.00  0.00    -0.200 F 
ATOM     82  F   UNL A   1      43.477  24.613  37.011  1.00  0.00    -0.200 F 
ENDBRANCH  58  72
BRANCH  59  83
ATOM     83  C   UNL A   1      42.683  25.121  26.746  1.00  0.00     0.064 A 
ATOM     84  C   UNL A   1      43.400  24.894  25.557  1.00  0.00     0.173 A 
ATOM     85  C   UNL A   1      42.097  23.988  27.343  1.00  0.00     0.173 A 
ATOM     86  F   UNL A   1      44.026  25.910  24.944  1.00  0.00    -0.203 F 
ATOM     87  C   UNL A   1      43.550  23.611  25.018  1.00  0.00     0.198 A 
ATOM     88  C   UNL A   1      42.242  22.708  26.800  1.00  0.00     0.198 A 
ATOM     89  F   UNL A   1      41.458  24.083  28.518  1.00  0.00    -0.203 F 
ATOM     90  F   UNL A   1      44.300  23.428  23.921  1.00  0.00    -0.200 F 
ATOM     91  C   UNL A   1      42.980  22.517  25.647  1.00  0.00     0.200 A 
ATOM     92  F   UNL A   1      41.716  21.654  27.440  1.00  0.00    -0.200 F 
ATOM     93  F   UNL A   1      43.178  21.280  25.171  1.00  0.00    -0.200 F 
ENDBRANCH  59  83
BRANCH  71  94
ATOM     94  C   UNL A   1      45.360  30.492  28.542  1.00  0.00     0.064 A 
ATOM     95  C   UNL A   1      44.311  31.130  27.858  1.00  0.00     0.173 A 
ATOM     96  C   UNL A   1      46.669  30.845  28.189  1.00  0.00     0.173 A 
ATOM     97  F   UNL A   1      43.034  30.924  28.200  1.00  0.00    -0.203 F 
ATOM     98  C   UNL A   1      44.567  32.041  26.832  1.00  0.00     0.198 A 
ATOM     99  C   UNL A   1      46.922  31.783  27.194  1.00  0.00     0.198 A 
ATOM    100  F   UNL A   1      47.709  30.306  28.844  1.00  0.00    -0.203 F 
ATOM    101  F   UNL A   1      43.550  32.620  26.179  1.00  0.00    -0.200 F 
ATOM    102  C   UNL A   1      45.872  32.370  26.506  1.00  0.00     0.200 A 
ATOM    103  F   UNL A   1      48.185  32.134  26.916  1.00  0.00    -0.200 F 
ATOM    104  F   UNL A   1      46.118  33.272  25.546  1.00  0.00    -0.200 F 
ENDBRANCH  71  94
ENDBRANCH  45  46
ENDBRANCH  37  40
ENDBRANCH  35  36
ENDBRANCH  34  35
ENDBRANCH  33  34
ENDBRANCH   1  33
TORSDOF 17
ENDMDL
MODEL 2
REMARK VINA RESULT:     -13.5      3.067      9.030
REMARK SMILES COc1ccccc1[C@@H]1C[N@@H+](Cc2cn3cc(C)ccc3n2)C[C@H]1C(=O)NCCCCCCNC(=O)c1ccc(-c2c3nc(c(-c4c(F)c(F)c(F)c(F)c4F)c4ccc([nH]4)c(-c4c(F)c(F)c(F)c(F)c4F)c4nc(c(-c5c(F)c(F)c(F)c(F)c5F)c5ccc2[nH]5)C=C4)C=C3)cc1
REMARK SMILES IDX 30 1 29 2 28 3 27 4 25 5 26 6 24 8 9 9 10 10 11 11 23 12
REMARK SMILES IDX 8 14 3 15 4 16 5 17 7 18 6 19 2 20 1 21 12 22 13 23 14 24
REMARK SMILES IDX 22 25 15 26 21 27 16 28 20 29 17 30 19 31 18 32 31 33 32 34
REMARK SMILES IDX 33 35 34 36 35 37 36 39 37 40 38 41 99 42 39 43 98 44 40 45
REMARK SMILES IDX 41 46 42 47 92 48 43 49 97 50 91 51 93 52 44 53 96 54 90 55
REMARK SMILES IDX 89 56 45 58 77 59 57 60 76 61 58 62 61 63 75 64 94 65 59 66
REMARK SMILES IDX 60 67 74 69 95 70 62 71 46 72 47 73 55 74 48 75 49 76 53 77
REMARK SMILES IDX 56 78 50 79 51 80 54 81 52 82 78 83 79 84 87 85 80 86 81 87
REMARK SMILES IDX 85 88 88 89 82 90 83 91 86 92 84 93 63 94 64 95 72 96 65 97
REMARK SMILES IDX 66 98 70 99 73 100 67 101 68 102 71 103 69 104
REMARK H PARENT 27 7 11 13 34 38 93 57 61 68
REMARK Flexibility Score: inf
ROOT
ATOM      1  C   UNL A   1      35.947  24.057  25.044  1.00  0.00     0.002 C 
ENDROOT
BRANCH   1   2
ATOM      2  C   UNL A   1      34.608  24.522  25.597  1.00  0.00     0.021 C 
BRANCH   2   3
ATOM      3  C   UNL A   1      34.086  25.933  25.270  1.00  0.00     0.116 C 
BRANCH   3   4
ATOM      4  N   UNL A   1      33.128  26.415  26.286  1.00  0.00    -0.356 N 
ATOM      5  C   UNL A   1      31.779  26.612  26.371  1.00  0.00     0.229 C 
ATOM      6  O   UNL A   1      31.459  27.432  27.250  1.00  0.00    -0.275 OA
ATOM      7  H   UNL A   1      33.583  26.658  27.124  1.00  0.00     0.163 HD
BRANCH   5   8
ATOM      8  C   UNL A   1      30.631  25.871  25.644  1.00  0.00     0.146 C 
ATOM      9  C   UNL A   1      30.349  26.295  24.168  1.00  0.00     0.096 C 
ATOM     10  C   UNL A   1      29.904  25.006  23.458  1.00  0.00     0.272 C 
ATOM     11  N   UNL A   1      30.590  23.912  24.165  1.00  0.00    -0.329 N 
ATOM     12  C   UNL A   1      30.632  24.343  25.576  1.00  0.00     0.276 C 
ATOM     13  H   UNL A   1      30.078  23.034  24.073  1.00  0.00     0.348 HD
BRANCH   9  14
ATOM     14  C   UNL A   1      29.713  27.593  23.694  1.00  0.00     0.004 A 
ATOM     15  C   UNL A   1      30.277  28.869  23.629  1.00  0.00     0.122 A 
ATOM     16  C   UNL A   1      29.475  29.974  23.272  1.00  0.00     0.047 A 
ATOM     17  C   UNL A   1      28.108  29.847  23.016  1.00  0.00     0.004 A 
ATOM     18  C   UNL A   1      28.309  27.510  23.446  1.00  0.00     0.008 A 
ATOM     19  C   UNL A   1      27.515  28.606  23.126  1.00  0.00     0.001 A 
BRANCH  15  20
ATOM     20  O   UNL A   1      31.521  29.227  24.070  1.00  0.00    -0.496 OA
ATOM     21  C   UNL A   1      32.592  28.953  23.185  1.00  0.00     0.278 C 
ENDBRANCH  15  20
ENDBRANCH   9  14
BRANCH  11  22
ATOM     22  C   UNL A   1      31.883  23.471  23.573  1.00  0.00     0.321 C 
BRANCH  22  23
ATOM     23  C   UNL A   1      32.284  22.030  23.777  1.00  0.00     0.114 A 
ATOM     24  C   UNL A   1      32.806  21.335  24.860  1.00  0.00     0.122 A 
ATOM     25  N   UNL A   1      32.177  21.167  22.728  1.00  0.00    -0.228 NA
ATOM     26  N   UNL A   1      32.941  20.019  24.443  1.00  0.00    -0.306 N 
ATOM     27  C   UNL A   1      32.381  19.960  23.189  1.00  0.00     0.137 A 
ATOM     28  C   UNL A   1      33.580  18.916  25.008  1.00  0.00     0.096 A 
ATOM     29  C   UNL A   1      32.259  18.701  22.547  1.00  0.00     0.048 A 
ATOM     30  C   UNL A   1      33.657  17.761  24.304  1.00  0.00    -0.034 A 
ATOM     31  C   UNL A   1      32.902  17.645  23.062  1.00  0.00     0.009 A 
ATOM     32  C   UNL A   1      34.502  16.575  24.630  1.00  0.00     0.046 C 
ENDBRANCH  22  23
ENDBRANCH  11  22
ENDBRANCH   5   8
ENDBRANCH   3   4
ENDBRANCH   2   3
ENDBRANCH   1   2
BRANCH   1  33
ATOM     33  C   UNL A   1      36.829  23.254  25.997  1.00  0.00     0.002 C 
BRANCH  33  34
ATOM     34  C   UNL A   1      38.219  22.844  25.483  1.00  0.00     0.021 C 
BRANCH  34  35
ATOM     35  C   UNL A   1      39.199  22.378  26.555  1.00  0.00     0.116 C 
BRANCH  35  36
ATOM     36  N   UNL A   1      40.546  22.164  26.038  1.00  0.00    -0.352 N 
ATOM     37  C   UNL A   1      41.554  23.082  25.822  1.00  0.00     0.251 C 
ATOM     38  H   UNL A   1      40.767  21.233  25.809  1.00  0.00     0.163 HD
ATOM     39  O   UNL A   1      42.502  22.807  25.108  1.00  0.00    -0.269 OA
BRANCH  37  40
ATOM     40  C   UNL A   1      41.508  24.394  26.501  1.00  0.00     0.039 A 
ATOM     41  C   UNL A   1      40.864  25.491  25.908  1.00  0.00     0.014 A 
ATOM     42  C   UNL A   1      42.191  24.552  27.699  1.00  0.00     0.014 A 
ATOM     43  C   UNL A   1      40.899  26.737  26.537  1.00  0.00     0.010 A 
ATOM     44  C   UNL A   1      42.135  25.751  28.360  1.00  0.00     0.010 A 
ATOM     45  C   UNL A   1      41.559  26.859  27.761  1.00  0.00    -0.014 A 
BRANCH  45  46
ATOM     46  C   UNL A   1      41.532  28.078  28.558  1.00  0.00     0.031 A 
ATOM     47  C   UNL A   1      42.623  29.020  28.205  1.00  0.00     0.074 A 
ATOM     48  C   UNL A   1      40.456  28.452  29.286  1.00  0.00     0.049 A 
ATOM     49  N   UNL A   1      43.614  29.381  28.947  1.00  0.00    -0.248 NA
ATOM     50  C   UNL A   1      42.725  29.483  26.809  1.00  0.00     0.031 C 
ATOM     51  C   UNL A   1      39.177  27.749  29.415  1.00  0.00     0.029 A 
ATOM     52  N   UNL A   1      40.222  29.607  29.970  1.00  0.00    -0.354 N 
ATOM     53  C   UNL A   1      44.335  30.299  28.189  1.00  0.00     0.074 A 
ATOM     54  C   UNL A   1      43.895  30.124  26.834  1.00  0.00     0.031 C 
ATOM     55  C   UNL A   1      38.240  28.587  29.914  1.00  0.00     0.029 A 
ATOM     56  C   UNL A   1      38.885  29.826  30.299  1.00  0.00     0.049 A 
ATOM     57  H   UNL A   1      40.940  30.236  30.211  1.00  0.00     0.167 HD
ATOM     58  C   UNL A   1      44.975  31.334  28.802  1.00  0.00     0.037 A 
ATOM     59  C   UNL A   1      38.352  30.958  30.828  1.00  0.00     0.037 A 
ATOM     60  C   UNL A   1      45.117  31.062  30.218  1.00  0.00     0.049 A 
ATOM     61  C   UNL A   1      39.474  31.738  31.405  1.00  0.00     0.074 A 
ATOM     62  C   UNL A   1      45.695  30.060  30.975  1.00  0.00     0.029 A 
ATOM     63  N   UNL A   1      44.262  31.718  31.069  1.00  0.00    -0.354 N 
ATOM     64  N   UNL A   1      40.161  31.361  32.445  1.00  0.00    -0.248 NA
ATOM     65  C   UNL A   1      40.123  32.720  30.551  1.00  0.00     0.031 C 
ATOM     66  C   UNL A   1      44.827  29.887  32.096  1.00  0.00     0.029 A 
ATOM     67  C   UNL A   1      43.807  30.835  32.006  1.00  0.00     0.049 A 
ATOM     68  H   UNL A   1      44.016  32.670  31.012  1.00  0.00     0.167 HD
ATOM     69  C   UNL A   1      41.471  31.691  32.136  1.00  0.00     0.074 A 
ATOM     70  C   UNL A   1      41.371  32.622  31.014  1.00  0.00     0.031 C 
ATOM     71  C   UNL A   1      42.505  30.940  32.621  1.00  0.00     0.037 A 
BRANCH  58  72
ATOM     72  C   UNL A   1      45.012  32.760  28.261  1.00  0.00     0.064 A 
ATOM     73  C   UNL A   1      46.279  33.352  28.059  1.00  0.00     0.173 A 
ATOM     74  C   UNL A   1      43.929  33.667  28.269  1.00  0.00     0.173 A 
ATOM     75  F   UNL A   1      47.385  32.596  27.988  1.00  0.00    -0.203 F 
ATOM     76  C   UNL A   1      46.460  34.737  28.055  1.00  0.00     0.198 A 
ATOM     77  C   UNL A   1      44.110  35.049  28.219  1.00  0.00     0.198 A 
ATOM     78  F   UNL A   1      42.657  33.287  28.414  1.00  0.00    -0.203 F 
ATOM     79  F   UNL A   1      47.700  35.243  28.039  1.00  0.00    -0.200 F 
ATOM     80  C   UNL A   1      45.376  35.585  28.161  1.00  0.00     0.200 A 
ATOM     81  F   UNL A   1      43.043  35.854  28.318  1.00  0.00    -0.200 F 
ATOM     82  F   UNL A   1      45.551  36.910  28.250  1.00  0.00    -0.200 F 
ENDBRANCH  58  72
BRANCH  59  83
ATOM     83  C   UNL A   1      37.002  31.549  30.634  1.00  0.00     0.064 A 
ATOM     84  C   UNL A   1      36.118  31.710  31.717  1.00  0.00     0.173 A 
ATOM     85  C   UNL A   1      36.664  32.232  29.450  1.00  0.00     0.173 A 
ATOM     86  F   UNL A   1      36.385  31.130  32.897  1.00  0.00    -0.203 F 
ATOM     87  C   UNL A   1      34.986  32.529  31.630  1.00  0.00     0.198 A 
ATOM     88  C   UNL A   1      35.530  33.043  29.363  1.00  0.00     0.198 A 
ATOM     89  F   UNL A   1      37.479  32.206  28.386  1.00  0.00    -0.203 F 
ATOM     90  F   UNL A   1      34.207  32.711  32.707  1.00  0.00    -0.200 F 
ATOM     91  C   UNL A   1      34.700  33.204  30.457  1.00  0.00     0.200 A 
ATOM     92  F   UNL A   1      35.284  33.720  28.232  1.00  0.00    -0.200 F 
ATOM     93  F   UNL A   1      33.654  34.041  30.392  1.00  0.00    -0.200 F 
ENDBRANCH  59  83
BRANCH  71  94
ATOM     94  C   UNL A   1      42.209  29.994  33.752  1.00  0.00     0.064 A 
ATOM     95  C   UNL A   1      41.780  28.666  33.589  1.00  0.00     0.173 A 
ATOM     96  C   UNL A   1      42.486  30.427  35.055  1.00  0.00     0.173 A 
ATOM     97  F   UNL A   1      41.588  28.144  32.372  1.00  0.00    -0.203 F 
ATOM     98  C   UNL A   1      41.589  27.829  34.689  1.00  0.00     0.198 A 
ATOM     99  C   UNL A   1      42.334  29.578  36.147  1.00  0.00     0.198 A 
ATOM    100  F   UNL A   1      42.948  31.669  35.266  1.00  0.00    -0.203 F 
ATOM    101  F   UNL A   1      41.158  26.572  34.509  1.00  0.00    -0.200 F 
ATOM    102  C   UNL A   1      41.873  28.284  35.965  1.00  0.00     0.200 A 
ATOM    103  F   UNL A   1      42.656  30.010  37.374  1.00  0.00    -0.200 F 
ATOM    104  F   UNL A   1      41.725  27.470  37.019  1.00  0.00    -0.200 F 
ENDBRANCH  71  94
ENDBRANCH  45  46
ENDBRANCH  37  40
ENDBRANCH  35  36
ENDBRANCH  34  35
ENDBRANCH  33  34
ENDBRANCH   1  33
TORSDOF 17
ENDMDL
MODEL 3
REMARK VINA RESULT:     -13.3      1.576      4.881
REMARK SMILES COc1ccccc1[C@@H]1C[N@@H+](Cc2cn3cc(C)ccc3n2)C[C@H]1C(=O)NCCCCCCNC(=O)c1ccc(-c2c3nc(c(-c4c(F)c(F)c(F)c(F)c4F)c4ccc([nH]4)c(-c4c(F)c(F)c(F)c(F)c4F)c4nc(c(-c5c(F)c(F)c(F)c(F)c5F)c5ccc2[nH]5)C=C4)C=C3)cc1
REMARK SMILES IDX 30 1 29 2 28 3 27 4 25 5 26 6 24 8 9 9 10 10 11 11 23 12
REMARK SMILES IDX 8 14 3 15 4 16 5 17 7 18 6 19 2 20 1 21 12 22 13 23 14 24
REMARK SMILES IDX 22 25 15 26 21 27 16 28 20 29 17 30 19 31 18 32 31 33 32 34
REMARK SMILES IDX 33 35 34 36 35 37 36 39 37 40 38 41 99 42 39 43 98 44 40 45
REMARK SMILES IDX 41 46 42 47 92 48 43 49 97 50 91 51 93 52 44 53 96 54 90 55
REMARK SMILES IDX 89 56 45 58 77 59 57 60 76 61 58 62 61 63 75 64 94 65 59 66
REMARK SMILES IDX 60 67 74 69 95 70 62 71 46 72 47 73 55 74 48 75 49 76 53 77
REMARK SMILES IDX 56 78 50 79 51 80 54 81 52 82 78 83 79 84 87 85 80 86 81 87
REMARK SMILES IDX 85 88 88 89 82 90 83 91 86 92 84 93 63 94 64 95 72 96 65 97
REMARK SMILES IDX 66 98 70 99 73 100 67 101 68 102 71 103 69 104
REMARK H PARENT 27 7 11 13 34 38 93 57 61 68
REMARK Flexibility Score: inf
ROOT
ATOM      1  C   UNL A   1      33.483  28.266  26.888  1.00  0.00     0.002 C 
ENDROOT
BRANCH   1   2
ATOM      2  C   UNL A   1      32.016  28.628  26.703  1.00  0.00     0.021 C 
BRANCH   2   3
ATOM      3  C   UNL A   1      30.930  27.545  26.842  1.00  0.00     0.116 C 
BRANCH   3   4
ATOM      4  N   UNL A   1      31.513  26.211  27.095  1.00  0.00    -0.356 N 
ATOM      5  C   UNL A   1      31.481  24.981  26.504  1.00  0.00     0.229 C 
ATOM      6  O   UNL A   1      31.758  24.054  27.287  1.00  0.00    -0.275 OA
ATOM      7  H   UNL A   1      32.071  26.210  27.905  1.00  0.00     0.163 HD
BRANCH   5   8
ATOM      8  C   UNL A   1      31.295  24.613  25.012  1.00  0.00     0.146 C 
ATOM      9  C   UNL A   1      32.329  25.216  24.009  1.00  0.00     0.096 C 
ATOM     10  C   UNL A   1      32.506  24.143  22.922  1.00  0.00     0.272 C 
ATOM     11  N   UNL A   1      32.265  22.857  23.598  1.00  0.00    -0.329 N 
ATOM     12  C   UNL A   1      31.214  23.145  24.592  1.00  0.00     0.276 C 
ATOM     13  H   UNL A   1      31.949  22.146  22.937  1.00  0.00     0.348 HD
BRANCH   9  14
ATOM     14  C   UNL A   1      32.434  26.666  23.564  1.00  0.00     0.004 A 
ATOM     15  C   UNL A   1      31.407  27.571  23.288  1.00  0.00     0.122 A 
ATOM     16  C   UNL A   1      31.716  28.846  22.765  1.00  0.00     0.047 A 
ATOM     17  C   UNL A   1      33.026  29.231  22.471  1.00  0.00     0.004 A 
ATOM     18  C   UNL A   1      33.757  27.090  23.228  1.00  0.00     0.008 A 
ATOM     19  C   UNL A   1      34.054  28.335  22.683  1.00  0.00     0.001 A 
BRANCH  15  20
ATOM     20  O   UNL A   1      30.068  27.299  23.284  1.00  0.00    -0.496 OA
ATOM     21  C   UNL A   1      29.221  28.367  22.899  1.00  0.00     0.278 C 
ENDBRANCH  15  20
ENDBRANCH   9  14
BRANCH  11  22
ATOM     22  C   UNL A   1      33.477  22.158  24.105  1.00  0.00     0.321 C 
BRANCH  22  23
ATOM     23  C   UNL A   1      33.391  20.661  24.282  1.00  0.00     0.114 A 
ATOM     24  C   UNL A   1      32.343  19.754  24.190  1.00  0.00     0.122 A 
ATOM     25  N   UNL A   1      34.514  19.978  24.641  1.00  0.00    -0.228 NA
ATOM     26  N   UNL A   1      32.893  18.505  24.435  1.00  0.00    -0.306 N 
ATOM     27  C   UNL A   1      34.250  18.702  24.536  1.00  0.00     0.137 A 
ATOM     28  C   UNL A   1      32.320  17.255  24.669  1.00  0.00     0.096 A 
ATOM     29  C   UNL A   1      35.103  17.576  24.666  1.00  0.00     0.048 A 
ATOM     30  C   UNL A   1      33.116  16.213  25.009  1.00  0.00    -0.034 A 
ATOM     31  C   UNL A   1      34.563  16.379  24.929  1.00  0.00     0.009 A 
ATOM     32  C   UNL A   1      32.671  14.888  25.533  1.00  0.00     0.046 C 
ENDBRANCH  22  23
ENDBRANCH  11  22
ENDBRANCH   5   8
ENDBRANCH   3   4
ENDBRANCH   2   3
ENDBRANCH   1   2
BRANCH   1  33
ATOM     33  C   UNL A   1      34.424  29.416  27.235  1.00  0.00     0.002 C 
BRANCH  33  34
ATOM     34  C   UNL A   1      33.805  30.822  27.325  1.00  0.00     0.021 C 
BRANCH  34  35
ATOM     35  C   UNL A   1      34.767  31.933  27.731  1.00  0.00     0.116 C 
BRANCH  35  36
ATOM     36  N   UNL A   1      34.513  32.439  29.075  1.00  0.00    -0.352 N 
ATOM     37  C   UNL A   1      35.091  32.067  30.272  1.00  0.00     0.251 C 
ATOM     38  H   UNL A   1      33.833  33.147  29.137  1.00  0.00     0.163 HD
ATOM     39  O   UNL A   1      34.564  32.356  31.332  1.00  0.00    -0.269 OA
BRANCH  37  40
ATOM     40  C   UNL A   1      36.383  31.350  30.271  1.00  0.00     0.039 A 
ATOM     41  C   UNL A   1      36.433  29.951  30.371  1.00  0.00     0.014 A 
ATOM     42  C   UNL A   1      37.558  32.090  30.260  1.00  0.00     0.014 A 
ATOM     43  C   UNL A   1      37.669  29.306  30.441  1.00  0.00     0.010 A 
ATOM     44  C   UNL A   1      38.766  31.444  30.226  1.00  0.00     0.010 A 
ATOM     45  C   UNL A   1      38.836  30.071  30.388  1.00  0.00    -0.014 A 
BRANCH  45  46
ATOM     46  C   UNL A   1      40.166  29.482  30.314  1.00  0.00     0.031 A 
ATOM     47  C   UNL A   1      40.788  29.299  31.649  1.00  0.00     0.074 A 
ATOM     48  C   UNL A   1      40.634  28.869  29.204  1.00  0.00     0.049 A 
ATOM     49  N   UNL A   1      41.833  29.896  32.112  1.00  0.00    -0.248 NA
ATOM     50  C   UNL A   1      40.071  28.490  32.651  1.00  0.00     0.031 C 
ATOM     51  C   UNL A   1      39.943  28.686  27.926  1.00  0.00     0.029 A 
ATOM     52  N   UNL A   1      41.785  28.165  29.014  1.00  0.00    -0.354 N 
ATOM     53  C   UNL A   1      42.039  29.362  33.381  1.00  0.00     0.074 A 
ATOM     54  C   UNL A   1      40.809  28.714  33.740  1.00  0.00     0.031 C 
ATOM     55  C   UNL A   1      40.565  27.732  27.198  1.00  0.00     0.029 A 
ATOM     56  C   UNL A   1      41.792  27.360  27.876  1.00  0.00     0.049 A 
ATOM     57  H   UNL A   1      42.550  28.219  29.632  1.00  0.00     0.167 HD
ATOM     58  C   UNL A   1      43.306  29.221  33.863  1.00  0.00     0.037 A 
ATOM     59  C   UNL A   1      42.730  26.439  27.535  1.00  0.00     0.037 A 
ATOM     60  C   UNL A   1      44.222  30.042  33.097  1.00  0.00     0.049 A 
ATOM     61  C   UNL A   1      43.947  26.747  28.325  1.00  0.00     0.074 A 
ATOM     62  C   UNL A   1      44.325  31.388  32.799  1.00  0.00     0.029 A 
ATOM     63  N   UNL A   1      45.016  29.401  32.179  1.00  0.00    -0.354 N 
ATOM     64  N   UNL A   1      44.673  27.814  28.153  1.00  0.00    -0.248 NA
ATOM     65  C   UNL A   1      44.101  26.088  29.611  1.00  0.00     0.031 C 
ATOM     66  C   UNL A   1      44.804  31.440  31.454  1.00  0.00     0.029 A 
ATOM     67  C   UNL A   1      45.038  30.133  31.025  1.00  0.00     0.049 A 
ATOM     68  H   UNL A   1      45.492  28.552  32.326  1.00  0.00     0.167 HD
ATOM     69  C   UNL A   1      45.012  28.216  29.436  1.00  0.00     0.074 A 
ATOM     70  C   UNL A   1      44.730  27.058  30.281  1.00  0.00     0.031 C 
ATOM     71  C   UNL A   1      45.195  29.541  29.719  1.00  0.00     0.037 A 
BRANCH  58  72
ATOM     72  C   UNL A   1      43.794  28.008  34.647  1.00  0.00     0.064 A 
ATOM     73  C   UNL A   1      43.555  26.730  34.094  1.00  0.00     0.173 A 
ATOM     74  C   UNL A   1      44.146  28.005  36.015  1.00  0.00     0.173 A 
ATOM     75  F   UNL A   1      43.254  26.592  32.794  1.00  0.00    -0.203 F 
ATOM     76  C   UNL A   1      43.489  25.579  34.883  1.00  0.00     0.198 A 
ATOM     77  C   UNL A   1      44.124  26.845  36.791  1.00  0.00     0.198 A 
ATOM     78  F   UNL A   1      44.440  29.114  36.698  1.00  0.00    -0.203 F 
ATOM     79  F   UNL A   1      43.084  24.425  34.338  1.00  0.00    -0.200 F 
ATOM     80  C   UNL A   1      43.749  25.643  36.237  1.00  0.00     0.200 A 
ATOM     81  F   UNL A   1      44.385  26.930  38.103  1.00  0.00    -0.200 F 
ATOM     82  F   UNL A   1      43.598  24.563  37.014  1.00  0.00    -0.200 F 
ENDBRANCH  58  72
BRANCH  59  83
ATOM     83  C   UNL A   1      42.576  25.158  26.796  1.00  0.00     0.064 A 
ATOM     84  C   UNL A   1      43.298  24.911  25.614  1.00  0.00     0.173 A 
ATOM     85  C   UNL A   1      41.947  24.044  27.384  1.00  0.00     0.173 A 
ATOM     86  F   UNL A   1      43.965  25.907  25.011  1.00  0.00    -0.203 F 
ATOM     87  C   UNL A   1      43.412  23.624  25.075  1.00  0.00     0.198 A 
ATOM     88  C   UNL A   1      42.055  22.762  26.839  1.00  0.00     0.198 A 
ATOM     89  F   UNL A   1      41.298  24.159  28.552  1.00  0.00    -0.203 F 
ATOM     90  F   UNL A   1      44.168  23.419  23.986  1.00  0.00    -0.200 F 
ATOM     91  C   UNL A   1      42.799  22.549  25.694  1.00  0.00     0.200 A 
ATOM     92  F   UNL A   1      41.487  21.724  27.471  1.00  0.00    -0.200 F 
ATOM     93  F   UNL A   1      42.962  21.307  25.217  1.00  0.00    -0.200 F 
ENDBRANCH  59  83
BRANCH  71  94
ATOM     94  C   UNL A   1      45.365  30.483  28.560  1.00  0.00     0.064 A 
ATOM     95  C   UNL A   1      44.308  31.123  27.891  1.00  0.00     0.173 A 
ATOM     96  C   UNL A   1      46.669  30.839  28.193  1.00  0.00     0.173 A 
ATOM     97  F   UNL A   1      43.035  30.915  28.247  1.00  0.00    -0.203 F 
ATOM     98  C   UNL A   1      44.551  32.038  26.865  1.00  0.00     0.198 A 
ATOM     99  C   UNL A   1      46.910  31.781  27.198  1.00  0.00     0.198 A 
ATOM    100  F   UNL A   1      47.717  30.298  28.833  1.00  0.00    -0.203 F 
ATOM    101  F   UNL A   1      43.525  32.619  26.227  1.00  0.00    -0.200 F 
ATOM    102  C   UNL A   1      45.851  32.370  26.525  1.00  0.00     0.200 A 
ATOM    103  F   UNL A   1      48.169  32.133  26.907  1.00  0.00    -0.200 F 
ATOM    104  F   UNL A   1      46.085  33.276  25.566  1.00  0.00    -0.200 F 
ENDBRANCH  71  94
ENDBRANCH  45  46
ENDBRANCH  37  40
ENDBRANCH  35  36
ENDBRANCH  34  35
ENDBRANCH  33  34
ENDBRANCH   1  33
TORSDOF 17
ENDMDL
