MODEL 1
REMARK VINA RESULT:     -11.0      0.000      0.000
REMARK SMILES CN(CCCC(=O)NCCCCCCNC(=O)c1ccc(-c2c3nc(c(-c4c(F)c(F)c(F)c(F)c4F)c4ccc([nH]4)c(-c4c(F)c(F)c(F)c(F)c4F)c4nc(c(-c5c(F)c(F)c(F)c(F)c5F)c5ccc2[nH]5)C=C4)C=C3)cc1)c1cccc(F)c1C(N)=O
REMARK SMILES IDX 10 1 9 2 8 3 6 4 7 5 5 7 4 8 3 9 2 10 1 11 81 12 82 13 87 14
REMARK SMILES IDX 83 15 85 16 84 17 86 18 88 19 89 20 90 21 11 24 12 25 13 26
REMARK SMILES IDX 14 27 15 28 16 29 17 31 18 32 19 33 80 34 20 35 79 36 21 37
REMARK SMILES IDX 22 38 23 39 73 40 24 41 78 42 72 43 74 44 25 45 77 46 71 47
REMARK SMILES IDX 70 48 26 50 58 51 38 52 57 53 39 54 42 55 56 56 75 57 40 58
REMARK SMILES IDX 41 59 55 61 76 62 43 63 27 64 28 65 36 66 29 67 30 68 34 69
REMARK SMILES IDX 37 70 31 71 32 72 35 73 33 74 59 75 60 76 68 77 61 78 62 79
REMARK SMILES IDX 66 80 69 81 63 82 64 83 67 84 65 85 44 86 45 87 53 88 46 89
REMARK SMILES IDX 47 90 51 91 54 92 48 93 49 94 52 95 50 96
REMARK H PARENT 8 6 89 22 89 23 15 30 74 49 42 60
REMARK Flexibility Score: inf
ROOT
ATOM      1  C   UNL A   1      35.753  32.948  28.030  1.00  0.00     0.021 C 
ENDROOT
BRANCH   1   2
ATOM      2  C   UNL A   1      34.541  32.035  27.866  1.00  0.00     0.116 C 
BRANCH   2   3
ATOM      3  N   UNL A   1      34.971  30.719  27.459  1.00  0.00    -0.356 N 
ATOM      4  C   UNL A   1      34.211  29.633  27.153  1.00  0.00     0.220 C 
ATOM      5  O   UNL A   1      34.779  28.550  27.009  1.00  0.00    -0.275 OA
ATOM      6  H   UNL A   1      35.945  30.589  27.397  1.00  0.00     0.163 HD
BRANCH   4   7
ATOM      7  C   UNL A   1      32.729  29.788  26.864  1.00  0.00     0.102 C 
BRANCH   7   8
ATOM      8  C   UNL A   1      32.226  29.855  25.416  1.00  0.00     0.031 C 
BRANCH   8   9
ATOM      9  C   UNL A   1      32.925  29.120  24.259  1.00  0.00     0.117 C 
BRANCH   9  10
ATOM     10  N   UNL A   1      32.123  28.330  23.276  1.00  0.00    -0.374 N 
ATOM     11  C   UNL A   1      32.936  27.453  22.429  1.00  0.00     0.143 C 
BRANCH  10  12
ATOM     12  C   UNL A   1      30.796  27.977  23.537  1.00  0.00     0.052 A 
ATOM     13  C   UNL A   1      30.645  26.809  24.321  1.00  0.00     0.027 A 
ATOM     14  C   UNL A   1      29.591  28.604  23.102  1.00  0.00     0.098 A 
ATOM     15  C   UNL A   1      29.427  26.146  24.485  1.00  0.00     0.005 A 
ATOM     16  C   UNL A   1      28.373  27.900  23.264  1.00  0.00     0.138 A 
ATOM     17  C   UNL A   1      28.292  26.673  23.910  1.00  0.00     0.040 A 
ATOM     18  F   UNL A   1      27.219  28.378  22.765  1.00  0.00    -0.206 F 
BRANCH  14  19
ATOM     19  C   UNL A   1      29.485  29.961  22.459  1.00  0.00     0.253 C 
ATOM     20  N   UNL A   1      29.491  31.062  23.286  1.00  0.00    -0.365 N 
ATOM     21  O   UNL A   1      29.396  30.157  21.257  1.00  0.00    -0.269 OA
ATOM     22  H   UNL A   1      29.562  30.944  24.260  1.00  0.00     0.159 HD
ATOM     23  H   UNL A   1      29.425  31.966  22.902  1.00  0.00     0.159 HD
ENDBRANCH  14  19
ENDBRANCH  10  12
ENDBRANCH   9  10
ENDBRANCH   8   9
ENDBRANCH   7   8
ENDBRANCH   4   7
ENDBRANCH   2   3
ENDBRANCH   1   2
BRANCH   1  24
ATOM     24  C   UNL A   1      35.468  34.120  28.967  1.00  0.00     0.002 C 
BRANCH  24  25
ATOM     25  C   UNL A   1      34.685  35.255  28.299  1.00  0.00     0.002 C 
BRANCH  25  26
ATOM     26  C   UNL A   1      33.340  35.581  28.954  1.00  0.00     0.021 C 
BRANCH  26  27
ATOM     27  C   UNL A   1      33.387  36.717  29.969  1.00  0.00     0.116 C 
BRANCH  27  28
ATOM     28  N   UNL A   1      32.443  36.499  31.055  1.00  0.00    -0.352 N 
ATOM     29  C   UNL A   1      32.486  35.585  32.074  1.00  0.00     0.251 C 
ATOM     30  H   UNL A   1      31.661  37.096  31.059  1.00  0.00     0.163 HD
ATOM     31  O   UNL A   1      31.489  35.366  32.756  1.00  0.00    -0.269 OA
BRANCH  29  32
ATOM     32  C   UNL A   1      33.740  34.857  32.347  1.00  0.00     0.039 A 
ATOM     33  C   UNL A   1      34.943  35.565  32.380  1.00  0.00     0.014 A 
ATOM     34  C   UNL A   1      33.725  33.475  32.555  1.00  0.00     0.014 A 
ATOM     35  C   UNL A   1      36.128  34.892  32.675  1.00  0.00     0.010 A 
ATOM     36  C   UNL A   1      34.894  32.821  32.923  1.00  0.00     0.010 A 
ATOM     37  C   UNL A   1      36.109  33.521  32.978  1.00  0.00    -0.014 A 
BRANCH  37  38
ATOM     38  C   UNL A   1      37.349  32.799  33.350  1.00  0.00     0.031 A 
ATOM     39  C   UNL A   1      38.040  33.108  34.649  1.00  0.00     0.074 A 
ATOM     40  C   UNL A   1      37.885  31.914  32.488  1.00  0.00     0.049 A 
ATOM     41  N   UNL A   1      39.167  32.637  35.120  1.00  0.00    -0.248 NA
ATOM     42  C   UNL A   1      37.393  34.100  35.522  1.00  0.00     0.031 C 
ATOM     43  C   UNL A   1      37.330  31.567  31.179  1.00  0.00     0.029 A 
ATOM     44  N   UNL A   1      39.023  31.151  32.579  1.00  0.00    -0.354 N 
ATOM     45  C   UNL A   1      39.367  33.281  36.333  1.00  0.00     0.074 A 
ATOM     46  C   UNL A   1      38.278  34.219  36.500  1.00  0.00     0.031 C 
ATOM     47  C   UNL A   1      38.116  30.646  30.599  1.00  0.00     0.029 A 
ATOM     48  C   UNL A   1      39.250  30.369  31.474  1.00  0.00     0.049 A 
ATOM     49  H   UNL A   1      39.620  31.166  33.362  1.00  0.00     0.167 HD
ATOM     50  C   UNL A   1      40.357  33.091  37.236  1.00  0.00     0.037 A 
ATOM     51  C   UNL A   1      40.266  29.529  31.196  1.00  0.00     0.037 A 
ATOM     52  C   UNL A   1      41.428  32.142  37.071  1.00  0.00     0.049 A 
ATOM     53  C   UNL A   1      41.362  29.347  32.211  1.00  0.00     0.074 A 
ATOM     54  C   UNL A   1      42.449  31.832  37.951  1.00  0.00     0.029 A 
ATOM     55  N   UNL A   1      41.616  31.353  35.946  1.00  0.00    -0.354 N 
ATOM     56  N   UNL A   1      41.503  29.908  33.388  1.00  0.00    -0.248 NA
ATOM     57  C   UNL A   1      42.437  28.407  31.863  1.00  0.00     0.031 C 
ATOM     58  C   UNL A   1      43.286  30.895  37.336  1.00  0.00     0.029 A 
ATOM     59  C   UNL A   1      42.751  30.574  36.099  1.00  0.00     0.049 A 
ATOM     60  H   UNL A   1      41.029  31.348  35.154  1.00  0.00     0.167 HD
ATOM     61  C   UNL A   1      42.659  29.366  33.933  1.00  0.00     0.074 A 
ATOM     62  C   UNL A   1      43.173  28.422  32.964  1.00  0.00     0.031 C 
ATOM     63  C   UNL A   1      43.241  29.626  35.130  1.00  0.00     0.037 A 
BRANCH  50  64
ATOM     64  C   UNL A   1      40.332  33.924  38.486  1.00  0.00     0.064 A 
ATOM     65  C   UNL A   1      39.624  33.518  39.628  1.00  0.00     0.173 A 
ATOM     66  C   UNL A   1      41.058  35.122  38.559  1.00  0.00     0.173 A 
ATOM     67  F   UNL A   1      38.905  32.386  39.610  1.00  0.00    -0.203 F 
ATOM     68  C   UNL A   1      39.621  34.295  40.784  1.00  0.00     0.198 A 
ATOM     69  C   UNL A   1      41.081  35.879  39.727  1.00  0.00     0.198 A 
ATOM     70  F   UNL A   1      41.759  35.555  37.500  1.00  0.00    -0.203 F 
ATOM     71  F   UNL A   1      38.896  33.911  41.845  1.00  0.00    -0.200 F 
ATOM     72  C   UNL A   1      40.356  35.469  40.836  1.00  0.00     0.200 A 
ATOM     73  F   UNL A   1      41.803  37.007  39.781  1.00  0.00    -0.200 F 
ATOM     74  F   UNL A   1      40.360  36.210  41.953  1.00  0.00    -0.200 F 
ENDBRANCH  50  64
BRANCH  51  75
ATOM     75  C   UNL A   1      40.284  28.783  29.910  1.00  0.00     0.064 A 
ATOM     76  C   UNL A   1      40.972  29.286  28.796  1.00  0.00     0.173 A 
ATOM     77  C   UNL A   1      39.609  27.563  29.763  1.00  0.00     0.173 A 
ATOM     78  F   UNL A   1      41.617  30.458  28.880  1.00  0.00    -0.203 F 
ATOM     79  C   UNL A   1      40.960  28.609  27.577  1.00  0.00     0.198 A 
ATOM     80  C   UNL A   1      39.627  26.871  28.553  1.00  0.00     0.198 A 
ATOM     81  F   UNL A   1      38.943  27.033  30.799  1.00  0.00    -0.203 F 
ATOM     82  F   UNL A   1      41.581  29.138  26.515  1.00  0.00    -0.200 F 
ATOM     83  C   UNL A   1      40.292  27.400  27.458  1.00  0.00     0.200 A 
ATOM     84  F   UNL A   1      38.995  25.694  28.448  1.00  0.00    -0.200 F 
ATOM     85  F   UNL A   1      40.285  26.748  26.288  1.00  0.00    -0.200 F 
ENDBRANCH  51  75
BRANCH  63  86
ATOM     86  C   UNL A   1      44.474  28.845  35.482  1.00  0.00     0.064 A 
ATOM     87  C   UNL A   1      45.755  29.272  35.105  1.00  0.00     0.173 A 
ATOM     88  C   UNL A   1      44.371  27.673  36.249  1.00  0.00     0.173 A 
ATOM     89  F   UNL A   1      45.906  30.377  34.359  1.00  0.00    -0.203 F 
ATOM     90  C   UNL A   1      46.886  28.540  35.460  1.00  0.00     0.198 A 
ATOM     91  C   UNL A   1      45.506  26.964  36.631  1.00  0.00     0.198 A 
ATOM     92  F   UNL A   1      43.169  27.225  36.643  1.00  0.00    -0.203 F 
ATOM     93  F   UNL A   1      48.096  28.940  35.045  1.00  0.00    -0.200 F 
ATOM     94  C   UNL A   1      46.762  27.394  36.229  1.00  0.00     0.200 A 
ATOM     95  F   UNL A   1      45.384  25.866  37.388  1.00  0.00    -0.200 F 
ATOM     96  F   UNL A   1      47.852  26.697  36.578  1.00  0.00    -0.200 F 
ENDBRANCH  63  86
ENDBRANCH  37  38
ENDBRANCH  29  32
ENDBRANCH  27  28
ENDBRANCH  26  27
ENDBRANCH  25  26
ENDBRANCH  24  25
ENDBRANCH   1  24
TORSDOF 18
ENDMDL
MODEL 2
REMARK VINA RESULT:     -11.0      1.320      2.118
REMARK SMILES CN(CCCC(=O)NCCCCCCNC(=O)c1ccc(-c2c3nc(c(-c4c(F)c(F)c(F)c(F)c4F)c4ccc([nH]4)c(-c4c(F)c(F)c(F)c(F)c4F)c4nc(c(-c5c(F)c(F)c(F)c(F)c5F)c5ccc2[nH]5)C=C4)C=C3)cc1)c1cccc(F)c1C(N)=O
REMARK SMILES IDX 10 1 9 2 8 3 6 4 7 5 5 7 4 8 3 9 2 10 1 11 81 12 82 13 87 14
REMARK SMILES IDX 83 15 85 16 84 17 86 18 88 19 89 20 90 21 11 24 12 25 13 26
REMARK SMILES IDX 14 27 15 28 16 29 17 31 18 32 19 33 80 34 20 35 79 36 21 37
REMARK SMILES IDX 22 38 23 39 73 40 24 41 78 42 72 43 74 44 25 45 77 46 71 47
REMARK SMILES IDX 70 48 26 50 58 51 38 52 57 53 39 54 42 55 56 56 75 57 40 58
REMARK SMILES IDX 41 59 55 61 76 62 43 63 27 64 28 65 36 66 29 67 30 68 34 69
REMARK SMILES IDX 37 70 31 71 32 72 35 73 33 74 59 75 60 76 68 77 61 78 62 79
REMARK SMILES IDX 66 80 69 81 63 82 64 83 67 84 65 85 44 86 45 87 53 88 46 89
REMARK SMILES IDX 47 90 51 91 54 92 48 93 49 94 52 95 50 96
REMARK H PARENT 8 6 89 22 89 23 15 30 74 49 42 60
REMARK Flexibility Score: inf
ROOT
ATOM      1  C   UNL A   1      35.445  32.357  28.042  1.00  0.00     0.021 C 
ENDROOT
BRANCH   1   2
ATOM      2  C   UNL A   1      34.171  31.598  27.680  1.00  0.00     0.116 C 
BRANCH   2   3
ATOM      3  N   UNL A   1      34.510  30.336  27.067  1.00  0.00    -0.356 N 
ATOM      4  C   UNL A   1      33.709  29.261  26.835  1.00  0.00     0.220 C 
ATOM      5  O   UNL A   1      34.239  28.211  26.469  1.00  0.00    -0.275 OA
ATOM      6  H   UNL A   1      35.447  30.239  26.781  1.00  0.00     0.163 HD
BRANCH   4   7
ATOM      7  C   UNL A   1      32.199  29.400  26.894  1.00  0.00     0.102 C 
BRANCH   7   8
ATOM      8  C   UNL A   1      31.417  29.883  25.664  1.00  0.00     0.031 C 
BRANCH   8   9
ATOM      9  C   UNL A   1      31.610  29.271  24.265  1.00  0.00     0.117 C 
BRANCH   9  10
ATOM     10  N   UNL A   1      31.125  27.888  23.977  1.00  0.00    -0.374 N 
ATOM     11  C   UNL A   1      30.188  27.819  22.852  1.00  0.00     0.143 C 
BRANCH  10  12
ATOM     12  C   UNL A   1      31.902  26.765  24.277  1.00  0.00     0.052 A 
ATOM     13  C   UNL A   1      31.566  26.130  25.496  1.00  0.00     0.027 A 
ATOM     14  C   UNL A   1      32.992  26.199  23.552  1.00  0.00     0.098 A 
ATOM     15  C   UNL A   1      32.365  25.159  26.103  1.00  0.00     0.005 A 
ATOM     16  C   UNL A   1      33.797  25.230  24.199  1.00  0.00     0.138 A 
ATOM     17  C   UNL A   1      33.515  24.743  25.469  1.00  0.00     0.040 A 
ATOM     18  F   UNL A   1      34.911  24.749  23.619  1.00  0.00    -0.206 F 
BRANCH  14  19
ATOM     19  C   UNL A   1      33.390  26.550  22.143  1.00  0.00     0.253 C 
ATOM     20  N   UNL A   1      33.819  27.836  21.902  1.00  0.00    -0.365 N 
ATOM     21  O   UNL A   1      33.361  25.777  21.198  1.00  0.00    -0.269 OA
ATOM     22  H   UNL A   1      33.855  28.488  22.638  1.00  0.00     0.159 HD
ATOM     23  H   UNL A   1      34.088  28.102  20.994  1.00  0.00     0.159 HD
ENDBRANCH  14  19
ENDBRANCH  10  12
ENDBRANCH   9  10
ENDBRANCH   8   9
ENDBRANCH   7   8
ENDBRANCH   4   7
ENDBRANCH   2   3
ENDBRANCH   1   2
BRANCH   1  24
ATOM     24  C   UNL A   1      35.183  33.475  29.048  1.00  0.00     0.002 C 
BRANCH  24  25
ATOM     25  C   UNL A   1      34.641  34.756  28.404  1.00  0.00     0.002 C 
BRANCH  25  26
ATOM     26  C   UNL A   1      33.284  35.221  28.939  1.00  0.00     0.021 C 
BRANCH  26  27
ATOM     27  C   UNL A   1      33.330  36.506  29.758  1.00  0.00     0.116 C 
BRANCH  27  28
ATOM     28  N   UNL A   1      32.446  36.433  30.912  1.00  0.00    -0.352 N 
ATOM     29  C   UNL A   1      32.516  35.619  32.011  1.00  0.00     0.251 C 
ATOM     30  H   UNL A   1      31.688  37.061  30.901  1.00  0.00     0.163 HD
ATOM     31  O   UNL A   1      31.554  35.509  32.767  1.00  0.00    -0.269 OA
BRANCH  29  32
ATOM     32  C   UNL A   1      33.756  34.867  32.283  1.00  0.00     0.039 A 
ATOM     33  C   UNL A   1      34.979  35.539  32.248  1.00  0.00     0.014 A 
ATOM     34  C   UNL A   1      33.707  33.498  32.556  1.00  0.00     0.014 A 
ATOM     35  C   UNL A   1      36.153  34.846  32.540  1.00  0.00     0.010 A 
ATOM     36  C   UNL A   1      34.868  32.826  32.922  1.00  0.00     0.010 A 
ATOM     37  C   UNL A   1      36.103  33.491  32.909  1.00  0.00    -0.014 A 
BRANCH  37  38
ATOM     38  C   UNL A   1      37.333  32.750  33.279  1.00  0.00     0.031 A 
ATOM     39  C   UNL A   1      38.046  33.068  34.564  1.00  0.00     0.074 A 
ATOM     40  C   UNL A   1      37.840  31.839  32.428  1.00  0.00     0.049 A 
ATOM     41  N   UNL A   1      39.168  32.582  35.031  1.00  0.00    -0.248 NA
ATOM     42  C   UNL A   1      37.430  34.090  35.426  1.00  0.00     0.031 C 
ATOM     43  C   UNL A   1      37.262  31.481  31.132  1.00  0.00     0.029 A 
ATOM     44  N   UNL A   1      38.963  31.054  32.519  1.00  0.00    -0.354 N 
ATOM     45  C   UNL A   1      39.396  33.244  36.229  1.00  0.00     0.074 A 
ATOM     46  C   UNL A   1      38.329  34.207  36.392  1.00  0.00     0.031 C 
ATOM     47  C   UNL A   1      38.021  30.532  30.559  1.00  0.00     0.029 A 
ATOM     48  C   UNL A   1      39.160  30.247  31.426  1.00  0.00     0.049 A 
ATOM     49  H   UNL A   1      39.569  31.070  33.294  1.00  0.00     0.167 HD
ATOM     50  C   UNL A   1      40.394  33.050  37.124  1.00  0.00     0.037 A 
ATOM     51  C   UNL A   1      40.155  29.382  31.151  1.00  0.00     0.037 A 
ATOM     52  C   UNL A   1      41.442  32.076  36.963  1.00  0.00     0.049 A 
ATOM     53  C   UNL A   1      41.259  29.196  32.156  1.00  0.00     0.074 A 
ATOM     54  C   UNL A   1      42.468  31.760  37.837  1.00  0.00     0.029 A 
ATOM     55  N   UNL A   1      41.600  31.262  35.851  1.00  0.00    -0.354 N 
ATOM     56  N   UNL A   1      41.426  29.775  33.321  1.00  0.00    -0.248 NA
ATOM     57  C   UNL A   1      42.310  28.227  31.813  1.00  0.00     0.031 C 
ATOM     58  C   UNL A   1      43.277  30.795  37.229  1.00  0.00     0.029 A 
ATOM     59  C   UNL A   1      42.721  30.463  36.004  1.00  0.00     0.049 A 
ATOM     60  H   UNL A   1      41.004  31.255  35.066  1.00  0.00     0.167 HD
ATOM     61  C   UNL A   1      42.577  29.219  33.862  1.00  0.00     0.074 A 
ATOM     62  C   UNL A   1      43.060  28.246  32.905  1.00  0.00     0.031 C 
ATOM     63  C   UNL A   1      43.179  29.488  35.047  1.00  0.00     0.037 A 
BRANCH  50  64
ATOM     64  C   UNL A   1      40.401  33.905  38.358  1.00  0.00     0.064 A 
ATOM     65  C   UNL A   1      39.700  33.534  39.516  1.00  0.00     0.173 A 
ATOM     66  C   UNL A   1      41.151  35.090  38.400  1.00  0.00     0.173 A 
ATOM     67  F   UNL A   1      38.959  32.416  39.529  1.00  0.00    -0.203 F 
ATOM     68  C   UNL A   1      39.727  34.332  40.658  1.00  0.00     0.198 A 
ATOM     69  C   UNL A   1      41.203  35.868  39.554  1.00  0.00     0.198 A 
ATOM     70  F   UNL A   1      41.845  35.490  37.324  1.00  0.00    -0.203 F 
ATOM     71  F   UNL A   1      39.010  33.981  41.735  1.00  0.00    -0.200 F 
ATOM     72  C   UNL A   1      40.485  35.492  40.679  1.00  0.00     0.200 A 
ATOM     73  F   UNL A   1      41.948  36.982  39.578  1.00  0.00    -0.200 F 
ATOM     74  F   UNL A   1      40.518  36.252  41.782  1.00  0.00    -0.200 F 
ENDBRANCH  50  64
BRANCH  51  75
ATOM     75  C   UNL A   1      40.142  28.612  29.879  1.00  0.00     0.064 A 
ATOM     76  C   UNL A   1      39.531  27.353  29.806  1.00  0.00     0.173 A 
ATOM     77  C   UNL A   1      40.747  29.111  28.717  1.00  0.00     0.173 A 
ATOM     78  F   UNL A   1      38.954  26.824  30.895  1.00  0.00    -0.203 F 
ATOM     79  C   UNL A   1      39.549  26.611  28.627  1.00  0.00     0.198 A 
ATOM     80  C   UNL A   1      40.736  28.382  27.528  1.00  0.00     0.198 A 
ATOM     81  F   UNL A   1      41.340  30.315  28.729  1.00  0.00    -0.203 F 
ATOM     82  F   UNL A   1      39.003  25.387  28.599  1.00  0.00    -0.200 F 
ATOM     83  C   UNL A   1      40.147  27.128  27.487  1.00  0.00     0.200 A 
ATOM     84  F   UNL A   1      41.299  28.894  26.425  1.00  0.00    -0.200 F 
ATOM     85  F   UNL A   1      40.161  26.416  26.353  1.00  0.00    -0.200 F 
ENDBRANCH  51  75
BRANCH  63  86
ATOM     86  C   UNL A   1      44.399  28.687  35.399  1.00  0.00     0.064 A 
ATOM     87  C   UNL A   1      45.691  29.118  35.063  1.00  0.00     0.173 A 
ATOM     88  C   UNL A   1      44.275  27.492  36.125  1.00  0.00     0.173 A 
ATOM     89  F   UNL A   1      45.864  30.246  34.357  1.00  0.00    -0.203 F 
ATOM     90  C   UNL A   1      46.810  28.368  35.417  1.00  0.00     0.198 A 
ATOM     91  C   UNL A   1      45.397  26.763  36.507  1.00  0.00     0.198 A 
ATOM     92  F   UNL A   1      43.062  27.039  36.479  1.00  0.00    -0.203 F 
ATOM     93  F   UNL A   1      48.031  28.773  35.041  1.00  0.00    -0.200 F 
ATOM     94  C   UNL A   1      46.663  27.198  36.145  1.00  0.00     0.200 A 
ATOM     95  F   UNL A   1      45.253  25.642  37.225  1.00  0.00    -0.200 F 
ATOM     96  F   UNL A   1      47.742  26.483  36.493  1.00  0.00    -0.200 F 
ENDBRANCH  63  86
ENDBRANCH  37  38
ENDBRANCH  29  32
ENDBRANCH  27  28
ENDBRANCH  26  27
ENDBRANCH  25  26
ENDBRANCH  24  25
ENDBRANCH   1  24
TORSDOF 18
ENDMDL
MODEL 3
REMARK VINA RESULT:     -10.9      1.655      2.859
REMARK SMILES CN(CCCC(=O)NCCCCCCNC(=O)c1ccc(-c2c3nc(c(-c4c(F)c(F)c(F)c(F)c4F)c4ccc([nH]4)c(-c4c(F)c(F)c(F)c(F)c4F)c4nc(c(-c5c(F)c(F)c(F)c(F)c5F)c5ccc2[nH]5)C=C4)C=C3)cc1)c1cccc(F)c1C(N)=O
REMARK SMILES IDX 10 1 9 2 8 3 6 4 7 5 5 7 4 8 3 9 2 10 1 11 81 12 82 13 87 14
REMARK SMILES IDX 83 15 85 16 84 17 86 18 88 19 89 20 90 21 11 24 12 25 13 26
REMARK SMILES IDX 14 27 15 28 16 29 17 31 18 32 19 33 80 34 20 35 79 36 21 37
REMARK SMILES IDX 22 38 23 39 73 40 24 41 78 42 72 43 74 44 25 45 77 46 71 47
REMARK SMILES IDX 70 48 26 50 58 51 38 52 57 53 39 54 42 55 56 56 75 57 40 58
REMARK SMILES IDX 41 59 55 61 76 62 43 63 27 64 28 65 36 66 29 67 30 68 34 69
REMARK SMILES IDX 37 70 31 71 32 72 35 73 33 74 59 75 60 76 68 77 61 78 62 79
REMARK SMILES IDX 66 80 69 81 63 82 64 83 67 84 65 85 44 86 45 87 53 88 46 89
REMARK SMILES IDX 47 90 51 91 54 92 48 93 49 94 52 95 50 96
REMARK H PARENT 8 6 89 22 89 23 15 30 74 49 42 60
REMARK Flexibility Score: inf
ROOT
ATOM      1  C   UNL A   1      35.417  31.949  27.842  1.00  0.00     0.021 C 
ENDROOT
BRANCH   1   2
ATOM      2  C   UNL A   1      35.370  30.429  27.972  1.00  0.00     0.116 C 
BRANCH   2   3
ATOM      3  N   UNL A   1      33.999  29.983  28.015  1.00  0.00    -0.356 N 
ATOM      4  C   UNL A   1      33.275  29.362  27.045  1.00  0.00     0.220 C 
ATOM      5  O   UNL A   1      32.063  29.232  27.218  1.00  0.00    -0.275 OA
ATOM      6  H   UNL A   1      33.522  30.152  28.860  1.00  0.00     0.163 HD
BRANCH   4   7
ATOM      7  C   UNL A   1      33.971  28.731  25.852  1.00  0.00     0.102 C 
BRANCH   7   8
ATOM      8  C   UNL A   1      33.274  28.684  24.486  1.00  0.00     0.031 C 
BRANCH   8   9
ATOM      9  C   UNL A   1      33.669  27.680  23.387  1.00  0.00     0.117 C 
BRANCH   9  10
ATOM     10  N   UNL A   1      33.143  26.282  23.421  1.00  0.00    -0.374 N 
ATOM     11  C   UNL A   1      33.063  25.655  22.099  1.00  0.00     0.143 C 
BRANCH  10  12
ATOM     12  C   UNL A   1      33.312  25.469  24.546  1.00  0.00     0.052 A 
ATOM     13  C   UNL A   1      34.600  24.895  24.664  1.00  0.00     0.027 A 
ATOM     14  C   UNL A   1      32.371  25.118  25.558  1.00  0.00     0.098 A 
ATOM     15  C   UNL A   1      34.904  23.866  25.558  1.00  0.00     0.005 A 
ATOM     16  C   UNL A   1      32.698  24.058  26.439  1.00  0.00     0.138 A 
ATOM     17  C   UNL A   1      33.928  23.414  26.419  1.00  0.00     0.040 A 
ATOM     18  F   UNL A   1      31.807  23.595  27.334  1.00  0.00    -0.206 F 
BRANCH  14  19
ATOM     19  C   UNL A   1      31.029  25.764  25.777  1.00  0.00     0.253 C 
ATOM     20  N   UNL A   1      30.899  26.620  26.847  1.00  0.00    -0.365 N 
ATOM     21  O   UNL A   1      30.047  25.585  25.074  1.00  0.00    -0.269 OA
ATOM     22  H   UNL A   1      31.668  26.789  27.437  1.00  0.00     0.159 HD
ATOM     23  H   UNL A   1      30.037  27.062  27.022  1.00  0.00     0.159 HD
ENDBRANCH  14  19
ENDBRANCH  10  12
ENDBRANCH   9  10
ENDBRANCH   8   9
ENDBRANCH   7   8
ENDBRANCH   4   7
ENDBRANCH   2   3
ENDBRANCH   1   2
BRANCH   1  24
ATOM     24  C   UNL A   1      34.431  32.638  28.783  1.00  0.00     0.002 C 
BRANCH  24  25
ATOM     25  C   UNL A   1      34.486  34.168  28.707  1.00  0.00     0.002 C 
BRANCH  25  26
ATOM     26  C   UNL A   1      33.150  34.873  28.956  1.00  0.00     0.021 C 
BRANCH  26  27
ATOM     27  C   UNL A   1      33.271  36.273  29.546  1.00  0.00     0.116 C 
BRANCH  27  28
ATOM     28  N   UNL A   1      32.481  36.407  30.761  1.00  0.00    -0.352 N 
ATOM     29  C   UNL A   1      32.605  35.749  31.956  1.00  0.00     0.251 C 
ATOM     30  H   UNL A   1      31.753  37.067  30.719  1.00  0.00     0.163 HD
ATOM     31  O   UNL A   1      31.704  35.796  32.789  1.00  0.00    -0.269 OA
BRANCH  29  32
ATOM     32  C   UNL A   1      33.830  34.976  32.238  1.00  0.00     0.039 A 
ATOM     33  C   UNL A   1      35.066  35.623  32.195  1.00  0.00     0.014 A 
ATOM     34  C   UNL A   1      33.753  33.611  32.529  1.00  0.00     0.014 A 
ATOM     35  C   UNL A   1      36.226  34.910  32.497  1.00  0.00     0.010 A 
ATOM     36  C   UNL A   1      34.900  32.922  32.904  1.00  0.00     0.010 A 
ATOM     37  C   UNL A   1      36.149  33.561  32.883  1.00  0.00    -0.014 A 
BRANCH  37  38
ATOM     38  C   UNL A   1      37.363  32.800  33.264  1.00  0.00     0.031 A 
ATOM     39  C   UNL A   1      38.072  33.108  34.553  1.00  0.00     0.074 A 
ATOM     40  C   UNL A   1      37.861  31.880  32.417  1.00  0.00     0.049 A 
ATOM     41  N   UNL A   1      39.182  32.604  35.029  1.00  0.00    -0.248 NA
ATOM     42  C   UNL A   1      37.466  34.141  35.410  1.00  0.00     0.031 C 
ATOM     43  C   UNL A   1      37.287  31.529  31.117  1.00  0.00     0.029 A 
ATOM     44  N   UNL A   1      38.971  31.077  32.518  1.00  0.00    -0.354 N 
ATOM     45  C   UNL A   1      39.412  33.264  36.228  1.00  0.00     0.074 A 
ATOM     46  C   UNL A   1      38.360  34.245  36.382  1.00  0.00     0.031 C 
ATOM     47  C   UNL A   1      38.035  30.568  30.551  1.00  0.00     0.029 A 
ATOM     48  C   UNL A   1      39.162  30.265  31.427  1.00  0.00     0.049 A 
ATOM     49  H   UNL A   1      39.571  31.084  33.297  1.00  0.00     0.167 HD
ATOM     50  C   UNL A   1      40.399  33.054  37.131  1.00  0.00     0.037 A 
ATOM     51  C   UNL A   1      40.145  29.383  31.161  1.00  0.00     0.037 A 
ATOM     52  C   UNL A   1      41.432  32.063  36.979  1.00  0.00     0.049 A 
ATOM     53  C   UNL A   1      41.238  29.180  32.174  1.00  0.00     0.074 A 
ATOM     54  C   UNL A   1      42.446  31.731  37.861  1.00  0.00     0.029 A 
ATOM     55  N   UNL A   1      41.585  31.245  35.869  1.00  0.00    -0.354 N 
ATOM     56  N   UNL A   1      41.406  29.757  33.339  1.00  0.00    -0.248 NA
ATOM     57  C   UNL A   1      42.275  28.193  31.840  1.00  0.00     0.031 C 
ATOM     58  C   UNL A   1      43.244  30.751  37.260  1.00  0.00     0.029 A 
ATOM     59  C   UNL A   1      42.691  30.427  36.032  1.00  0.00     0.049 A 
ATOM     60  H   UNL A   1      40.995  31.247  35.080  1.00  0.00     0.167 HD
ATOM     61  C   UNL A   1      42.543  29.183  33.890  1.00  0.00     0.074 A 
ATOM     62  C   UNL A   1      43.017  28.201  32.938  1.00  0.00     0.031 C 
ATOM     63  C   UNL A   1      43.141  29.444  35.079  1.00  0.00     0.037 A 
BRANCH  50  64
ATOM     64  C   UNL A   1      40.411  33.911  38.364  1.00  0.00     0.064 A 
ATOM     65  C   UNL A   1      41.144  35.107  38.424  1.00  0.00     0.173 A 
ATOM     66  C   UNL A   1      39.648  33.555  39.486  1.00  0.00     0.173 A 
ATOM     67  F   UNL A   1      41.898  35.489  37.383  1.00  0.00    -0.203 F 
ATOM     68  C   UNL A   1      41.134  35.898  39.570  1.00  0.00     0.198 A 
ATOM     69  C   UNL A   1      39.613  34.366  40.618  1.00  0.00     0.198 A 
ATOM     70  F   UNL A   1      38.923  32.427  39.482  1.00  0.00    -0.203 F 
ATOM     71  F   UNL A   1      41.881  37.009  39.621  1.00  0.00    -0.200 F 
ATOM     72  C   UNL A   1      40.363  35.532  40.662  1.00  0.00     0.200 A 
ATOM     73  F   UNL A   1      38.856  34.018  41.668  1.00  0.00    -0.200 F 
ATOM     74  F   UNL A   1      40.346  36.299  41.760  1.00  0.00    -0.200 F 
ENDBRANCH  50  64
BRANCH  51  75
ATOM     75  C   UNL A   1      40.129  28.612  29.889  1.00  0.00     0.064 A 
ATOM     76  C   UNL A   1      39.510  27.356  29.817  1.00  0.00     0.173 A 
ATOM     77  C   UNL A   1      40.738  29.106  28.727  1.00  0.00     0.173 A 
ATOM     78  F   UNL A   1      38.929  26.831  30.906  1.00  0.00    -0.203 F 
ATOM     79  C   UNL A   1      39.525  26.612  28.639  1.00  0.00     0.198 A 
ATOM     80  C   UNL A   1      40.723  28.376  27.539  1.00  0.00     0.198 A 
ATOM     81  F   UNL A   1      41.337  30.306  28.739  1.00  0.00    -0.203 F 
ATOM     82  F   UNL A   1      38.972  25.392  28.612  1.00  0.00    -0.200 F 
ATOM     83  C   UNL A   1      40.127  27.125  27.499  1.00  0.00     0.200 A 
ATOM     84  F   UNL A   1      41.290  28.883  26.437  1.00  0.00    -0.200 F 
ATOM     85  F   UNL A   1      40.138  26.411  26.365  1.00  0.00    -0.200 F 
ENDBRANCH  51  75
BRANCH  63  86
ATOM     86  C   UNL A   1      44.345  28.623  35.442  1.00  0.00     0.064 A 
ATOM     87  C   UNL A   1      44.234  27.415  36.144  1.00  0.00     0.173 A 
ATOM     88  C   UNL A   1      45.626  29.033  35.039  1.00  0.00     0.173 A 
ATOM     89  F   UNL A   1      43.034  26.986  36.564  1.00  0.00    -0.203 F 
ATOM     90  C   UNL A   1      45.363  26.661  36.453  1.00  0.00     0.198 A 
ATOM     91  C   UNL A   1      46.748  28.260  35.320  1.00  0.00     0.198 A 
ATOM     92  F   UNL A   1      45.787  30.178  34.357  1.00  0.00    -0.203 F 
ATOM     93  F   UNL A   1      45.238  25.534  37.169  1.00  0.00    -0.200 F 
ATOM     94  C   UNL A   1      46.617  27.078  36.033  1.00  0.00     0.200 A 
ATOM     95  F   UNL A   1      47.956  28.658  34.898  1.00  0.00    -0.200 F 
ATOM     96  F   UNL A   1      47.701  26.346  36.323  1.00  0.00    -0.200 F 
ENDBRANCH  63  86
ENDBRANCH  37  38
ENDBRANCH  29  32
ENDBRANCH  27  28
ENDBRANCH  26  27
ENDBRANCH  25  26
ENDBRANCH  24  25
ENDBRANCH   1  24
TORSDOF 18
ENDMDL
