MODEL 1
REMARK VINA RESULT:     -11.4      0.000      0.000
REMARK SMILES CN(C)C(=O)c1cccc(NCc2cc(C(=O)NCCCCCCNC(=O)c3ccc(-c4c5nc(c(-c6c(F)c(F)c(F)c(F)c6F)c6ccc([nH]6)c(-c6c(F)c(F)c(F)c(F)c6F)c6nc(c(-c7c(F)c(F)c(F)c(F)c7F)c7ccc4[nH]7)C=C6)C=C5)cc3)cs2)c1
REMARK SMILES IDX 20 1 19 2 18 3 16 4 17 5 15 7 13 8 14 9 92 10 91 11 12 12
REMARK SMILES IDX 11 13 10 15 6 16 7 17 93 18 8 19 9 20 4 21 1 22 2 23 3 24
REMARK SMILES IDX 5 25 21 26 22 27 23 28 24 29 25 30 26 31 27 33 28 34 29 35
REMARK SMILES IDX 90 36 30 37 89 38 31 39 32 40 33 41 83 42 34 43 88 44 82 45
REMARK SMILES IDX 84 46 35 47 87 48 81 49 80 50 36 52 68 53 48 54 67 55 49 56
REMARK SMILES IDX 52 57 66 58 85 59 50 60 51 61 65 63 86 64 53 65 37 66 38 67
REMARK SMILES IDX 46 68 39 69 40 70 44 71 47 72 41 73 42 74 45 75 43 76 69 77
REMARK SMILES IDX 70 78 78 79 71 80 72 81 76 82 79 83 73 84 74 85 77 86 75 87
REMARK SMILES IDX 54 88 55 89 63 90 56 91 57 92 61 93 64 94 58 95 59 96 62 97
REMARK SMILES IDX 60 98
REMARK H PARENT 18 6 11 14 25 32 84 51 52 62
REMARK Flexibility Score: inf
ROOT
ATOM      1  C   UNL A   1      36.573  23.261  24.263  1.00  0.00     0.021 C 
ENDROOT
BRANCH   1   2
ATOM      2  C   UNL A   1      35.277  23.885  24.777  1.00  0.00     0.116 C 
BRANCH   2   3
ATOM      3  N   UNL A   1      34.491  24.390  23.672  1.00  0.00    -0.352 N 
ATOM      4  C   UNL A   1      33.534  25.368  23.583  1.00  0.00     0.252 C 
ATOM      5  O   UNL A   1      33.065  25.577  22.465  1.00  0.00    -0.269 OA
ATOM      6  H   UNL A   1      34.680  23.943  22.815  1.00  0.00     0.163 HD
BRANCH   4   7
ATOM      7  C   UNL A   1      33.138  26.176  24.740  1.00  0.00     0.050 A 
ATOM      8  C   UNL A   1      33.127  27.806  26.445  1.00  0.00     0.024 A 
ATOM      9  C   UNL A   1      33.904  27.043  25.591  1.00  0.00     0.031 A 
ATOM     10  S   UNL A   1      31.502  27.282  26.421  1.00  0.00    -0.146 S 
ATOM     11  C   UNL A   1      31.825  26.152  25.185  1.00  0.00     0.079 A 
BRANCH   8  12
ATOM     12  C   UNL A   1      33.583  28.992  27.253  1.00  0.00     0.159 C 
BRANCH  12  13
ATOM     13  N   UNL A   1      32.890  30.244  27.037  1.00  0.00    -0.380 N 
ATOM     14  H   UNL A   1      32.067  30.208  26.498  1.00  0.00     0.160 HD
BRANCH  13  15
ATOM     15  C   UNL A   1      33.268  31.480  27.511  1.00  0.00     0.035 A 
ATOM     16  C   UNL A   1      34.943  32.793  28.712  1.00  0.00     0.042 A 
ATOM     17  C   UNL A   1      34.135  33.928  28.634  1.00  0.00     0.014 A 
ATOM     18  C   UNL A   1      34.487  31.576  28.194  1.00  0.00     0.039 A 
ATOM     19  C   UNL A   1      32.902  33.845  27.992  1.00  0.00     0.003 A 
ATOM     20  C   UNL A   1      32.481  32.632  27.431  1.00  0.00     0.026 A 
BRANCH  16  21
ATOM     21  C   UNL A   1      36.235  32.874  29.436  1.00  0.00     0.253 C 
ATOM     22  C   UNL A   1      37.505  33.108  31.495  1.00  0.00     0.146 C 
ATOM     23  N   UNL A   1      36.253  32.795  30.830  1.00  0.00    -0.345 N 
ATOM     24  C   UNL A   1      35.154  32.328  31.663  1.00  0.00     0.146 C 
ATOM     25  O   UNL A   1      37.257  33.025  28.768  1.00  0.00    -0.269 OA
ENDBRANCH  16  21
ENDBRANCH  13  15
ENDBRANCH  12  13
ENDBRANCH   8  12
ENDBRANCH   4   7
ENDBRANCH   2   3
ENDBRANCH   1   2
BRANCH   1  26
ATOM     26  C   UNL A   1      37.213  22.298  25.273  1.00  0.00     0.002 C 
BRANCH  26  27
ATOM     27  C   UNL A   1      36.849  20.821  25.072  1.00  0.00     0.002 C 
BRANCH  27  28
ATOM     28  C   UNL A   1      38.047  19.875  24.949  1.00  0.00     0.021 C 
BRANCH  28  29
ATOM     29  C   UNL A   1      39.257  20.301  25.775  1.00  0.00     0.116 C 
BRANCH  29  30
ATOM     30  N   UNL A   1      40.195  19.203  25.955  1.00  0.00    -0.352 N 
ATOM     31  C   UNL A   1      41.557  19.241  26.120  1.00  0.00     0.251 C 
ATOM     32  H   UNL A   1      39.796  18.303  25.958  1.00  0.00     0.163 HD
ATOM     33  O   UNL A   1      42.229  18.223  26.007  1.00  0.00    -0.269 OA
BRANCH  31  34
ATOM     34  C   UNL A   1      42.213  20.529  26.422  1.00  0.00     0.039 A 
ATOM     35  C   UNL A   1      42.747  21.283  25.376  1.00  0.00     0.014 A 
ATOM     36  C   UNL A   1      42.281  20.992  27.738  1.00  0.00     0.014 A 
ATOM     37  C   UNL A   1      43.282  22.545  25.641  1.00  0.00     0.010 A 
ATOM     38  C   UNL A   1      42.748  22.277  27.992  1.00  0.00     0.010 A 
ATOM     39  C   UNL A   1      43.244  23.069  26.944  1.00  0.00    -0.014 A 
BRANCH  39  40
ATOM     40  C   UNL A   1      43.684  24.456  27.235  1.00  0.00     0.031 A 
ATOM     41  C   UNL A   1      42.694  25.478  27.710  1.00  0.00     0.074 A 
ATOM     42  C   UNL A   1      44.959  24.808  26.987  1.00  0.00     0.049 A 
ATOM     43  N   UNL A   1      42.861  26.760  27.914  1.00  0.00    -0.248 NA
ATOM     44  C   UNL A   1      41.326  25.001  27.966  1.00  0.00     0.031 C 
ATOM     45  C   UNL A   1      46.005  23.910  26.494  1.00  0.00     0.029 A 
ATOM     46  N   UNL A   1      45.591  26.022  27.099  1.00  0.00    -0.354 N 
ATOM     47  C   UNL A   1      41.623  27.242  28.315  1.00  0.00     0.074 A 
ATOM     48  C   UNL A   1      40.700  26.128  28.268  1.00  0.00     0.031 C 
ATOM     49  C   UNL A   1      47.150  24.597  26.365  1.00  0.00     0.029 A 
ATOM     50  C   UNL A   1      46.910  25.993  26.717  1.00  0.00     0.049 A 
ATOM     51  H   UNL A   1      45.141  26.836  27.423  1.00  0.00     0.167 HD
ATOM     52  C   UNL A   1      41.292  28.496  28.706  1.00  0.00     0.037 A 
ATOM     53  C   UNL A   1      47.818  26.984  26.640  1.00  0.00     0.037 A 
ATOM     54  C   UNL A   1      42.218  29.598  28.753  1.00  0.00     0.049 A 
ATOM     55  C   UNL A   1      47.408  28.383  27.020  1.00  0.00     0.074 A 
ATOM     56  C   UNL A   1      41.997  30.893  29.185  1.00  0.00     0.029 A 
ATOM     57  N   UNL A   1      43.542  29.534  28.341  1.00  0.00    -0.354 N 
ATOM     58  N   UNL A   1      46.254  28.814  27.464  1.00  0.00    -0.248 NA
ATOM     59  C   UNL A   1      48.429  29.432  26.882  1.00  0.00     0.031 C 
ATOM     60  C   UNL A   1      43.169  31.628  28.977  1.00  0.00     0.029 A 
ATOM     61  C   UNL A   1      44.138  30.779  28.471  1.00  0.00     0.049 A 
ATOM     62  H   UNL A   1      43.992  28.724  28.006  1.00  0.00     0.167 HD
ATOM     63  C   UNL A   1      46.413  30.176  27.680  1.00  0.00     0.074 A 
ATOM     64  C   UNL A   1      47.781  30.496  27.334  1.00  0.00     0.031 C 
ATOM     65  C   UNL A   1      45.504  31.081  28.122  1.00  0.00     0.037 A 
BRANCH  52  66
ATOM     66  C   UNL A   1      39.866  28.744  29.107  1.00  0.00     0.064 A 
ATOM     67  C   UNL A   1      39.437  28.591  30.436  1.00  0.00     0.173 A 
ATOM     68  C   UNL A   1      38.920  29.160  28.159  1.00  0.00     0.173 A 
ATOM     69  F   UNL A   1      40.298  28.185  31.381  1.00  0.00    -0.203 F 
ATOM     70  C   UNL A   1      38.109  28.810  30.791  1.00  0.00     0.198 A 
ATOM     71  C   UNL A   1      37.599  29.412  28.524  1.00  0.00     0.198 A 
ATOM     72  F   UNL A   1      39.276  29.329  26.876  1.00  0.00    -0.203 F 
ATOM     73  F   UNL A   1      37.711  28.601  32.053  1.00  0.00    -0.200 F 
ATOM     74  C   UNL A   1      37.193  29.226  29.836  1.00  0.00     0.200 A 
ATOM     75  F   UNL A   1      36.720  29.830  27.604  1.00  0.00    -0.200 F 
ATOM     76  F   UNL A   1      35.915  29.440  30.180  1.00  0.00    -0.200 F 
ENDBRANCH  52  66
BRANCH  53  77
ATOM     77  C   UNL A   1      49.204  26.689  26.193  1.00  0.00     0.064 A 
ATOM     78  C   UNL A   1      50.168  26.229  27.102  1.00  0.00     0.173 A 
ATOM     79  C   UNL A   1      49.595  26.857  24.857  1.00  0.00     0.173 A 
ATOM     80  F   UNL A   1      49.847  26.073  28.395  1.00  0.00    -0.203 F 
ATOM     81  C   UNL A   1      51.473  25.964  26.695  1.00  0.00     0.198 A 
ATOM     82  C   UNL A   1      50.893  26.563  24.444  1.00  0.00     0.198 A 
ATOM     83  F   UNL A   1      48.712  27.290  23.946  1.00  0.00    -0.203 F 
ATOM     84  F   UNL A   1      52.385  25.568  27.592  1.00  0.00    -0.200 F 
ATOM     85  C   UNL A   1      51.834  26.125  25.365  1.00  0.00     0.200 A 
ATOM     86  F   UNL A   1      51.233  26.703  23.156  1.00  0.00    -0.200 F 
ATOM     87  F   UNL A   1      53.088  25.862  24.972  1.00  0.00    -0.200 F 
ENDBRANCH  53  77
BRANCH  65  88
ATOM     88  C   UNL A   1      45.963  32.502  28.275  1.00  0.00     0.064 A 
ATOM     89  C   UNL A   1      46.539  32.963  29.468  1.00  0.00     0.173 A 
ATOM     90  C   UNL A   1      45.878  33.398  27.197  1.00  0.00     0.173 A 
ATOM     91  F   UNL A   1      46.625  32.152  30.533  1.00  0.00    -0.203 F 
ATOM     92  C   UNL A   1      47.001  34.272  29.581  1.00  0.00     0.198 A 
ATOM     93  C   UNL A   1      46.371  34.696  27.304  1.00  0.00     0.198 A 
ATOM     94  F   UNL A   1      45.340  33.006  26.033  1.00  0.00    -0.203 F 
ATOM     95  F   UNL A   1      47.512  34.703  30.743  1.00  0.00    -0.200 F 
ATOM     96  C   UNL A   1      46.927  35.133  28.496  1.00  0.00     0.200 A 
ATOM     97  F   UNL A   1      46.312  35.521  26.250  1.00  0.00    -0.200 F 
ATOM     98  F   UNL A   1      47.387  36.387  28.601  1.00  0.00    -0.200 F 
ENDBRANCH  65  88
ENDBRANCH  39  40
ENDBRANCH  31  34
ENDBRANCH  29  30
ENDBRANCH  28  29
ENDBRANCH  27  28
ENDBRANCH  26  27
ENDBRANCH   1  26
TORSDOF 17
ENDMDL
MODEL 2
REMARK VINA RESULT:     -11.2      5.387     11.533
REMARK SMILES CN(C)C(=O)c1cccc(NCc2cc(C(=O)NCCCCCCNC(=O)c3ccc(-c4c5nc(c(-c6c(F)c(F)c(F)c(F)c6F)c6ccc([nH]6)c(-c6c(F)c(F)c(F)c(F)c6F)c6nc(c(-c7c(F)c(F)c(F)c(F)c7F)c7ccc4[nH]7)C=C6)C=C5)cc3)cs2)c1
REMARK SMILES IDX 20 1 19 2 18 3 16 4 17 5 15 7 13 8 14 9 92 10 91 11 12 12
REMARK SMILES IDX 11 13 10 15 6 16 7 17 93 18 8 19 9 20 4 21 1 22 2 23 3 24
REMARK SMILES IDX 5 25 21 26 22 27 23 28 24 29 25 30 26 31 27 33 28 34 29 35
REMARK SMILES IDX 90 36 30 37 89 38 31 39 32 40 33 41 83 42 34 43 88 44 82 45
REMARK SMILES IDX 84 46 35 47 87 48 81 49 80 50 36 52 68 53 48 54 67 55 49 56
REMARK SMILES IDX 52 57 66 58 85 59 50 60 51 61 65 63 86 64 53 65 37 66 38 67
REMARK SMILES IDX 46 68 39 69 40 70 44 71 47 72 41 73 42 74 45 75 43 76 69 77
REMARK SMILES IDX 70 78 78 79 71 80 72 81 76 82 79 83 73 84 74 85 77 86 75 87
REMARK SMILES IDX 54 88 55 89 63 90 56 91 57 92 61 93 64 94 58 95 59 96 62 97
REMARK SMILES IDX 60 98
REMARK H PARENT 18 6 11 14 25 32 84 51 52 62
REMARK Flexibility Score: inf
ROOT
ATOM      1  C   UNL A   1      33.374  28.525  27.543  1.00  0.00     0.021 C 
ENDROOT
BRANCH   1   2
ATOM      2  C   UNL A   1      31.956  28.131  27.132  1.00  0.00     0.116 C 
BRANCH   2   3
ATOM      3  N   UNL A   1      31.478  29.004  26.082  1.00  0.00    -0.352 N 
ATOM      4  C   UNL A   1      31.262  28.814  24.741  1.00  0.00     0.252 C 
ATOM      5  O   UNL A   1      30.815  29.774  24.114  1.00  0.00    -0.269 OA
ATOM      6  H   UNL A   1      31.266  29.915  26.390  1.00  0.00     0.163 HD
BRANCH   4   7
ATOM      7  C   UNL A   1      31.480  27.516  24.095  1.00  0.00     0.050 A 
ATOM      8  C   UNL A   1      31.286  25.244  23.494  1.00  0.00     0.024 A 
ATOM      9  C   UNL A   1      31.083  26.192  24.481  1.00  0.00     0.031 A 
ATOM     10  S   UNL A   1      32.208  25.890  22.211  1.00  0.00    -0.146 S 
ATOM     11  C   UNL A   1      32.205  27.443  22.915  1.00  0.00     0.079 A 
BRANCH   8  12
ATOM     12  C   UNL A   1      30.733  23.844  23.468  1.00  0.00     0.159 C 
BRANCH  12  13
ATOM     13  N   UNL A   1      31.601  22.783  23.931  1.00  0.00    -0.380 N 
ATOM     14  H   UNL A   1      31.635  21.966  23.382  1.00  0.00     0.160 HD
BRANCH  13  15
ATOM     15  C   UNL A   1      32.385  22.801  25.063  1.00  0.00     0.035 A 
ATOM     16  C   UNL A   1      34.642  22.882  25.995  1.00  0.00     0.042 A 
ATOM     17  C   UNL A   1      34.133  22.743  27.286  1.00  0.00     0.014 A 
ATOM     18  C   UNL A   1      33.774  22.863  24.898  1.00  0.00     0.039 A 
ATOM     19  C   UNL A   1      32.756  22.641  27.470  1.00  0.00     0.003 A 
ATOM     20  C   UNL A   1      31.894  22.678  26.367  1.00  0.00     0.026 A 
BRANCH  16  21
ATOM     21  C   UNL A   1      36.111  22.944  25.800  1.00  0.00     0.253 C 
ATOM     22  C   UNL A   1      38.273  21.855  25.580  1.00  0.00     0.146 C 
ATOM     23  N   UNL A   1      36.825  21.773  25.534  1.00  0.00    -0.345 N 
ATOM     24  C   UNL A   1      36.241  20.506  25.117  1.00  0.00     0.146 C 
ATOM     25  O   UNL A   1      36.655  24.044  25.896  1.00  0.00    -0.269 OA
ENDBRANCH  16  21
ENDBRANCH  13  15
ENDBRANCH  12  13
ENDBRANCH   8  12
ENDBRANCH   4   7
ENDBRANCH   2   3
ENDBRANCH   1   2
BRANCH   1  26
ATOM     26  C   UNL A   1      33.879  29.779  26.816  1.00  0.00     0.002 C 
BRANCH  26  27
ATOM     27  C   UNL A   1      34.450  30.868  27.735  1.00  0.00     0.002 C 
BRANCH  27  28
ATOM     28  C   UNL A   1      34.077  32.300  27.343  1.00  0.00     0.021 C 
BRANCH  28  29
ATOM     29  C   UNL A   1      32.631  32.669  27.657  1.00  0.00     0.116 C 
BRANCH  29  30
ATOM     30  N   UNL A   1      32.465  34.108  27.803  1.00  0.00    -0.352 N 
ATOM     31  C   UNL A   1      33.064  34.966  28.691  1.00  0.00     0.251 C 
ATOM     32  H   UNL A   1      31.833  34.526  27.175  1.00  0.00     0.163 HD
ATOM     33  O   UNL A   1      32.633  36.101  28.851  1.00  0.00    -0.269 OA
BRANCH  31  34
ATOM     34  C   UNL A   1      34.231  34.503  29.469  1.00  0.00     0.039 A 
ATOM     35  C   UNL A   1      34.024  33.862  30.691  1.00  0.00     0.014 A 
ATOM     36  C   UNL A   1      35.524  34.692  28.976  1.00  0.00     0.014 A 
ATOM     37  C   UNL A   1      35.115  33.336  31.386  1.00  0.00     0.010 A 
ATOM     38  C   UNL A   1      36.602  34.106  29.631  1.00  0.00     0.010 A 
ATOM     39  C   UNL A   1      36.406  33.415  30.837  1.00  0.00    -0.014 A 
BRANCH  39  40
ATOM     40  C   UNL A   1      37.565  32.753  31.485  1.00  0.00     0.031 A 
ATOM     41  C   UNL A   1      38.212  31.563  30.841  1.00  0.00     0.074 A 
ATOM     42  C   UNL A   1      37.973  33.177  32.696  1.00  0.00     0.049 A 
ATOM     43  N   UNL A   1      39.161  30.788  31.300  1.00  0.00    -0.248 NA
ATOM     44  C   UNL A   1      37.709  31.178  29.513  1.00  0.00     0.031 C 
ATOM     45  C   UNL A   1      37.401  34.303  33.436  1.00  0.00     0.029 A 
ATOM     46  N   UNL A   1      38.956  32.699  33.528  1.00  0.00    -0.354 N 
ATOM     47  C   UNL A   1      39.363  29.822  30.323  1.00  0.00     0.074 A 
ATOM     48  C   UNL A   1      38.399  30.073  29.274  1.00  0.00     0.031 C 
ATOM     49  C   UNL A   1      38.054  34.442  34.600  1.00  0.00     0.029 A 
ATOM     50  C   UNL A   1      39.055  33.386  34.712  1.00  0.00     0.049 A 
ATOM     51  H   UNL A   1      39.534  31.937  33.296  1.00  0.00     0.167 HD
ATOM     52  C   UNL A   1      40.284  28.829  30.296  1.00  0.00     0.037 A 
ATOM     53  C   UNL A   1      39.851  33.176  35.778  1.00  0.00     0.037 A 
ATOM     54  C   UNL A   1      41.243  28.589  31.344  1.00  0.00     0.049 A 
ATOM     55  C   UNL A   1      40.823  32.027  35.751  1.00  0.00     0.074 A 
ATOM     56  C   UNL A   1      42.252  27.644  31.389  1.00  0.00     0.029 A 
ATOM     57  N   UNL A   1      41.302  29.294  32.538  1.00  0.00    -0.354 N 
ATOM     58  N   UNL A   1      41.054  31.162  34.794  1.00  0.00    -0.248 NA
ATOM     59  C   UNL A   1      41.640  31.822  36.955  1.00  0.00     0.031 C 
ATOM     60  C   UNL A   1      42.882  27.738  32.635  1.00  0.00     0.029 A 
ATOM     61  C   UNL A   1      42.305  28.779  33.343  1.00  0.00     0.049 A 
ATOM     62  H   UNL A   1      40.717  30.050  32.777  1.00  0.00     0.167 HD
ATOM     63  C   UNL A   1      42.056  30.327  35.268  1.00  0.00     0.074 A 
ATOM     64  C   UNL A   1      42.401  30.799  36.592  1.00  0.00     0.031 C 
ATOM     65  C   UNL A   1      42.636  29.261  34.661  1.00  0.00     0.037 A 
BRANCH  52  66
ATOM     66  C   UNL A   1      40.294  27.924  29.098  1.00  0.00     0.064 A 
ATOM     67  C   UNL A   1      41.036  28.232  27.947  1.00  0.00     0.173 A 
ATOM     68  C   UNL A   1      39.570  26.722  29.107  1.00  0.00     0.173 A 
ATOM     69  F   UNL A   1      41.738  29.373  27.882  1.00  0.00    -0.203 F 
ATOM     70  C   UNL A   1      41.023  27.390  26.838  1.00  0.00     0.198 A 
ATOM     71  C   UNL A   1      39.587  25.865  28.008  1.00  0.00     0.198 A 
ATOM     72  F   UNL A   1      38.848  26.374  30.183  1.00  0.00    -0.203 F 
ATOM     73  F   UNL A   1      41.693  27.736  25.730  1.00  0.00    -0.200 F 
ATOM     74  C   UNL A   1      40.304  26.205  26.872  1.00  0.00     0.200 A 
ATOM     75  F   UNL A   1      38.905  24.713  28.049  1.00  0.00    -0.200 F 
ATOM     76  F   UNL A   1      40.296  25.394  25.805  1.00  0.00    -0.200 F 
ENDBRANCH  52  66
BRANCH  53  77
ATOM     77  C   UNL A   1      39.768  34.078  36.957  1.00  0.00     0.064 A 
ATOM     78  C   UNL A   1      40.490  35.280  36.992  1.00  0.00     0.173 A 
ATOM     79  C   UNL A   1      38.970  33.763  38.067  1.00  0.00     0.173 A 
ATOM     80  F   UNL A   1      41.283  35.614  35.964  1.00  0.00    -0.203 F 
ATOM     81  C   UNL A   1      40.430  36.124  38.099  1.00  0.00     0.198 A 
ATOM     82  C   UNL A   1      38.886  34.623  39.160  1.00  0.00     0.198 A 
ATOM     83  F   UNL A   1      38.255  32.629  38.082  1.00  0.00    -0.203 F 
ATOM     84  F   UNL A   1      41.163  37.244  38.125  1.00  0.00    -0.200 F 
ATOM     85  C   UNL A   1      39.623  35.798  39.179  1.00  0.00     0.200 A 
ATOM     86  F   UNL A   1      38.093  34.313  40.194  1.00  0.00    -0.200 F 
ATOM     87  F   UNL A   1      39.559  36.614  40.240  1.00  0.00    -0.200 F 
ENDBRANCH  53  77
BRANCH  65  88
ATOM     88  C   UNL A   1      43.717  28.541  35.414  1.00  0.00     0.064 A 
ATOM     89  C   UNL A   1      45.069  28.887  35.269  1.00  0.00     0.173 A 
ATOM     90  C   UNL A   1      43.392  27.533  36.336  1.00  0.00     0.173 A 
ATOM     91  F   UNL A   1      45.432  29.830  34.387  1.00  0.00    -0.203 F 
ATOM     92  C   UNL A   1      46.056  28.240  36.007  1.00  0.00     0.198 A 
ATOM     93  C   UNL A   1      44.379  26.911  37.096  1.00  0.00     0.198 A 
ATOM     94  F   UNL A   1      42.115  27.168  36.516  1.00  0.00    -0.203 F 
ATOM     95  F   UNL A   1      47.345  28.559  35.822  1.00  0.00    -0.200 F 
ATOM     96  C   UNL A   1      45.710  27.261  36.927  1.00  0.00     0.200 A 
ATOM     97  F   UNL A   1      44.041  25.978  37.995  1.00  0.00    -0.200 F 
ATOM     98  F   UNL A   1      46.660  26.652  37.649  1.00  0.00    -0.200 F 
ENDBRANCH  65  88
ENDBRANCH  39  40
ENDBRANCH  31  34
ENDBRANCH  29  30
ENDBRANCH  28  29
ENDBRANCH  27  28
ENDBRANCH  26  27
ENDBRANCH   1  26
TORSDOF 17
ENDMDL
MODEL 3
REMARK VINA RESULT:     -11.2      0.840      2.122
REMARK SMILES CN(C)C(=O)c1cccc(NCc2cc(C(=O)NCCCCCCNC(=O)c3ccc(-c4c5nc(c(-c6c(F)c(F)c(F)c(F)c6F)c6ccc([nH]6)c(-c6c(F)c(F)c(F)c(F)c6F)c6nc(c(-c7c(F)c(F)c(F)c(F)c7F)c7ccc4[nH]7)C=C6)C=C5)cc3)cs2)c1
REMARK SMILES IDX 20 1 19 2 18 3 16 4 17 5 15 7 13 8 14 9 92 10 91 11 12 12
REMARK SMILES IDX 11 13 10 15 6 16 7 17 93 18 8 19 9 20 4 21 1 22 2 23 3 24
REMARK SMILES IDX 5 25 21 26 22 27 23 28 24 29 25 30 26 31 27 33 28 34 29 35
REMARK SMILES IDX 90 36 30 37 89 38 31 39 32 40 33 41 83 42 34 43 88 44 82 45
REMARK SMILES IDX 84 46 35 47 87 48 81 49 80 50 36 52 68 53 48 54 67 55 49 56
REMARK SMILES IDX 52 57 66 58 85 59 50 60 51 61 65 63 86 64 53 65 37 66 38 67
REMARK SMILES IDX 46 68 39 69 40 70 44 71 47 72 41 73 42 74 45 75 43 76 69 77
REMARK SMILES IDX 70 78 78 79 71 80 72 81 76 82 79 83 73 84 74 85 77 86 75 87
REMARK SMILES IDX 54 88 55 89 63 90 56 91 57 92 61 93 64 94 58 95 59 96 62 97
REMARK SMILES IDX 60 98
REMARK H PARENT 18 6 11 14 25 32 84 51 52 62
REMARK Flexibility Score: inf
ROOT
ATOM      1  C   UNL A   1      35.930  23.561  24.568  1.00  0.00     0.021 C 
ENDROOT
BRANCH   1   2
ATOM      2  C   UNL A   1      34.917  24.443  25.296  1.00  0.00     0.116 C 
BRANCH   2   3
ATOM      3  N   UNL A   1      33.866  24.853  24.389  1.00  0.00    -0.352 N 
ATOM      4  C   UNL A   1      32.969  25.889  24.414  1.00  0.00     0.252 C 
ATOM      5  O   UNL A   1      32.203  25.977  23.455  1.00  0.00    -0.269 OA
ATOM      6  H   UNL A   1      33.777  24.273  23.599  1.00  0.00     0.163 HD
BRANCH   4   7
ATOM      7  C   UNL A   1      32.963  26.886  25.489  1.00  0.00     0.050 A 
ATOM      8  C   UNL A   1      33.589  28.660  26.913  1.00  0.00     0.024 A 
ATOM      9  C   UNL A   1      34.028  27.658  26.065  1.00  0.00     0.031 A 
ATOM     10  S   UNL A   1      31.920  28.496  27.235  1.00  0.00    -0.146 S 
ATOM     11  C   UNL A   1      31.779  27.193  26.143  1.00  0.00     0.079 A 
BRANCH   8  12
ATOM     12  C   UNL A   1      34.408  29.802  27.451  1.00  0.00     0.159 C 
BRANCH  12  13
ATOM     13  N   UNL A   1      33.951  31.141  27.149  1.00  0.00    -0.380 N 
ATOM     14  H   UNL A   1      33.579  31.291  26.251  1.00  0.00     0.160 HD
BRANCH  13  15
ATOM     15  C   UNL A   1      33.986  32.228  27.995  1.00  0.00     0.035 A 
ATOM     16  C   UNL A   1      34.460  33.065  30.242  1.00  0.00     0.042 A 
ATOM     17  C   UNL A   1      34.012  34.336  29.881  1.00  0.00     0.014 A 
ATOM     18  C   UNL A   1      34.400  32.017  29.317  1.00  0.00     0.039 A 
ATOM     19  C   UNL A   1      33.560  34.558  28.583  1.00  0.00     0.003 A 
ATOM     20  C   UNL A   1      33.556  33.512  27.651  1.00  0.00     0.026 A 
BRANCH  16  21
ATOM     21  C   UNL A   1      34.897  32.821  31.638  1.00  0.00     0.253 C 
ATOM     22  C   UNL A   1      36.620  32.253  33.255  1.00  0.00     0.146 C 
ATOM     23  N   UNL A   1      36.259  32.717  31.929  1.00  0.00    -0.345 N 
ATOM     24  C   UNL A   1      37.343  33.132  31.049  1.00  0.00     0.146 C 
ATOM     25  O   UNL A   1      34.025  32.702  32.498  1.00  0.00    -0.269 OA
ENDBRANCH  16  21
ENDBRANCH  13  15
ENDBRANCH  12  13
ENDBRANCH   8  12
ENDBRANCH   4   7
ENDBRANCH   2   3
ENDBRANCH   1   2
BRANCH   1  26
ATOM     26  C   UNL A   1      36.743  22.674  25.522  1.00  0.00     0.002 C 
BRANCH  26  27
ATOM     27  C   UNL A   1      36.546  21.165  25.320  1.00  0.00     0.002 C 
BRANCH  27  28
ATOM     28  C   UNL A   1      37.824  20.392  24.981  1.00  0.00     0.021 C 
BRANCH  28  29
ATOM     29  C   UNL A   1      38.992  20.691  25.915  1.00  0.00     0.116 C 
BRANCH  29  30
ATOM     30  N   UNL A   1      39.898  19.555  26.020  1.00  0.00    -0.352 N 
ATOM     31  C   UNL A   1      41.267  19.541  26.109  1.00  0.00     0.251 C 
ATOM     32  H   UNL A   1      39.466  18.670  26.027  1.00  0.00     0.163 HD
ATOM     33  O   UNL A   1      41.894  18.502  25.938  1.00  0.00    -0.269 OA
BRANCH  31  34
ATOM     34  C   UNL A   1      41.985  20.797  26.401  1.00  0.00     0.039 A 
ATOM     35  C   UNL A   1      42.349  21.635  25.345  1.00  0.00     0.014 A 
ATOM     36  C   UNL A   1      42.283  21.148  27.720  1.00  0.00     0.014 A 
ATOM     37  C   UNL A   1      42.942  22.869  25.619  1.00  0.00     0.010 A 
ATOM     38  C   UNL A   1      42.807  22.405  27.996  1.00  0.00     0.010 A 
ATOM     39  C   UNL A   1      43.132  23.281  26.948  1.00  0.00    -0.014 A 
BRANCH  39  40
ATOM     40  C   UNL A   1      43.639  24.638  27.273  1.00  0.00     0.031 A 
ATOM     41  C   UNL A   1      42.712  25.675  27.835  1.00  0.00     0.074 A 
ATOM     42  C   UNL A   1      44.914  24.954  26.979  1.00  0.00     0.049 A 
ATOM     43  N   UNL A   1      42.937  26.940  28.082  1.00  0.00    -0.248 NA
ATOM     44  C   UNL A   1      41.340  25.238  28.136  1.00  0.00     0.031 C 
ATOM     45  C   UNL A   1      45.901  24.040  26.401  1.00  0.00     0.029 A 
ATOM     46  N   UNL A   1      45.597  26.138  27.109  1.00  0.00    -0.354 N 
ATOM     47  C   UNL A   1      41.738  27.450  28.560  1.00  0.00     0.074 A 
ATOM     48  C   UNL A   1      40.772  26.373  28.513  1.00  0.00     0.031 C 
ATOM     49  C   UNL A   1      47.064  24.689  26.246  1.00  0.00     0.029 A 
ATOM     50  C   UNL A   1      46.894  26.076  26.664  1.00  0.00     0.049 A 
ATOM     51  H   UNL A   1      45.194  26.953  27.487  1.00  0.00     0.167 HD
ATOM     52  C   UNL A   1      41.474  28.698  29.017  1.00  0.00     0.037 A 
ATOM     53  C   UNL A   1      47.835  27.036  26.584  1.00  0.00     0.037 A 
ATOM     54  C   UNL A   1      42.444  29.762  29.064  1.00  0.00     0.049 A 
ATOM     55  C   UNL A   1      47.498  28.432  27.039  1.00  0.00     0.074 A 
ATOM     56  C   UNL A   1      42.292  31.045  29.558  1.00  0.00     0.029 A 
ATOM     57  N   UNL A   1      43.744  29.667  28.588  1.00  0.00    -0.354 N 
ATOM     58  N   UNL A   1      46.382  28.886  27.554  1.00  0.00    -0.248 NA
ATOM     59  C   UNL A   1      48.550  29.447  26.895  1.00  0.00     0.031 C 
ATOM     60  C   UNL A   1      43.481  31.745  29.325  1.00  0.00     0.029 A 
ATOM     61  C   UNL A   1      44.392  30.883  28.739  1.00  0.00     0.049 A 
ATOM     62  H   UNL A   1      44.146  28.856  28.199  1.00  0.00     0.167 HD
ATOM     63  C   UNL A   1      46.603  30.231  27.817  1.00  0.00     0.074 A 
ATOM     64  C   UNL A   1      47.966  30.515  27.420  1.00  0.00     0.031 C 
ATOM     65  C   UNL A   1      45.752  31.149  28.338  1.00  0.00     0.037 A 
BRANCH  52  66
ATOM     66  C   UNL A   1      40.079  28.980  29.496  1.00  0.00     0.064 A 
ATOM     67  C   UNL A   1      39.084  29.457  28.627  1.00  0.00     0.173 A 
ATOM     68  C   UNL A   1      39.724  28.752  30.834  1.00  0.00     0.173 A 
ATOM     69  F   UNL A   1      39.372  29.702  27.340  1.00  0.00    -0.203 F 
ATOM     70  C   UNL A   1      37.799  29.728  29.088  1.00  0.00     0.198 A 
ATOM     71  C   UNL A   1      38.427  28.991  31.284  1.00  0.00     0.198 A 
ATOM     72  F   UNL A   1      40.633  28.290  31.706  1.00  0.00    -0.203 F 
ATOM     73  F   UNL A   1      36.883  30.238  28.252  1.00  0.00    -0.200 F 
ATOM     74  C   UNL A   1      37.470  29.490  30.413  1.00  0.00     0.200 A 
ATOM     75  F   UNL A   1      38.107  28.745  32.561  1.00  0.00    -0.200 F 
ATOM     76  F   UNL A   1      36.231  29.748  30.855  1.00  0.00    -0.200 F 
ENDBRANCH  52  66
BRANCH  53  77
ATOM     77  C   UNL A   1      49.187  26.710  26.060  1.00  0.00     0.064 A 
ATOM     78  C   UNL A   1      49.505  26.927  24.712  1.00  0.00     0.173 A 
ATOM     79  C   UNL A   1      50.187  26.180  26.889  1.00  0.00     0.173 A 
ATOM     80  F   UNL A   1      48.576  27.413  23.876  1.00  0.00    -0.203 F 
ATOM     81  C   UNL A   1      50.765  26.610  24.209  1.00  0.00     0.198 A 
ATOM     82  C   UNL A   1      51.456  25.892  26.392  1.00  0.00     0.198 A 
ATOM     83  F   UNL A   1      49.937  25.957  28.188  1.00  0.00    -0.203 F 
ATOM     84  F   UNL A   1      51.028  26.787  22.908  1.00  0.00    -0.200 F 
ATOM     85  C   UNL A   1      51.742  26.099  25.051  1.00  0.00     0.200 A 
ATOM     86  F   UNL A   1      52.402  25.415  27.212  1.00  0.00    -0.200 F 
ATOM     87  F   UNL A   1      52.956  25.802  24.569  1.00  0.00    -0.200 F 
ENDBRANCH  53  77
BRANCH  65  88
ATOM     88  C   UNL A   1      46.271  32.545  28.526  1.00  0.00     0.064 A 
ATOM     89  C   UNL A   1      46.025  33.554  27.582  1.00  0.00     0.173 A 
ATOM     90  C   UNL A   1      46.971  32.893  29.692  1.00  0.00     0.173 A 
ATOM     91  F   UNL A   1      45.377  33.268  26.443  1.00  0.00    -0.203 F 
ATOM     92  C   UNL A   1      46.474  34.854  27.792  1.00  0.00     0.198 A 
ATOM     93  C   UNL A   1      47.391  34.202  29.913  1.00  0.00     0.198 A 
ATOM     94  F   UNL A   1      47.228  31.968  30.628  1.00  0.00    -0.203 F 
ATOM     95  F   UNL A   1      46.263  35.793  26.858  1.00  0.00    -0.200 F 
ATOM     96  C   UNL A   1      47.146  35.180  28.961  1.00  0.00     0.200 A 
ATOM     97  F   UNL A   1      48.026  34.518  31.049  1.00  0.00    -0.200 F 
ATOM     98  F   UNL A   1      47.563  36.437  29.168  1.00  0.00    -0.200 F 
ENDBRANCH  65  88
ENDBRANCH  39  40
ENDBRANCH  31  34
ENDBRANCH  29  30
ENDBRANCH  28  29
ENDBRANCH  27  28
ENDBRANCH  26  27
ENDBRANCH   1  26
TORSDOF 17
ENDMDL
