MODEL 1
REMARK VINA RESULT:     -12.7      0.000      0.000
REMARK SMILES CCn1c(N2CCC[C@H](C(=O)NCCCCCCNC(=O)c3ccc(-c4c5nc(c(-c6c(F)c(F)c(F)c(F)c6F)c6ccc([nH]6)c(-c6c(F)c(F)c(F)c(F)c6F)c6nc(c(-c7c(F)c(F)c(F)c(F)c7F)c7ccc4[nH]7)C=C6)C=C5)cc3)C2)nc2cc(C)ccc21
REMARK SMILES IDX 15 1 14 2 13 3 12 4 10 5 11 6 9 8 5 9 6 10 85 11 7 12 8 13
REMARK SMILES IDX 4 14 3 15 93 16 86 17 87 18 92 19 88 20 91 21 89 22 90 23
REMARK SMILES IDX 2 24 1 25 16 26 17 27 18 28 19 29 20 30 21 32 22 33 23 34
REMARK SMILES IDX 84 35 24 36 83 37 25 38 26 39 27 40 77 41 28 42 82 43 76 44
REMARK SMILES IDX 78 45 29 46 81 47 75 48 74 49 30 51 62 52 42 53 61 54 43 55
REMARK SMILES IDX 46 56 60 57 79 58 44 59 45 60 59 62 80 63 47 64 31 65 32 66
REMARK SMILES IDX 40 67 33 68 34 69 38 70 41 71 35 72 36 73 39 74 37 75 63 76
REMARK SMILES IDX 64 77 72 78 65 79 66 80 70 81 73 82 67 83 68 84 71 85 69 86
REMARK SMILES IDX 48 87 49 88 57 89 50 90 51 91 55 92 58 93 52 94 53 95 56 96
REMARK SMILES IDX 54 97
REMARK H PARENT 12 7 19 31 78 50 46 61
REMARK Flexibility Score: inf
ROOT
ATOM      1  C   UNL A   1      40.015  22.014  26.911  1.00  0.00     0.002 C 
ENDROOT
BRANCH   1   2
ATOM      2  C   UNL A   1      38.930  21.621  25.910  1.00  0.00     0.021 C 
BRANCH   2   3
ATOM      3  C   UNL A   1      37.882  22.704  25.670  1.00  0.00     0.116 C 
BRANCH   3   4
ATOM      4  N   UNL A   1      36.672  22.562  26.444  1.00  0.00    -0.356 N 
ATOM      5  C   UNL A   1      35.497  21.986  26.077  1.00  0.00     0.224 C 
ATOM      6  O   UNL A   1      34.766  21.590  26.994  1.00  0.00    -0.275 OA
ATOM      7  H   UNL A   1      36.701  22.931  27.356  1.00  0.00     0.163 HD
BRANCH   5   8
ATOM      8  C   UNL A   1      35.020  21.837  24.625  1.00  0.00     0.098 C 
ATOM      9  N   UNL A   1      33.502  23.655  23.819  1.00  0.00    -0.341 N 
ATOM     10  C   UNL A   1      32.399  22.744  23.533  1.00  0.00     0.119 C 
ATOM     11  C   UNL A   1      34.865  23.135  23.840  1.00  0.00     0.133 C 
ATOM     12  C   UNL A   1      32.498  21.402  24.266  1.00  0.00     0.022 C 
ATOM     13  C   UNL A   1      33.903  20.822  24.391  1.00  0.00     0.017 C 
BRANCH   9  14
ATOM     14  C   UNL A   1      33.260  24.932  24.223  1.00  0.00     0.206 A 
ATOM     15  N   UNL A   1      33.228  26.006  23.353  1.00  0.00    -0.310 N 
ATOM     16  C   UNL A   1      33.149  27.164  24.099  1.00  0.00     0.070 A 
ATOM     17  N   UNL A   1      33.093  25.345  25.461  1.00  0.00    -0.213 NA
ATOM     18  C   UNL A   1      33.116  26.716  25.412  1.00  0.00     0.091 A 
ATOM     19  C   UNL A   1      33.119  28.526  23.770  1.00  0.00     0.029 A 
ATOM     20  C   UNL A   1      33.127  27.655  26.455  1.00  0.00     0.034 A 
ATOM     21  C   UNL A   1      33.122  29.447  24.828  1.00  0.00     0.006 A 
ATOM     22  C   UNL A   1      33.141  29.029  26.163  1.00  0.00    -0.049 A 
ATOM     23  C   UNL A   1      33.223  30.019  27.289  1.00  0.00     0.044 C 
BRANCH  15  24
ATOM     24  C   UNL A   1      33.195  25.951  21.905  1.00  0.00     0.122 C 
ATOM     25  C   UNL A   1      31.789  26.034  21.332  1.00  0.00     0.028 C 
ENDBRANCH  15  24
ENDBRANCH   9  14
ENDBRANCH   5   8
ENDBRANCH   3   4
ENDBRANCH   2   3
ENDBRANCH   1   2
BRANCH   1  26
ATOM     26  C   UNL A   1      41.034  20.918  27.254  1.00  0.00     0.002 C 
BRANCH  26  27
ATOM     27  C   UNL A   1      41.248  19.821  26.201  1.00  0.00     0.021 C 
BRANCH  27  28
ATOM     28  C   UNL A   1      42.610  19.137  26.243  1.00  0.00     0.116 C 
BRANCH  28  29
ATOM     29  N   UNL A   1      43.502  19.564  25.183  1.00  0.00    -0.352 N 
ATOM     30  C   UNL A   1      44.129  20.723  24.836  1.00  0.00     0.251 C 
ATOM     31  H   UNL A   1      43.705  18.834  24.556  1.00  0.00     0.163 HD
ATOM     32  O   UNL A   1      44.849  20.659  23.829  1.00  0.00    -0.269 OA
BRANCH  30  33
ATOM     33  C   UNL A   1      43.990  22.039  25.516  1.00  0.00     0.039 A 
ATOM     34  C   UNL A   1      44.637  22.434  26.686  1.00  0.00     0.014 A 
ATOM     35  C   UNL A   1      43.094  22.945  24.910  1.00  0.00     0.014 A 
ATOM     36  C   UNL A   1      44.332  23.662  27.276  1.00  0.00     0.010 A 
ATOM     37  C   UNL A   1      42.799  24.177  25.484  1.00  0.00     0.010 A 
ATOM     38  C   UNL A   1      43.390  24.520  26.691  1.00  0.00    -0.014 A 
BRANCH  38  39
ATOM     39  C   UNL A   1      43.163  25.826  27.310  1.00  0.00     0.031 A 
ATOM     40  C   UNL A   1      44.181  26.853  26.949  1.00  0.00     0.074 A 
ATOM     41  C   UNL A   1      42.089  26.141  28.067  1.00  0.00     0.049 A 
ATOM     42  N   UNL A   1      45.024  27.441  27.734  1.00  0.00    -0.248 NA
ATOM     43  C   UNL A   1      44.368  27.174  25.526  1.00  0.00     0.031 C 
ATOM     44  C   UNL A   1      40.880  25.343  28.292  1.00  0.00     0.029 A 
ATOM     45  N   UNL A   1      41.822  27.295  28.750  1.00  0.00    -0.354 N 
ATOM     46  C   UNL A   1      45.746  28.327  26.935  1.00  0.00     0.074 A 
ATOM     47  C   UNL A   1      45.391  28.029  25.573  1.00  0.00     0.031 C 
ATOM     48  C   UNL A   1      39.933  26.112  28.878  1.00  0.00     0.029 A 
ATOM     49  C   UNL A   1      40.512  27.404  29.205  1.00  0.00     0.049 A 
ATOM     50  H   UNL A   1      42.500  27.992  28.906  1.00  0.00     0.167 HD
ATOM     51  C   UNL A   1      46.413  29.380  27.482  1.00  0.00     0.037 A 
ATOM     52  C   UNL A   1      39.939  28.486  29.787  1.00  0.00     0.037 A 
ATOM     53  C   UNL A   1      46.599  29.192  28.896  1.00  0.00     0.049 A 
ATOM     54  C   UNL A   1      41.032  29.318  30.334  1.00  0.00     0.074 A 
ATOM     55  C   UNL A   1      47.354  28.365  29.698  1.00  0.00     0.029 A 
ATOM     56  N   UNL A   1      45.626  29.738  29.687  1.00  0.00    -0.354 N 
ATOM     57  N   UNL A   1      41.775  28.970  31.346  1.00  0.00    -0.248 NA
ATOM     58  C   UNL A   1      41.532  30.430  29.540  1.00  0.00     0.031 C 
ATOM     59  C   UNL A   1      46.594  28.191  30.891  1.00  0.00     0.029 A 
ATOM     60  C   UNL A   1      45.425  28.948  30.783  1.00  0.00     0.049 A 
ATOM     61  H   UNL A   1      45.142  30.574  29.494  1.00  0.00     0.167 HD
ATOM     62  C   UNL A   1      43.014  29.510  31.062  1.00  0.00     0.074 A 
ATOM     63  C   UNL A   1      42.764  30.527  30.047  1.00  0.00     0.031 C 
ATOM     64  C   UNL A   1      44.151  28.870  31.459  1.00  0.00     0.037 A 
BRANCH  51  65
ATOM     65  C   UNL A   1      46.493  30.762  26.865  1.00  0.00     0.064 A 
ATOM     66  C   UNL A   1      47.731  31.443  26.868  1.00  0.00     0.173 A 
ATOM     67  C   UNL A   1      45.365  31.563  26.591  1.00  0.00     0.173 A 
ATOM     68  F   UNL A   1      48.872  30.790  27.137  1.00  0.00    -0.203 F 
ATOM     69  C   UNL A   1      47.817  32.828  26.696  1.00  0.00     0.198 A 
ATOM     70  C   UNL A   1      45.460  32.938  26.371  1.00  0.00     0.198 A 
ATOM     71  F   UNL A   1      44.119  31.081  26.640  1.00  0.00    -0.203 F 
ATOM     72  F   UNL A   1      48.997  33.447  26.839  1.00  0.00    -0.200 F 
ATOM     73  C   UNL A   1      46.680  33.576  26.456  1.00  0.00     0.200 A 
ATOM     74  F   UNL A   1      44.344  33.649  26.163  1.00  0.00    -0.200 F 
ATOM     75  F   UNL A   1      46.748  34.909  26.356  1.00  0.00    -0.200 F 
ENDBRANCH  51  65
BRANCH  52  76
ATOM     76  C   UNL A   1      38.546  28.990  29.711  1.00  0.00     0.064 A 
ATOM     77  C   UNL A   1      37.800  29.250  30.877  1.00  0.00     0.173 A 
ATOM     78  C   UNL A   1      38.035  29.524  28.514  1.00  0.00     0.173 A 
ATOM     79  F   UNL A   1      38.233  28.810  32.068  1.00  0.00    -0.203 F 
ATOM     80  C   UNL A   1      36.643  30.036  30.850  1.00  0.00     0.198 A 
ATOM     81  C   UNL A   1      36.877  30.304  28.489  1.00  0.00     0.198 A 
ATOM     82  F   UNL A   1      38.707  29.385  27.362  1.00  0.00    -0.203 F 
ATOM     83  F   UNL A   1      36.004  30.325  31.993  1.00  0.00    -0.200 F 
ATOM     84  C   UNL A   1      36.192  30.576  29.659  1.00  0.00     0.200 A 
ATOM     85  F   UNL A   1      36.471  30.852  27.335  1.00  0.00    -0.200 F 
ATOM     86  F   UNL A   1      35.127  31.390  29.644  1.00  0.00    -0.200 F 
ENDBRANCH  52  76
BRANCH  64  87
ATOM     87  C   UNL A   1      44.025  27.847  32.549  1.00  0.00     0.064 A 
ATOM     88  C   UNL A   1      43.919  26.464  32.330  1.00  0.00     0.173 A 
ATOM     89  C   UNL A   1      44.163  28.289  33.871  1.00  0.00     0.173 A 
ATOM     90  F   UNL A   1      43.857  25.963  31.091  1.00  0.00    -0.203 F 
ATOM     91  C   UNL A   1      43.937  25.567  33.398  1.00  0.00     0.198 A 
ATOM     92  C   UNL A   1      44.217  27.390  34.929  1.00  0.00     0.198 A 
ATOM     93  F   UNL A   1      44.308  29.599  34.130  1.00  0.00    -0.203 F 
ATOM     94  F   UNL A   1      43.836  24.249  33.170  1.00  0.00    -0.200 F 
ATOM     95  C   UNL A   1      44.100  26.030  34.693  1.00  0.00     0.200 A 
ATOM     96  F   UNL A   1      44.419  27.840  36.175  1.00  0.00    -0.200 F 
ATOM     97  F   UNL A   1      44.170  25.163  35.714  1.00  0.00    -0.200 F 
ENDBRANCH  64  87
ENDBRANCH  38  39
ENDBRANCH  30  33
ENDBRANCH  28  29
ENDBRANCH  27  28
ENDBRANCH  26  27
ENDBRANCH   1  26
TORSDOF 15
ENDMDL
MODEL 2
REMARK VINA RESULT:     -12.0      2.636      3.737
REMARK SMILES CCn1c(N2CCC[C@H](C(=O)NCCCCCCNC(=O)c3ccc(-c4c5nc(c(-c6c(F)c(F)c(F)c(F)c6F)c6ccc([nH]6)c(-c6c(F)c(F)c(F)c(F)c6F)c6nc(c(-c7c(F)c(F)c(F)c(F)c7F)c7ccc4[nH]7)C=C6)C=C5)cc3)C2)nc2cc(C)ccc21
REMARK SMILES IDX 15 1 14 2 13 3 12 4 10 5 11 6 9 8 5 9 6 10 85 11 7 12 8 13
REMARK SMILES IDX 4 14 3 15 93 16 86 17 87 18 92 19 88 20 91 21 89 22 90 23
REMARK SMILES IDX 2 24 1 25 16 26 17 27 18 28 19 29 20 30 21 32 22 33 23 34
REMARK SMILES IDX 84 35 24 36 83 37 25 38 26 39 27 40 77 41 28 42 82 43 76 44
REMARK SMILES IDX 78 45 29 46 81 47 75 48 74 49 30 51 62 52 42 53 61 54 43 55
REMARK SMILES IDX 46 56 60 57 79 58 44 59 45 60 59 62 80 63 47 64 31 65 32 66
REMARK SMILES IDX 40 67 33 68 34 69 38 70 41 71 35 72 36 73 39 74 37 75 63 76
REMARK SMILES IDX 64 77 72 78 65 79 66 80 70 81 73 82 67 83 68 84 71 85 69 86
REMARK SMILES IDX 48 87 49 88 57 89 50 90 51 91 55 92 58 93 52 94 53 95 56 96
REMARK SMILES IDX 54 97
REMARK H PARENT 12 7 19 31 78 50 46 61
REMARK Flexibility Score: inf
ROOT
ATOM      1  C   UNL A   1      35.423  21.451  26.118  1.00  0.00     0.002 C 
ENDROOT
BRANCH   1   2
ATOM      2  C   UNL A   1      33.946  21.083  26.262  1.00  0.00     0.021 C 
BRANCH   2   3
ATOM      3  C   UNL A   1      32.994  22.046  25.560  1.00  0.00     0.116 C 
BRANCH   3   4
ATOM      4  N   UNL A   1      32.211  22.879  26.441  1.00  0.00    -0.356 N 
ATOM      5  C   UNL A   1      32.214  24.233  26.550  1.00  0.00     0.224 C 
ATOM      6  O   UNL A   1      31.197  24.752  27.028  1.00  0.00    -0.275 OA
ATOM      7  H   UNL A   1      31.592  22.403  27.042  1.00  0.00     0.163 HD
BRANCH   5   8
ATOM      8  C   UNL A   1      33.396  25.132  26.157  1.00  0.00     0.098 C 
ATOM      9  N   UNL A   1      32.803  27.080  24.704  1.00  0.00    -0.341 N 
ATOM     10  C   UNL A   1      33.674  26.657  23.611  1.00  0.00     0.119 C 
ATOM     11  C   UNL A   1      33.091  26.623  26.058  1.00  0.00     0.133 C 
ATOM     12  C   UNL A   1      34.048  25.172  23.658  1.00  0.00     0.022 C 
ATOM     13  C   UNL A   1      34.300  24.599  25.048  1.00  0.00     0.017 C 
BRANCH   9  14
ATOM     14  C   UNL A   1      31.647  27.752  24.449  1.00  0.00     0.206 A 
ATOM     15  N   UNL A   1      30.480  27.124  24.057  1.00  0.00    -0.310 N 
ATOM     16  C   UNL A   1      29.565  28.095  23.702  1.00  0.00     0.070 A 
ATOM     17  N   UNL A   1      31.479  29.057  24.465  1.00  0.00    -0.213 NA
ATOM     18  C   UNL A   1      30.239  29.287  23.923  1.00  0.00     0.091 A 
ATOM     19  C   UNL A   1      28.255  28.053  23.207  1.00  0.00     0.029 A 
ATOM     20  C   UNL A   1      29.620  30.497  23.572  1.00  0.00     0.034 A 
ATOM     21  C   UNL A   1      27.652  29.275  22.871  1.00  0.00     0.006 A 
ATOM     22  C   UNL A   1      28.323  30.492  23.033  1.00  0.00    -0.049 A 
ATOM     23  C   UNL A   1      27.703  31.788  22.598  1.00  0.00     0.044 C 
BRANCH  15  24
ATOM     24  C   UNL A   1      30.206  25.701  24.086  1.00  0.00     0.122 C 
ATOM     25  C   UNL A   1      30.626  24.981  22.815  1.00  0.00     0.028 C 
ENDBRANCH  15  24
ENDBRANCH   9  14
ENDBRANCH   5   8
ENDBRANCH   3   4
ENDBRANCH   2   3
ENDBRANCH   1   2
BRANCH   1  26
ATOM     26  C   UNL A   1      36.152  20.818  24.925  1.00  0.00     0.002 C 
BRANCH  26  27
ATOM     27  C   UNL A   1      37.687  20.802  24.983  1.00  0.00     0.021 C 
BRANCH  27  28
ATOM     28  C   UNL A   1      38.321  21.962  25.742  1.00  0.00     0.116 C 
BRANCH  28  29
ATOM     29  N   UNL A   1      39.741  21.790  25.975  1.00  0.00    -0.352 N 
ATOM     30  C   UNL A   1      40.746  22.540  26.508  1.00  0.00     0.251 C 
ATOM     31  H   UNL A   1      40.060  20.911  25.672  1.00  0.00     0.163 HD
ATOM     32  O   UNL A   1      41.858  21.996  26.541  1.00  0.00    -0.269 OA
BRANCH  30  33
ATOM     33  C   UNL A   1      40.636  23.942  26.997  1.00  0.00     0.039 A 
ATOM     34  C   UNL A   1      39.818  24.938  26.465  1.00  0.00     0.014 A 
ATOM     35  C   UNL A   1      41.469  24.272  28.087  1.00  0.00     0.014 A 
ATOM     36  C   UNL A   1      39.894  26.243  26.955  1.00  0.00     0.010 A 
ATOM     37  C   UNL A   1      41.536  25.567  28.590  1.00  0.00     0.010 A 
ATOM     38  C   UNL A   1      40.775  26.564  27.997  1.00  0.00    -0.014 A 
BRANCH  38  39
ATOM     39  C   UNL A   1      40.761  27.930  28.522  1.00  0.00     0.031 A 
ATOM     40  C   UNL A   1      41.898  28.771  28.053  1.00  0.00     0.074 A 
ATOM     41  C   UNL A   1      39.775  28.448  29.286  1.00  0.00     0.049 A 
ATOM     42  N   UNL A   1      42.847  29.286  28.764  1.00  0.00    -0.248 NA
ATOM     43  C   UNL A   1      42.069  28.962  26.604  1.00  0.00     0.031 C 
ATOM     44  C   UNL A   1      38.476  27.850  29.608  1.00  0.00     0.029 A 
ATOM     45  N   UNL A   1      39.702  29.675  29.888  1.00  0.00    -0.354 N 
ATOM     46  C   UNL A   1      43.653  30.000  27.878  1.00  0.00     0.074 A 
ATOM     47  C   UNL A   1      43.204  29.662  26.554  1.00  0.00     0.031 C 
ATOM     48  C   UNL A   1      37.672  28.787  30.163  1.00  0.00     0.029 A 
ATOM     49  C   UNL A   1      38.441  30.002  30.374  1.00  0.00     0.049 A 
ATOM     50  H   UNL A   1      40.478  30.275  29.970  1.00  0.00     0.167 HD
ATOM     51  C   UNL A   1      44.485  30.982  28.323  1.00  0.00     0.037 A 
ATOM     52  C   UNL A   1      38.052  31.194  30.890  1.00  0.00     0.037 A 
ATOM     53  C   UNL A   1      44.702  30.869  29.740  1.00  0.00     0.049 A 
ATOM     54  C   UNL A   1      39.273  31.896  31.339  1.00  0.00     0.074 A 
ATOM     55  C   UNL A   1      45.365  30.001  30.578  1.00  0.00     0.029 A 
ATOM     56  N   UNL A   1      43.849  31.604  30.518  1.00  0.00    -0.354 N 
ATOM     57  N   UNL A   1      40.001  31.516  32.350  1.00  0.00    -0.248 NA
ATOM     58  C   UNL A   1      39.892  32.866  30.447  1.00  0.00     0.031 C 
ATOM     59  C   UNL A   1      44.638  30.023  31.805  1.00  0.00     0.029 A 
ATOM     60  C   UNL A   1      43.585  30.930  31.676  1.00  0.00     0.049 A 
ATOM     61  H   UNL A   1      43.481  32.485  30.278  1.00  0.00     0.167 HD
ATOM     62  C   UNL A   1      41.291  31.851  31.987  1.00  0.00     0.074 A 
ATOM     63  C   UNL A   1      41.145  32.819  30.907  1.00  0.00     0.031 C 
ATOM     64  C   UNL A   1      42.341  31.084  32.396  1.00  0.00     0.037 A 
BRANCH  51  65
ATOM     65  C   UNL A   1      44.734  32.291  27.601  1.00  0.00     0.064 A 
ATOM     66  C   UNL A   1      45.946  32.466  26.898  1.00  0.00     0.173 A 
ATOM     67  C   UNL A   1      44.006  33.474  27.852  1.00  0.00     0.173 A 
ATOM     68  F   UNL A   1      46.734  31.416  26.619  1.00  0.00    -0.203 F 
ATOM     69  C   UNL A   1      46.428  33.732  26.552  1.00  0.00     0.198 A 
ATOM     70  C   UNL A   1      44.468  34.732  27.463  1.00  0.00     0.198 A 
ATOM     71  F   UNL A   1      42.886  33.481  28.582  1.00  0.00    -0.203 F 
ATOM     72  F   UNL A   1      47.645  33.857  26.004  1.00  0.00    -0.200 F 
ATOM     73  C   UNL A   1      45.692  34.866  26.843  1.00  0.00     0.200 A 
ATOM     74  F   UNL A   1      43.751  35.820  27.774  1.00  0.00    -0.200 F 
ATOM     75  F   UNL A   1      46.179  36.083  26.574  1.00  0.00    -0.200 F 
ENDBRANCH  51  65
BRANCH  52  76
ATOM     76  C   UNL A   1      36.741  31.886  30.820  1.00  0.00     0.064 A 
ATOM     77  C   UNL A   1      35.902  31.974  31.948  1.00  0.00     0.173 A 
ATOM     78  C   UNL A   1      36.434  32.742  29.747  1.00  0.00     0.173 A 
ATOM     79  F   UNL A   1      36.145  31.220  33.030  1.00  0.00    -0.203 F 
ATOM     80  C   UNL A   1      34.851  32.895  32.013  1.00  0.00     0.198 A 
ATOM     81  C   UNL A   1      35.381  33.658  29.813  1.00  0.00     0.198 A 
ATOM     82  F   UNL A   1      37.212  32.779  28.656  1.00  0.00    -0.203 F 
ATOM     83  F   UNL A   1      34.123  33.001  33.134  1.00  0.00    -0.200 F 
ATOM     84  C   UNL A   1      34.602  33.747  30.952  1.00  0.00     0.200 A 
ATOM     85  F   UNL A   1      35.172  34.504  28.794  1.00  0.00    -0.200 F 
ATOM     86  F   UNL A   1      33.644  34.681  31.043  1.00  0.00    -0.200 F 
ENDBRANCH  52  76
BRANCH  64  87
ATOM     87  C   UNL A   1      42.118  30.169  33.563  1.00  0.00     0.064 A 
ATOM     88  C   UNL A   1      41.705  28.831  33.455  1.00  0.00     0.173 A 
ATOM     89  C   UNL A   1      42.480  30.638  34.833  1.00  0.00     0.173 A 
ATOM     90  F   UNL A   1      41.413  28.292  32.265  1.00  0.00    -0.203 F 
ATOM     91  C   UNL A   1      41.645  28.007  34.578  1.00  0.00     0.198 A 
ATOM     92  C   UNL A   1      42.454  29.804  35.944  1.00  0.00     0.198 A 
ATOM     93  F   UNL A   1      42.920  31.899  34.983  1.00  0.00    -0.203 F 
ATOM     94  F   UNL A   1      41.249  26.732  34.456  1.00  0.00    -0.200 F 
ATOM     95  C   UNL A   1      42.032  28.490  35.817  1.00  0.00     0.200 A 
ATOM     96  F   UNL A   1      42.872  30.263  37.131  1.00  0.00    -0.200 F 
ATOM     97  F   UNL A   1      42.026  27.682  36.887  1.00  0.00    -0.200 F 
ENDBRANCH  64  87
ENDBRANCH  38  39
ENDBRANCH  30  33
ENDBRANCH  28  29
ENDBRANCH  27  28
ENDBRANCH  26  27
ENDBRANCH   1  26
TORSDOF 15
ENDMDL
MODEL 3
REMARK VINA RESULT:     -11.9      2.501      3.366
REMARK SMILES CCn1c(N2CCC[C@H](C(=O)NCCCCCCNC(=O)c3ccc(-c4c5nc(c(-c6c(F)c(F)c(F)c(F)c6F)c6ccc([nH]6)c(-c6c(F)c(F)c(F)c(F)c6F)c6nc(c(-c7c(F)c(F)c(F)c(F)c7F)c7ccc4[nH]7)C=C6)C=C5)cc3)C2)nc2cc(C)ccc21
REMARK SMILES IDX 15 1 14 2 13 3 12 4 10 5 11 6 9 8 5 9 6 10 85 11 7 12 8 13
REMARK SMILES IDX 4 14 3 15 93 16 86 17 87 18 92 19 88 20 91 21 89 22 90 23
REMARK SMILES IDX 2 24 1 25 16 26 17 27 18 28 19 29 20 30 21 32 22 33 23 34
REMARK SMILES IDX 84 35 24 36 83 37 25 38 26 39 27 40 77 41 28 42 82 43 76 44
REMARK SMILES IDX 78 45 29 46 81 47 75 48 74 49 30 51 62 52 42 53 61 54 43 55
REMARK SMILES IDX 46 56 60 57 79 58 44 59 45 60 59 62 80 63 47 64 31 65 32 66
REMARK SMILES IDX 40 67 33 68 34 69 38 70 41 71 35 72 36 73 39 74 37 75 63 76
REMARK SMILES IDX 64 77 72 78 65 79 66 80 70 81 73 82 67 83 68 84 71 85 69 86
REMARK SMILES IDX 48 87 49 88 57 89 50 90 51 91 55 92 58 93 52 94 53 95 56 96
REMARK SMILES IDX 54 97
REMARK H PARENT 12 7 19 31 78 50 46 61
REMARK Flexibility Score: inf
ROOT
ATOM      1  C   UNL A   1      36.779  22.959  24.443  1.00  0.00     0.002 C 
ENDROOT
BRANCH   1   2
ATOM      2  C   UNL A   1      35.728  23.611  25.340  1.00  0.00     0.021 C 
BRANCH   2   3
ATOM      3  C   UNL A   1      34.541  24.197  24.581  1.00  0.00     0.116 C 
BRANCH   3   4
ATOM      4  N   UNL A   1      34.427  23.773  23.206  1.00  0.00    -0.356 N 
ATOM      5  C   UNL A   1      33.309  23.417  22.521  1.00  0.00     0.224 C 
ATOM      6  O   UNL A   1      33.364  23.509  21.288  1.00  0.00    -0.275 OA
ATOM      7  H   UNL A   1      35.269  23.737  22.698  1.00  0.00     0.163 HD
BRANCH   5   8
ATOM      8  C   UNL A   1      32.025  22.884  23.172  1.00  0.00     0.098 C 
ATOM      9  N   UNL A   1      31.127  24.286  25.039  1.00  0.00    -0.341 N 
ATOM     10  C   UNL A   1      31.232  23.216  26.026  1.00  0.00     0.119 C 
ATOM     11  C   UNL A   1      31.023  23.940  23.626  1.00  0.00     0.133 C 
ATOM     12  C   UNL A   1      32.202  22.100  25.628  1.00  0.00     0.022 C 
ATOM     13  C   UNL A   1      32.204  21.724  24.150  1.00  0.00     0.017 C 
BRANCH   9  14
ATOM     14  C   UNL A   1      31.289  25.587  25.406  1.00  0.00     0.206 A 
ATOM     15  N   UNL A   1      30.849  26.649  24.638  1.00  0.00    -0.310 N 
ATOM     16  C   UNL A   1      31.332  27.815  25.195  1.00  0.00     0.070 A 
ATOM     17  N   UNL A   1      31.923  26.028  26.471  1.00  0.00    -0.213 NA
ATOM     18  C   UNL A   1      32.039  27.386  26.310  1.00  0.00     0.091 A 
ATOM     19  C   UNL A   1      31.240  29.167  24.839  1.00  0.00     0.029 A 
ATOM     20  C   UNL A   1      32.749  28.327  27.072  1.00  0.00     0.034 A 
ATOM     21  C   UNL A   1      31.951  30.091  25.619  1.00  0.00     0.006 A 
ATOM     22  C   UNL A   1      32.715  29.686  26.719  1.00  0.00    -0.049 A 
ATOM     23  C   UNL A   1      33.536  30.669  27.502  1.00  0.00     0.044 C 
BRANCH  15  24
ATOM     24  C   UNL A   1      29.964  26.585  23.492  1.00  0.00     0.122 C 
ATOM     25  C   UNL A   1      28.491  26.608  23.868  1.00  0.00     0.028 C 
ENDBRANCH  15  24
ENDBRANCH   9  14
ENDBRANCH   5   8
ENDBRANCH   3   4
ENDBRANCH   2   3
ENDBRANCH   1   2
BRANCH   1  26
ATOM     26  C   UNL A   1      36.958  21.445  24.619  1.00  0.00     0.002 C 
BRANCH  26  27
ATOM     27  C   UNL A   1      38.286  20.972  25.227  1.00  0.00     0.021 C 
BRANCH  27  28
ATOM     28  C   UNL A   1      38.964  21.967  26.163  1.00  0.00     0.116 C 
BRANCH  28  29
ATOM     29  N   UNL A   1      40.402  22.028  25.996  1.00  0.00    -0.352 N 
ATOM     30  C   UNL A   1      41.382  22.939  26.252  1.00  0.00     0.251 C 
ATOM     31  H   UNL A   1      40.761  21.204  25.595  1.00  0.00     0.163 HD
ATOM     32  O   UNL A   1      42.533  22.579  25.967  1.00  0.00    -0.269 OA
BRANCH  30  33
ATOM     33  C   UNL A   1      41.190  24.314  26.787  1.00  0.00     0.039 A 
ATOM     34  C   UNL A   1      40.438  25.329  26.197  1.00  0.00     0.014 A 
ATOM     35  C   UNL A   1      41.863  24.597  27.994  1.00  0.00     0.014 A 
ATOM     36  C   UNL A   1      40.430  26.609  26.753  1.00  0.00     0.010 A 
ATOM     37  C   UNL A   1      41.846  25.867  28.561  1.00  0.00     0.010 A 
ATOM     38  C   UNL A   1      41.159  26.886  27.918  1.00  0.00    -0.014 A 
BRANCH  38  39
ATOM     39  C   UNL A   1      41.056  28.225  28.500  1.00  0.00     0.031 A 
ATOM     40  C   UNL A   1      42.185  29.130  28.140  1.00  0.00     0.074 A 
ATOM     41  C   UNL A   1      40.005  28.670  29.222  1.00  0.00     0.049 A 
ATOM     42  N   UNL A   1      43.067  29.648  28.931  1.00  0.00    -0.248 NA
ATOM     43  C   UNL A   1      42.436  29.393  26.715  1.00  0.00     0.031 C 
ATOM     44  C   UNL A   1      38.714  28.008  29.435  1.00  0.00     0.029 A 
ATOM     45  N   UNL A   1      39.845  29.863  29.870  1.00  0.00    -0.354 N 
ATOM     46  C   UNL A   1      43.895  30.432  28.130  1.00  0.00     0.074 A 
ATOM     47  C   UNL A   1      43.542  30.137  26.767  1.00  0.00     0.031 C 
ATOM     48  C   UNL A   1      37.840  28.887  29.979  1.00  0.00     0.029 A 
ATOM     49  C   UNL A   1      38.544  30.120  30.289  1.00  0.00     0.049 A 
ATOM     50  H   UNL A   1      40.589  30.489  30.027  1.00  0.00     0.167 HD
ATOM     51  C   UNL A   1      44.657  31.424  28.668  1.00  0.00     0.037 A 
ATOM     52  C   UNL A   1      38.075  31.271  30.831  1.00  0.00     0.037 A 
ATOM     53  C   UNL A   1      44.791  31.254  30.090  1.00  0.00     0.049 A 
ATOM     54  C   UNL A   1      39.236  31.999  31.386  1.00  0.00     0.074 A 
ATOM     55  C   UNL A   1      45.437  30.375  30.930  1.00  0.00     0.029 A 
ATOM     56  N   UNL A   1      43.863  31.920  30.843  1.00  0.00    -0.354 N 
ATOM     57  N   UNL A   1      39.916  31.601  32.424  1.00  0.00    -0.248 NA
ATOM     58  C   UNL A   1      39.868  33.031  30.578  1.00  0.00     0.031 C 
ATOM     59  C   UNL A   1      44.635  30.312  32.108  1.00  0.00     0.029 A 
ATOM     60  C   UNL A   1      43.556  31.184  31.952  1.00  0.00     0.049 A 
ATOM     61  H   UNL A   1      43.474  32.796  30.619  1.00  0.00     0.167 HD
ATOM     62  C   UNL A   1      41.211  32.001  32.158  1.00  0.00     0.074 A 
ATOM     63  C   UNL A   1      41.092  33.012  31.113  1.00  0.00     0.031 C 
ATOM     64  C   UNL A   1      42.265  31.257  32.598  1.00  0.00     0.037 A 
BRANCH  51  65
ATOM     65  C   UNL A   1      44.895  32.773  28.021  1.00  0.00     0.064 A 
ATOM     66  C   UNL A   1      46.209  33.128  27.641  1.00  0.00     0.173 A 
ATOM     67  C   UNL A   1      43.974  33.839  28.072  1.00  0.00     0.173 A 
ATOM     68  F   UNL A   1      47.178  32.202  27.577  1.00  0.00    -0.203 F 
ATOM     69  C   UNL A   1      46.584  34.456  27.417  1.00  0.00     0.198 A 
ATOM     70  C   UNL A   1      44.341  35.158  27.800  1.00  0.00     0.198 A 
ATOM     71  F   UNL A   1      42.717  33.676  28.499  1.00  0.00    -0.203 F 
ATOM     72  F   UNL A   1      47.869  34.758  27.189  1.00  0.00    -0.200 F 
ATOM     73  C   UNL A   1      45.650  35.472  27.505  1.00  0.00     0.200 A 
ATOM     74  F   UNL A   1      43.426  36.131  27.914  1.00  0.00    -0.200 F 
ATOM     75  F   UNL A   1      46.017  36.751  27.356  1.00  0.00    -0.200 F 
ENDBRANCH  51  65
BRANCH  52  76
ATOM     76  C   UNL A   1      36.744  31.915  30.709  1.00  0.00     0.064 A 
ATOM     77  C   UNL A   1      35.905  32.074  31.828  1.00  0.00     0.173 A 
ATOM     78  C   UNL A   1      36.408  32.667  29.568  1.00  0.00     0.173 A 
ATOM     79  F   UNL A   1      36.173  31.422  32.970  1.00  0.00    -0.203 F 
ATOM     80  C   UNL A   1      34.827  32.965  31.820  1.00  0.00     0.198 A 
ATOM     81  C   UNL A   1      35.328  33.553  29.560  1.00  0.00     0.198 A 
ATOM     82  F   UNL A   1      37.183  32.633  28.474  1.00  0.00    -0.203 F 
ATOM     83  F   UNL A   1      34.098  33.144  32.931  1.00  0.00    -0.200 F 
ATOM     84  C   UNL A   1      34.550  33.716  30.691  1.00  0.00     0.200 A 
ATOM     85  F   UNL A   1      35.092  34.302  28.474  1.00  0.00    -0.200 F 
ATOM     86  F   UNL A   1      33.564  34.625  30.707  1.00  0.00    -0.200 F 
ENDBRANCH  52  76
BRANCH  64  87
ATOM     87  C   UNL A   1      42.008  30.282  33.709  1.00  0.00     0.064 A 
ATOM     88  C   UNL A   1      41.632  28.942  33.517  1.00  0.00     0.173 A 
ATOM     89  C   UNL A   1      42.299  30.696  35.015  1.00  0.00     0.173 A 
ATOM     90  F   UNL A   1      41.409  28.456  32.290  1.00  0.00    -0.203 F 
ATOM     91  C   UNL A   1      41.539  28.064  34.595  1.00  0.00     0.198 A 
ATOM     92  C   UNL A   1      42.240  29.808  36.083  1.00  0.00     0.198 A 
ATOM     93  F   UNL A   1      42.702  31.957  35.246  1.00  0.00    -0.203 F 
ATOM     94  F   UNL A   1      41.179  26.788  34.394  1.00  0.00    -0.200 F 
ATOM     95  C   UNL A   1      41.856  28.494  35.873  1.00  0.00     0.200 A 
ATOM     96  F   UNL A   1      42.591  30.218  37.309  1.00  0.00    -0.200 F 
ATOM     97  F   UNL A   1      41.818  27.635  36.902  1.00  0.00    -0.200 F 
ENDBRANCH  64  87
ENDBRANCH  38  39
ENDBRANCH  30  33
ENDBRANCH  28  29
ENDBRANCH  27  28
ENDBRANCH  26  27
ENDBRANCH   1  26
TORSDOF 15
ENDMDL
