MODEL 1
REMARK VINA RESULT:     -12.5      0.000      0.000
REMARK SMILES O=C(NCCCCCCNC(=O)c1cc(-c2cccc(C(F)(F)F)c2)nc2c(F)cccc12)c1ccc(-c2c3nc(c(-c4c(F)c(F)c(F)c(F)c4F)c4ccc([nH]4)c(-c4c(F)c(F)c(F)c(F)c4F)c4nc(c(-c5c(F)c(F)c(F)c(F)c5F)c5ccc2[nH]5)C=C4)C=C3)cc1
REMARK SMILES IDX 6 1 5 2 4 3 3 4 1 5 2 6 34 8 35 9 96 10 36 11 95 12 37 13
REMARK SMILES IDX 38 14 39 15 89 16 40 17 94 18 88 19 90 20 41 21 93 22 87 23
REMARK SMILES IDX 86 24 42 26 74 27 54 28 73 29 55 30 58 31 72 32 91 33 56 34
REMARK SMILES IDX 57 35 71 37 92 38 59 39 43 40 44 41 52 42 45 43 46 44 50 45
REMARK SMILES IDX 53 46 47 47 48 48 51 49 49 50 75 51 76 52 84 53 77 54 78 55
REMARK SMILES IDX 82 56 85 57 79 58 80 59 83 60 81 61 60 62 61 63 69 64 62 65
REMARK SMILES IDX 63 66 67 67 70 68 64 69 65 70 68 71 66 72 7 73 8 74 9 75
REMARK SMILES IDX 10 76 11 77 12 79 13 80 14 81 33 82 15 83 27 84 32 85 26 86
REMARK SMILES IDX 28 87 31 88 29 89 30 90 16 91 17 92 25 93 18 94 20 95 19 96
REMARK SMILES IDX 21 97 22 98 23 99 24 100
REMARK H PARENT 3 7 90 25 58 36 10 78
REMARK Flexibility Score: inf
ROOT
ATOM      1  C   UNL A   1      31.333  28.933  24.814  1.00  0.00     0.002 C 
ENDROOT
BRANCH   1   2
ATOM      2  C   UNL A   1      32.427  28.235  25.620  1.00  0.00     0.021 C 
BRANCH   2   3
ATOM      3  C   UNL A   1      33.602  29.114  26.027  1.00  0.00     0.116 C 
BRANCH   3   4
ATOM      4  N   UNL A   1      33.213  30.485  26.311  1.00  0.00    -0.352 N 
ATOM      5  O   UNL A   1      33.226  32.459  27.405  1.00  0.00    -0.269 OA
ATOM      6  C   UNL A   1      33.764  31.375  27.200  1.00  0.00     0.251 C 
ATOM      7  H   UNL A   1      32.450  30.824  25.791  1.00  0.00     0.163 HD
BRANCH   6   8
ATOM      8  C   UNL A   1      34.993  31.012  27.941  1.00  0.00     0.039 A 
ATOM      9  C   UNL A   1      35.115  29.766  28.560  1.00  0.00     0.014 A 
ATOM     10  C   UNL A   1      36.043  31.933  28.006  1.00  0.00     0.014 A 
ATOM     11  C   UNL A   1      36.224  29.495  29.354  1.00  0.00     0.010 A 
ATOM     12  C   UNL A   1      37.194  31.626  28.735  1.00  0.00     0.010 A 
ATOM     13  C   UNL A   1      37.282  30.414  29.438  1.00  0.00    -0.014 A 
BRANCH  13  14
ATOM     14  C   UNL A   1      38.499  30.053  30.208  1.00  0.00     0.031 A 
ATOM     15  C   UNL A   1      38.709  30.541  31.612  1.00  0.00     0.074 A 
ATOM     16  C   UNL A   1      39.415  29.256  29.624  1.00  0.00     0.049 A 
ATOM     17  N   UNL A   1      39.708  30.305  32.427  1.00  0.00    -0.248 NA
ATOM     18  C   UNL A   1      37.669  31.413  32.178  1.00  0.00     0.031 C 
ATOM     19  C   UNL A   1      39.328  28.739  28.256  1.00  0.00     0.029 A 
ATOM     20  N   UNL A   1      40.587  28.731  30.103  1.00  0.00    -0.354 N 
ATOM     21  C   UNL A   1      39.428  31.010  33.589  1.00  0.00     0.074 A 
ATOM     22  C   UNL A   1      38.176  31.703  33.369  1.00  0.00     0.031 C 
ATOM     23  C   UNL A   1      40.377  27.941  28.019  1.00  0.00     0.029 A 
ATOM     24  C   UNL A   1      41.240  27.934  29.196  1.00  0.00     0.049 A 
ATOM     25  H   UNL A   1      40.926  28.907  31.010  1.00  0.00     0.167 HD
ATOM     26  C   UNL A   1      40.150  31.065  34.735  1.00  0.00     0.037 A 
ATOM     27  C   UNL A   1      42.413  27.282  29.291  1.00  0.00     0.037 A 
ATOM     28  C   UNL A   1      41.388  30.360  34.951  1.00  0.00     0.049 A 
ATOM     29  C   UNL A   1      43.193  27.369  30.570  1.00  0.00     0.074 A 
ATOM     30  C   UNL A   1      42.169  30.317  36.093  1.00  0.00     0.029 A 
ATOM     31  N   UNL A   1      42.028  29.576  34.002  1.00  0.00    -0.354 N 
ATOM     32  N   UNL A   1      42.897  28.006  31.677  1.00  0.00    -0.248 NA
ATOM     33  C   UNL A   1      44.472  26.647  30.614  1.00  0.00     0.031 C 
ATOM     34  C   UNL A   1      43.304  29.545  35.821  1.00  0.00     0.029 A 
ATOM     35  C   UNL A   1      43.206  29.065  34.526  1.00  0.00     0.049 A 
ATOM     36  H   UNL A   1      41.695  29.407  33.092  1.00  0.00     0.167 HD
ATOM     37  C   UNL A   1      43.942  27.753  32.552  1.00  0.00     0.074 A 
ATOM     38  C   UNL A   1      44.870  26.885  31.856  1.00  0.00     0.031 C 
ATOM     39  C   UNL A   1      44.120  28.205  33.817  1.00  0.00     0.037 A 
BRANCH  26  40
ATOM     40  C   UNL A   1      39.632  31.931  35.847  1.00  0.00     0.064 A 
ATOM     41  C   UNL A   1      38.619  31.494  36.711  1.00  0.00     0.173 A 
ATOM     42  C   UNL A   1      40.202  33.192  36.088  1.00  0.00     0.173 A 
ATOM     43  F   UNL A   1      38.034  30.302  36.518  1.00  0.00    -0.203 F 
ATOM     44  C   UNL A   1      38.180  32.295  37.765  1.00  0.00     0.198 A 
ATOM     45  C   UNL A   1      39.779  33.978  37.157  1.00  0.00     0.198 A 
ATOM     46  F   UNL A   1      41.180  33.655  35.296  1.00  0.00    -0.203 F 
ATOM     47  F   UNL A   1      37.184  31.871  38.556  1.00  0.00    -0.200 F 
ATOM     48  C   UNL A   1      38.765  33.531  37.991  1.00  0.00     0.200 A 
ATOM     49  F   UNL A   1      40.354  35.167  37.382  1.00  0.00    -0.200 F 
ATOM     50  F   UNL A   1      38.349  34.294  39.012  1.00  0.00    -0.200 F 
ENDBRANCH  26  40
BRANCH  27  51
ATOM     51  C   UNL A   1      42.910  26.495  28.134  1.00  0.00     0.064 A 
ATOM     52  C   UNL A   1      42.647  25.123  28.026  1.00  0.00     0.173 A 
ATOM     53  C   UNL A   1      43.638  27.105  27.102  1.00  0.00     0.173 A 
ATOM     54  F   UNL A   1      41.969  24.494  28.998  1.00  0.00    -0.203 F 
ATOM     55  C   UNL A   1      43.101  24.390  26.934  1.00  0.00     0.198 A 
ATOM     56  C   UNL A   1      44.066  26.377  25.995  1.00  0.00     0.198 A 
ATOM     57  F   UNL A   1      43.910  28.419  27.156  1.00  0.00    -0.203 F 
ATOM     58  F   UNL A   1      42.867  23.072  26.871  1.00  0.00    -0.200 F 
ATOM     59  C   UNL A   1      43.804  25.018  25.915  1.00  0.00     0.200 A 
ATOM     60  F   UNL A   1      44.728  26.992  25.006  1.00  0.00    -0.200 F 
ATOM     61  F   UNL A   1      44.230  24.312  24.859  1.00  0.00    -0.200 F 
ENDBRANCH  27  51
BRANCH  39  62
ATOM     62  C   UNL A   1      45.356  27.749  34.535  1.00  0.00     0.064 A 
ATOM     63  C   UNL A   1      46.545  28.493  34.491  1.00  0.00     0.173 A 
ATOM     64  C   UNL A   1      45.344  26.570  35.293  1.00  0.00     0.173 A 
ATOM     65  F   UNL A   1      46.611  29.619  33.764  1.00  0.00    -0.203 F 
ATOM     66  C   UNL A   1      47.685  28.056  35.158  1.00  0.00     0.198 A 
ATOM     67  C   UNL A   1      46.477  26.151  35.983  1.00  0.00     0.198 A 
ATOM     68  F   UNL A   1      44.229  25.827  35.370  1.00  0.00    -0.203 F 
ATOM     69  F   UNL A   1      48.825  28.755  35.063  1.00  0.00    -0.200 F 
ATOM     70  C   UNL A   1      47.649  26.890  35.910  1.00  0.00     0.200 A 
ATOM     71  F   UNL A   1      46.438  25.030  36.716  1.00  0.00    -0.200 F 
ATOM     72  F   UNL A   1      48.747  26.472  36.555  1.00  0.00    -0.200 F 
ENDBRANCH  39  62
ENDBRANCH  13  14
ENDBRANCH   6   8
ENDBRANCH   3   4
ENDBRANCH   2   3
ENDBRANCH   1   2
BRANCH   1  73
ATOM     73  C   UNL A   1      31.338  28.666  23.305  1.00  0.00     0.002 C 
BRANCH  73  74
ATOM     74  C   UNL A   1      32.637  28.997  22.564  1.00  0.00     0.021 C 
BRANCH  74  75
ATOM     75  C   UNL A   1      33.655  27.865  22.482  1.00  0.00     0.116 C 
BRANCH  75  76
ATOM     76  N   UNL A   1      33.326  26.878  21.468  1.00  0.00    -0.352 N 
ATOM     77  C   UNL A   1      33.133  25.529  21.619  1.00  0.00     0.252 C 
ATOM     78  H   UNL A   1      33.229  27.225  20.551  1.00  0.00     0.163 HD
ATOM     79  O   UNL A   1      32.888  24.816  20.651  1.00  0.00    -0.269 OA
BRANCH  77  80
ATOM     80  C   UNL A   1      33.284  24.919  22.953  1.00  0.00     0.051 A 
ATOM     81  C   UNL A   1      34.533  24.368  23.229  1.00  0.00     0.043 A 
ATOM     82  C   UNL A   1      32.245  24.907  23.908  1.00  0.00     0.016 A 
ATOM     83  C   UNL A   1      34.743  23.841  24.486  1.00  0.00     0.072 A 
ATOM     84  C   UNL A   1      32.576  24.408  25.180  1.00  0.00     0.107 A 
ATOM     85  C   UNL A   1      30.924  25.367  23.660  1.00  0.00     0.011 A 
ATOM     86  N   UNL A   1      33.793  23.881  25.450  1.00  0.00    -0.245 NA
ATOM     87  C   UNL A   1      31.598  24.479  26.175  1.00  0.00     0.149 A 
ATOM     88  C   UNL A   1      29.970  25.411  24.673  1.00  0.00     0.004 A 
ATOM     89  F   UNL A   1      31.883  24.060  27.420  1.00  0.00    -0.205 F 
ATOM     90  C   UNL A   1      30.317  24.981  25.943  1.00  0.00     0.041 A 
BRANCH  83  91
ATOM     91  C   UNL A   1      35.989  23.155  24.843  1.00  0.00     0.001 A 
ATOM     92  C   UNL A   1      36.241  21.829  24.456  1.00  0.00     0.010 A 
ATOM     93  C   UNL A   1      36.956  23.817  25.621  1.00  0.00     0.023 A 
ATOM     94  C   UNL A   1      37.416  21.181  24.843  1.00  0.00     0.001 A 
ATOM     95  C   UNL A   1      38.132  23.171  26.034  1.00  0.00     0.056 A 
ATOM     96  C   UNL A   1      38.353  21.846  25.634  1.00  0.00     0.013 A 
BRANCH  95  97
ATOM     97  C   UNL A   1      39.139  23.875  26.909  1.00  0.00     0.416 C 
ATOM     98  F   UNL A   1      39.913  24.749  26.205  1.00  0.00    -0.166 F 
ATOM     99  F   UNL A   1      38.553  24.609  27.896  1.00  0.00    -0.166 F 
ATOM    100  F   UNL A   1      40.008  23.033  27.535  1.00  0.00    -0.166 F 
ENDBRANCH  95  97
ENDBRANCH  83  91
ENDBRANCH  77  80
ENDBRANCH  75  76
ENDBRANCH  74  75
ENDBRANCH  73  74
ENDBRANCH   1  73
TORSDOF 15
ENDMDL
MODEL 2
REMARK VINA RESULT:     -12.4      1.409      2.334
REMARK SMILES O=C(NCCCCCCNC(=O)c1cc(-c2cccc(C(F)(F)F)c2)nc2c(F)cccc12)c1ccc(-c2c3nc(c(-c4c(F)c(F)c(F)c(F)c4F)c4ccc([nH]4)c(-c4c(F)c(F)c(F)c(F)c4F)c4nc(c(-c5c(F)c(F)c(F)c(F)c5F)c5ccc2[nH]5)C=C4)C=C3)cc1
REMARK SMILES IDX 6 1 5 2 4 3 3 4 1 5 2 6 34 8 35 9 96 10 36 11 95 12 37 13
REMARK SMILES IDX 38 14 39 15 89 16 40 17 94 18 88 19 90 20 41 21 93 22 87 23
REMARK SMILES IDX 86 24 42 26 74 27 54 28 73 29 55 30 58 31 72 32 91 33 56 34
REMARK SMILES IDX 57 35 71 37 92 38 59 39 43 40 44 41 52 42 45 43 46 44 50 45
REMARK SMILES IDX 53 46 47 47 48 48 51 49 49 50 75 51 76 52 84 53 77 54 78 55
REMARK SMILES IDX 82 56 85 57 79 58 80 59 83 60 81 61 60 62 61 63 69 64 62 65
REMARK SMILES IDX 63 66 67 67 70 68 64 69 65 70 68 71 66 72 7 73 8 74 9 75
REMARK SMILES IDX 10 76 11 77 12 79 13 80 14 81 33 82 15 83 27 84 32 85 26 86
REMARK SMILES IDX 28 87 31 88 29 89 30 90 16 91 17 92 25 93 18 94 20 95 19 96
REMARK SMILES IDX 21 97 22 98 23 99 24 100
REMARK H PARENT 3 7 90 25 58 36 10 78
REMARK Flexibility Score: inf
ROOT
ATOM      1  C   UNL A   1      31.732  27.793  26.143  1.00  0.00     0.002 C 
ENDROOT
BRANCH   1   2
ATOM      2  C   UNL A   1      33.235  27.745  25.872  1.00  0.00     0.021 C 
BRANCH   2   3
ATOM      3  C   UNL A   1      33.839  29.022  25.303  1.00  0.00     0.116 C 
BRANCH   3   4
ATOM      4  N   UNL A   1      33.197  30.225  25.804  1.00  0.00    -0.352 N 
ATOM      5  O   UNL A   1      32.800  31.917  27.244  1.00  0.00    -0.269 OA
ATOM      6  C   UNL A   1      33.533  30.999  26.888  1.00  0.00     0.251 C 
ATOM      7  H   UNL A   1      32.413  30.529  25.293  1.00  0.00     0.163 HD
BRANCH   6   8
ATOM      8  C   UNL A   1      34.767  30.705  27.650  1.00  0.00     0.039 A 
ATOM      9  C   UNL A   1      34.934  29.479  28.298  1.00  0.00     0.014 A 
ATOM     10  C   UNL A   1      35.776  31.671  27.705  1.00  0.00     0.014 A 
ATOM     11  C   UNL A   1      36.044  29.272  29.110  1.00  0.00     0.010 A 
ATOM     12  C   UNL A   1      36.931  31.429  28.454  1.00  0.00     0.010 A 
ATOM     13  C   UNL A   1      37.061  30.237  29.185  1.00  0.00    -0.014 A 
BRANCH  13  14
ATOM     14  C   UNL A   1      38.283  29.945  29.976  1.00  0.00     0.031 A 
ATOM     15  C   UNL A   1      38.444  30.451  31.381  1.00  0.00     0.074 A 
ATOM     16  C   UNL A   1      39.248  29.194  29.412  1.00  0.00     0.049 A 
ATOM     17  N   UNL A   1      39.440  30.272  32.213  1.00  0.00    -0.248 NA
ATOM     18  C   UNL A   1      37.351  31.270  31.925  1.00  0.00     0.031 C 
ATOM     19  C   UNL A   1      39.211  28.666  28.047  1.00  0.00     0.029 A 
ATOM     20  N   UNL A   1      40.439  28.734  29.913  1.00  0.00    -0.354 N 
ATOM     21  C   UNL A   1      39.105  30.967  33.366  1.00  0.00     0.074 A 
ATOM     22  C   UNL A   1      37.823  31.592  33.122  1.00  0.00     0.031 C 
ATOM     23  C   UNL A   1      40.304  27.923  27.831  1.00  0.00     0.029 A 
ATOM     24  C   UNL A   1      41.147  27.968  29.021  1.00  0.00     0.049 A 
ATOM     25  H   UNL A   1      40.754  28.932  30.824  1.00  0.00     0.167 HD
ATOM     26  C   UNL A   1      39.805  31.067  34.523  1.00  0.00     0.037 A 
ATOM     27  C   UNL A   1      42.351  27.379  29.139  1.00  0.00     0.037 A 
ATOM     28  C   UNL A   1      41.074  30.429  34.763  1.00  0.00     0.049 A 
ATOM     29  C   UNL A   1      43.105  27.514  30.430  1.00  0.00     0.074 A 
ATOM     30  C   UNL A   1      41.838  30.434  35.918  1.00  0.00     0.029 A 
ATOM     31  N   UNL A   1      41.770  29.675  33.829  1.00  0.00    -0.354 N 
ATOM     32  N   UNL A   1      42.758  28.140  31.528  1.00  0.00    -0.248 NA
ATOM     33  C   UNL A   1      44.419  26.861  30.499  1.00  0.00     0.031 C 
ATOM     34  C   UNL A   1      43.016  29.721  35.668  1.00  0.00     0.029 A 
ATOM     35  C   UNL A   1      42.964  29.229  34.375  1.00  0.00     0.049 A 
ATOM     36  H   UNL A   1      41.461  29.483  32.914  1.00  0.00     0.167 HD
ATOM     37  C   UNL A   1      43.801  27.948  32.421  1.00  0.00     0.074 A 
ATOM     38  C   UNL A   1      44.784  27.126  31.745  1.00  0.00     0.031 C 
ATOM     39  C   UNL A   1      43.934  28.415  33.686  1.00  0.00     0.037 A 
BRANCH  26  40
ATOM     40  C   UNL A   1      39.224  31.911  35.621  1.00  0.00     0.064 A 
ATOM     41  C   UNL A   1      38.398  31.363  36.613  1.00  0.00     0.173 A 
ATOM     42  C   UNL A   1      39.549  33.273  35.716  1.00  0.00     0.173 A 
ATOM     43  F   UNL A   1      38.049  30.069  36.563  1.00  0.00    -0.203 F 
ATOM     44  C   UNL A   1      37.903  32.153  37.649  1.00  0.00     0.198 A 
ATOM     45  C   UNL A   1      39.073  34.053  36.767  1.00  0.00     0.198 A 
ATOM     46  F   UNL A   1      40.341  33.845  34.797  1.00  0.00    -0.203 F 
ATOM     47  F   UNL A   1      37.085  31.616  38.566  1.00  0.00    -0.200 F 
ATOM     48  C   UNL A   1      38.246  33.494  37.730  1.00  0.00     0.200 A 
ATOM     49  F   UNL A   1      39.416  35.345  36.850  1.00  0.00    -0.200 F 
ATOM     50  F   UNL A   1      37.777  34.248  38.734  1.00  0.00    -0.200 F 
ENDBRANCH  26  40
BRANCH  27  51
ATOM     51  C   UNL A   1      42.908  26.614  27.995  1.00  0.00     0.064 A 
ATOM     52  C   UNL A   1      42.717  25.229  27.891  1.00  0.00     0.173 A 
ATOM     53  C   UNL A   1      43.621  27.255  26.972  1.00  0.00     0.173 A 
ATOM     54  F   UNL A   1      42.057  24.571  28.854  1.00  0.00    -0.203 F 
ATOM     55  C   UNL A   1      43.227  24.515  26.810  1.00  0.00     0.198 A 
ATOM     56  C   UNL A   1      44.105  26.544  25.877  1.00  0.00     0.198 A 
ATOM     57  F   UNL A   1      43.824  28.581  27.023  1.00  0.00    -0.203 F 
ATOM     58  F   UNL A   1      43.062  23.187  26.751  1.00  0.00    -0.200 F 
ATOM     59  C   UNL A   1      43.914  25.173  25.800  1.00  0.00     0.200 A 
ATOM     60  F   UNL A   1      44.751  27.188  24.895  1.00  0.00    -0.200 F 
ATOM     61  F   UNL A   1      44.394  24.486  24.755  1.00  0.00    -0.200 F 
ENDBRANCH  27  51
BRANCH  39  62
ATOM     62  C   UNL A   1      45.180  28.029  34.426  1.00  0.00     0.064 A 
ATOM     63  C   UNL A   1      45.245  26.854  35.189  1.00  0.00     0.173 A 
ATOM     64  C   UNL A   1      46.329  28.831  34.352  1.00  0.00     0.173 A 
ATOM     65  F   UNL A   1      44.166  26.064  35.305  1.00  0.00    -0.203 F 
ATOM     66  C   UNL A   1      46.406  26.510  35.874  1.00  0.00     0.198 A 
ATOM     67  C   UNL A   1      47.498  28.469  35.015  1.00  0.00     0.198 A 
ATOM     68  F   UNL A   1      46.319  29.962  33.631  1.00  0.00    -0.203 F 
ATOM     69  F   UNL A   1      46.431  25.409  36.637  1.00  0.00    -0.200 F 
ATOM     70  C   UNL A   1      47.534  27.313  35.781  1.00  0.00     0.200 A 
ATOM     71  F   UNL A   1      48.589  29.240  34.916  1.00  0.00    -0.200 F 
ATOM     72  F   UNL A   1      48.653  26.979  36.438  1.00  0.00    -0.200 F 
ENDBRANCH  39  62
ENDBRANCH  13  14
ENDBRANCH   6   8
ENDBRANCH   3   4
ENDBRANCH   2   3
ENDBRANCH   1   2
BRANCH   1  73
ATOM     73  C   UNL A   1      30.858  26.928  25.231  1.00  0.00     0.002 C 
BRANCH  73  74
ATOM     74  C   UNL A   1      30.673  25.469  25.656  1.00  0.00     0.021 C 
BRANCH  74  75
ATOM     75  C   UNL A   1      31.582  24.460  24.962  1.00  0.00     0.116 C 
BRANCH  75  76
ATOM     76  N   UNL A   1      32.263  25.012  23.805  1.00  0.00    -0.352 N 
ATOM     77  C   UNL A   1      33.416  24.577  23.203  1.00  0.00     0.252 C 
ATOM     78  H   UNL A   1      31.841  25.804  23.399  1.00  0.00     0.163 HD
ATOM     79  O   UNL A   1      33.888  25.173  22.241  1.00  0.00    -0.269 OA
BRANCH  77  80
ATOM     80  C   UNL A   1      34.130  23.412  23.761  1.00  0.00     0.051 A 
ATOM     81  C   UNL A   1      35.308  23.696  24.445  1.00  0.00     0.043 A 
ATOM     82  C   UNL A   1      33.649  22.091  23.634  1.00  0.00     0.016 A 
ATOM     83  C   UNL A   1      35.980  22.646  25.037  1.00  0.00     0.072 A 
ATOM     84  C   UNL A   1      34.366  21.100  24.327  1.00  0.00     0.107 A 
ATOM     85  C   UNL A   1      32.507  21.724  22.872  1.00  0.00     0.011 A 
ATOM     86  N   UNL A   1      35.506  21.378  25.000  1.00  0.00    -0.245 NA
ATOM     87  C   UNL A   1      33.855  19.801  24.304  1.00  0.00     0.149 A 
ATOM     88  C   UNL A   1      32.034  20.415  22.862  1.00  0.00     0.004 A 
ATOM     89  F   UNL A   1      34.478  18.828  24.992  1.00  0.00    -0.205 F 
ATOM     90  C   UNL A   1      32.703  19.452  23.599  1.00  0.00     0.041 A 
BRANCH  83  91
ATOM     91  C   UNL A   1      37.276  22.828  25.700  1.00  0.00     0.001 A 
ATOM     92  C   UNL A   1      37.670  24.069  26.224  1.00  0.00     0.010 A 
ATOM     93  C   UNL A   1      38.174  21.750  25.794  1.00  0.00     0.023 A 
ATOM     94  C   UNL A   1      38.926  24.231  26.813  1.00  0.00     0.001 A 
ATOM     95  C   UNL A   1      39.447  21.903  26.365  1.00  0.00     0.056 A 
ATOM     96  C   UNL A   1      39.812  23.156  26.877  1.00  0.00     0.013 A 
BRANCH  95  97
ATOM     97  C   UNL A   1      40.419  20.751  26.416  1.00  0.00     0.416 C 
ATOM     98  F   UNL A   1      40.778  20.435  27.693  1.00  0.00    -0.166 F 
ATOM     99  F   UNL A   1      39.907  19.609  25.880  1.00  0.00    -0.166 F 
ATOM    100  F   UNL A   1      41.585  20.986  25.753  1.00  0.00    -0.166 F 
ENDBRANCH  95  97
ENDBRANCH  83  91
ENDBRANCH  77  80
ENDBRANCH  75  76
ENDBRANCH  74  75
ENDBRANCH  73  74
ENDBRANCH   1  73
TORSDOF 15
ENDMDL
MODEL 3
REMARK VINA RESULT:     -12.4      4.712      9.528
REMARK SMILES O=C(NCCCCCCNC(=O)c1cc(-c2cccc(C(F)(F)F)c2)nc2c(F)cccc12)c1ccc(-c2c3nc(c(-c4c(F)c(F)c(F)c(F)c4F)c4ccc([nH]4)c(-c4c(F)c(F)c(F)c(F)c4F)c4nc(c(-c5c(F)c(F)c(F)c(F)c5F)c5ccc2[nH]5)C=C4)C=C3)cc1
REMARK SMILES IDX 6 1 5 2 4 3 3 4 1 5 2 6 34 8 35 9 96 10 36 11 95 12 37 13
REMARK SMILES IDX 38 14 39 15 89 16 40 17 94 18 88 19 90 20 41 21 93 22 87 23
REMARK SMILES IDX 86 24 42 26 74 27 54 28 73 29 55 30 58 31 72 32 91 33 56 34
REMARK SMILES IDX 57 35 71 37 92 38 59 39 43 40 44 41 52 42 45 43 46 44 50 45
REMARK SMILES IDX 53 46 47 47 48 48 51 49 49 50 75 51 76 52 84 53 77 54 78 55
REMARK SMILES IDX 82 56 85 57 79 58 80 59 83 60 81 61 60 62 61 63 69 64 62 65
REMARK SMILES IDX 63 66 67 67 70 68 64 69 65 70 68 71 66 72 7 73 8 74 9 75
REMARK SMILES IDX 10 76 11 77 12 79 13 80 14 81 33 82 15 83 27 84 32 85 26 86
REMARK SMILES IDX 28 87 31 88 29 89 30 90 16 91 17 92 25 93 18 94 20 95 19 96
REMARK SMILES IDX 21 97 22 98 23 99 24 100
REMARK H PARENT 3 7 90 25 58 36 10 78
REMARK Flexibility Score: inf
ROOT
ATOM      1  C   UNL A   1      36.939  20.461  25.000  1.00  0.00     0.002 C 
ENDROOT
BRANCH   1   2
ATOM      2  C   UNL A   1      38.177  19.567  24.957  1.00  0.00     0.021 C 
BRANCH   2   3
ATOM      3  C   UNL A   1      39.275  19.922  25.950  1.00  0.00     0.116 C 
BRANCH   3   4
ATOM      4  N   UNL A   1      40.400  19.004  25.906  1.00  0.00    -0.352 N 
ATOM      5  O   UNL A   1      42.570  18.384  25.872  1.00  0.00    -0.269 OA
ATOM      6  C   UNL A   1      41.738  19.265  26.068  1.00  0.00     0.251 C 
ATOM      7  H   UNL A   1      40.170  18.062  25.738  1.00  0.00     0.163 HD
BRANCH   6   8
ATOM      8  C   UNL A   1      42.184  20.624  26.449  1.00  0.00     0.039 A 
ATOM      9  C   UNL A   1      42.275  20.998  27.792  1.00  0.00     0.014 A 
ATOM     10  C   UNL A   1      42.525  21.534  25.444  1.00  0.00     0.014 A 
ATOM     11  C   UNL A   1      42.574  22.314  28.124  1.00  0.00     0.010 A 
ATOM     12  C   UNL A   1      42.907  22.834  25.782  1.00  0.00     0.010 A 
ATOM     13  C   UNL A   1      42.908  23.243  27.126  1.00  0.00    -0.014 A 
BRANCH  13  14
ATOM     14  C   UNL A   1      43.326  24.613  27.517  1.00  0.00     0.031 A 
ATOM     15  C   UNL A   1      44.772  25.019  27.519  1.00  0.00     0.074 A 
ATOM     16  C   UNL A   1      42.373  25.502  27.857  1.00  0.00     0.049 A 
ATOM     17  N   UNL A   1      45.302  26.178  27.818  1.00  0.00    -0.248 NA
ATOM     18  C   UNL A   1      45.754  23.991  27.143  1.00  0.00     0.031 C 
ATOM     19  C   UNL A   1      40.938  25.214  27.912  1.00  0.00     0.029 A 
ATOM     20  N   UNL A   1      42.459  26.825  28.207  1.00  0.00    -0.354 N 
ATOM     21  C   UNL A   1      46.674  26.017  27.686  1.00  0.00     0.074 A 
ATOM     22  C   UNL A   1      46.900  24.640  27.301  1.00  0.00     0.031 C 
ATOM     23  C   UNL A   1      40.276  26.333  28.234  1.00  0.00     0.029 A 
ATOM     24  C   UNL A   1      41.241  27.403  28.464  1.00  0.00     0.049 A 
ATOM     25  H   UNL A   1      43.312  27.312  28.266  1.00  0.00     0.167 HD
ATOM     26  C   UNL A   1      47.652  26.938  27.865  1.00  0.00     0.037 A 
ATOM     27  C   UNL A   1      40.933  28.651  28.859  1.00  0.00     0.037 A 
ATOM     28  C   UNL A   1      47.418  28.312  28.233  1.00  0.00     0.049 A 
ATOM     29  C   UNL A   1      42.039  29.647  29.056  1.00  0.00     0.074 A 
ATOM     30  C   UNL A   1      48.340  29.332  28.394  1.00  0.00     0.029 A 
ATOM     31  N   UNL A   1      46.171  28.857  28.503  1.00  0.00    -0.354 N 
ATOM     32  N   UNL A   1      43.329  29.493  28.888  1.00  0.00    -0.248 NA
ATOM     33  C   UNL A   1      41.645  30.991  29.499  1.00  0.00     0.031 C 
ATOM     34  C   UNL A   1      47.656  30.481  28.805  1.00  0.00     0.029 A 
ATOM     35  C   UNL A   1      46.303  30.192  28.852  1.00  0.00     0.049 A 
ATOM     36  H   UNL A   1      45.318  28.367  28.454  1.00  0.00     0.167 HD
ATOM     37  C   UNL A   1      43.901  30.719  29.190  1.00  0.00     0.074 A 
ATOM     38  C   UNL A   1      42.814  31.615  29.530  1.00  0.00     0.031 C 
ATOM     39  C   UNL A   1      45.210  31.069  29.192  1.00  0.00     0.037 A 
BRANCH  26  40
ATOM     40  C   UNL A   1      49.075  26.494  27.680  1.00  0.00     0.064 A 
ATOM     41  C   UNL A   1      49.647  26.362  26.408  1.00  0.00     0.173 A 
ATOM     42  C   UNL A   1      49.893  26.256  28.796  1.00  0.00     0.173 A 
ATOM     43  F   UNL A   1      48.905  26.568  25.308  1.00  0.00    -0.203 F 
ATOM     44  C   UNL A   1      50.982  25.990  26.257  1.00  0.00     0.198 A 
ATOM     45  C   UNL A   1      51.233  25.910  28.642  1.00  0.00     0.198 A 
ATOM     46  F   UNL A   1      49.398  26.374  30.036  1.00  0.00    -0.203 F 
ATOM     47  F   UNL A   1      51.497  25.835  25.029  1.00  0.00    -0.200 F 
ATOM     48  C   UNL A   1      51.775  25.771  27.373  1.00  0.00     0.200 A 
ATOM     49  F   UNL A   1      52.001  25.710  29.721  1.00  0.00    -0.200 F 
ATOM     50  F   UNL A   1      53.061  25.424  27.225  1.00  0.00    -0.200 F 
ENDBRANCH  26  40
BRANCH  27  51
ATOM     51  C   UNL A   1      39.513  29.016  29.093  1.00  0.00     0.064 A 
ATOM     52  C   UNL A   1      38.703  29.477  28.046  1.00  0.00     0.173 A 
ATOM     53  C   UNL A   1      38.931  28.888  30.363  1.00  0.00     0.173 A 
ATOM     54  F   UNL A   1      39.221  29.632  26.819  1.00  0.00    -0.203 F 
ATOM     55  C   UNL A   1      37.368  29.805  28.264  1.00  0.00     0.198 A 
ATOM     56  C   UNL A   1      37.588  29.189  30.573  1.00  0.00     0.198 A 
ATOM     57  F   UNL A   1      39.663  28.444  31.396  1.00  0.00    -0.203 F 
ATOM     58  F   UNL A   1      36.624  30.277  27.254  1.00  0.00    -0.200 F 
ATOM     59  C   UNL A   1      36.808  29.653  29.524  1.00  0.00     0.200 A 
ATOM     60  F   UNL A   1      37.048  29.023  31.788  1.00  0.00    -0.200 F 
ATOM     61  F   UNL A   1      35.520  29.959  29.729  1.00  0.00    -0.200 F 
ENDBRANCH  27  51
BRANCH  39  62
ATOM     62  C   UNL A   1      45.534  32.488  29.554  1.00  0.00     0.064 A 
ATOM     63  C   UNL A   1      45.834  32.858  30.874  1.00  0.00     0.173 A 
ATOM     64  C   UNL A   1      45.568  33.484  28.566  1.00  0.00     0.173 A 
ATOM     65  F   UNL A   1      45.796  31.944  31.856  1.00  0.00    -0.203 F 
ATOM     66  C   UNL A   1      46.129  34.179  31.196  1.00  0.00     0.198 A 
ATOM     67  C   UNL A   1      45.892  34.798  28.887  1.00  0.00     0.198 A 
ATOM     68  F   UNL A   1      45.294  33.179  27.289  1.00  0.00    -0.203 F 
ATOM     69  F   UNL A   1      46.363  34.520  32.470  1.00  0.00    -0.200 F 
ATOM     70  C   UNL A   1      46.165  35.147  30.202  1.00  0.00     0.200 A 
ATOM     71  F   UNL A   1      45.937  35.730  27.926  1.00  0.00    -0.200 F 
ATOM     72  F   UNL A   1      46.453  36.418  30.513  1.00  0.00    -0.200 F 
ENDBRANCH  39  62
ENDBRANCH  13  14
ENDBRANCH   6   8
ENDBRANCH   3   4
ENDBRANCH   2   3
ENDBRANCH   1   2
BRANCH   1  73
ATOM     73  C   UNL A   1      37.146  21.915  24.565  1.00  0.00     0.002 C 
BRANCH  73  74
ATOM     74  C   UNL A   1      37.206  22.955  25.687  1.00  0.00     0.021 C 
BRANCH  74  75
ATOM     75  C   UNL A   1      35.968  23.831  25.840  1.00  0.00     0.116 C 
BRANCH  75  76
ATOM     76  N   UNL A   1      35.615  24.535  24.620  1.00  0.00    -0.352 N 
ATOM     77  C   UNL A   1      34.489  24.398  23.849  1.00  0.00     0.252 C 
ATOM     78  H   UNL A   1      36.272  25.197  24.305  1.00  0.00     0.163 HD
ATOM     79  O   UNL A   1      34.348  25.050  22.820  1.00  0.00    -0.269 OA
BRANCH  77  80
ATOM     80  C   UNL A   1      33.463  23.410  24.233  1.00  0.00     0.051 A 
ATOM     81  C   UNL A   1      33.716  22.096  23.849  1.00  0.00     0.043 A 
ATOM     82  C   UNL A   1      32.305  23.757  24.962  1.00  0.00     0.016 A 
ATOM     83  C   UNL A   1      32.816  21.125  24.237  1.00  0.00     0.072 A 
ATOM     84  C   UNL A   1      31.484  22.690  25.366  1.00  0.00     0.107 A 
ATOM     85  C   UNL A   1      31.941  25.087  25.302  1.00  0.00     0.011 A 
ATOM     86  N   UNL A   1      31.735  21.412  25.001  1.00  0.00    -0.245 NA
ATOM     87  C   UNL A   1      30.387  22.992  26.176  1.00  0.00     0.149 A 
ATOM     88  C   UNL A   1      30.832  25.353  26.100  1.00  0.00     0.004 A 
ATOM     89  F   UNL A   1      29.600  22.001  26.630  1.00  0.00    -0.205 F 
ATOM     90  C   UNL A   1      30.061  24.295  26.555  1.00  0.00     0.041 A 
BRANCH  83  91
ATOM     91  C   UNL A   1      32.944  19.729  23.805  1.00  0.00     0.001 A 
ATOM     92  C   UNL A   1      32.202  19.219  22.728  1.00  0.00     0.010 A 
ATOM     93  C   UNL A   1      33.803  18.856  24.496  1.00  0.00     0.023 A 
ATOM     94  C   UNL A   1      32.306  17.875  22.360  1.00  0.00     0.001 A 
ATOM     95  C   UNL A   1      33.903  17.499  24.149  1.00  0.00     0.056 A 
ATOM     96  C   UNL A   1      33.146  17.019  23.070  1.00  0.00     0.013 A 
BRANCH  95  97
ATOM     97  C   UNL A   1      34.791  16.561  24.928  1.00  0.00     0.416 C 
ATOM     98  F   UNL A   1      35.118  15.448  24.213  1.00  0.00    -0.166 F 
ATOM     99  F   UNL A   1      35.974  17.136  25.284  1.00  0.00    -0.166 F 
ATOM    100  F   UNL A   1      34.232  16.108  26.084  1.00  0.00    -0.166 F 
ENDBRANCH  95  97
ENDBRANCH  83  91
ENDBRANCH  77  80
ENDBRANCH  75  76
ENDBRANCH  74  75
ENDBRANCH  73  74
ENDBRANCH   1  73
TORSDOF 15
ENDMDL
