MODEL 1
REMARK VINA RESULT:     -11.6      0.000      0.000
REMARK SMILES O=C(Cc1csc(Sc2ncnc3c2CCCC3)n1)NCCCCCCNC(=O)c1ccc(-c2c3nc(c(-c4c(F)c(F)c(F)c(F)c4F)c4ccc([nH]4)c(-c4c(F)c(F)c(F)c(F)c4F)c4nc(c(-c5c(F)c(F)c(F)c(F)c5F)c5ccc2[nH]5)C=C4)C=C3)cc1
REMARK SMILES IDX 23 1 22 2 21 3 20 4 1 5 2 6 3 8 4 9 5 10 19 11 6 12 7 13
REMARK SMILES IDX 8 14 9 15 10 16 14 17 11 18 13 19 15 20 12 21 18 22 16 23
REMARK SMILES IDX 17 24 24 25 25 26 26 27 27 28 28 29 29 31 30 32 31 33 92 34
REMARK SMILES IDX 32 35 91 36 33 37 34 38 35 39 85 40 36 41 90 42 84 43 86 44
REMARK SMILES IDX 37 45 89 46 83 47 82 48 38 50 70 51 50 52 69 53 51 54 54 55
REMARK SMILES IDX 68 56 87 57 52 58 53 59 67 61 88 62 55 63 39 64 40 65 48 66
REMARK SMILES IDX 41 67 42 68 46 69 49 70 43 71 44 72 47 73 45 74 71 75 72 76
REMARK SMILES IDX 80 77 73 78 74 79 78 80 81 81 75 82 76 83 79 84 77 85 56 86
REMARK SMILES IDX 57 87 65 88 58 89 59 90 63 91 66 92 60 93 61 94 64 95 62 96
REMARK H PARENT 20 7 27 30 86 49 54 60
REMARK Flexibility Score: inf
ROOT
ATOM      1  C   UNL A   1      34.384  32.286  28.970  1.00  0.00     0.002 C 
ENDROOT
BRANCH   1   2
ATOM      2  C   UNL A   1      34.558  31.425  27.710  1.00  0.00     0.021 C 
BRANCH   2   3
ATOM      3  C   UNL A   1      33.318  30.630  27.309  1.00  0.00     0.116 C 
BRANCH   3   4
ATOM      4  N   UNL A   1      33.439  30.102  25.966  1.00  0.00    -0.356 N 
ATOM      5  O   UNL A   1      34.027  27.968  26.577  1.00  0.00    -0.275 OA
ATOM      6  C   UNL A   1      33.764  28.786  25.700  1.00  0.00     0.226 C 
ATOM      7  H   UNL A   1      33.280  30.708  25.206  1.00  0.00     0.163 HD
BRANCH   6   8
ATOM      8  C   UNL A   1      33.775  28.438  24.220  1.00  0.00     0.157 C 
BRANCH   8   9
ATOM      9  C   UNL A   1      32.950  27.229  23.883  1.00  0.00     0.062 A 
ATOM     10  C   UNL A   1      31.663  26.932  24.297  1.00  0.00     0.092 A 
ATOM     11  N   UNL A   1      33.512  26.267  23.042  1.00  0.00    -0.234 NA
ATOM     12  S   UNL A   1      31.165  25.425  23.669  1.00  0.00    -0.116 S 
ATOM     13  C   UNL A   1      32.700  25.239  22.915  1.00  0.00     0.156 A 
BRANCH  13  14
ATOM     14  S   UNL A   1      33.052  23.763  22.048  1.00  0.00    -0.039 SA
BRANCH  14  15
ATOM     15  C   UNL A   1      33.315  22.592  23.368  1.00  0.00     0.110 A 
ATOM     16  N   UNL A   1      32.259  21.813  23.677  1.00  0.00    -0.229 NA
ATOM     17  C   UNL A   1      34.592  22.377  23.887  1.00  0.00     0.006 A 
ATOM     18  C   UNL A   1      32.487  20.823  24.544  1.00  0.00     0.223 A 
ATOM     19  C   UNL A   1      34.719  21.279  24.731  1.00  0.00     0.048 A 
ATOM     20  C   UNL A   1      35.788  23.202  23.490  1.00  0.00     0.040 C 
ATOM     21  N   UNL A   1      33.670  20.508  25.085  1.00  0.00    -0.241 NA
ATOM     22  C   UNL A   1      36.049  20.880  25.322  1.00  0.00     0.056 C 
ATOM     23  C   UNL A   1      37.015  22.973  24.373  1.00  0.00     0.005 C 
ATOM     24  C   UNL A   1      37.242  21.484  24.587  1.00  0.00     0.007 C 
ENDBRANCH  14  15
ENDBRANCH  13  14
ENDBRANCH   8   9
ENDBRANCH   6   8
ENDBRANCH   3   4
ENDBRANCH   2   3
ENDBRANCH   1   2
BRANCH   1  25
ATOM     25  C   UNL A   1      34.529  33.796  28.757  1.00  0.00     0.002 C 
BRANCH  25  26
ATOM     26  C   UNL A   1      33.221  34.586  28.816  1.00  0.00     0.021 C 
BRANCH  26  27
ATOM     27  C   UNL A   1      33.355  36.001  29.368  1.00  0.00     0.116 C 
BRANCH  27  28
ATOM     28  N   UNL A   1      32.491  36.234  30.515  1.00  0.00    -0.352 N 
ATOM     29  C   UNL A   1      32.599  35.757  31.797  1.00  0.00     0.251 C 
ATOM     30  H   UNL A   1      31.716  36.818  30.346  1.00  0.00     0.163 HD
ATOM     31  O   UNL A   1      31.681  35.916  32.598  1.00  0.00    -0.269 OA
BRANCH  29  32
ATOM     32  C   UNL A   1      33.818  35.032  32.210  1.00  0.00     0.039 A 
ATOM     33  C   UNL A   1      33.709  33.694  32.600  1.00  0.00     0.014 A 
ATOM     34  C   UNL A   1      35.061  35.669  32.219  1.00  0.00     0.014 A 
ATOM     35  C   UNL A   1      34.858  32.981  32.949  1.00  0.00     0.010 A 
ATOM     36  C   UNL A   1      36.213  34.937  32.492  1.00  0.00     0.010 A 
ATOM     37  C   UNL A   1      36.120  33.590  32.873  1.00  0.00    -0.014 A 
BRANCH  37  38
ATOM     38  C   UNL A   1      37.353  32.847  33.226  1.00  0.00     0.031 A 
ATOM     39  C   UNL A   1      38.058  33.140  34.521  1.00  0.00     0.074 A 
ATOM     40  C   UNL A   1      37.860  31.938  32.372  1.00  0.00     0.049 A 
ATOM     41  N   UNL A   1      39.171  32.638  34.991  1.00  0.00    -0.248 NA
ATOM     42  C   UNL A   1      37.439  34.150  35.393  1.00  0.00     0.031 C 
ATOM     43  C   UNL A   1      37.279  31.582  31.077  1.00  0.00     0.029 A 
ATOM     44  N   UNL A   1      38.977  31.146  32.465  1.00  0.00    -0.354 N 
ATOM     45  C   UNL A   1      39.383  33.269  36.209  1.00  0.00     0.074 A 
ATOM     46  C   UNL A   1      38.325  34.241  36.373  1.00  0.00     0.031 C 
ATOM     47  C   UNL A   1      38.025  30.620  30.513  1.00  0.00     0.029 A 
ATOM     48  C   UNL A   1      39.158  30.321  31.384  1.00  0.00     0.049 A 
ATOM     49  H   UNL A   1      39.591  31.170  33.235  1.00  0.00     0.167 HD
ATOM     50  C   UNL A   1      40.354  33.036  37.124  1.00  0.00     0.037 A 
ATOM     51  C   UNL A   1      40.130  29.423  31.125  1.00  0.00     0.037 A 
ATOM     52  C   UNL A   1      41.398  32.061  36.960  1.00  0.00     0.049 A 
ATOM     53  C   UNL A   1      41.229  29.221  32.131  1.00  0.00     0.074 A 
ATOM     54  C   UNL A   1      42.410  31.725  37.843  1.00  0.00     0.029 A 
ATOM     55  N   UNL A   1      41.569  31.265  35.836  1.00  0.00    -0.354 N 
ATOM     56  N   UNL A   1      41.395  29.788  33.302  1.00  0.00    -0.248 NA
ATOM     57  C   UNL A   1      42.279  28.253  31.780  1.00  0.00     0.031 C 
ATOM     58  C   UNL A   1      43.222  30.767  37.230  1.00  0.00     0.029 A 
ATOM     59  C   UNL A   1      42.687  30.462  35.990  1.00  0.00     0.049 A 
ATOM     60  H   UNL A   1      40.981  31.271  35.046  1.00  0.00     0.167 HD
ATOM     61  C   UNL A   1      42.553  29.238  33.834  1.00  0.00     0.074 A 
ATOM     62  C   UNL A   1      43.037  28.272  32.868  1.00  0.00     0.031 C 
ATOM     63  C   UNL A   1      43.163  29.511  35.014  1.00  0.00     0.037 A 
BRANCH  50  64
ATOM     64  C   UNL A   1      40.323  33.848  38.387  1.00  0.00     0.064 A 
ATOM     65  C   UNL A   1      39.567  33.445  39.500  1.00  0.00     0.173 A 
ATOM     66  C   UNL A   1      41.081  35.023  38.502  1.00  0.00     0.173 A 
ATOM     67  F   UNL A   1      38.815  32.336  39.439  1.00  0.00    -0.203 F 
ATOM     68  C   UNL A   1      39.547  34.204  40.667  1.00  0.00     0.198 A 
ATOM     69  C   UNL A   1      41.085  35.761  39.684  1.00  0.00     0.198 A 
ATOM     70  F   UNL A   1      41.824  35.453  37.471  1.00  0.00    -0.203 F 
ATOM     71  F   UNL A   1      38.776  33.826  41.696  1.00  0.00    -0.200 F 
ATOM     72  C   UNL A   1      40.312  35.355  40.761  1.00  0.00     0.200 A 
ATOM     73  F   UNL A   1      41.836  36.866  39.777  1.00  0.00    -0.200 F 
ATOM     74  F   UNL A   1      40.299  36.080  41.889  1.00  0.00    -0.200 F 
ENDBRANCH  50  64
BRANCH  51  75
ATOM     75  C   UNL A   1      40.075  28.624  29.874  1.00  0.00     0.064 A 
ATOM     76  C   UNL A   1      40.687  29.087  28.701  1.00  0.00     0.173 A 
ATOM     77  C   UNL A   1      39.447  27.370  29.829  1.00  0.00     0.173 A 
ATOM     78  F   UNL A   1      41.281  30.291  28.688  1.00  0.00    -0.203 F 
ATOM     79  C   UNL A   1      40.673  28.329  27.532  1.00  0.00     0.198 A 
ATOM     80  C   UNL A   1      39.458  26.600  28.668  1.00  0.00     0.198 A 
ATOM     81  F   UNL A   1      38.848  26.880  30.924  1.00  0.00    -0.203 F 
ATOM     82  F   UNL A   1      41.244  28.808  26.419  1.00  0.00    -0.200 F 
ATOM     83  C   UNL A   1      40.069  27.082  27.519  1.00  0.00     0.200 A 
ATOM     84  F   UNL A   1      38.886  25.388  28.664  1.00  0.00    -0.200 F 
ATOM     85  F   UNL A   1      40.073  26.345  26.401  1.00  0.00    -0.200 F 
ENDBRANCH  51  75
BRANCH  63  86
ATOM     86  C   UNL A   1      44.424  28.761  35.334  1.00  0.00     0.064 A 
ATOM     87  C   UNL A   1      45.681  29.244  34.943  1.00  0.00     0.173 A 
ATOM     88  C   UNL A   1      44.382  27.583  36.096  1.00  0.00     0.173 A 
ATOM     89  F   UNL A   1      45.776  30.359  34.204  1.00  0.00    -0.203 F 
ATOM     90  C   UNL A   1      46.848  28.566  35.288  1.00  0.00     0.198 A 
ATOM     91  C   UNL A   1      45.552  26.926  36.467  1.00  0.00     0.198 A 
ATOM     92  F   UNL A   1      43.206  27.082  36.504  1.00  0.00    -0.203 F 
ATOM     93  F   UNL A   1      48.036  29.024  34.868  1.00  0.00    -0.200 F 
ATOM     94  C   UNL A   1      46.783  27.415  36.057  1.00  0.00     0.200 A 
ATOM     95  F   UNL A   1      45.489  25.824  37.228  1.00  0.00    -0.200 F 
ATOM     96  F   UNL A   1      47.909  26.773  36.402  1.00  0.00    -0.200 F 
ENDBRANCH  63  86
ENDBRANCH  37  38
ENDBRANCH  29  32
ENDBRANCH  27  28
ENDBRANCH  26  27
ENDBRANCH  25  26
ENDBRANCH   1  25
TORSDOF 16
ENDMDL
MODEL 2
REMARK VINA RESULT:     -11.4      6.105     10.764
REMARK SMILES O=C(Cc1csc(Sc2ncnc3c2CCCC3)n1)NCCCCCCNC(=O)c1ccc(-c2c3nc(c(-c4c(F)c(F)c(F)c(F)c4F)c4ccc([nH]4)c(-c4c(F)c(F)c(F)c(F)c4F)c4nc(c(-c5c(F)c(F)c(F)c(F)c5F)c5ccc2[nH]5)C=C4)C=C3)cc1
REMARK SMILES IDX 23 1 22 2 21 3 20 4 1 5 2 6 3 8 4 9 5 10 19 11 6 12 7 13
REMARK SMILES IDX 8 14 9 15 10 16 14 17 11 18 13 19 15 20 12 21 18 22 16 23
REMARK SMILES IDX 17 24 24 25 25 26 26 27 27 28 28 29 29 31 30 32 31 33 92 34
REMARK SMILES IDX 32 35 91 36 33 37 34 38 35 39 85 40 36 41 90 42 84 43 86 44
REMARK SMILES IDX 37 45 89 46 83 47 82 48 38 50 70 51 50 52 69 53 51 54 54 55
REMARK SMILES IDX 68 56 87 57 52 58 53 59 67 61 88 62 55 63 39 64 40 65 48 66
REMARK SMILES IDX 41 67 42 68 46 69 49 70 43 71 44 72 47 73 45 74 71 75 72 76
REMARK SMILES IDX 80 77 73 78 74 79 78 80 81 81 75 82 76 83 79 84 77 85 56 86
REMARK SMILES IDX 57 87 65 88 58 89 59 90 63 91 66 92 60 93 61 94 64 95 62 96
REMARK H PARENT 20 7 27 30 86 49 54 60
REMARK Flexibility Score: inf
ROOT
ATOM      1  C   UNL A   1      36.679  22.020  25.360  1.00  0.00     0.002 C 
ENDROOT
BRANCH   1   2
ATOM      2  C   UNL A   1      35.514  22.515  26.230  1.00  0.00     0.021 C 
BRANCH   2   3
ATOM      3  C   UNL A   1      34.252  21.660  26.146  1.00  0.00     0.116 C 
BRANCH   3   4
ATOM      4  N   UNL A   1      33.481  21.968  24.958  1.00  0.00    -0.356 N 
ATOM      5  O   UNL A   1      33.337  19.814  24.177  1.00  0.00    -0.275 OA
ATOM      6  C   UNL A   1      33.056  21.004  24.066  1.00  0.00     0.226 C 
ATOM      7  H   UNL A   1      33.249  22.908  24.780  1.00  0.00     0.163 HD
BRANCH   6   8
ATOM      8  C   UNL A   1      32.210  21.546  22.925  1.00  0.00     0.157 C 
BRANCH   8   9
ATOM      9  C   UNL A   1      31.899  23.009  23.052  1.00  0.00     0.062 A 
ATOM     10  C   UNL A   1      30.736  23.597  23.520  1.00  0.00     0.092 A 
ATOM     11  N   UNL A   1      32.883  23.923  22.671  1.00  0.00    -0.234 NA
ATOM     12  S   UNL A   1      30.853  25.298  23.444  1.00  0.00    -0.116 S 
ATOM     13  C   UNL A   1      32.426  25.154  22.763  1.00  0.00     0.156 A 
BRANCH  13  14
ATOM     14  S   UNL A   1      33.282  26.598  22.276  1.00  0.00    -0.039 SA
BRANCH  14  15
ATOM     15  C   UNL A   1      32.388  27.885  23.129  1.00  0.00     0.110 A 
ATOM     16  N   UNL A   1      31.343  28.412  22.461  1.00  0.00    -0.229 NA
ATOM     17  C   UNL A   1      32.648  28.164  24.472  1.00  0.00     0.006 A 
ATOM     18  C   UNL A   1      30.567  29.255  23.147  1.00  0.00     0.223 A 
ATOM     19  C   UNL A   1      31.734  29.006  25.096  1.00  0.00     0.048 A 
ATOM     20  C   UNL A   1      33.773  27.522  25.240  1.00  0.00     0.040 C 
ATOM     21  N   UNL A   1      30.703  29.576  24.439  1.00  0.00    -0.241 NA
ATOM     22  C   UNL A   1      31.844  29.352  26.560  1.00  0.00     0.056 C 
ATOM     23  C   UNL A   1      34.037  28.167  26.600  1.00  0.00     0.005 C 
ATOM     24  C   UNL A   1      32.728  28.387  27.344  1.00  0.00     0.007 C 
ENDBRANCH  14  15
ENDBRANCH  13  14
ENDBRANCH   8   9
ENDBRANCH   6   8
ENDBRANCH   3   4
ENDBRANCH   2   3
ENDBRANCH   1   2
BRANCH   1  25
ATOM     25  C   UNL A   1      36.684  20.516  25.067  1.00  0.00     0.002 C 
BRANCH  25  26
ATOM     26  C   UNL A   1      38.065  19.911  24.816  1.00  0.00     0.021 C 
BRANCH  26  27
ATOM     27  C   UNL A   1      39.097  20.205  25.899  1.00  0.00     0.116 C 
BRANCH  27  28
ATOM     28  N   UNL A   1      40.164  19.217  25.933  1.00  0.00    -0.352 N 
ATOM     29  C   UNL A   1      41.514  19.400  26.099  1.00  0.00     0.251 C 
ATOM     30  H   UNL A   1      39.876  18.282  25.821  1.00  0.00     0.163 HD
ATOM     31  O   UNL A   1      42.293  18.465  25.928  1.00  0.00    -0.269 OA
BRANCH  29  32
ATOM     32  C   UNL A   1      42.035  20.733  26.464  1.00  0.00     0.039 A 
ATOM     33  C   UNL A   1      42.382  21.626  25.447  1.00  0.00     0.014 A 
ATOM     34  C   UNL A   1      42.188  21.099  27.805  1.00  0.00     0.014 A 
ATOM     35  C   UNL A   1      42.832  22.906  25.776  1.00  0.00     0.010 A 
ATOM     36  C   UNL A   1      42.561  22.399  28.130  1.00  0.00     0.010 A 
ATOM     37  C   UNL A   1      42.900  23.310  27.118  1.00  0.00    -0.014 A 
BRANCH  37  38
ATOM     38  C   UNL A   1      43.363  24.670  27.488  1.00  0.00     0.031 A 
ATOM     39  C   UNL A   1      42.358  25.728  27.849  1.00  0.00     0.074 A 
ATOM     40  C   UNL A   1      44.676  24.964  27.463  1.00  0.00     0.049 A 
ATOM     41  N   UNL A   1      42.553  26.986  28.153  1.00  0.00    -0.248 NA
ATOM     42  C   UNL A   1      40.944  25.323  27.848  1.00  0.00     0.031 C 
ATOM     43  C   UNL A   1      45.743  24.029  27.108  1.00  0.00     0.029 A 
ATOM     44  N   UNL A   1      45.337  26.134  27.744  1.00  0.00    -0.354 N 
ATOM     45  C   UNL A   1      41.290  27.518  28.377  1.00  0.00     0.074 A 
ATOM     46  C   UNL A   1      40.334  26.469  28.106  1.00  0.00     0.031 C 
ATOM     47  C   UNL A   1      46.927  24.651  27.225  1.00  0.00     0.029 A 
ATOM     48  C   UNL A   1      46.700  26.038  27.621  1.00  0.00     0.049 A 
ATOM     49  H   UNL A   1      44.876  26.964  28.007  1.00  0.00     0.167 HD
ATOM     50  C   UNL A   1      40.961  28.760  28.804  1.00  0.00     0.037 A 
ATOM     51  C   UNL A   1      47.660  26.966  27.808  1.00  0.00     0.037 A 
ATOM     52  C   UNL A   1      41.917  29.797  29.082  1.00  0.00     0.049 A 
ATOM     53  C   UNL A   1      47.266  28.355  28.228  1.00  0.00     0.074 A 
ATOM     54  C   UNL A   1      41.688  31.079  29.551  1.00  0.00     0.029 A 
ATOM     55  N   UNL A   1      43.289  29.674  28.915  1.00  0.00    -0.354 N 
ATOM     56  N   UNL A   1      46.073  28.836  28.484  1.00  0.00    -0.248 NA
ATOM     57  C   UNL A   1      48.352  29.333  28.385  1.00  0.00     0.031 C 
ATOM     58  C   UNL A   1      42.914  31.747  29.614  1.00  0.00     0.029 A 
ATOM     59  C   UNL A   1      43.915  30.866  29.241  1.00  0.00     0.049 A 
ATOM     60  H   UNL A   1      43.750  28.859  28.611  1.00  0.00     0.167 HD
ATOM     61  C   UNL A   1      46.264  30.162  28.847  1.00  0.00     0.074 A 
ATOM     62  C   UNL A   1      47.691  30.405  28.801  1.00  0.00     0.031 C 
ATOM     63  C   UNL A   1      45.339  31.096  29.182  1.00  0.00     0.037 A 
BRANCH  50  64
ATOM     64  C   UNL A   1      39.502  29.059  29.001  1.00  0.00     0.064 A 
ATOM     65  C   UNL A   1      38.680  29.442  27.929  1.00  0.00     0.173 A 
ATOM     66  C   UNL A   1      38.909  28.930  30.266  1.00  0.00     0.173 A 
ATOM     67  F   UNL A   1      39.199  29.593  26.701  1.00  0.00    -0.203 F 
ATOM     68  C   UNL A   1      37.329  29.714  28.122  1.00  0.00     0.198 A 
ATOM     69  C   UNL A   1      37.549  29.169  30.448  1.00  0.00     0.198 A 
ATOM     70  F   UNL A   1      39.646  28.563  31.325  1.00  0.00    -0.203 F 
ATOM     71  F   UNL A   1      36.578  30.130  27.093  1.00  0.00    -0.200 F 
ATOM     72  C   UNL A   1      36.762  29.569  29.379  1.00  0.00     0.200 A 
ATOM     73  F   UNL A   1      37.001  29.015  31.661  1.00  0.00    -0.200 F 
ATOM     74  F   UNL A   1      35.459  29.823  29.561  1.00  0.00    -0.200 F 
ENDBRANCH  50  64
BRANCH  51  75
ATOM     75  C   UNL A   1      49.087  26.589  27.636  1.00  0.00     0.064 A 
ATOM     76  C   UNL A   1      49.894  26.316  28.749  1.00  0.00     0.173 A 
ATOM     77  C   UNL A   1      49.665  26.457  26.364  1.00  0.00     0.173 A 
ATOM     78  F   UNL A   1      49.393  26.451  29.986  1.00  0.00    -0.203 F 
ATOM     79  C   UNL A   1      51.223  25.926  28.598  1.00  0.00     0.198 A 
ATOM     80  C   UNL A   1      50.985  26.040  26.213  1.00  0.00     0.198 A 
ATOM     81  F   UNL A   1      48.935  26.704  25.266  1.00  0.00    -0.203 F 
ATOM     82  F   UNL A   1      51.979  25.697  29.680  1.00  0.00    -0.200 F 
ATOM     83  C   UNL A   1      51.764  25.778  27.331  1.00  0.00     0.200 A 
ATOM     84  F   UNL A   1      51.500  25.882  24.986  1.00  0.00    -0.200 F 
ATOM     85  F   UNL A   1      53.036  25.384  27.185  1.00  0.00    -0.200 F 
ENDBRANCH  51  75
BRANCH  63  86
ATOM     86  C   UNL A   1      45.834  32.471  29.527  1.00  0.00     0.064 A 
ATOM     87  C   UNL A   1      46.245  32.797  30.827  1.00  0.00     0.173 A 
ATOM     88  C   UNL A   1      45.964  33.455  28.533  1.00  0.00     0.173 A 
ATOM     89  F   UNL A   1      46.131  31.897  31.816  1.00  0.00    -0.203 F 
ATOM     90  C   UNL A   1      46.750  34.060  31.125  1.00  0.00     0.198 A 
ATOM     91  C   UNL A   1      46.500  34.706  28.827  1.00  0.00     0.198 A 
ATOM     92  F   UNL A   1      45.595  33.193  27.270  1.00  0.00    -0.203 F 
ATOM     93  F   UNL A   1      47.097  34.362  32.384  1.00  0.00    -0.200 F 
ATOM     94  C   UNL A   1      46.886  35.009  30.123  1.00  0.00     0.200 A 
ATOM     95  F   UNL A   1      46.650  35.615  27.853  1.00  0.00    -0.200 F 
ATOM     96  F   UNL A   1      47.388  36.219  30.408  1.00  0.00    -0.200 F 
ENDBRANCH  63  86
ENDBRANCH  37  38
ENDBRANCH  29  32
ENDBRANCH  27  28
ENDBRANCH  26  27
ENDBRANCH  25  26
ENDBRANCH   1  25
TORSDOF 16
ENDMDL
MODEL 3
REMARK VINA RESULT:     -11.4      6.276     10.942
REMARK SMILES O=C(Cc1csc(Sc2ncnc3c2CCCC3)n1)NCCCCCCNC(=O)c1ccc(-c2c3nc(c(-c4c(F)c(F)c(F)c(F)c4F)c4ccc([nH]4)c(-c4c(F)c(F)c(F)c(F)c4F)c4nc(c(-c5c(F)c(F)c(F)c(F)c5F)c5ccc2[nH]5)C=C4)C=C3)cc1
REMARK SMILES IDX 23 1 22 2 21 3 20 4 1 5 2 6 3 8 4 9 5 10 19 11 6 12 7 13
REMARK SMILES IDX 8 14 9 15 10 16 14 17 11 18 13 19 15 20 12 21 18 22 16 23
REMARK SMILES IDX 17 24 24 25 25 26 26 27 27 28 28 29 29 31 30 32 31 33 92 34
REMARK SMILES IDX 32 35 91 36 33 37 34 38 35 39 85 40 36 41 90 42 84 43 86 44
REMARK SMILES IDX 37 45 89 46 83 47 82 48 38 50 70 51 50 52 69 53 51 54 54 55
REMARK SMILES IDX 68 56 87 57 52 58 53 59 67 61 88 62 55 63 39 64 40 65 48 66
REMARK SMILES IDX 41 67 42 68 46 69 49 70 43 71 44 72 47 73 45 74 71 75 72 76
REMARK SMILES IDX 80 77 73 78 74 79 78 80 81 81 75 82 76 83 79 84 77 85 56 86
REMARK SMILES IDX 57 87 65 88 58 89 59 90 63 91 66 92 60 93 61 94 64 95 62 96
REMARK H PARENT 20 7 27 30 86 49 54 60
REMARK Flexibility Score: inf
ROOT
ATOM      1  C   UNL A   1      37.263  21.835  24.801  1.00  0.00     0.002 C 
ENDROOT
BRANCH   1   2
ATOM      2  C   UNL A   1      36.300  22.788  25.524  1.00  0.00     0.021 C 
BRANCH   2   3
ATOM      3  C   UNL A   1      34.951  22.172  25.886  1.00  0.00     0.116 C 
BRANCH   3   4
ATOM      4  N   UNL A   1      33.994  22.320  24.808  1.00  0.00    -0.356 N 
ATOM      5  O   UNL A   1      33.478  20.092  24.610  1.00  0.00    -0.275 OA
ATOM      6  C   UNL A   1      33.304  21.256  24.262  1.00  0.00     0.226 C 
ATOM      7  H   UNL A   1      33.828  23.221  24.448  1.00  0.00     0.163 HD
BRANCH   6   8
ATOM      8  C   UNL A   1      32.308  21.652  23.184  1.00  0.00     0.157 C 
BRANCH   8   9
ATOM      9  C   UNL A   1      31.936  23.106  23.215  1.00  0.00     0.062 A 
ATOM     10  C   UNL A   1      30.764  23.678  23.679  1.00  0.00     0.092 A 
ATOM     11  N   UNL A   1      32.866  24.030  22.736  1.00  0.00    -0.234 NA
ATOM     12  S   UNL A   1      30.803  25.372  23.476  1.00  0.00    -0.116 S 
ATOM     13  C   UNL A   1      32.359  25.244  22.753  1.00  0.00     0.156 A 
BRANCH  13  14
ATOM     14  S   UNL A   1      33.134  26.682  22.134  1.00  0.00    -0.039 SA
BRANCH  14  15
ATOM     15  C   UNL A   1      32.247  27.989  22.962  1.00  0.00     0.110 A 
ATOM     16  N   UNL A   1      31.170  28.471  22.308  1.00  0.00    -0.229 NA
ATOM     17  C   UNL A   1      32.545  28.328  24.282  1.00  0.00     0.006 A 
ATOM     18  C   UNL A   1      30.402  29.329  22.985  1.00  0.00     0.223 A 
ATOM     19  C   UNL A   1      31.638  29.181  24.901  1.00  0.00     0.048 A 
ATOM     20  C   UNL A   1      33.706  27.738  25.038  1.00  0.00     0.040 C 
ATOM     21  N   UNL A   1      30.576  29.706  24.257  1.00  0.00    -0.241 NA
ATOM     22  C   UNL A   1      31.790  29.590  26.346  1.00  0.00     0.056 C 
ATOM     23  C   UNL A   1      34.004  28.445  26.361  1.00  0.00     0.005 C 
ATOM     24  C   UNL A   1      32.717  28.674  27.139  1.00  0.00     0.007 C 
ENDBRANCH  14  15
ENDBRANCH  13  14
ENDBRANCH   8   9
ENDBRANCH   6   8
ENDBRANCH   3   4
ENDBRANCH   2   3
ENDBRANCH   1   2
BRANCH   1  25
ATOM     25  C   UNL A   1      36.952  20.343  24.962  1.00  0.00     0.002 C 
BRANCH  25  26
ATOM     26  C   UNL A   1      38.176  19.429  25.001  1.00  0.00     0.021 C 
BRANCH  26  27
ATOM     27  C   UNL A   1      39.350  19.969  25.812  1.00  0.00     0.116 C 
BRANCH  27  28
ATOM     28  N   UNL A   1      40.422  18.995  25.953  1.00  0.00    -0.352 N 
ATOM     29  C   UNL A   1      41.768  19.202  26.121  1.00  0.00     0.251 C 
ATOM     30  H   UNL A   1      40.141  18.052  25.925  1.00  0.00     0.163 HD
ATOM     31  O   UNL A   1      42.555  18.261  26.049  1.00  0.00    -0.269 OA
BRANCH  29  32
ATOM     32  C   UNL A   1      42.276  20.567  26.368  1.00  0.00     0.039 A 
ATOM     33  C   UNL A   1      42.608  21.373  25.276  1.00  0.00     0.014 A 
ATOM     34  C   UNL A   1      42.431  21.048  27.671  1.00  0.00     0.014 A 
ATOM     35  C   UNL A   1      43.046  22.681  25.491  1.00  0.00     0.010 A 
ATOM     36  C   UNL A   1      42.792  22.375  27.882  1.00  0.00     0.010 A 
ATOM     37  C   UNL A   1      43.116  23.200  26.794  1.00  0.00    -0.014 A 
BRANCH  37  38
ATOM     38  C   UNL A   1      43.565  24.591  27.043  1.00  0.00     0.031 A 
ATOM     39  C   UNL A   1      42.588  25.611  27.556  1.00  0.00     0.074 A 
ATOM     40  C   UNL A   1      44.836  24.946  26.776  1.00  0.00     0.049 A 
ATOM     41  N   UNL A   1      42.768  26.886  27.791  1.00  0.00    -0.248 NA
ATOM     42  C   UNL A   1      41.220  25.139  27.818  1.00  0.00     0.031 C 
ATOM     43  C   UNL A   1      45.869  24.052  26.256  1.00  0.00     0.029 A 
ATOM     44  N   UNL A   1      45.474  26.154  26.906  1.00  0.00    -0.354 N 
ATOM     45  C   UNL A   1      41.539  27.364  28.227  1.00  0.00     0.074 A 
ATOM     46  C   UNL A   1      40.606  26.263  28.156  1.00  0.00     0.031 C 
ATOM     47  C   UNL A   1      47.021  24.732  26.143  1.00  0.00     0.029 A 
ATOM     48  C   UNL A   1      46.797  26.119  26.543  1.00  0.00     0.049 A 
ATOM     49  H   UNL A   1      45.025  26.969  27.229  1.00  0.00     0.167 HD
ATOM     50  C   UNL A   1      41.227  28.602  28.677  1.00  0.00     0.037 A 
ATOM     51  C   UNL A   1      47.725  27.097  26.532  1.00  0.00     0.037 A 
ATOM     52  C   UNL A   1      42.162  29.692  28.756  1.00  0.00     0.049 A 
ATOM     53  C   UNL A   1      47.339  28.478  26.985  1.00  0.00     0.074 A 
ATOM     54  C   UNL A   1      41.953  30.975  29.228  1.00  0.00     0.029 A 
ATOM     55  N   UNL A   1      43.487  29.628  28.347  1.00  0.00    -0.354 N 
ATOM     56  N   UNL A   1      46.188  28.910  27.440  1.00  0.00    -0.248 NA
ATOM     57  C   UNL A   1      48.384  29.511  26.921  1.00  0.00     0.031 C 
ATOM     58  C   UNL A   1      43.134  31.702  29.055  1.00  0.00     0.029 A 
ATOM     59  C   UNL A   1      44.098  30.858  28.528  1.00  0.00     0.049 A 
ATOM     60  H   UNL A   1      43.927  28.827  27.983  1.00  0.00     0.167 HD
ATOM     61  C   UNL A   1      46.371  30.254  27.733  1.00  0.00     0.074 A 
ATOM     62  C   UNL A   1      47.753  30.563  27.426  1.00  0.00     0.031 C 
ATOM     63  C   UNL A   1      45.474  31.154  28.208  1.00  0.00     0.037 A 
BRANCH  50  64
ATOM     64  C   UNL A   1      39.813  28.838  29.127  1.00  0.00     0.064 A 
ATOM     65  C   UNL A   1      39.429  28.655  30.465  1.00  0.00     0.173 A 
ATOM     66  C   UNL A   1      38.838  29.282  28.221  1.00  0.00     0.173 A 
ATOM     67  F   UNL A   1      40.319  28.219  31.369  1.00  0.00    -0.203 F 
ATOM     68  C   UNL A   1      38.116  28.878  30.872  1.00  0.00     0.198 A 
ATOM     69  C   UNL A   1      37.534  29.538  28.640  1.00  0.00     0.198 A 
ATOM     70  F   UNL A   1      39.151  29.477  26.931  1.00  0.00    -0.203 F 
ATOM     71  F   UNL A   1      37.762  28.644  32.144  1.00  0.00    -0.200 F 
ATOM     72  C   UNL A   1      37.173  29.327  29.962  1.00  0.00     0.200 A 
ATOM     73  F   UNL A   1      36.627  29.985  27.762  1.00  0.00    -0.200 F 
ATOM     74  F   UNL A   1      35.912  29.551  30.357  1.00  0.00    -0.200 F 
ENDBRANCH  50  64
BRANCH  51  75
ATOM     75  C   UNL A   1      49.116  26.783  26.115  1.00  0.00     0.064 A 
ATOM     76  C   UNL A   1      49.518  26.953  24.783  1.00  0.00     0.173 A 
ATOM     77  C   UNL A   1      50.079  26.346  27.036  1.00  0.00     0.173 A 
ATOM     78  F   UNL A   1      48.627  27.347  23.861  1.00  0.00    -0.203 F 
ATOM     79  C   UNL A   1      50.830  26.697  24.388  1.00  0.00     0.198 A 
ATOM     80  C   UNL A   1      51.397  26.117  26.646  1.00  0.00     0.198 A 
ATOM     81  F   UNL A   1      49.746  26.170  28.323  1.00  0.00    -0.203 F 
ATOM     82  F   UNL A   1      51.180  26.843  23.104  1.00  0.00    -0.200 F 
ATOM     83  C   UNL A   1      51.770  26.290  25.321  1.00  0.00     0.200 A 
ATOM     84  F   UNL A   1      52.307  25.739  27.554  1.00  0.00    -0.200 F 
ATOM     85  F   UNL A   1      53.036  26.063  24.945  1.00  0.00    -0.200 F 
ENDBRANCH  51  75
BRANCH  63  86
ATOM     86  C   UNL A   1      45.950  32.561  28.426  1.00  0.00     0.064 A 
ATOM     87  C   UNL A   1      45.818  33.541  27.432  1.00  0.00     0.173 A 
ATOM     88  C   UNL A   1      46.483  32.952  29.665  1.00  0.00     0.173 A 
ATOM     89  F   UNL A   1      45.326  33.217  26.227  1.00  0.00    -0.203 F 
ATOM     90  C   UNL A   1      46.218  34.855  27.663  1.00  0.00     0.198 A 
ATOM     91  C   UNL A   1      46.851  34.274  29.903  1.00  0.00     0.198 A 
ATOM     92  F   UNL A   1      46.624  32.056  30.654  1.00  0.00    -0.203 F 
ATOM     93  F   UNL A   1      46.120  35.765  26.683  1.00  0.00    -0.200 F 
ATOM     94  C   UNL A   1      46.724  35.222  28.900  1.00  0.00     0.200 A 
ATOM     95  F   UNL A   1      47.322  34.631  31.107  1.00  0.00    -0.200 F 
ATOM     96  F   UNL A   1      47.093  36.491  29.125  1.00  0.00    -0.200 F 
ENDBRANCH  63  86
ENDBRANCH  37  38
ENDBRANCH  29  32
ENDBRANCH  27  28
ENDBRANCH  26  27
ENDBRANCH  25  26
ENDBRANCH   1  25
TORSDOF 16
ENDMDL
