MODEL 1
REMARK VINA RESULT:     -11.1      0.000      0.000
REMARK SMILES [NH3+][C@@H](Cc1c[nH]c2ccccc12)C(=O)N[C@@H](CS)C(=O)N[C@@H](CO)C(=O)NCCCCCCNC(=O)c1ccc(-c2c3nc(c(-c4c(F)c(F)c(F)c(F)c4F)c4ccc([nH]4)c(-c4c(F)c(F)c(F)c(F)c4F)c4nc(c(-c5c(F)c(F)c(F)c(F)c5F)c5ccc2[nH]5)C=C4)C=C3)cc1
REMARK SMILES IDX 28 1 27 2 25 3 26 4 22 6 21 7 19 8 20 9 16 11 15 12 13 13
REMARK SMILES IDX 14 14 2 16 1 17 3 21 4 22 5 23 12 24 6 25 7 26 11 27 8 29
REMARK SMILES IDX 10 30 9 31 17 32 18 33 23 35 24 36 29 38 30 39 31 40 32 41
REMARK SMILES IDX 33 42 34 43 35 44 36 46 37 47 38 48 99 49 39 50 98 51 40 52
REMARK SMILES IDX 41 53 42 54 92 55 43 56 97 57 91 58 93 59 44 60 96 61 90 62
REMARK SMILES IDX 89 63 45 65 77 66 57 67 76 68 58 69 61 70 75 71 94 72 59 73
REMARK SMILES IDX 60 74 74 76 95 77 62 78 46 79 47 80 55 81 48 82 49 83 53 84
REMARK SMILES IDX 56 85 50 86 51 87 54 88 52 89 78 90 79 91 87 92 80 93 81 94
REMARK SMILES IDX 85 95 88 96 82 97 83 98 86 99 84 100 63 101 64 102 72 103
REMARK SMILES IDX 65 104 66 105 70 106 73 107 67 108 68 109 71 110 69 111
REMARK H PARENT 27 5 21 10 15 15 1 18 1 19 1 20 6 28 18 34 24 37 34 45 93 64
REMARK H PARENT 61 75
REMARK Flexibility Score: inf
ROOT
ATOM      1  C   UNL A   1      35.077  30.290  27.995  1.00  0.00     0.116 C 
ENDROOT
BRANCH   1   2
ATOM      2  N   UNL A   1      33.659  30.071  27.837  1.00  0.00    -0.354 N 
ATOM      3  C   UNL A   1      32.989  29.157  27.096  1.00  0.00     0.244 C 
ATOM      4  O   UNL A   1      31.760  29.122  27.211  1.00  0.00    -0.273 OA
ATOM      5  H   UNL A   1      33.086  30.684  28.353  1.00  0.00     0.163 HD
BRANCH   3   6
ATOM      6  C   UNL A   1      33.701  28.159  26.182  1.00  0.00     0.197 C 
BRANCH   6   7
ATOM      7  N   UNL A   1      33.210  26.795  26.277  1.00  0.00    -0.340 N 
ATOM      8  C   UNL A   1      32.573  26.073  25.329  1.00  0.00     0.244 C 
ATOM      9  O   UNL A   1      31.698  25.314  25.768  1.00  0.00    -0.273 OA
ATOM     10  H   UNL A   1      33.361  26.342  27.136  1.00  0.00     0.164 HD
BRANCH   8  11
ATOM     11  C   UNL A   1      32.864  26.167  23.810  1.00  0.00     0.181 C 
BRANCH  11  12
ATOM     12  N   UNL A   1      34.014  25.356  23.471  1.00  0.00    -0.338 N 
ATOM     13  C   UNL A   1      34.035  24.053  23.085  1.00  0.00     0.279 C 
ATOM     14  O   UNL A   1      35.150  23.581  22.823  1.00  0.00    -0.268 OA
ATOM     15  H   UNL A   1      34.890  25.803  23.527  1.00  0.00     0.164 HD
BRANCH  13  16
ATOM     16  C   UNL A   1      32.773  23.131  23.054  1.00  0.00     0.275 C 
BRANCH  16  17
ATOM     17  N   UNL A   1      32.534  22.604  21.696  1.00  0.00    -0.347 N 
ATOM     18  H   UNL A   1      33.008  21.708  21.591  1.00  0.00     0.345 HD
ATOM     19  H   UNL A   1      32.896  23.264  21.007  1.00  0.00     0.345 HD
ATOM     20  H   UNL A   1      31.532  22.478  21.552  1.00  0.00     0.345 HD
ENDBRANCH  16  17
BRANCH  16  21
ATOM     21  C   UNL A   1      32.465  22.164  24.214  1.00  0.00     0.113 C 
BRANCH  21  22
ATOM     22  C   UNL A   1      33.283  20.939  24.588  1.00  0.00    -0.016 A 
ATOM     23  C   UNL A   1      34.393  21.076  25.410  1.00  0.00     0.087 A 
ATOM     24  C   UNL A   1      33.234  19.529  24.246  1.00  0.00     0.003 A 
ATOM     25  N   UNL A   1      35.093  19.909  25.419  1.00  0.00    -0.361 N 
ATOM     26  C   UNL A   1      34.464  18.980  24.632  1.00  0.00     0.046 A 
ATOM     27  C   UNL A   1      32.364  18.673  23.530  1.00  0.00     0.010 A 
ATOM     28  H   UNL A   1      35.929  19.755  25.917  1.00  0.00     0.166 HD
ATOM     29  C   UNL A   1      34.910  17.712  24.231  1.00  0.00     0.026 A 
ATOM     30  C   UNL A   1      32.791  17.399  23.121  1.00  0.00     0.001 A 
ATOM     31  C   UNL A   1      34.062  16.941  23.439  1.00  0.00     0.002 A 
ENDBRANCH  21  22
ENDBRANCH  16  21
ENDBRANCH  13  16
ENDBRANCH  11  12
BRANCH  11  32
ATOM     32  C   UNL A   1      31.771  26.238  22.735  1.00  0.00     0.101 C 
BRANCH  32  33
ATOM     33  S   UNL A   1      30.400  27.416  23.050  1.00  0.00    -0.177 SA
ATOM     34  H   UNL A   1      30.622  28.565  22.358  1.00  0.00     0.102 HD
ENDBRANCH  32  33
ENDBRANCH  11  32
ENDBRANCH   8  11
ENDBRANCH   6   7
BRANCH   6  35
ATOM     35  C   UNL A   1      33.837  28.633  24.728  1.00  0.00     0.191 C 
BRANCH  35  36
ATOM     36  O   UNL A   1      32.933  29.682  24.390  1.00  0.00    -0.394 OA
ATOM     37  H   UNL A   1      33.432  30.498  24.227  1.00  0.00     0.210 HD
ENDBRANCH  35  36
ENDBRANCH   6  35
ENDBRANCH   3   6
ENDBRANCH   1   2
BRANCH   1  38
ATOM     38  C   UNL A   1      35.433  31.753  27.765  1.00  0.00     0.021 C 
BRANCH  38  39
ATOM     39  C   UNL A   1      35.002  32.684  28.902  1.00  0.00     0.002 C 
BRANCH  39  40
ATOM     40  C   UNL A   1      35.456  34.139  28.745  1.00  0.00     0.002 C 
BRANCH  40  41
ATOM     41  C   UNL A   1      34.329  35.171  28.798  1.00  0.00     0.021 C 
BRANCH  41  42
ATOM     42  C   UNL A   1      33.044  34.658  29.431  1.00  0.00     0.116 C 
BRANCH  42  43
ATOM     43  N   UNL A   1      32.524  35.589  30.417  1.00  0.00    -0.352 N 
ATOM     44  C   UNL A   1      32.851  35.695  31.741  1.00  0.00     0.251 C 
ATOM     45  H   UNL A   1      31.849  36.226  30.090  1.00  0.00     0.163 HD
ATOM     46  O   UNL A   1      32.165  36.373  32.505  1.00  0.00    -0.269 OA
BRANCH  44  47
ATOM     47  C   UNL A   1      34.029  34.971  32.247  1.00  0.00     0.039 A 
ATOM     48  C   UNL A   1      33.872  33.671  32.731  1.00  0.00     0.014 A 
ATOM     49  C   UNL A   1      35.293  35.570  32.211  1.00  0.00     0.014 A 
ATOM     50  C   UNL A   1      34.995  32.950  33.133  1.00  0.00     0.010 A 
ATOM     51  C   UNL A   1      36.418  34.822  32.534  1.00  0.00     0.010 A 
ATOM     52  C   UNL A   1      36.279  33.508  33.006  1.00  0.00    -0.014 A 
BRANCH  52  53
ATOM     53  C   UNL A   1      37.490  32.735  33.371  1.00  0.00     0.031 A 
ATOM     54  C   UNL A   1      38.220  33.043  34.647  1.00  0.00     0.074 A 
ATOM     55  C   UNL A   1      37.963  31.802  32.523  1.00  0.00     0.049 A 
ATOM     56  N   UNL A   1      39.331  32.529  35.110  1.00  0.00    -0.248 NA
ATOM     57  C   UNL A   1      37.639  34.087  35.506  1.00  0.00     0.031 C 
ATOM     58  C   UNL A   1      37.363  31.446  31.236  1.00  0.00     0.029 A 
ATOM     59  N   UNL A   1      39.063  30.986  32.613  1.00  0.00    -0.354 N 
ATOM     60  C   UNL A   1      39.584  33.191  36.304  1.00  0.00     0.074 A 
ATOM     61  C   UNL A   1      38.548  34.187  36.465  1.00  0.00     0.031 C 
ATOM     62  C   UNL A   1      38.087  30.468  30.669  1.00  0.00     0.029 A 
ATOM     63  C   UNL A   1      39.225  30.160  31.528  1.00  0.00     0.049 A 
ATOM     64  H   UNL A   1      39.677  30.993  33.382  1.00  0.00     0.167 HD
ATOM     65  C   UNL A   1      40.576  32.970  37.197  1.00  0.00     0.037 A 
ATOM     66  C   UNL A   1      40.191  29.262  31.255  1.00  0.00     0.037 A 
ATOM     67  C   UNL A   1      41.594  31.965  37.038  1.00  0.00     0.049 A 
ATOM     68  C   UNL A   1      41.300  29.058  32.251  1.00  0.00     0.074 A 
ATOM     69  C   UNL A   1      42.612  31.622  37.910  1.00  0.00     0.029 A 
ATOM     70  N   UNL A   1      41.727  31.145  35.926  1.00  0.00    -0.354 N 
ATOM     71  N   UNL A   1      41.490  29.639  33.411  1.00  0.00    -0.248 NA
ATOM     72  C   UNL A   1      42.330  28.070  31.901  1.00  0.00     0.031 C 
ATOM     73  C   UNL A   1      43.396  30.637  37.300  1.00  0.00     0.029 A 
ATOM     74  C   UNL A   1      42.829  30.320  36.076  1.00  0.00     0.049 A 
ATOM     75  H   UNL A   1      41.126  31.150  35.145  1.00  0.00     0.167 HD
ATOM     76  C   UNL A   1      42.640  29.069  33.941  1.00  0.00     0.074 A 
ATOM     77  C   UNL A   1      43.095  28.082  32.983  1.00  0.00     0.031 C 
ATOM     78  C   UNL A   1      43.264  29.339  35.114  1.00  0.00     0.037 A 
BRANCH  65  79
ATOM     79  C   UNL A   1      40.610  33.831  38.427  1.00  0.00     0.064 A 
ATOM     80  C   UNL A   1      41.391  34.997  38.490  1.00  0.00     0.173 A 
ATOM     81  C   UNL A   1      39.829  33.507  39.547  1.00  0.00     0.173 A 
ATOM     82  F   UNL A   1      42.166  35.347  37.453  1.00  0.00    -0.203 F 
ATOM     83  C   UNL A   1      41.412  35.786  39.637  1.00  0.00     0.198 A 
ATOM     84  C   UNL A   1      39.826  34.317  40.679  1.00  0.00     0.198 A 
ATOM     85  F   UNL A   1      39.061  32.408  39.540  1.00  0.00    -0.203 F 
ATOM     86  F   UNL A   1      42.208  36.862  39.693  1.00  0.00    -0.200 F 
ATOM     87  C   UNL A   1      40.624  35.450  40.727  1.00  0.00     0.200 A 
ATOM     88  F   UNL A   1      39.053  33.999  41.726  1.00  0.00    -0.200 F 
ATOM     89  F   UNL A   1      40.639  36.214  41.828  1.00  0.00    -0.200 F 
ENDBRANCH  65  79
BRANCH  66  90
ATOM     90  C   UNL A   1      40.144  28.478  29.992  1.00  0.00     0.064 A 
ATOM     91  C   UNL A   1      39.487  27.242  29.936  1.00  0.00     0.173 A 
ATOM     92  C   UNL A   1      40.760  28.942  28.821  1.00  0.00     0.173 A 
ATOM     93  F   UNL A   1      38.898  26.747  31.034  1.00  0.00    -0.203 F 
ATOM     94  C   UNL A   1      39.469  26.487  28.765  1.00  0.00     0.198 A 
ATOM     95  C   UNL A   1      40.715  28.203  27.641  1.00  0.00     0.198 A 
ATOM     96  F   UNL A   1      41.398  30.122  28.818  1.00  0.00    -0.203 F 
ATOM     97  F   UNL A   1      38.878  25.285  28.754  1.00  0.00    -0.200 F 
ATOM     98  C   UNL A   1      40.079  26.971  27.617  1.00  0.00     0.200 A 
ATOM     99  F   UNL A   1      41.290  28.681  26.530  1.00  0.00    -0.200 F 
ATOM    100  F   UNL A   1      40.059  26.247  26.489  1.00  0.00    -0.200 F 
ENDBRANCH  66  90
BRANCH  78 101
ATOM    101  C   UNL A   1      44.489  28.533  35.445  1.00  0.00     0.064 A 
ATOM    102  C   UNL A   1      45.775  28.966  35.090  1.00  0.00     0.173 A 
ATOM    103  C   UNL A   1      44.375  27.336  36.168  1.00  0.00     0.173 A 
ATOM    104  F   UNL A   1      45.936  30.097  34.386  1.00  0.00    -0.203 F 
ATOM    105  C   UNL A   1      46.899  28.217  35.425  1.00  0.00     0.198 A 
ATOM    106  C   UNL A   1      45.504  26.608  36.532  1.00  0.00     0.198 A 
ATOM    107  F   UNL A   1      43.169  26.880  36.539  1.00  0.00    -0.203 F 
ATOM    108  F   UNL A   1      48.114  28.625  35.033  1.00  0.00    -0.200 F 
ATOM    109  C   UNL A   1      46.764  27.044  36.153  1.00  0.00     0.200 A 
ATOM    110  F   UNL A   1      45.373  25.484  37.250  1.00  0.00    -0.200 F 
ATOM    111  F   UNL A   1      47.850  26.332  36.485  1.00  0.00    -0.200 F 
ENDBRANCH  78 101
ENDBRANCH  52  53
ENDBRANCH  44  47
ENDBRANCH  42  43
ENDBRANCH  41  42
ENDBRANCH  40  41
ENDBRANCH  39  40
ENDBRANCH  38  39
ENDBRANCH   1  38
TORSDOF 24
ENDMDL
MODEL 2
REMARK VINA RESULT:     -11.0      1.776      2.482
REMARK SMILES [NH3+][C@@H](Cc1c[nH]c2ccccc12)C(=O)N[C@@H](CS)C(=O)N[C@@H](CO)C(=O)NCCCCCCNC(=O)c1ccc(-c2c3nc(c(-c4c(F)c(F)c(F)c(F)c4F)c4ccc([nH]4)c(-c4c(F)c(F)c(F)c(F)c4F)c4nc(c(-c5c(F)c(F)c(F)c(F)c5F)c5ccc2[nH]5)C=C4)C=C3)cc1
REMARK SMILES IDX 28 1 27 2 25 3 26 4 22 6 21 7 19 8 20 9 16 11 15 12 13 13
REMARK SMILES IDX 14 14 2 16 1 17 3 21 4 22 5 23 12 24 6 25 7 26 11 27 8 29
REMARK SMILES IDX 10 30 9 31 17 32 18 33 23 35 24 36 29 38 30 39 31 40 32 41
REMARK SMILES IDX 33 42 34 43 35 44 36 46 37 47 38 48 99 49 39 50 98 51 40 52
REMARK SMILES IDX 41 53 42 54 92 55 43 56 97 57 91 58 93 59 44 60 96 61 90 62
REMARK SMILES IDX 89 63 45 65 77 66 57 67 76 68 58 69 61 70 75 71 94 72 59 73
REMARK SMILES IDX 60 74 74 76 95 77 62 78 46 79 47 80 55 81 48 82 49 83 53 84
REMARK SMILES IDX 56 85 50 86 51 87 54 88 52 89 78 90 79 91 87 92 80 93 81 94
REMARK SMILES IDX 85 95 88 96 82 97 83 98 86 99 84 100 63 101 64 102 72 103
REMARK SMILES IDX 65 104 66 105 70 106 73 107 67 108 68 109 71 110 69 111
REMARK H PARENT 27 5 21 10 15 15 1 18 1 19 1 20 6 28 18 34 24 37 34 45 93 64
REMARK H PARENT 61 75
REMARK Flexibility Score: inf
ROOT
ATOM      1  C   UNL A   1      34.563  30.683  27.619  1.00  0.00     0.116 C 
ENDROOT
BRANCH   1   2
ATOM      2  N   UNL A   1      33.291  31.285  27.296  1.00  0.00    -0.354 N 
ATOM      3  C   UNL A   1      32.274  30.828  26.527  1.00  0.00     0.244 C 
ATOM      4  O   UNL A   1      31.242  31.506  26.487  1.00  0.00    -0.273 OA
ATOM      5  H   UNL A   1      33.138  32.169  27.701  1.00  0.00     0.163 HD
BRANCH   3   6
ATOM      6  C   UNL A   1      32.349  29.504  25.765  1.00  0.00     0.197 C 
BRANCH   6   7
ATOM      7  N   UNL A   1      33.316  29.484  24.682  1.00  0.00    -0.340 N 
ATOM      8  C   UNL A   1      33.354  28.654  23.616  1.00  0.00     0.244 C 
ATOM      9  O   UNL A   1      34.496  28.342  23.252  1.00  0.00    -0.273 OA
ATOM     10  H   UNL A   1      34.032  30.157  24.730  1.00  0.00     0.164 HD
BRANCH   8  11
ATOM     11  C   UNL A   1      32.101  28.099  22.892  1.00  0.00     0.181 C 
BRANCH  11  12
ATOM     12  N   UNL A   1      32.492  27.392  21.690  1.00  0.00    -0.338 N 
ATOM     13  C   UNL A   1      32.834  26.083  21.563  1.00  0.00     0.279 C 
ATOM     14  O   UNL A   1      33.109  25.701  20.418  1.00  0.00    -0.268 OA
ATOM     15  H   UNL A   1      32.513  27.926  20.863  1.00  0.00     0.164 HD
BRANCH  13  16
ATOM     16  C   UNL A   1      32.985  25.099  22.769  1.00  0.00     0.275 C 
BRANCH  16  17
ATOM     17  N   UNL A   1      31.942  24.055  22.736  1.00  0.00    -0.347 N 
ATOM     18  H   UNL A   1      32.230  23.307  22.107  1.00  0.00     0.345 HD
ATOM     19  H   UNL A   1      31.066  24.460  22.405  1.00  0.00     0.345 HD
ATOM     20  H   UNL A   1      31.809  23.679  23.675  1.00  0.00     0.345 HD
ENDBRANCH  16  17
BRANCH  16  21
ATOM     21  C   UNL A   1      34.375  24.645  23.256  1.00  0.00     0.113 C 
BRANCH  21  22
ATOM     22  C   UNL A   1      34.694  24.094  24.636  1.00  0.00    -0.016 A 
ATOM     23  C   UNL A   1      36.003  23.773  24.964  1.00  0.00     0.087 A 
ATOM     24  C   UNL A   1      33.910  23.738  25.805  1.00  0.00     0.003 A 
ATOM     25  N   UNL A   1      36.017  23.091  26.143  1.00  0.00    -0.361 N 
ATOM     26  C   UNL A   1      34.741  22.963  26.625  1.00  0.00     0.046 A 
ATOM     27  C   UNL A   1      32.559  23.851  26.212  1.00  0.00     0.010 A 
ATOM     28  H   UNL A   1      36.826  22.741  26.583  1.00  0.00     0.166 HD
ATOM     29  C   UNL A   1      34.277  22.209  27.712  1.00  0.00     0.026 A 
ATOM     30  C   UNL A   1      32.075  23.104  27.299  1.00  0.00     0.001 A 
ATOM     31  C   UNL A   1      32.919  22.267  28.016  1.00  0.00     0.002 A 
ENDBRANCH  21  22
ENDBRANCH  16  21
ENDBRANCH  13  16
ENDBRANCH  11  12
BRANCH  11  32
ATOM     32  C   UNL A   1      30.877  27.528  23.621  1.00  0.00     0.101 C 
BRANCH  32  33
ATOM     33  S   UNL A   1      29.242  28.147  23.065  1.00  0.00    -0.177 SA
ATOM     34  H   UNL A   1      28.362  27.113  23.003  1.00  0.00     0.102 HD
ENDBRANCH  32  33
ENDBRANCH  11  32
ENDBRANCH   8  11
ENDBRANCH   6   7
BRANCH   6  35
ATOM     35  C   UNL A   1      32.455  28.269  26.669  1.00  0.00     0.191 C 
BRANCH  35  36
ATOM     36  O   UNL A   1      31.919  28.478  27.974  1.00  0.00    -0.394 OA
ATOM     37  H   UNL A   1      31.646  29.405  28.066  1.00  0.00     0.210 HD
ENDBRANCH  35  36
ENDBRANCH   6  35
ENDBRANCH   3   6
ENDBRANCH   1   2
BRANCH   1  38
ATOM     38  C   UNL A   1      35.583  31.741  28.017  1.00  0.00     0.021 C 
BRANCH  38  39
ATOM     39  C   UNL A   1      35.062  32.754  29.041  1.00  0.00     0.002 C 
BRANCH  39  40
ATOM     40  C   UNL A   1      35.424  34.211  28.741  1.00  0.00     0.002 C 
BRANCH  40  41
ATOM     41  C   UNL A   1      34.254  35.193  28.824  1.00  0.00     0.021 C 
BRANCH  41  42
ATOM     42  C   UNL A   1      33.033  34.644  29.548  1.00  0.00     0.116 C 
BRANCH  42  43
ATOM     43  N   UNL A   1      32.525  35.586  30.530  1.00  0.00    -0.352 N 
ATOM     44  C   UNL A   1      32.873  35.711  31.847  1.00  0.00     0.251 C 
ATOM     45  H   UNL A   1      31.842  36.217  30.206  1.00  0.00     0.163 HD
ATOM     46  O   UNL A   1      32.197  36.396  32.614  1.00  0.00    -0.269 OA
BRANCH  44  47
ATOM     47  C   UNL A   1      34.062  34.997  32.344  1.00  0.00     0.039 A 
ATOM     48  C   UNL A   1      33.913  33.715  32.875  1.00  0.00     0.014 A 
ATOM     49  C   UNL A   1      35.327  35.588  32.252  1.00  0.00     0.014 A 
ATOM     50  C   UNL A   1      35.043  33.002  33.269  1.00  0.00     0.010 A 
ATOM     51  C   UNL A   1      36.457  34.845  32.568  1.00  0.00     0.010 A 
ATOM     52  C   UNL A   1      36.326  33.549  33.088  1.00  0.00    -0.014 A 
BRANCH  52  53
ATOM     53  C   UNL A   1      37.544  32.781  33.443  1.00  0.00     0.031 A 
ATOM     54  C   UNL A   1      38.274  33.085  34.720  1.00  0.00     0.074 A 
ATOM     55  C   UNL A   1      38.021  31.858  32.588  1.00  0.00     0.049 A 
ATOM     56  N   UNL A   1      39.390  32.576  35.177  1.00  0.00    -0.248 NA
ATOM     57  C   UNL A   1      37.688  34.119  35.588  1.00  0.00     0.031 C 
ATOM     58  C   UNL A   1      37.420  31.507  31.300  1.00  0.00     0.029 A 
ATOM     59  N   UNL A   1      39.126  31.049  32.669  1.00  0.00    -0.354 N 
ATOM     60  C   UNL A   1      39.642  33.231  36.374  1.00  0.00     0.074 A 
ATOM     61  C   UNL A   1      38.599  34.219  36.545  1.00  0.00     0.031 C 
ATOM     62  C   UNL A   1      38.148  30.539  30.723  1.00  0.00     0.029 A 
ATOM     63  C   UNL A   1      39.292  30.232  31.578  1.00  0.00     0.049 A 
ATOM     64  H   UNL A   1      39.742  31.055  33.437  1.00  0.00     0.167 HD
ATOM     65  C   UNL A   1      40.637  33.010  37.263  1.00  0.00     0.037 A 
ATOM     66  C   UNL A   1      40.263  29.343  31.296  1.00  0.00     0.037 A 
ATOM     67  C   UNL A   1      41.663  32.014  37.094  1.00  0.00     0.049 A 
ATOM     68  C   UNL A   1      41.376  29.140  32.287  1.00  0.00     0.074 A 
ATOM     69  C   UNL A   1      42.685  31.672  37.961  1.00  0.00     0.029 A 
ATOM     70  N   UNL A   1      41.798  31.203  35.976  1.00  0.00    -0.354 N 
ATOM     71  N   UNL A   1      41.565  29.714  33.450  1.00  0.00    -0.248 NA
ATOM     72  C   UNL A   1      42.412  28.162  31.927  1.00  0.00     0.031 C 
ATOM     73  C   UNL A   1      43.474  30.697  37.342  1.00  0.00     0.029 A 
ATOM     74  C   UNL A   1      42.906  30.384  36.117  1.00  0.00     0.049 A 
ATOM     75  H   UNL A   1      41.195  31.209  35.197  1.00  0.00     0.167 HD
ATOM     76  C   UNL A   1      42.721  29.148  33.974  1.00  0.00     0.074 A 
ATOM     77  C   UNL A   1      43.180  28.171  33.007  1.00  0.00     0.031 C 
ATOM     78  C   UNL A   1      43.346  29.413  35.146  1.00  0.00     0.037 A 
BRANCH  65  79
ATOM     79  C   UNL A   1      40.669  33.863  38.499  1.00  0.00     0.064 A 
ATOM     80  C   UNL A   1      39.975  33.499  39.665  1.00  0.00     0.173 A 
ATOM     81  C   UNL A   1      41.428  35.044  38.531  1.00  0.00     0.173 A 
ATOM     82  F   UNL A   1      39.225  32.388  39.685  1.00  0.00    -0.203 F 
ATOM     83  C   UNL A   1      40.014  34.300  40.803  1.00  0.00     0.198 A 
ATOM     84  C   UNL A   1      41.492  35.824  39.683  1.00  0.00     0.198 A 
ATOM     85  F   UNL A   1      42.113  35.437  37.448  1.00  0.00    -0.203 F 
ATOM     86  F   UNL A   1      39.300  33.961  41.884  1.00  0.00    -0.200 F 
ATOM     87  C   UNL A   1      40.779  35.458  40.814  1.00  0.00     0.200 A 
ATOM     88  F   UNL A   1      42.243  36.934  39.696  1.00  0.00    -0.200 F 
ATOM     89  F   UNL A   1      40.822  36.224  41.913  1.00  0.00    -0.200 F 
ENDBRANCH  65  79
BRANCH  66  90
ATOM     90  C   UNL A   1      40.218  28.568  30.027  1.00  0.00     0.064 A 
ATOM     91  C   UNL A   1      40.829  29.056  28.864  1.00  0.00     0.173 A 
ATOM     92  C   UNL A   1      39.559  27.333  29.949  1.00  0.00     0.173 A 
ATOM     93  F   UNL A   1      41.456  30.240  28.883  1.00  0.00    -0.203 F 
ATOM     94  C   UNL A   1      40.760  28.350  27.664  1.00  0.00     0.198 A 
ATOM     95  C   UNL A   1      39.519  26.612  28.757  1.00  0.00     0.198 A 
ATOM     96  F   UNL A   1      38.963  26.818  31.034  1.00  0.00    -0.203 F 
ATOM     97  F   UNL A   1      41.308  28.864  26.555  1.00  0.00    -0.200 F 
ATOM     98  C   UNL A   1      40.110  27.127  27.613  1.00  0.00     0.200 A 
ATOM     99  F   UNL A   1      38.904  25.422  28.716  1.00  0.00    -0.200 F 
ATOM    100  F   UNL A   1      40.047  26.446  26.460  1.00  0.00    -0.200 F 
ENDBRANCH  66  90
BRANCH  78 101
ATOM    101  C   UNL A   1      44.577  28.615  35.469  1.00  0.00     0.064 A 
ATOM    102  C   UNL A   1      45.859  29.062  35.118  1.00  0.00     0.173 A 
ATOM    103  C   UNL A   1      44.473  27.408  36.178  1.00  0.00     0.173 A 
ATOM    104  F   UNL A   1      46.011  30.201  34.426  1.00  0.00    -0.203 F 
ATOM    105  C   UNL A   1      46.990  28.318  35.445  1.00  0.00     0.198 A 
ATOM    106  C   UNL A   1      45.608  26.686  36.534  1.00  0.00     0.198 A 
ATOM    107  F   UNL A   1      43.271  26.939  36.545  1.00  0.00    -0.203 F 
ATOM    108  F   UNL A   1      48.201  28.740  35.057  1.00  0.00    -0.200 F 
ATOM    109  C   UNL A   1      46.865  27.136  36.160  1.00  0.00     0.200 A 
ATOM    110  F   UNL A   1      45.486  25.553  37.240  1.00  0.00    -0.200 F 
ATOM    111  F   UNL A   1      47.956  26.429  36.484  1.00  0.00    -0.200 F 
ENDBRANCH  78 101
ENDBRANCH  52  53
ENDBRANCH  44  47
ENDBRANCH  42  43
ENDBRANCH  41  42
ENDBRANCH  40  41
ENDBRANCH  39  40
ENDBRANCH  38  39
ENDBRANCH   1  38
TORSDOF 24
ENDMDL
MODEL 3
REMARK VINA RESULT:     -10.9      2.744      4.841
REMARK SMILES [NH3+][C@@H](Cc1c[nH]c2ccccc12)C(=O)N[C@@H](CS)C(=O)N[C@@H](CO)C(=O)NCCCCCCNC(=O)c1ccc(-c2c3nc(c(-c4c(F)c(F)c(F)c(F)c4F)c4ccc([nH]4)c(-c4c(F)c(F)c(F)c(F)c4F)c4nc(c(-c5c(F)c(F)c(F)c(F)c5F)c5ccc2[nH]5)C=C4)C=C3)cc1
REMARK SMILES IDX 28 1 27 2 25 3 26 4 22 6 21 7 19 8 20 9 16 11 15 12 13 13
REMARK SMILES IDX 14 14 2 16 1 17 3 21 4 22 5 23 12 24 6 25 7 26 11 27 8 29
REMARK SMILES IDX 10 30 9 31 17 32 18 33 23 35 24 36 29 38 30 39 31 40 32 41
REMARK SMILES IDX 33 42 34 43 35 44 36 46 37 47 38 48 99 49 39 50 98 51 40 52
REMARK SMILES IDX 41 53 42 54 92 55 43 56 97 57 91 58 93 59 44 60 96 61 90 62
REMARK SMILES IDX 89 63 45 65 77 66 57 67 76 68 58 69 61 70 75 71 94 72 59 73
REMARK SMILES IDX 60 74 74 76 95 77 62 78 46 79 47 80 55 81 48 82 49 83 53 84
REMARK SMILES IDX 56 85 50 86 51 87 54 88 52 89 78 90 79 91 87 92 80 93 81 94
REMARK SMILES IDX 85 95 88 96 82 97 83 98 86 99 84 100 63 101 64 102 72 103
REMARK SMILES IDX 65 104 66 105 70 106 73 107 67 108 68 109 71 110 69 111
REMARK H PARENT 27 5 21 10 15 15 1 18 1 19 1 20 6 28 18 34 24 37 34 45 93 64
REMARK H PARENT 61 75
REMARK Flexibility Score: inf
ROOT
ATOM      1  C   UNL A   1      30.019  26.527  23.702  1.00  0.00     0.116 C 
ENDROOT
BRANCH   1   2
ATOM      2  N   UNL A   1      29.399  26.133  24.945  1.00  0.00    -0.354 N 
ATOM      3  C   UNL A   1      29.743  25.167  25.829  1.00  0.00     0.244 C 
ATOM      4  O   UNL A   1      29.091  25.095  26.876  1.00  0.00    -0.273 OA
ATOM      5  H   UNL A   1      28.599  26.651  25.190  1.00  0.00     0.163 HD
BRANCH   3   6
ATOM      6  C   UNL A   1      30.919  24.217  25.595  1.00  0.00     0.197 C 
BRANCH   6   7
ATOM      7  N   UNL A   1      32.197  24.707  26.079  1.00  0.00    -0.340 N 
ATOM      8  C   UNL A   1      33.432  24.394  25.629  1.00  0.00     0.244 C 
ATOM      9  O   UNL A   1      34.298  24.334  26.513  1.00  0.00    -0.273 OA
ATOM     10  H   UNL A   1      32.160  25.345  26.827  1.00  0.00     0.164 HD
BRANCH   8  11
ATOM     11  C   UNL A   1      33.779  24.107  24.146  1.00  0.00     0.181 C 
BRANCH  11  12
ATOM     12  N   UNL A   1      33.213  22.839  23.737  1.00  0.00    -0.338 N 
ATOM     13  C   UNL A   1      33.523  21.597  24.195  1.00  0.00     0.279 C 
ATOM     14  O   UNL A   1      32.879  20.659  23.706  1.00  0.00    -0.268 OA
ATOM     15  H   UNL A   1      32.518  22.880  23.042  1.00  0.00     0.164 HD
BRANCH  13  16
ATOM     16  C   UNL A   1      34.681  21.303  25.204  1.00  0.00     0.275 C 
BRANCH  16  17
ATOM     17  N   UNL A   1      34.149  20.928  26.529  1.00  0.00    -0.347 N 
ATOM     18  H   UNL A   1      34.864  20.427  27.053  1.00  0.00     0.345 HD
ATOM     19  H   UNL A   1      33.331  20.329  26.409  1.00  0.00     0.345 HD
ATOM     20  H   UNL A   1      33.881  21.771  27.038  1.00  0.00     0.345 HD
ENDBRANCH  16  17
BRANCH  16  21
ATOM     21  C   UNL A   1      35.956  20.560  24.757  1.00  0.00     0.113 C 
BRANCH  21  22
ATOM     22  C   UNL A   1      37.378  20.929  25.146  1.00  0.00    -0.016 A 
ATOM     23  C   UNL A   1      38.365  19.953  25.155  1.00  0.00     0.087 A 
ATOM     24  C   UNL A   1      38.037  22.141  25.597  1.00  0.00     0.003 A 
ATOM     25  N   UNL A   1      39.484  20.450  25.749  1.00  0.00    -0.361 N 
ATOM     26  C   UNL A   1      39.276  21.752  26.124  1.00  0.00     0.046 A 
ATOM     27  C   UNL A   1      37.688  23.503  25.759  1.00  0.00     0.010 A 
ATOM     28  H   UNL A   1      40.320  19.948  25.889  1.00  0.00     0.166 HD
ATOM     29  C   UNL A   1      40.090  22.591  26.898  1.00  0.00     0.026 A 
ATOM     30  C   UNL A   1      38.492  24.360  26.529  1.00  0.00     0.001 A 
ATOM     31  C   UNL A   1      39.659  23.897  27.120  1.00  0.00     0.002 A 
ENDBRANCH  21  22
ENDBRANCH  16  21
ENDBRANCH  13  16
ENDBRANCH  11  12
BRANCH  11  32
ATOM     32  C   UNL A   1      33.826  25.187  23.057  1.00  0.00     0.101 C 
BRANCH  32  33
ATOM     33  S   UNL A   1      32.528  25.089  21.763  1.00  0.00    -0.177 SA
ATOM     34  H   UNL A   1      32.339  23.790  21.408  1.00  0.00     0.102 HD
ENDBRANCH  32  33
ENDBRANCH  11  32
ENDBRANCH   8  11
ENDBRANCH   6   7
BRANCH   6  35
ATOM     35  C   UNL A   1      30.646  22.769  26.022  1.00  0.00     0.191 C 
BRANCH  35  36
ATOM     36  O   UNL A   1      30.477  22.619  27.430  1.00  0.00    -0.394 OA
ATOM     37  H   UNL A   1      29.975  21.809  27.611  1.00  0.00     0.210 HD
ENDBRANCH  35  36
ENDBRANCH   6  35
ENDBRANCH   3   6
ENDBRANCH   1   2
BRANCH   1  38
ATOM     38  C   UNL A   1      29.583  27.928  23.295  1.00  0.00     0.021 C 
BRANCH  38  39
ATOM     39  C   UNL A   1      30.736  28.930  23.180  1.00  0.00     0.002 C 
BRANCH  39  40
ATOM     40  C   UNL A   1      31.476  29.208  24.491  1.00  0.00     0.002 C 
BRANCH  40  41
ATOM     41  C   UNL A   1      32.908  28.676  24.545  1.00  0.00     0.021 C 
BRANCH  41  42
ATOM     42  C   UNL A   1      33.694  29.130  25.767  1.00  0.00     0.116 C 
BRANCH  42  43
ATOM     43  N   UNL A   1      33.297  30.461  26.195  1.00  0.00    -0.352 N 
ATOM     44  C   UNL A   1      33.799  31.207  27.225  1.00  0.00     0.251 C 
ATOM     45  H   UNL A   1      32.573  30.879  25.676  1.00  0.00     0.163 HD
ATOM     46  O   UNL A   1      33.212  32.216  27.615  1.00  0.00    -0.269 OA
BRANCH  44  47
ATOM     47  C   UNL A   1      35.048  30.777  27.878  1.00  0.00     0.039 A 
ATOM     48  C   UNL A   1      36.099  31.686  27.998  1.00  0.00     0.014 A 
ATOM     49  C   UNL A   1      35.161  29.483  28.396  1.00  0.00     0.014 A 
ATOM     50  C   UNL A   1      37.251  31.312  28.688  1.00  0.00     0.010 A 
ATOM     51  C   UNL A   1      36.274  29.140  29.153  1.00  0.00     0.010 A 
ATOM     52  C   UNL A   1      37.334  30.049  29.298  1.00  0.00    -0.014 A 
BRANCH  52  53
ATOM     53  C   UNL A   1      38.525  29.655  30.088  1.00  0.00     0.031 A 
ATOM     54  C   UNL A   1      38.724  30.209  31.470  1.00  0.00     0.074 A 
ATOM     55  C   UNL A   1      39.453  28.851  29.537  1.00  0.00     0.049 A 
ATOM     56  N   UNL A   1      39.728  30.042  32.293  1.00  0.00    -0.248 NA
ATOM     57  C   UNL A   1      37.666  31.092  31.988  1.00  0.00     0.031 C 
ATOM     58  C   UNL A   1      39.388  28.286  28.187  1.00  0.00     0.029 A 
ATOM     59  N   UNL A   1      40.637  28.374  30.040  1.00  0.00    -0.354 N 
ATOM     60  C   UNL A   1      39.427  30.801  33.415  1.00  0.00     0.074 A 
ATOM     61  C   UNL A   1      38.179  31.481  33.146  1.00  0.00     0.031 C 
ATOM     62  C   UNL A   1      40.470  27.520  27.979  1.00  0.00     0.029 A 
ATOM     63  C   UNL A   1      41.327  27.575  29.160  1.00  0.00     0.049 A 
ATOM     64  H   UNL A   1      40.961  28.584  30.945  1.00  0.00     0.167 HD
ATOM     65  C   UNL A   1      40.116  30.902  34.575  1.00  0.00     0.037 A 
ATOM     66  C   UNL A   1      42.520  26.966  29.290  1.00  0.00     0.037 A 
ATOM     67  C   UNL A   1      41.350  30.210  34.842  1.00  0.00     0.049 A 
ATOM     68  C   UNL A   1      43.282  27.120  30.579  1.00  0.00     0.074 A 
ATOM     69  C   UNL A   1      42.100  30.200  36.004  1.00  0.00     0.029 A 
ATOM     70  N   UNL A   1      42.019  29.408  33.927  1.00  0.00    -0.354 N 
ATOM     71  N   UNL A   1      42.953  27.783  31.661  1.00  0.00    -0.248 NA
ATOM     72  C   UNL A   1      44.580  26.438  30.665  1.00  0.00     0.031 C 
ATOM     73  C   UNL A   1      43.252  29.442  35.774  1.00  0.00     0.029 A 
ATOM     74  C   UNL A   1      43.189  28.925  34.489  1.00  0.00     0.049 A 
ATOM     75  H   UNL A   1      41.707  29.212  33.014  1.00  0.00     0.167 HD
ATOM     76  C   UNL A   1      43.986  27.575  32.566  1.00  0.00     0.074 A 
ATOM     77  C   UNL A   1      44.945  26.709  31.911  1.00  0.00     0.031 C 
ATOM     78  C   UNL A   1      44.130  28.059  33.824  1.00  0.00     0.037 A 
BRANCH  65  79
ATOM     79  C   UNL A   1      39.554  31.795  35.644  1.00  0.00     0.064 A 
ATOM     80  C   UNL A   1      38.599  31.332  36.565  1.00  0.00     0.173 A 
ATOM     81  C   UNL A   1      39.997  33.121  35.771  1.00  0.00     0.173 A 
ATOM     82  F   UNL A   1      38.133  30.078  36.481  1.00  0.00    -0.203 F 
ATOM     83  C   UNL A   1      38.088  32.172  37.551  1.00  0.00     0.198 A 
ATOM     84  C   UNL A   1      39.508  33.947  36.780  1.00  0.00     0.198 A 
ATOM     85  F   UNL A   1      40.910  33.614  34.922  1.00  0.00    -0.203 F 
ATOM     86  F   UNL A   1      37.137  31.725  38.382  1.00  0.00    -0.200 F 
ATOM     87  C   UNL A   1      38.548  33.476  37.662  1.00  0.00     0.200 A 
ATOM     88  F   UNL A   1      39.964  35.201  36.896  1.00  0.00    -0.200 F 
ATOM     89  F   UNL A   1      38.060  34.280  38.617  1.00  0.00    -0.200 F 
ENDBRANCH  65  79
BRANCH  66  90
ATOM     90  C   UNL A   1      43.062  26.143  28.176  1.00  0.00     0.064 A 
ATOM     91  C   UNL A   1      42.945  24.747  28.190  1.00  0.00     0.173 A 
ATOM     92  C   UNL A   1      43.714  26.732  27.083  1.00  0.00     0.173 A 
ATOM     93  F   UNL A   1      42.347  24.135  29.221  1.00  0.00    -0.203 F 
ATOM     94  C   UNL A   1      43.481  23.969  27.165  1.00  0.00     0.198 A 
ATOM     95  C   UNL A   1      44.221  25.956  26.043  1.00  0.00     0.198 A 
ATOM     96  F   UNL A   1      43.848  28.065  27.017  1.00  0.00    -0.203 F 
ATOM     97  F   UNL A   1      43.401  22.633  27.230  1.00  0.00    -0.200 F 
ATOM     98  C   UNL A   1      44.114  24.574  26.091  1.00  0.00     0.200 A 
ATOM     99  F   UNL A   1      44.817  26.546  24.998  1.00  0.00    -0.200 F 
ATOM    100  F   UNL A   1      44.627  23.826  25.104  1.00  0.00    -0.200 F 
ENDBRANCH  66  90
BRANCH  78 101
ATOM    101  C   UNL A   1      45.351  27.637  34.590  1.00  0.00     0.064 A 
ATOM    102  C   UNL A   1      46.528  28.400  34.581  1.00  0.00     0.173 A 
ATOM    103  C   UNL A   1      45.327  26.478  35.381  1.00  0.00     0.173 A 
ATOM    104  F   UNL A   1      46.608  29.509  33.830  1.00  0.00    -0.203 F 
ATOM    105  C   UNL A   1      47.642  28.005  35.315  1.00  0.00     0.198 A 
ATOM    106  C   UNL A   1      46.430  26.105  36.141  1.00  0.00     0.198 A 
ATOM    107  F   UNL A   1      44.223  25.716  35.431  1.00  0.00    -0.203 F 
ATOM    108  F   UNL A   1      48.772  28.723  35.252  1.00  0.00    -0.200 F 
ATOM    109  C   UNL A   1      47.590  26.863  36.101  1.00  0.00     0.200 A 
ATOM    110  F   UNL A   1      46.372  25.011  36.914  1.00  0.00    -0.200 F 
ATOM    111  F   UNL A   1      48.661  26.491  36.817  1.00  0.00    -0.200 F 
ENDBRANCH  78 101
ENDBRANCH  52  53
ENDBRANCH  44  47
ENDBRANCH  42  43
ENDBRANCH  41  42
ENDBRANCH  40  41
ENDBRANCH  39  40
ENDBRANCH  38  39
ENDBRANCH   1  38
TORSDOF 24
ENDMDL
