MODEL 1
REMARK VINA RESULT:     -11.9      0.000      0.000
REMARK SMILES O=C(NCCCCCCNC(=O)c1cccc2nc(Cl)c(Cl)nc12)c1ccc(-c2c3nc(c(-c4c(F)c(F)c(F)c(F)c4F)c4ccc([nH]4)c(-c4c(F)c(F)c(F)c(F)c4F)c4nc(c(-c5c(F)c(F)c(F)c(F)c5F)c5ccc2[nH]5)C=C4)C=C3)cc1
REMARK SMILES IDX 5 1 4 2 3 3 1 4 2 5 25 7 26 8 87 9 27 10 86 11 28 12 29 13
REMARK SMILES IDX 30 14 80 15 31 16 85 17 79 18 81 19 32 20 84 21 78 22 77 23
REMARK SMILES IDX 33 25 65 26 45 27 64 28 46 29 49 30 63 31 82 32 47 33 48 34
REMARK SMILES IDX 62 36 83 37 50 38 34 39 35 40 43 41 36 42 37 43 41 44 44 45
REMARK SMILES IDX 38 46 39 47 42 48 40 49 66 50 67 51 75 52 68 53 69 54 73 55
REMARK SMILES IDX 76 56 70 57 71 58 74 59 72 60 51 61 52 62 60 63 53 64 54 65
REMARK SMILES IDX 58 66 61 67 55 68 56 69 59 70 57 71 6 72 7 73 8 74 9 75
REMARK SMILES IDX 10 76 11 77 12 79 13 80 14 81 24 82 15 83 17 84 23 85 16 86
REMARK SMILES IDX 18 87 21 88 19 89 22 90 20 91
REMARK H PARENT 3 6 81 24 49 35 10 78
REMARK Flexibility Score: inf
ROOT
ATOM      1  C   UNL A   1      32.444  27.638  26.831  1.00  0.00     0.021 C 
ENDROOT
BRANCH   1   2
ATOM      2  C   UNL A   1      33.781  28.363  26.967  1.00  0.00     0.116 C 
BRANCH   2   3
ATOM      3  N   UNL A   1      33.644  29.717  27.468  1.00  0.00    -0.352 N 
ATOM      4  O   UNL A   1      34.176  31.591  28.587  1.00  0.00    -0.269 OA
ATOM      5  C   UNL A   1      34.541  30.504  28.146  1.00  0.00     0.251 C 
ATOM      6  H   UNL A   1      32.771  30.137  27.296  1.00  0.00     0.163 HD
BRANCH   5   7
ATOM      7  C   UNL A   1      35.937  30.063  28.374  1.00  0.00     0.039 A 
ATOM      8  C   UNL A   1      36.265  29.534  29.628  1.00  0.00     0.014 A 
ATOM      9  C   UNL A   1      36.940  30.231  27.413  1.00  0.00     0.014 A 
ATOM     10  C   UNL A   1      37.578  29.150  29.909  1.00  0.00     0.010 A 
ATOM     11  C   UNL A   1      38.242  29.799  27.674  1.00  0.00     0.010 A 
ATOM     12  C   UNL A   1      38.577  29.271  28.930  1.00  0.00    -0.014 A 
BRANCH  12  13
ATOM     13  C   UNL A   1      39.983  28.902  29.235  1.00  0.00     0.031 A 
ATOM     14  C   UNL A   1      40.825  29.799  30.099  1.00  0.00     0.074 A 
ATOM     15  C   UNL A   1      40.508  27.768  28.733  1.00  0.00     0.049 A 
ATOM     16  N   UNL A   1      42.077  29.667  30.459  1.00  0.00    -0.248 NA
ATOM     17  C   UNL A   1      40.178  31.016  30.618  1.00  0.00     0.031 C 
ATOM     18  C   UNL A   1      39.804  26.822  27.869  1.00  0.00     0.029 A 
ATOM     19  N   UNL A   1      41.758  27.219  28.882  1.00  0.00    -0.354 N 
ATOM     20  C   UNL A   1      42.369  30.783  31.230  1.00  0.00     0.074 A 
ATOM     21  C   UNL A   1      41.178  31.604  31.257  1.00  0.00     0.031 C 
ATOM     22  C   UNL A   1      40.620  25.793  27.589  1.00  0.00     0.029 A 
ATOM     23  C   UNL A   1      41.912  26.020  28.233  1.00  0.00     0.049 A 
ATOM     24  H   UNL A   1      42.474  27.645  29.406  1.00  0.00     0.167 HD
ATOM     25  C   UNL A   1      43.520  31.087  31.876  1.00  0.00     0.037 A 
ATOM     26  C   UNL A   1      42.974  25.193  28.169  1.00  0.00     0.037 A 
ATOM     27  C   UNL A   1      44.693  30.256  31.885  1.00  0.00     0.049 A 
ATOM     28  C   UNL A   1      44.239  25.551  28.901  1.00  0.00     0.074 A 
ATOM     29  C   UNL A   1      45.894  30.466  32.540  1.00  0.00     0.029 A 
ATOM     30  N   UNL A   1      44.808  29.048  31.214  1.00  0.00    -0.354 N 
ATOM     31  N   UNL A   1      44.494  26.599  29.644  1.00  0.00    -0.248 NA
ATOM     32  C   UNL A   1      45.363  24.610  28.784  1.00  0.00     0.031 C 
ATOM     33  C   UNL A   1      46.745  29.395  32.249  1.00  0.00     0.029 A 
ATOM     34  C   UNL A   1      46.062  28.505  31.437  1.00  0.00     0.049 A 
ATOM     35  H   UNL A   1      44.103  28.638  30.663  1.00  0.00     0.167 HD
ATOM     36  C   UNL A   1      45.794  26.434  30.101  1.00  0.00     0.074 A 
ATOM     37  C   UNL A   1      46.275  25.182  29.558  1.00  0.00     0.031 C 
ATOM     38  C   UNL A   1      46.522  27.251  30.900  1.00  0.00     0.037 A 
BRANCH  25  39
ATOM     39  C   UNL A   1      43.564  32.371  32.646  1.00  0.00     0.064 A 
ATOM     40  C   UNL A   1      43.935  33.576  32.032  1.00  0.00     0.173 A 
ATOM     41  C   UNL A   1      43.178  32.408  33.993  1.00  0.00     0.173 A 
ATOM     42  F   UNL A   1      44.324  33.588  30.749  1.00  0.00    -0.203 F 
ATOM     43  C   UNL A   1      43.931  34.772  32.746  1.00  0.00     0.198 A 
ATOM     44  C   UNL A   1      43.154  33.609  34.698  1.00  0.00     0.198 A 
ATOM     45  F   UNL A   1      42.810  31.282  34.623  1.00  0.00    -0.203 F 
ATOM     46  F   UNL A   1      44.318  35.907  32.148  1.00  0.00    -0.200 F 
ATOM     47  C   UNL A   1      43.534  34.788  34.074  1.00  0.00     0.200 A 
ATOM     48  F   UNL A   1      42.761  33.626  35.979  1.00  0.00    -0.200 F 
ATOM     49  F   UNL A   1      43.521  35.942  34.756  1.00  0.00    -0.200 F 
ENDBRANCH  25  39
BRANCH  26  50
ATOM     50  C   UNL A   1      42.870  23.919  27.415  1.00  0.00     0.064 A 
ATOM     51  C   UNL A   1      42.444  22.745  28.052  1.00  0.00     0.173 A 
ATOM     52  C   UNL A   1      43.180  23.850  26.050  1.00  0.00     0.173 A 
ATOM     53  F   UNL A   1      42.158  22.763  29.362  1.00  0.00    -0.203 F 
ATOM     54  C   UNL A   1      42.338  21.547  27.352  1.00  0.00     0.198 A 
ATOM     55  C   UNL A   1      43.055  22.654  25.346  1.00  0.00     0.198 A 
ATOM     56  F   UNL A   1      43.591  24.947  25.399  1.00  0.00    -0.203 F 
ATOM     57  F   UNL A   1      41.955  20.433  27.991  1.00  0.00    -0.200 F 
ATOM     58  C   UNL A   1      42.638  21.503  25.998  1.00  0.00     0.200 A 
ATOM     59  F   UNL A   1      43.338  22.616  24.037  1.00  0.00    -0.200 F 
ATOM     60  F   UNL A   1      42.531  20.350  25.324  1.00  0.00    -0.200 F 
ENDBRANCH  26  50
BRANCH  38  61
ATOM     61  C   UNL A   1      47.908  26.815  31.260  1.00  0.00     0.064 A 
ATOM     62  C   UNL A   1      48.142  25.955  32.341  1.00  0.00     0.173 A 
ATOM     63  C   UNL A   1      49.001  27.198  30.469  1.00  0.00     0.173 A 
ATOM     64  F   UNL A   1      47.128  25.573  33.131  1.00  0.00    -0.203 F 
ATOM     65  C   UNL A   1      49.426  25.496  32.621  1.00  0.00     0.198 A 
ATOM     66  C   UNL A   1      50.280  26.722  30.741  1.00  0.00     0.198 A 
ATOM     67  F   UNL A   1      48.823  28.016  29.421  1.00  0.00    -0.203 F 
ATOM     68  F   UNL A   1      49.633  24.689  33.671  1.00  0.00    -0.200 F 
ATOM     69  C   UNL A   1      50.492  25.873  31.817  1.00  0.00     0.200 A 
ATOM     70  F   UNL A   1      51.307  27.080  29.958  1.00  0.00    -0.200 F 
ATOM     71  F   UNL A   1      51.724  25.418  32.080  1.00  0.00    -0.200 F 
ENDBRANCH  38  61
ENDBRANCH  12  13
ENDBRANCH   5   7
ENDBRANCH   2   3
ENDBRANCH   1   2
BRANCH   1  72
ATOM     72  C   UNL A   1      31.926  27.450  25.403  1.00  0.00     0.002 C 
BRANCH  72  73
ATOM     73  C   UNL A   1      31.736  28.725  24.578  1.00  0.00     0.002 C 
BRANCH  73  74
ATOM     74  C   UNL A   1      32.643  28.885  23.353  1.00  0.00     0.021 C 
BRANCH  74  75
ATOM     75  C   UNL A   1      33.660  27.768  23.124  1.00  0.00     0.116 C 
BRANCH  75  76
ATOM     76  N   UNL A   1      33.560  27.180  21.801  1.00  0.00    -0.352 N 
ATOM     77  C   UNL A   1      33.027  25.973  21.426  1.00  0.00     0.253 C 
ATOM     78  H   UNL A   1      33.928  27.725  21.069  1.00  0.00     0.163 HD
ATOM     79  O   UNL A   1      32.985  25.653  20.242  1.00  0.00    -0.269 OA
BRANCH  77  80
ATOM     80  C   UNL A   1      32.427  25.089  22.440  1.00  0.00     0.067 A 
ATOM     81  C   UNL A   1      31.058  25.231  22.710  1.00  0.00     0.016 A 
ATOM     82  C   UNL A   1      33.212  24.097  23.041  1.00  0.00     0.103 A 
ATOM     83  C   UNL A   1      30.453  24.381  23.621  1.00  0.00     0.003 A 
ATOM     84  C   UNL A   1      32.566  23.223  23.955  1.00  0.00     0.091 A 
ATOM     85  N   UNL A   1      34.540  23.955  22.792  1.00  0.00    -0.230 NA
ATOM     86  C   UNL A   1      31.213  23.386  24.232  1.00  0.00     0.031 A 
ATOM     87  N   UNL A   1      33.220  22.224  24.577  1.00  0.00    -0.231 NA
ATOM     88  C   UNL A   1      35.182  22.937  23.407  1.00  0.00     0.167 A 
ATOM     89  C   UNL A   1      34.533  22.086  24.281  1.00  0.00     0.167 A 
ATOM     90  Cl  UNL A   1      36.847  22.823  23.009  1.00  0.00    -0.059 Cl
ATOM     91  Cl  UNL A   1      35.288  20.778  25.097  1.00  0.00    -0.059 Cl
ENDBRANCH  77  80
ENDBRANCH  75  76
ENDBRANCH  74  75
ENDBRANCH  73  74
ENDBRANCH  72  73
ENDBRANCH   1  72
TORSDOF 13
ENDMDL
MODEL 2
REMARK VINA RESULT:     -11.8      3.612      8.771
REMARK SMILES O=C(NCCCCCCNC(=O)c1cccc2nc(Cl)c(Cl)nc12)c1ccc(-c2c3nc(c(-c4c(F)c(F)c(F)c(F)c4F)c4ccc([nH]4)c(-c4c(F)c(F)c(F)c(F)c4F)c4nc(c(-c5c(F)c(F)c(F)c(F)c5F)c5ccc2[nH]5)C=C4)C=C3)cc1
REMARK SMILES IDX 5 1 4 2 3 3 1 4 2 5 25 7 26 8 87 9 27 10 86 11 28 12 29 13
REMARK SMILES IDX 30 14 80 15 31 16 85 17 79 18 81 19 32 20 84 21 78 22 77 23
REMARK SMILES IDX 33 25 65 26 45 27 64 28 46 29 49 30 63 31 82 32 47 33 48 34
REMARK SMILES IDX 62 36 83 37 50 38 34 39 35 40 43 41 36 42 37 43 41 44 44 45
REMARK SMILES IDX 38 46 39 47 42 48 40 49 66 50 67 51 75 52 68 53 69 54 73 55
REMARK SMILES IDX 76 56 70 57 71 58 74 59 72 60 51 61 52 62 60 63 53 64 54 65
REMARK SMILES IDX 58 66 61 67 55 68 56 69 59 70 57 71 6 72 7 73 8 74 9 75
REMARK SMILES IDX 10 76 11 77 12 79 13 80 14 81 24 82 15 83 17 84 23 85 16 86
REMARK SMILES IDX 18 87 21 88 19 89 22 90 20 91
REMARK H PARENT 3 6 81 24 49 35 10 78
REMARK Flexibility Score: inf
ROOT
ATOM      1  C   UNL A   1      36.204  23.107  23.825  1.00  0.00     0.021 C 
ENDROOT
BRANCH   1   2
ATOM      2  C   UNL A   1      37.008  23.536  25.049  1.00  0.00     0.116 C 
BRANCH   2   3
ATOM      3  N   UNL A   1      38.061  22.598  25.394  1.00  0.00    -0.352 N 
ATOM      4  O   UNL A   1      40.045  21.881  26.164  1.00  0.00    -0.269 OA
ATOM      5  C   UNL A   1      39.229  22.796  26.086  1.00  0.00     0.251 C 
ATOM      6  H   UNL A   1      37.914  21.677  25.081  1.00  0.00     0.163 HD
BRANCH   5   7
ATOM      7  C   UNL A   1      39.537  24.096  26.727  1.00  0.00     0.039 A 
ATOM      8  C   UNL A   1      40.212  25.060  25.970  1.00  0.00     0.014 A 
ATOM      9  C   UNL A   1      39.245  24.354  28.070  1.00  0.00     0.014 A 
ATOM     10  C   UNL A   1      40.570  26.283  26.544  1.00  0.00     0.010 A 
ATOM     11  C   UNL A   1      39.553  25.595  28.630  1.00  0.00     0.010 A 
ATOM     12  C   UNL A   1      40.234  26.565  27.877  1.00  0.00    -0.014 A 
BRANCH  12  13
ATOM     13  C   UNL A   1      40.645  27.846  28.506  1.00  0.00     0.031 A 
ATOM     14  C   UNL A   1      42.088  28.080  28.860  1.00  0.00     0.074 A 
ATOM     15  C   UNL A   1      39.728  28.796  28.766  1.00  0.00     0.049 A 
ATOM     16  N   UNL A   1      42.641  29.118  29.436  1.00  0.00    -0.248 NA
ATOM     17  C   UNL A   1      43.033  26.999  28.538  1.00  0.00     0.031 C 
ATOM     18  C   UNL A   1      38.296  28.686  28.487  1.00  0.00     0.029 A 
ATOM     19  N   UNL A   1      39.866  30.045  29.320  1.00  0.00    -0.354 N 
ATOM     20  C   UNL A   1      43.990  28.810  29.555  1.00  0.00     0.074 A 
ATOM     21  C   UNL A   1      44.168  27.474  29.029  1.00  0.00     0.031 C 
ATOM     22  C   UNL A   1      37.692  29.831  28.843  1.00  0.00     0.029 A 
ATOM     23  C   UNL A   1      38.687  30.745  29.397  1.00  0.00     0.049 A 
ATOM     24  H   UNL A   1      40.727  30.404  29.632  1.00  0.00     0.167 HD
ATOM     25  C   UNL A   1      44.992  29.580  30.041  1.00  0.00     0.037 A 
ATOM     26  C   UNL A   1      38.439  31.987  29.857  1.00  0.00     0.037 A 
ATOM     27  C   UNL A   1      44.828  30.922  30.528  1.00  0.00     0.049 A 
ATOM     28  C   UNL A   1      39.573  32.823  30.386  1.00  0.00     0.074 A 
ATOM     29  C   UNL A   1      45.793  31.790  31.007  1.00  0.00     0.029 A 
ATOM     30  N   UNL A   1      43.617  31.594  30.589  1.00  0.00    -0.354 N 
ATOM     31  N   UNL A   1      40.846  32.527  30.472  1.00  0.00    -0.248 NA
ATOM     32  C   UNL A   1      39.234  34.167  30.880  1.00  0.00     0.031 C 
ATOM     33  C   UNL A   1      45.164  32.983  31.378  1.00  0.00     0.029 A 
ATOM     34  C   UNL A   1      43.812  32.866  31.102  1.00  0.00     0.049 A 
ATOM     35  H   UNL A   1      42.750  31.224  30.307  1.00  0.00     0.167 HD
ATOM     36  C   UNL A   1      41.462  33.650  31.006  1.00  0.00     0.074 A 
ATOM     37  C   UNL A   1      40.426  34.638  31.219  1.00  0.00     0.031 C 
ATOM     38  C   UNL A   1      42.772  33.842  31.295  1.00  0.00     0.037 A 
BRANCH  25  39
ATOM     39  C   UNL A   1      46.371  28.993  30.054  1.00  0.00     0.064 A 
ATOM     40  C   UNL A   1      46.846  28.273  31.159  1.00  0.00     0.173 A 
ATOM     41  C   UNL A   1      47.203  29.102  28.930  1.00  0.00     0.173 A 
ATOM     42  F   UNL A   1      46.090  28.152  32.260  1.00  0.00    -0.203 F 
ATOM     43  C   UNL A   1      48.113  27.695  31.144  1.00  0.00     0.198 A 
ATOM     44  C   UNL A   1      48.460  28.504  28.910  1.00  0.00     0.198 A 
ATOM     45  F   UNL A   1      46.791  29.778  27.846  1.00  0.00    -0.203 F 
ATOM     46  F   UNL A   1      48.559  27.036  32.222  1.00  0.00    -0.200 F 
ATOM     47  C   UNL A   1      48.914  27.804  30.018  1.00  0.00     0.200 A 
ATOM     48  F   UNL A   1      49.232  28.602  27.818  1.00  0.00    -0.200 F 
ATOM     49  F   UNL A   1      50.129  27.238  30.002  1.00  0.00    -0.200 F 
ENDBRANCH  25  39
BRANCH  26  50
ATOM     50  C   UNL A   1      37.060  32.532  29.797  1.00  0.00     0.064 A 
ATOM     51  C   UNL A   1      36.197  32.413  30.895  1.00  0.00     0.173 A 
ATOM     52  C   UNL A   1      36.582  33.187  28.655  1.00  0.00     0.173 A 
ATOM     53  F   UNL A   1      36.607  31.774  32.001  1.00  0.00    -0.203 F 
ATOM     54  C   UNL A   1      34.904  32.926  30.850  1.00  0.00     0.198 A 
ATOM     55  C   UNL A   1      35.294  33.717  28.617  1.00  0.00     0.198 A 
ATOM     56  F   UNL A   1      37.372  33.324  27.580  1.00  0.00    -0.203 F 
ATOM     57  F   UNL A   1      34.089  32.775  31.903  1.00  0.00    -0.200 F 
ATOM     58  C   UNL A   1      34.455  33.582  29.713  1.00  0.00     0.200 A 
ATOM     59  F   UNL A   1      34.866  34.357  27.521  1.00  0.00    -0.200 F 
ATOM     60  F   UNL A   1      33.211  34.080  29.673  1.00  0.00    -0.200 F 
ENDBRANCH  26  50
BRANCH  38  61
ATOM     61  C   UNL A   1      43.173  35.173  31.851  1.00  0.00     0.064 A 
ATOM     62  C   UNL A   1      43.615  36.207  31.014  1.00  0.00     0.173 A 
ATOM     63  C   UNL A   1      43.038  35.441  33.220  1.00  0.00     0.173 A 
ATOM     64  F   UNL A   1      43.770  35.991  29.699  1.00  0.00    -0.203 F 
ATOM     65  C   UNL A   1      43.913  37.464  31.532  1.00  0.00     0.198 A 
ATOM     66  C   UNL A   1      43.319  36.705  33.731  1.00  0.00     0.198 A 
ATOM     67  F   UNL A   1      42.613  34.484  34.058  1.00  0.00    -0.203 F 
ATOM     68  F   UNL A   1      44.353  38.435  30.718  1.00  0.00    -0.200 F 
ATOM     69  C   UNL A   1      43.757  37.715  32.888  1.00  0.00     0.200 A 
ATOM     70  F   UNL A   1      43.160  36.948  35.040  1.00  0.00    -0.200 F 
ATOM     71  F   UNL A   1      44.031  38.930  33.381  1.00  0.00    -0.200 F 
ENDBRANCH  38  61
ENDBRANCH  12  13
ENDBRANCH   5   7
ENDBRANCH   2   3
ENDBRANCH   1   2
BRANCH   1  72
ATOM     72  C   UNL A   1      34.810  22.539  24.103  1.00  0.00     0.002 C 
BRANCH  72  73
ATOM     73  C   UNL A   1      34.753  21.274  24.962  1.00  0.00     0.002 C 
BRANCH  73  74
ATOM     74  C   UNL A   1      33.614  21.196  25.985  1.00  0.00     0.021 C 
BRANCH  74  75
ATOM     75  C   UNL A   1      33.457  22.406  26.904  1.00  0.00     0.116 C 
BRANCH  75  76
ATOM     76  N   UNL A   1      32.118  22.526  27.451  1.00  0.00    -0.352 N 
ATOM     77  C   UNL A   1      31.020  23.161  26.927  1.00  0.00     0.253 C 
ATOM     78  H   UNL A   1      31.977  22.091  28.323  1.00  0.00     0.163 HD
ATOM     79  O   UNL A   1      29.942  23.121  27.512  1.00  0.00    -0.269 OA
BRANCH  77  80
ATOM     80  C   UNL A   1      31.113  23.824  25.616  1.00  0.00     0.067 A 
ATOM     81  C   UNL A   1      31.018  23.026  24.466  1.00  0.00     0.016 A 
ATOM     82  C   UNL A   1      31.214  25.219  25.555  1.00  0.00     0.103 A 
ATOM     83  C   UNL A   1      31.050  23.625  23.217  1.00  0.00     0.003 A 
ATOM     84  C   UNL A   1      31.223  25.814  24.265  1.00  0.00     0.091 A 
ATOM     85  N   UNL A   1      31.314  26.001  26.661  1.00  0.00    -0.230 NA
ATOM     86  C   UNL A   1      31.151  25.012  23.131  1.00  0.00     0.031 A 
ATOM     87  N   UNL A   1      31.301  27.146  24.090  1.00  0.00    -0.231 NA
ATOM     88  C   UNL A   1      31.371  27.338  26.474  1.00  0.00     0.167 A 
ATOM     89  C   UNL A   1      31.362  27.900  25.211  1.00  0.00     0.167 A 
ATOM     90  Cl  UNL A   1      31.467  28.241  27.930  1.00  0.00    -0.059 Cl
ATOM     91  Cl  UNL A   1      31.436  29.588  24.903  1.00  0.00    -0.059 Cl
ENDBRANCH  77  80
ENDBRANCH  75  76
ENDBRANCH  74  75
ENDBRANCH  73  74
ENDBRANCH  72  73
ENDBRANCH   1  72
TORSDOF 13
ENDMDL
MODEL 3
REMARK VINA RESULT:     -11.8      3.420      4.871
REMARK SMILES O=C(NCCCCCCNC(=O)c1cccc2nc(Cl)c(Cl)nc12)c1ccc(-c2c3nc(c(-c4c(F)c(F)c(F)c(F)c4F)c4ccc([nH]4)c(-c4c(F)c(F)c(F)c(F)c4F)c4nc(c(-c5c(F)c(F)c(F)c(F)c5F)c5ccc2[nH]5)C=C4)C=C3)cc1
REMARK SMILES IDX 5 1 4 2 3 3 1 4 2 5 25 7 26 8 87 9 27 10 86 11 28 12 29 13
REMARK SMILES IDX 30 14 80 15 31 16 85 17 79 18 81 19 32 20 84 21 78 22 77 23
REMARK SMILES IDX 33 25 65 26 45 27 64 28 46 29 49 30 63 31 82 32 47 33 48 34
REMARK SMILES IDX 62 36 83 37 50 38 34 39 35 40 43 41 36 42 37 43 41 44 44 45
REMARK SMILES IDX 38 46 39 47 42 48 40 49 66 50 67 51 75 52 68 53 69 54 73 55
REMARK SMILES IDX 76 56 70 57 71 58 74 59 72 60 51 61 52 62 60 63 53 64 54 65
REMARK SMILES IDX 58 66 61 67 55 68 56 69 59 70 57 71 6 72 7 73 8 74 9 75
REMARK SMILES IDX 10 76 11 77 12 79 13 80 14 81 24 82 15 83 17 84 23 85 16 86
REMARK SMILES IDX 18 87 21 88 19 89 22 90 20 91
REMARK H PARENT 3 6 81 24 49 35 10 78
REMARK Flexibility Score: inf
ROOT
ATOM      1  C   UNL A   1      31.172  32.338  26.478  1.00  0.00     0.021 C 
ENDROOT
BRANCH   1   2
ATOM      2  C   UNL A   1      32.469  32.843  27.106  1.00  0.00     0.116 C 
BRANCH   2   3
ATOM      3  N   UNL A   1      32.367  34.201  27.606  1.00  0.00    -0.352 N 
ATOM      4  O   UNL A   1      32.741  35.964  28.946  1.00  0.00    -0.269 OA
ATOM      5  C   UNL A   1      33.072  34.834  28.598  1.00  0.00     0.251 C 
ATOM      6  H   UNL A   1      31.683  34.754  27.164  1.00  0.00     0.163 HD
BRANCH   5   7
ATOM      7  C   UNL A   1      34.216  34.176  29.273  1.00  0.00     0.039 A 
ATOM      8  C   UNL A   1      35.510  34.528  28.872  1.00  0.00     0.014 A 
ATOM      9  C   UNL A   1      34.040  33.170  30.229  1.00  0.00     0.014 A 
ATOM     10  C   UNL A   1      36.620  33.900  29.442  1.00  0.00     0.010 A 
ATOM     11  C   UNL A   1      35.149  32.579  30.839  1.00  0.00     0.010 A 
ATOM     12  C   UNL A   1      36.448  32.926  30.439  1.00  0.00    -0.014 A 
BRANCH  12  13
ATOM     13  C   UNL A   1      37.621  32.226  31.021  1.00  0.00     0.031 A 
ATOM     14  C   UNL A   1      38.084  32.564  32.411  1.00  0.00     0.074 A 
ATOM     15  C   UNL A   1      38.275  31.292  30.304  1.00  0.00     0.049 A 
ATOM     16  N   UNL A   1      39.099  32.084  33.086  1.00  0.00    -0.248 NA
ATOM     17  C   UNL A   1      37.314  33.587  33.135  1.00  0.00     0.031 C 
ATOM     18  C   UNL A   1      37.938  30.885  28.941  1.00  0.00     0.029 A 
ATOM     19  N   UNL A   1      39.360  30.514  30.627  1.00  0.00    -0.354 N 
ATOM     20  C   UNL A   1      39.096  32.754  34.302  1.00  0.00     0.074 A 
ATOM     21  C   UNL A   1      38.003  33.702  34.261  1.00  0.00     0.031 C 
ATOM     22  C   UNL A   1      38.778  29.911  28.554  1.00  0.00     0.029 A 
ATOM     23  C   UNL A   1      39.727  29.643  29.632  1.00  0.00     0.049 A 
ATOM     24  H   UNL A   1      39.829  30.575  31.490  1.00  0.00     0.167 HD
ATOM     25  C   UNL A   1      39.916  32.580  35.364  1.00  0.00     0.037 A 
ATOM     26  C   UNL A   1      40.715  28.728  29.595  1.00  0.00     0.037 A 
ATOM     27  C   UNL A   1      40.978  31.614  35.426  1.00  0.00     0.049 A 
ATOM     28  C   UNL A   1      41.609  28.550  30.792  1.00  0.00     0.074 A 
ATOM     29  C   UNL A   1      41.839  31.343  36.475  1.00  0.00     0.029 A 
ATOM     30  N   UNL A   1      41.317  30.750  34.396  1.00  0.00    -0.354 N 
ATOM     31  N   UNL A   1      41.579  29.175  31.943  1.00  0.00    -0.248 NA
ATOM     32  C   UNL A   1      42.672  27.540  30.684  1.00  0.00     0.031 C 
ATOM     33  C   UNL A   1      42.714  30.328  36.073  1.00  0.00     0.029 A 
ATOM     34  C   UNL A   1      42.378  29.948  34.784  1.00  0.00     0.049 A 
ATOM     35  H   UNL A   1      40.869  30.711  33.520  1.00  0.00     0.167 HD
ATOM     36  C   UNL A   1      42.600  28.621  32.703  1.00  0.00     0.074 A 
ATOM     37  C   UNL A   1      43.228  27.604  31.886  1.00  0.00     0.031 C 
ATOM     38  C   UNL A   1      42.982  28.931  33.965  1.00  0.00     0.037 A 
BRANCH  25  39
ATOM     39  C   UNL A   1      39.688  33.448  36.565  1.00  0.00     0.064 A 
ATOM     40  C   UNL A   1      40.315  34.695  36.692  1.00  0.00     0.173 A 
ATOM     41  C   UNL A   1      38.790  33.054  37.568  1.00  0.00     0.173 A 
ATOM     42  F   UNL A   1      41.189  35.108  35.763  1.00  0.00    -0.203 F 
ATOM     43  C   UNL A   1      40.062  35.513  37.791  1.00  0.00     0.198 A 
ATOM     44  C   UNL A   1      38.524  33.884  38.654  1.00  0.00     0.198 A 
ATOM     45  F   UNL A   1      38.162  31.871  37.489  1.00  0.00    -0.203 F 
ATOM     46  F   UNL A   1      40.694  36.688  37.907  1.00  0.00    -0.200 F 
ATOM     47  C   UNL A   1      39.162  35.110  38.765  1.00  0.00     0.200 A 
ATOM     48  F   UNL A   1      37.647  33.498  39.592  1.00  0.00    -0.200 F 
ATOM     49  F   UNL A   1      38.912  35.903  39.817  1.00  0.00    -0.200 F 
ENDBRANCH  25  39
BRANCH  26  50
ATOM     50  C   UNL A   1      40.882  27.874  28.392  1.00  0.00     0.064 A 
ATOM     51  C   UNL A   1      40.230  26.637  28.298  1.00  0.00     0.173 A 
ATOM     52  C   UNL A   1      41.682  28.278  27.315  1.00  0.00     0.173 A 
ATOM     53  F   UNL A   1      39.472  26.203  29.316  1.00  0.00    -0.203 F 
ATOM     54  C   UNL A   1      40.376  25.832  27.172  1.00  0.00     0.198 A 
ATOM     55  C   UNL A   1      41.812  27.480  26.180  1.00  0.00     0.198 A 
ATOM     56  F   UNL A   1      42.325  29.454  27.360  1.00  0.00    -0.203 F 
ATOM     57  F   UNL A   1      39.764  24.642  27.119  1.00  0.00    -0.200 F 
ATOM     58  C   UNL A   1      41.162  26.257  26.111  1.00  0.00     0.200 A 
ATOM     59  F   UNL A   1      42.566  27.896  25.153  1.00  0.00    -0.200 F 
ATOM     60  F   UNL A   1      41.299  25.483  25.025  1.00  0.00    -0.200 F 
ENDBRANCH  26  50
BRANCH  38  61
ATOM     61  C   UNL A   1      44.114  28.153  34.559  1.00  0.00     0.064 A 
ATOM     62  C   UNL A   1      43.892  26.937  35.221  1.00  0.00     0.173 A 
ATOM     63  C   UNL A   1      45.437  28.586  34.396  1.00  0.00     0.173 A 
ATOM     64  F   UNL A   1      42.642  26.490  35.410  1.00  0.00    -0.203 F 
ATOM     65  C   UNL A   1      44.959  26.184  35.703  1.00  0.00     0.198 A 
ATOM     66  C   UNL A   1      46.502  27.821  34.863  1.00  0.00     0.198 A 
ATOM     67  F   UNL A   1      45.697  29.741  33.765  1.00  0.00    -0.203 F 
ATOM     68  F   UNL A   1      44.726  25.033  36.350  1.00  0.00    -0.200 F 
ATOM     69  C   UNL A   1      46.262  26.622  35.517  1.00  0.00     0.200 A 
ATOM     70  F   UNL A   1      47.761  28.241  34.675  1.00  0.00    -0.200 F 
ATOM     71  F   UNL A   1      47.287  25.888  35.970  1.00  0.00    -0.200 F 
ENDBRANCH  38  61
ENDBRANCH  12  13
ENDBRANCH   5   7
ENDBRANCH   2   3
ENDBRANCH   1   2
BRANCH   1  72
ATOM     72  C   UNL A   1      31.235  30.951  25.834  1.00  0.00     0.002 C 
BRANCH  72  73
ATOM     73  C   UNL A   1      32.469  30.107  26.163  1.00  0.00     0.002 C 
BRANCH  73  74
ATOM     74  C   UNL A   1      32.295  29.045  27.255  1.00  0.00     0.021 C 
BRANCH  74  75
ATOM     75  C   UNL A   1      32.602  27.606  26.844  1.00  0.00     0.116 C 
BRANCH  75  76
ATOM     76  N   UNL A   1      31.452  26.729  26.969  1.00  0.00    -0.352 N 
ATOM     77  C   UNL A   1      30.854  25.941  26.018  1.00  0.00     0.253 C 
ATOM     78  H   UNL A   1      31.043  26.696  27.863  1.00  0.00     0.163 HD
ATOM     79  O   UNL A   1      29.907  25.220  26.316  1.00  0.00    -0.269 OA
BRANCH  77  80
ATOM     80  C   UNL A   1      31.401  25.898  24.652  1.00  0.00     0.067 A 
ATOM     81  C   UNL A   1      30.788  26.693  23.672  1.00  0.00     0.016 A 
ATOM     82  C   UNL A   1      32.547  25.137  24.392  1.00  0.00     0.103 A 
ATOM     83  C   UNL A   1      31.310  26.715  22.389  1.00  0.00     0.003 A 
ATOM     84  C   UNL A   1      33.078  25.191  23.076  1.00  0.00     0.091 A 
ATOM     85  N   UNL A   1      33.144  24.358  25.332  1.00  0.00    -0.230 NA
ATOM     86  C   UNL A   1      32.450  25.964  22.106  1.00  0.00     0.031 A 
ATOM     87  N   UNL A   1      34.185  24.512  22.721  1.00  0.00    -0.231 NA
ATOM     88  C   UNL A   1      34.266  23.697  24.969  1.00  0.00     0.167 A 
ATOM     89  C   UNL A   1      34.778  23.774  23.687  1.00  0.00     0.167 A 
ATOM     90  Cl  UNL A   1      34.962  22.764  26.230  1.00  0.00    -0.059 Cl
ATOM     91  Cl  UNL A   1      36.193  22.959  23.161  1.00  0.00    -0.059 Cl
ENDBRANCH  77  80
ENDBRANCH  75  76
ENDBRANCH  74  75
ENDBRANCH  73  74
ENDBRANCH  72  73
ENDBRANCH   1  72
TORSDOF 13
ENDMDL
