MODEL 1
REMARK VINA RESULT:      -7.8      0.000      0.000
REMARK SMILES CC(C)N(CC(F)(F)F)C(=O)N(CC(=O)NCCCCCCNC(=O)c1ccc(-c2c3nc(c(-c4c(F)c(F)c(F)c(F)c4F)c4ccc([nH]4)c(-c4c(F)c(F)c(F)c(F)c4F)c4nc(c(-c5c(F)c(F)c(F)c(F)c5F)c5ccc2[nH]5)C=C4)C=C3)cc1)C(C)(C)C
REMARK SMILES IDX 18 1 17 2 16 3 14 4 15 5 13 7 12 8 10 9 11 10 4 11 2 12 1 13
REMARK SMILES IDX 3 14 5 15 6 16 7 17 8 18 9 19 89 20 90 21 91 22 92 23 19 24
REMARK SMILES IDX 20 25 21 26 22 27 23 28 24 29 25 31 26 32 27 33 88 34 28 35
REMARK SMILES IDX 87 36 29 37 30 38 31 39 81 40 32 41 86 42 80 43 82 44 33 45
REMARK SMILES IDX 85 46 79 47 78 48 34 50 66 51 46 52 65 53 47 54 50 55 64 56
REMARK SMILES IDX 83 57 48 58 49 59 63 61 84 62 51 63 35 64 36 65 44 66 37 67
REMARK SMILES IDX 38 68 42 69 45 70 39 71 40 72 43 73 41 74 67 75 68 76 76 77
REMARK SMILES IDX 69 78 70 79 74 80 77 81 71 82 72 83 75 84 73 85 52 86 53 87
REMARK SMILES IDX 61 88 54 89 55 90 59 91 62 92 56 93 57 94 60 95 58 96
REMARK H PARENT 16 6 23 30 82 49 50 60
REMARK Flexibility Score: inf
ROOT
ATOM      1  C   UNL A   1      37.801  32.002  36.004  1.00  0.00     0.021 C 
ENDROOT
BRANCH   1   2
ATOM      2  C   UNL A   1      38.616  30.977  35.229  1.00  0.00     0.116 C 
BRANCH   2   3
ATOM      3  N   UNL A   1      37.787  30.080  34.458  1.00  0.00    -0.355 N 
ATOM      4  C   UNL A   1      38.079  29.356  33.346  1.00  0.00     0.239 C 
ATOM      5  O   UNL A   1      37.292  28.452  33.042  1.00  0.00    -0.273 OA
ATOM      6  H   UNL A   1      36.866  29.977  34.791  1.00  0.00     0.163 HD
BRANCH   4   7
ATOM      7  C   UNL A   1      39.407  29.505  32.584  1.00  0.00     0.221 C 
BRANCH   7   8
ATOM      8  N   UNL A   1      39.452  30.233  31.305  1.00  0.00    -0.311 N 
BRANCH   8   9
ATOM      9  C   UNL A   1      39.123  31.570  31.079  1.00  0.00     0.321 C 
ATOM     10  O   UNL A   1      39.974  32.434  31.322  1.00  0.00    -0.248 OA
BRANCH   9  11
ATOM     11  N   UNL A   1      37.915  32.007  30.550  1.00  0.00    -0.313 N 
BRANCH  11  12
ATOM     12  C   UNL A   1      37.974  32.797  29.279  1.00  0.00     0.081 C 
ATOM     13  C   UNL A   1      36.729  32.601  28.405  1.00  0.00     0.031 C 
ATOM     14  C   UNL A   1      38.325  34.276  29.469  1.00  0.00     0.031 C 
ENDBRANCH  11  12
BRANCH  11  15
ATOM     15  C   UNL A   1      36.543  31.971  31.119  1.00  0.00     0.237 C 
BRANCH  15  16
ATOM     16  C   UNL A   1      36.297  32.898  32.328  1.00  0.00     0.406 C 
ATOM     17  F   UNL A   1      37.419  33.514  32.752  1.00  0.00    -0.169 F 
ATOM     18  F   UNL A   1      35.410  33.867  32.006  1.00  0.00    -0.169 F 
ATOM     19  F   UNL A   1      35.787  32.226  33.386  1.00  0.00    -0.169 F 
ENDBRANCH  15  16
ENDBRANCH  11  15
ENDBRANCH   9  11
ENDBRANCH   8   9
BRANCH   8  20
ATOM     20  C   UNL A   1      39.763  29.373  30.071  1.00  0.00     0.037 C 
ATOM     21  C   UNL A   1      40.761  30.080  29.126  1.00  0.00     0.034 C 
ATOM     22  C   UNL A   1      40.316  27.983  30.478  1.00  0.00     0.034 C 
ATOM     23  C   UNL A   1      38.525  29.050  29.181  1.00  0.00     0.034 C 
ENDBRANCH   8  20
ENDBRANCH   7   8
ENDBRANCH   4   7
ENDBRANCH   2   3
ENDBRANCH   1   2
BRANCH   1  24
ATOM     24  C   UNL A   1      38.213  32.140  37.470  1.00  0.00     0.002 C 
BRANCH  24  25
ATOM     25  C   UNL A   1      37.434  33.200  38.251  1.00  0.00     0.002 C 
BRANCH  25  26
ATOM     26  C   UNL A   1      37.934  33.442  39.678  1.00  0.00     0.021 C 
BRANCH  26  27
ATOM     27  C   UNL A   1      39.332  34.043  39.769  1.00  0.00     0.116 C 
BRANCH  27  28
ATOM     28  N   UNL A   1      39.321  35.486  39.598  1.00  0.00    -0.352 N 
ATOM     29  C   UNL A   1      39.877  36.244  38.600  1.00  0.00     0.251 C 
ATOM     30  H   UNL A   1      38.847  35.991  40.297  1.00  0.00     0.163 HD
ATOM     31  O   UNL A   1      39.929  37.463  38.699  1.00  0.00    -0.269 OA
BRANCH  29  32
ATOM     32  C   UNL A   1      40.434  35.574  37.408  1.00  0.00     0.039 A 
ATOM     33  C   UNL A   1      41.778  35.194  37.418  1.00  0.00     0.014 A 
ATOM     34  C   UNL A   1      39.634  35.320  36.290  1.00  0.00     0.014 A 
ATOM     35  C   UNL A   1      42.306  34.508  36.325  1.00  0.00     0.010 A 
ATOM     36  C   UNL A   1      40.142  34.571  35.234  1.00  0.00     0.010 A 
ATOM     37  C   UNL A   1      41.485  34.163  35.238  1.00  0.00    -0.014 A 
BRANCH  37  38
ATOM     38  C   UNL A   1      42.016  33.377  34.099  1.00  0.00     0.031 A 
ATOM     39  C   UNL A   1      42.244  31.897  34.243  1.00  0.00     0.074 A 
ATOM     40  C   UNL A   1      42.339  34.005  32.951  1.00  0.00     0.049 A 
ATOM     41  N   UNL A   1      42.749  31.051  33.382  1.00  0.00    -0.248 NA
ATOM     42  C   UNL A   1      41.881  31.295  35.535  1.00  0.00     0.031 C 
ATOM     43  C   UNL A   1      42.199  35.441  32.705  1.00  0.00     0.029 A 
ATOM     44  N   UNL A   1      42.858  33.516  31.778  1.00  0.00    -0.354 N 
ATOM     45  C   UNL A   1      42.775  29.824  34.030  1.00  0.00     0.074 A 
ATOM     46  C   UNL A   1      42.286  30.044  35.374  1.00  0.00     0.031 C 
ATOM     47  C   UNL A   1      42.590  35.713  31.451  1.00  0.00     0.029 A 
ATOM     48  C   UNL A   1      43.050  34.479  30.818  1.00  0.00     0.049 A 
ATOM     49  H   UNL A   1      43.072  32.566  31.638  1.00  0.00     0.167 HD
ATOM     50  C   UNL A   1      43.152  28.618  33.540  1.00  0.00     0.037 A 
ATOM     51  C   UNL A   1      43.547  34.379  29.571  1.00  0.00     0.037 A 
ATOM     52  C   UNL A   1      43.615  28.402  32.195  1.00  0.00     0.049 A 
ATOM     53  C   UNL A   1      43.975  33.030  29.060  1.00  0.00     0.074 A 
ATOM     54  C   UNL A   1      43.964  27.210  31.586  1.00  0.00     0.029 A 
ATOM     55  N   UNL A   1      43.796  29.402  31.251  1.00  0.00    -0.354 N 
ATOM     56  N   UNL A   1      43.934  31.865  29.660  1.00  0.00    -0.248 NA
ATOM     57  C   UNL A   1      44.515  32.982  27.695  1.00  0.00     0.031 C 
ATOM     58  C   UNL A   1      44.409  27.495  30.291  1.00  0.00     0.029 A 
ATOM     59  C   UNL A   1      44.278  28.856  30.072  1.00  0.00     0.049 A 
ATOM     60  H   UNL A   1      43.610  30.357  31.397  1.00  0.00     0.167 HD
ATOM     61  C   UNL A   1      44.409  30.944  28.737  1.00  0.00     0.074 A 
ATOM     62  C   UNL A   1      44.720  31.683  27.531  1.00  0.00     0.031 C 
ATOM     63  C   UNL A   1      44.573  29.604  28.876  1.00  0.00     0.037 A 
BRANCH  50  64
ATOM     64  C   UNL A   1      43.078  27.435  34.462  1.00  0.00     0.064 A 
ATOM     65  C   UNL A   1      44.193  27.005  35.199  1.00  0.00     0.173 A 
ATOM     66  C   UNL A   1      41.866  26.757  34.653  1.00  0.00     0.173 A 
ATOM     67  F   UNL A   1      45.380  27.611  35.046  1.00  0.00    -0.203 F 
ATOM     68  C   UNL A   1      44.100  25.924  36.073  1.00  0.00     0.198 A 
ATOM     69  C   UNL A   1      41.769  25.697  35.551  1.00  0.00     0.198 A 
ATOM     70  F   UNL A   1      40.768  27.130  33.978  1.00  0.00    -0.203 F 
ATOM     71  F   UNL A   1      45.189  25.504  36.733  1.00  0.00    -0.200 F 
ATOM     72  C   UNL A   1      42.887  25.278  36.256  1.00  0.00     0.200 A 
ATOM     73  F   UNL A   1      40.592  25.084  35.738  1.00  0.00    -0.200 F 
ATOM     74  F   UNL A   1      42.797  24.248  37.108  1.00  0.00    -0.200 F 
ENDBRANCH  50  64
BRANCH  51  75
ATOM     75  C   UNL A   1      43.640  35.585  28.706  1.00  0.00     0.064 A 
ATOM     76  C   UNL A   1      44.848  36.286  28.581  1.00  0.00     0.173 A 
ATOM     77  C   UNL A   1      42.529  36.069  27.999  1.00  0.00     0.173 A 
ATOM     78  F   UNL A   1      45.933  35.875  29.253  1.00  0.00    -0.203 F 
ATOM     79  C   UNL A   1      44.935  37.438  27.801  1.00  0.00     0.198 A 
ATOM     80  C   UNL A   1      42.625  37.203  27.196  1.00  0.00     0.198 A 
ATOM     81  F   UNL A   1      41.352  35.433  28.081  1.00  0.00    -0.203 F 
ATOM     82  F   UNL A   1      46.089  38.117  27.741  1.00  0.00    -0.200 F 
ATOM     83  C   UNL A   1      43.825  37.892  27.106  1.00  0.00     0.200 A 
ATOM     84  F   UNL A   1      41.554  37.631  26.514  1.00  0.00    -0.200 F 
ATOM     85  F   UNL A   1      43.909  38.999  26.355  1.00  0.00    -0.200 F 
ENDBRANCH  51  75
BRANCH  63  86
ATOM     86  C   UNL A   1      45.070  28.842  27.681  1.00  0.00     0.064 A 
ATOM     87  C   UNL A   1      44.191  28.239  26.770  1.00  0.00     0.173 A 
ATOM     88  C   UNL A   1      46.447  28.751  27.423  1.00  0.00     0.173 A 
ATOM     89  F   UNL A   1      42.866  28.285  26.978  1.00  0.00    -0.203 F 
ATOM     90  C   UNL A   1      44.672  27.549  25.661  1.00  0.00     0.198 A 
ATOM     91  C   UNL A   1      46.924  28.090  26.295  1.00  0.00     0.198 A 
ATOM     92  F   UNL A   1      47.331  29.317  28.259  1.00  0.00    -0.203 F 
ATOM     93  F   UNL A   1      43.816  26.937  24.832  1.00  0.00    -0.200 F 
ATOM     94  C   UNL A   1      46.036  27.483  25.419  1.00  0.00     0.200 A 
ATOM     95  F   UNL A   1      48.241  28.041  26.056  1.00  0.00    -0.200 F 
ATOM     96  F   UNL A   1      46.497  26.826  24.345  1.00  0.00    -0.200 F 
ENDBRANCH  63  86
ENDBRANCH  37  38
ENDBRANCH  29  32
ENDBRANCH  27  28
ENDBRANCH  26  27
ENDBRANCH  25  26
ENDBRANCH  24  25
ENDBRANCH   1  24
TORSDOF 20
ENDMDL
MODEL 2
REMARK VINA RESULT:      -7.6      0.927      7.379
REMARK SMILES CC(C)N(CC(F)(F)F)C(=O)N(CC(=O)NCCCCCCNC(=O)c1ccc(-c2c3nc(c(-c4c(F)c(F)c(F)c(F)c4F)c4ccc([nH]4)c(-c4c(F)c(F)c(F)c(F)c4F)c4nc(c(-c5c(F)c(F)c(F)c(F)c5F)c5ccc2[nH]5)C=C4)C=C3)cc1)C(C)(C)C
REMARK SMILES IDX 18 1 17 2 16 3 14 4 15 5 13 7 12 8 10 9 11 10 4 11 2 12 1 13
REMARK SMILES IDX 3 14 5 15 6 16 7 17 8 18 9 19 89 20 90 21 91 22 92 23 19 24
REMARK SMILES IDX 20 25 21 26 22 27 23 28 24 29 25 31 26 32 27 33 88 34 28 35
REMARK SMILES IDX 87 36 29 37 30 38 31 39 81 40 32 41 86 42 80 43 82 44 33 45
REMARK SMILES IDX 85 46 79 47 78 48 34 50 66 51 46 52 65 53 47 54 50 55 64 56
REMARK SMILES IDX 83 57 48 58 49 59 63 61 84 62 51 63 35 64 36 65 44 66 37 67
REMARK SMILES IDX 38 68 42 69 45 70 39 71 40 72 43 73 41 74 67 75 68 76 76 77
REMARK SMILES IDX 69 78 70 79 74 80 77 81 71 82 72 83 75 84 73 85 52 86 53 87
REMARK SMILES IDX 61 88 54 89 55 90 59 91 62 92 56 93 57 94 60 95 58 96
REMARK H PARENT 16 6 23 30 82 49 50 60
REMARK Flexibility Score: inf
ROOT
ATOM      1  C   UNL A   1      37.751  31.816  35.861  1.00  0.00     0.021 C 
ENDROOT
BRANCH   1   2
ATOM      2  C   UNL A   1      38.617  30.920  34.988  1.00  0.00     0.116 C 
BRANCH   2   3
ATOM      3  N   UNL A   1      37.865  29.846  34.380  1.00  0.00    -0.355 N 
ATOM      4  C   UNL A   1      37.962  29.303  33.139  1.00  0.00     0.239 C 
ATOM      5  O   UNL A   1      37.405  28.214  32.958  1.00  0.00    -0.273 OA
ATOM      6  H   UNL A   1      37.175  29.445  34.957  1.00  0.00     0.163 HD
BRANCH   4   7
ATOM      7  C   UNL A   1      38.864  29.895  32.042  1.00  0.00     0.221 C 
BRANCH   7   8
ATOM      8  N   UNL A   1      38.339  30.110  30.684  1.00  0.00    -0.311 N 
BRANCH   8   9
ATOM      9  C   UNL A   1      37.180  30.797  30.322  1.00  0.00     0.321 C 
ATOM     10  O   UNL A   1      36.254  30.158  29.810  1.00  0.00    -0.248 OA
BRANCH   9  11
ATOM     11  N   UNL A   1      36.965  32.152  30.541  1.00  0.00    -0.313 N 
BRANCH  11  12
ATOM     12  C   UNL A   1      35.694  32.538  31.233  1.00  0.00     0.081 C 
ATOM     13  C   UNL A   1      35.831  32.543  32.760  1.00  0.00     0.031 C 
ATOM     14  C   UNL A   1      35.048  33.822  30.701  1.00  0.00     0.031 C 
ENDBRANCH  11  12
BRANCH  11  15
ATOM     15  C   UNL A   1      37.715  33.339  30.054  1.00  0.00     0.237 C 
BRANCH  15  16
ATOM     16  C   UNL A   1      38.727  33.943  31.049  1.00  0.00     0.406 C 
ATOM     17  F   UNL A   1      39.315  33.014  31.828  1.00  0.00    -0.169 F 
ATOM     18  F   UNL A   1      39.716  34.585  30.384  1.00  0.00    -0.169 F 
ATOM     19  F   UNL A   1      38.150  34.848  31.873  1.00  0.00    -0.169 F 
ENDBRANCH  15  16
ENDBRANCH  11  15
ENDBRANCH   9  11
ENDBRANCH   8   9
BRANCH   8  20
ATOM     20  C   UNL A   1      39.087  29.367  29.566  1.00  0.00     0.037 C 
ATOM     21  C   UNL A   1      40.591  29.722  29.561  1.00  0.00     0.034 C 
ATOM     22  C   UNL A   1      38.907  27.832  29.693  1.00  0.00     0.034 C 
ATOM     23  C   UNL A   1      38.590  29.695  28.127  1.00  0.00     0.034 C 
ENDBRANCH   8  20
ENDBRANCH   7   8
ENDBRANCH   4   7
ENDBRANCH   2   3
ENDBRANCH   1   2
BRANCH   1  24
ATOM     24  C   UNL A   1      38.360  32.121  37.230  1.00  0.00     0.002 C 
BRANCH  24  25
ATOM     25  C   UNL A   1      37.762  33.342  37.933  1.00  0.00     0.002 C 
BRANCH  25  26
ATOM     26  C   UNL A   1      38.159  33.494  39.403  1.00  0.00     0.021 C 
BRANCH  26  27
ATOM     27  C   UNL A   1      39.530  34.120  39.631  1.00  0.00     0.116 C 
BRANCH  27  28
ATOM     28  N   UNL A   1      39.520  35.557  39.416  1.00  0.00    -0.352 N 
ATOM     29  C   UNL A   1      40.074  36.284  38.394  1.00  0.00     0.251 C 
ATOM     30  H   UNL A   1      39.048  36.083  40.101  1.00  0.00     0.163 HD
ATOM     31  O   UNL A   1      40.127  37.506  38.456  1.00  0.00    -0.269 OA
BRANCH  29  32
ATOM     32  C   UNL A   1      40.628  35.578  37.222  1.00  0.00     0.039 A 
ATOM     33  C   UNL A   1      41.965  35.175  37.251  1.00  0.00     0.014 A 
ATOM     34  C   UNL A   1      39.832  35.313  36.104  1.00  0.00     0.014 A 
ATOM     35  C   UNL A   1      42.490  34.456  36.178  1.00  0.00     0.010 A 
ATOM     36  C   UNL A   1      40.335  34.532  35.068  1.00  0.00     0.010 A 
ATOM     37  C   UNL A   1      41.670  34.101  35.092  1.00  0.00    -0.014 A 
BRANCH  37  38
ATOM     38  C   UNL A   1      42.196  33.280  33.975  1.00  0.00     0.031 A 
ATOM     39  C   UNL A   1      42.524  33.923  32.655  1.00  0.00     0.074 A 
ATOM     40  C   UNL A   1      42.329  31.949  34.133  1.00  0.00     0.049 A 
ATOM     41  N   UNL A   1      42.942  33.368  31.546  1.00  0.00    -0.248 NA
ATOM     42  C   UNL A   1      42.332  35.379  32.563  1.00  0.00     0.031 C 
ATOM     43  C   UNL A   1      42.008  31.207  35.352  1.00  0.00     0.029 A 
ATOM     44  N   UNL A   1      42.766  30.983  33.261  1.00  0.00    -0.354 N 
ATOM     45  C   UNL A   1      43.051  34.401  30.625  1.00  0.00     0.074 A 
ATOM     46  C   UNL A   1      42.604  35.607  31.286  1.00  0.00     0.031 C 
ATOM     47  C   UNL A   1      42.286  29.908  35.163  1.00  0.00     0.029 A 
ATOM     48  C   UNL A   1      42.766  29.718  33.797  1.00  0.00     0.049 A 
ATOM     49  H   UNL A   1      43.052  31.178  32.340  1.00  0.00     0.167 HD
ATOM     50  C   UNL A   1      43.503  34.350  29.349  1.00  0.00     0.037 A 
ATOM     51  C   UNL A   1      43.107  28.538  33.245  1.00  0.00     0.037 A 
ATOM     52  C   UNL A   1      43.968  33.150  28.705  1.00  0.00     0.049 A 
ATOM     53  C   UNL A   1      43.589  28.509  31.819  1.00  0.00     0.074 A 
ATOM     54  C   UNL A   1      44.501  33.005  27.436  1.00  0.00     0.029 A 
ATOM     55  N   UNL A   1      43.953  31.888  29.279  1.00  0.00    -0.354 N 
ATOM     56  N   UNL A   1      43.750  29.503  30.979  1.00  0.00    -0.248 NA
ATOM     57  C   UNL A   1      43.942  27.194  31.268  1.00  0.00     0.031 C 
ATOM     58  C   UNL A   1      44.757  31.647  27.222  1.00  0.00     0.029 A 
ATOM     59  C   UNL A   1      44.443  30.953  28.379  1.00  0.00     0.049 A 
ATOM     60  H   UNL A   1      43.641  31.685  30.190  1.00  0.00     0.167 HD
ATOM     61  C   UNL A   1      44.253  28.938  29.814  1.00  0.00     0.074 A 
ATOM     62  C   UNL A   1      44.384  27.518  30.062  1.00  0.00     0.031 C 
ATOM     63  C   UNL A   1      44.577  29.543  28.644  1.00  0.00     0.037 A 
BRANCH  50  64
ATOM     64  C   UNL A   1      43.521  35.628  28.562  1.00  0.00     0.064 A 
ATOM     65  C   UNL A   1      44.699  36.372  28.392  1.00  0.00     0.173 A 
ATOM     66  C   UNL A   1      42.359  36.088  27.926  1.00  0.00     0.173 A 
ATOM     67  F   UNL A   1      45.836  35.984  28.988  1.00  0.00    -0.203 F 
ATOM     68  C   UNL A   1      44.706  37.541  27.633  1.00  0.00     0.198 A 
ATOM     69  C   UNL A   1      42.376  37.238  27.142  1.00  0.00     0.198 A 
ATOM     70  F   UNL A   1      41.207  35.413  28.051  1.00  0.00    -0.203 F 
ATOM     71  F   UNL A   1      45.833  38.258  27.521  1.00  0.00    -0.200 F 
ATOM     72  C   UNL A   1      43.548  37.968  27.002  1.00  0.00     0.200 A 
ATOM     73  F   UNL A   1      41.259  37.641  26.519  1.00  0.00    -0.200 F 
ATOM     74  F   UNL A   1      43.560  39.083  26.261  1.00  0.00    -0.200 F 
ENDBRANCH  50  64
BRANCH  51  75
ATOM     75  C   UNL A   1      43.035  27.290  34.049  1.00  0.00     0.064 A 
ATOM     76  C   UNL A   1      41.797  26.716  34.373  1.00  0.00     0.173 A 
ATOM     77  C   UNL A   1      44.192  26.652  34.520  1.00  0.00     0.173 A 
ATOM     78  F   UNL A   1      40.661  27.300  33.963  1.00  0.00    -0.203 F 
ATOM     79  C   UNL A   1      41.719  25.567  35.156  1.00  0.00     0.198 A 
ATOM     80  C   UNL A   1      44.113  25.486  35.278  1.00  0.00     0.198 A 
ATOM     81  F   UNL A   1      45.401  27.157  34.235  1.00  0.00    -0.203 F 
ATOM     82  F   UNL A   1      40.521  25.070  35.494  1.00  0.00    -0.200 F 
ATOM     83  C   UNL A   1      42.876  24.950  35.604  1.00  0.00     0.200 A 
ATOM     84  F   UNL A   1      45.236  24.884  35.696  1.00  0.00    -0.200 F 
ATOM     85  F   UNL A   1      42.801  23.843  36.356  1.00  0.00    -0.200 F 
ENDBRANCH  51  75
BRANCH  63  86
ATOM     86  C   UNL A   1      45.148  28.681  27.556  1.00  0.00     0.064 A 
ATOM     87  C   UNL A   1      46.530  28.514  27.393  1.00  0.00     0.173 A 
ATOM     88  C   UNL A   1      44.296  27.978  26.690  1.00  0.00     0.173 A 
ATOM     89  F   UNL A   1      47.389  29.175  28.185  1.00  0.00    -0.203 F 
ATOM     90  C   UNL A   1      47.039  27.698  26.386  1.00  0.00     0.198 A 
ATOM     91  C   UNL A   1      44.806  27.136  25.707  1.00  0.00     0.198 A 
ATOM     92  F   UNL A   1      42.964  28.096  26.808  1.00  0.00    -0.203 F 
ATOM     93  F   UNL A   1      48.364  27.594  26.216  1.00  0.00    -0.200 F 
ATOM     94  C   UNL A   1      46.178  27.003  25.550  1.00  0.00     0.200 A 
ATOM     95  F   UNL A   1      43.972  26.453  24.911  1.00  0.00    -0.200 F 
ATOM     96  F   UNL A   1      46.670  26.210  24.588  1.00  0.00    -0.200 F 
ENDBRANCH  63  86
ENDBRANCH  37  38
ENDBRANCH  29  32
ENDBRANCH  27  28
ENDBRANCH  26  27
ENDBRANCH  25  26
ENDBRANCH  24  25
ENDBRANCH   1  24
TORSDOF 20
ENDMDL
MODEL 3
REMARK VINA RESULT:      -7.5      6.080     11.478
REMARK SMILES CC(C)N(CC(F)(F)F)C(=O)N(CC(=O)NCCCCCCNC(=O)c1ccc(-c2c3nc(c(-c4c(F)c(F)c(F)c(F)c4F)c4ccc([nH]4)c(-c4c(F)c(F)c(F)c(F)c4F)c4nc(c(-c5c(F)c(F)c(F)c(F)c5F)c5ccc2[nH]5)C=C4)C=C3)cc1)C(C)(C)C
REMARK SMILES IDX 18 1 17 2 16 3 14 4 15 5 13 7 12 8 10 9 11 10 4 11 2 12 1 13
REMARK SMILES IDX 3 14 5 15 6 16 7 17 8 18 9 19 89 20 90 21 91 22 92 23 19 24
REMARK SMILES IDX 20 25 21 26 22 27 23 28 24 29 25 31 26 32 27 33 88 34 28 35
REMARK SMILES IDX 87 36 29 37 30 38 31 39 81 40 32 41 86 42 80 43 82 44 33 45
REMARK SMILES IDX 85 46 79 47 78 48 34 50 66 51 46 52 65 53 47 54 50 55 64 56
REMARK SMILES IDX 83 57 48 58 49 59 63 61 84 62 51 63 35 64 36 65 44 66 37 67
REMARK SMILES IDX 38 68 42 69 45 70 39 71 40 72 43 73 41 74 67 75 68 76 76 77
REMARK SMILES IDX 69 78 70 79 74 80 77 81 71 82 72 83 75 84 73 85 52 86 53 87
REMARK SMILES IDX 61 88 54 89 55 90 59 91 62 92 56 93 57 94 60 95 58 96
REMARK H PARENT 16 6 23 30 82 49 50 60
REMARK Flexibility Score: inf
ROOT
ATOM      1  C   UNL A   1      39.276  23.126  26.511  1.00  0.00     0.021 C 
ENDROOT
BRANCH   1   2
ATOM      2  C   UNL A   1      37.981  23.744  26.006  1.00  0.00     0.116 C 
BRANCH   2   3
ATOM      3  N   UNL A   1      36.812  23.159  26.623  1.00  0.00    -0.355 N 
ATOM      4  C   UNL A   1      35.580  22.912  26.106  1.00  0.00     0.239 C 
ATOM      5  O   UNL A   1      34.846  22.149  26.745  1.00  0.00    -0.273 OA
ATOM      6  H   UNL A   1      36.928  22.897  27.565  1.00  0.00     0.163 HD
BRANCH   4   7
ATOM      7  C   UNL A   1      35.154  23.395  24.709  1.00  0.00     0.221 C 
BRANCH   7   8
ATOM      8  N   UNL A   1      33.774  23.843  24.466  1.00  0.00    -0.311 N 
BRANCH   8   9
ATOM      9  C   UNL A   1      33.110  24.910  25.072  1.00  0.00     0.321 C 
ATOM     10  O   UNL A   1      32.704  24.768  26.231  1.00  0.00    -0.248 OA
BRANCH   9  11
ATOM     11  N   UNL A   1      32.912  26.153  24.482  1.00  0.00    -0.313 N 
BRANCH  11  12
ATOM     12  C   UNL A   1      33.931  27.213  24.768  1.00  0.00     0.081 C 
ATOM     13  C   UNL A   1      33.956  28.309  23.696  1.00  0.00     0.031 C 
ATOM     14  C   UNL A   1      33.867  27.786  26.187  1.00  0.00     0.031 C 
ENDBRANCH  11  12
BRANCH  11  15
ATOM     15  C   UNL A   1      31.750  26.688  23.727  1.00  0.00     0.237 C 
BRANCH  15  16
ATOM     16  C   UNL A   1      30.563  27.174  24.584  1.00  0.00     0.406 C 
ATOM     17  F   UNL A   1      29.440  26.457  24.380  1.00  0.00    -0.169 F 
ATOM     18  F   UNL A   1      30.860  27.076  25.901  1.00  0.00    -0.169 F 
ATOM     19  F   UNL A   1      30.259  28.470  24.340  1.00  0.00    -0.169 F 
ENDBRANCH  15  16
ENDBRANCH  11  15
ENDBRANCH   9  11
ENDBRANCH   8   9
BRANCH   8  20
ATOM     20  C   UNL A   1      32.942  22.936  23.546  1.00  0.00     0.037 C 
ATOM     21  C   UNL A   1      33.268  23.191  22.057  1.00  0.00     0.034 C 
ATOM     22  C   UNL A   1      33.160  21.439  23.885  1.00  0.00     0.034 C 
ATOM     23  C   UNL A   1      31.402  23.137  23.662  1.00  0.00     0.034 C 
ENDBRANCH   8  20
ENDBRANCH   7   8
ENDBRANCH   4   7
ENDBRANCH   2   3
ENDBRANCH   1   2
BRANCH   1  24
ATOM     24  C   UNL A   1      39.434  21.647  26.156  1.00  0.00     0.002 C 
BRANCH  24  25
ATOM     25  C   UNL A   1      40.660  20.973  26.775  1.00  0.00     0.002 C 
BRANCH  25  26
ATOM     26  C   UNL A   1      41.220  19.796  25.972  1.00  0.00     0.021 C 
BRANCH  26  27
ATOM     27  C   UNL A   1      42.666  19.437  26.293  1.00  0.00     0.116 C 
BRANCH  27  28
ATOM     28  N   UNL A   1      43.414  19.056  25.107  1.00  0.00    -0.352 N 
ATOM     29  C   UNL A   1      44.242  19.818  24.323  1.00  0.00     0.251 C 
ATOM     30  H   UNL A   1      43.311  18.119  24.826  1.00  0.00     0.163 HD
ATOM     31  O   UNL A   1      44.655  19.389  23.254  1.00  0.00    -0.269 OA
BRANCH  29  32
ATOM     32  C   UNL A   1      44.615  21.175  24.771  1.00  0.00     0.039 A 
ATOM     33  C   UNL A   1      44.183  22.271  24.023  1.00  0.00     0.014 A 
ATOM     34  C   UNL A   1      45.383  21.361  25.924  1.00  0.00     0.014 A 
ATOM     35  C   UNL A   1      44.476  23.562  24.462  1.00  0.00     0.010 A 
ATOM     36  C   UNL A   1      45.612  22.648  26.400  1.00  0.00     0.010 A 
ATOM     37  C   UNL A   1      45.165  23.761  25.671  1.00  0.00    -0.014 A 
BRANCH  37  38
ATOM     38  C   UNL A   1      45.427  25.127  26.185  1.00  0.00     0.031 A 
ATOM     39  C   UNL A   1      44.312  25.932  26.793  1.00  0.00     0.074 A 
ATOM     40  C   UNL A   1      46.658  25.660  26.058  1.00  0.00     0.049 A 
ATOM     41  N   UNL A   1      44.331  27.159  27.249  1.00  0.00    -0.248 NA
ATOM     42  C   UNL A   1      42.995  25.281  26.877  1.00  0.00     0.031 C 
ATOM     43  C   UNL A   1      47.810  24.991  25.452  1.00  0.00     0.029 A 
ATOM     44  N   UNL A   1      47.144  26.889  26.427  1.00  0.00    -0.354 N 
ATOM     45  C   UNL A   1      43.033  27.429  27.660  1.00  0.00     0.074 A 
ATOM     46  C   UNL A   1      42.239  26.260  27.351  1.00  0.00     0.031 C 
ATOM     47  C   UNL A   1      48.876  25.804  25.518  1.00  0.00     0.029 A 
ATOM     48  C   UNL A   1      48.474  27.066  26.132  1.00  0.00     0.049 A 
ATOM     49  H   UNL A   1      46.593  27.578  26.862  1.00  0.00     0.167 HD
ATOM     50  C   UNL A   1      42.553  28.544  28.260  1.00  0.00     0.037 A 
ATOM     51  C   UNL A   1      49.276  28.130  26.329  1.00  0.00     0.037 A 
ATOM     52  C   UNL A   1      43.353  29.695  28.586  1.00  0.00     0.049 A 
ATOM     53  C   UNL A   1      48.710  29.363  26.981  1.00  0.00     0.074 A 
ATOM     54  C   UNL A   1      42.973  30.849  29.246  1.00  0.00     0.029 A 
ATOM     55  N   UNL A   1      44.696  29.838  28.271  1.00  0.00    -0.354 N 
ATOM     56  N   UNL A   1      47.495  29.582  27.425  1.00  0.00    -0.248 NA
ATOM     57  C   UNL A   1      49.628  30.494  27.164  1.00  0.00     0.031 C 
ATOM     58  C   UNL A   1      44.071  31.714  29.283  1.00  0.00     0.029 A 
ATOM     59  C   UNL A   1      45.153  31.074  28.701  1.00  0.00     0.049 A 
ATOM     60  H   UNL A   1      45.244  29.162  27.810  1.00  0.00     0.167 HD
ATOM     61  C   UNL A   1      47.514  30.859  27.969  1.00  0.00     0.074 A 
ATOM     62  C   UNL A   1      48.863  31.360  27.812  1.00  0.00     0.031 C 
ATOM     63  C   UNL A   1      46.503  31.555  28.547  1.00  0.00     0.037 A 
BRANCH  50  64
ATOM     64  C   UNL A   1      41.092  28.576  28.609  1.00  0.00     0.064 A 
ATOM     65  C   UNL A   1      40.630  28.207  29.881  1.00  0.00     0.173 A 
ATOM     66  C   UNL A   1      40.149  29.033  27.677  1.00  0.00     0.173 A 
ATOM     67  F   UNL A   1      41.488  27.752  30.807  1.00  0.00    -0.203 F 
ATOM     68  C   UNL A   1      39.275  28.272  30.198  1.00  0.00     0.198 A 
ATOM     69  C   UNL A   1      38.800  29.126  28.007  1.00  0.00     0.198 A 
ATOM     70  F   UNL A   1      40.537  29.403  26.447  1.00  0.00    -0.203 F 
ATOM     71  F   UNL A   1      38.852  27.872  31.406  1.00  0.00    -0.200 F 
ATOM     72  C   UNL A   1      38.363  28.740  29.265  1.00  0.00     0.200 A 
ATOM     73  F   UNL A   1      37.922  29.594  27.109  1.00  0.00    -0.200 F 
ATOM     74  F   UNL A   1      37.062  28.815  29.577  1.00  0.00    -0.200 F 
ENDBRANCH  50  64
BRANCH  51  75
ATOM     75  C   UNL A   1      50.706  28.069  25.930  1.00  0.00     0.064 A 
ATOM     76  C   UNL A   1      51.086  28.237  24.590  1.00  0.00     0.173 A 
ATOM     77  C   UNL A   1      51.721  27.831  26.870  1.00  0.00     0.173 A 
ATOM     78  F   UNL A   1      50.152  28.447  23.652  1.00  0.00    -0.203 F 
ATOM     79  C   UNL A   1      52.421  28.145  24.203  1.00  0.00     0.198 A 
ATOM     80  C   UNL A   1      53.058  27.770  26.486  1.00  0.00     0.198 A 
ATOM     81  F   UNL A   1      51.412  27.667  28.164  1.00  0.00    -0.203 F 
ATOM     82  F   UNL A   1      52.750  28.259  22.909  1.00  0.00    -0.200 F 
ATOM     83  C   UNL A   1      53.407  27.917  25.151  1.00  0.00     0.200 A 
ATOM     84  F   UNL A   1      54.009  27.564  27.407  1.00  0.00    -0.200 F 
ATOM     85  F   UNL A   1      54.691  27.830  24.779  1.00  0.00    -0.200 F 
ENDBRANCH  51  75
BRANCH  63  86
ATOM     86  C   UNL A   1      46.825  32.915  29.094  1.00  0.00     0.064 A 
ATOM     87  C   UNL A   1      46.678  34.076  28.322  1.00  0.00     0.173 A 
ATOM     88  C   UNL A   1      47.249  33.061  30.424  1.00  0.00     0.173 A 
ATOM     89  F   UNL A   1      46.290  33.991  27.040  1.00  0.00    -0.203 F 
ATOM     90  C   UNL A   1      46.969  35.330  28.852  1.00  0.00     0.198 A 
ATOM     91  C   UNL A   1      47.506  34.319  30.962  1.00  0.00     0.198 A 
ATOM     92  F   UNL A   1      47.399  31.983  31.208  1.00  0.00    -0.203 F 
ATOM     93  F   UNL A   1      46.870  36.421  28.081  1.00  0.00    -0.200 F 
ATOM     94  C   UNL A   1      47.373  35.452  30.173  1.00  0.00     0.200 A 
ATOM     95  F   UNL A   1      47.881  34.434  32.243  1.00  0.00    -0.200 F 
ATOM     96  F   UNL A   1      47.644  36.661  30.685  1.00  0.00    -0.200 F 
ENDBRANCH  63  86
ENDBRANCH  37  38
ENDBRANCH  29  32
ENDBRANCH  27  28
ENDBRANCH  26  27
ENDBRANCH  25  26
ENDBRANCH  24  25
ENDBRANCH   1  24
TORSDOF 20
ENDMDL
