MODEL 1
REMARK VINA RESULT:     -14.0      0.000      0.000
REMARK SMILES Cc1ccccc1-c1nn(-c2ccccc2)cc1/C=C(\C#N)C(=O)NCCCCCCNC(=O)c1ccc(-c2c3nc(c(-c4c(F)c(F)c(F)c(F)c4F)c4ccc([nH]4)c(-c4c(F)c(F)c(F)c(F)c4F)c4nc(c(-c5c(F)c(F)c(F)c(F)c5F)c5ccc2[nH]5)C=C4)C=C3)cc1
REMARK SMILES IDX 28 1 27 2 26 3 25 4 23 5 24 6 20 8 19 9 18 10 8 11 9 12
REMARK SMILES IDX 10 13 17 14 7 15 1 16 2 17 3 18 4 19 6 20 5 21 11 22 12 23
REMARK SMILES IDX 16 24 13 25 15 26 14 27 21 28 22 29 29 30 30 31 31 32 32 33
REMARK SMILES IDX 33 34 34 36 35 37 36 38 97 39 37 40 96 41 38 42 39 43 40 44
REMARK SMILES IDX 90 45 41 46 95 47 89 48 91 49 42 50 94 51 88 52 87 53 43 55
REMARK SMILES IDX 75 56 55 57 74 58 56 59 59 60 73 61 92 62 57 63 58 64 72 66
REMARK SMILES IDX 93 67 60 68 44 69 45 70 53 71 46 72 47 73 51 74 54 75 48 76
REMARK SMILES IDX 49 77 52 78 50 79 76 80 77 81 85 82 78 83 79 84 83 85 86 86
REMARK SMILES IDX 80 87 81 88 84 89 82 90 61 91 62 92 70 93 63 94 64 95 68 96
REMARK SMILES IDX 71 97 65 98 66 99 69 100 67 101
REMARK H PARENT 25 7 32 35 91 54 59 65
REMARK Flexibility Score: inf
ROOT
ATOM      1  C   UNL A   1      31.802  28.344  26.725  1.00  0.00     0.002 C 
ENDROOT
BRANCH   1   2
ATOM      2  C   UNL A   1      32.585  27.111  26.251  1.00  0.00     0.021 C 
BRANCH   2   3
ATOM      3  C   UNL A   1      32.712  26.999  24.731  1.00  0.00     0.116 C 
BRANCH   3   4
ATOM      4  N   UNL A   1      31.517  26.435  24.132  1.00  0.00    -0.351 N 
ATOM      5  C   UNL A   1      31.006  25.176  24.114  1.00  0.00     0.261 C 
ATOM      6  O   UNL A   1      29.917  25.013  23.559  1.00  0.00    -0.268 OA
ATOM      7  H   UNL A   1      30.970  27.092  23.642  1.00  0.00     0.163 HD
BRANCH   5   8
ATOM      8  C   UNL A   1      31.682  24.026  24.748  1.00  0.00     0.117 C 
ATOM      9  C   UNL A   1      32.476  23.157  24.053  1.00  0.00     0.037 C 
BRANCH   9  10
ATOM     10  C   UNL A   1      33.181  21.916  24.459  1.00  0.00     0.022 A 
ATOM     11  C   UNL A   1      34.448  21.521  25.076  1.00  0.00     0.100 A 
ATOM     12  N   UNL A   1      34.398  20.242  25.458  1.00  0.00    -0.167 NA
ATOM     13  N   UNL A   1      33.372  19.703  24.804  1.00  0.00    -0.240 N 
ATOM     14  C   UNL A   1      32.574  20.678  24.244  1.00  0.00     0.123 A 
BRANCH  11  15
ATOM     15  C   UNL A   1      35.744  22.133  25.393  1.00  0.00     0.006 A 
ATOM     16  C   UNL A   1      37.012  19.968  24.810  1.00  0.00     0.045 C 
ATOM     17  C   UNL A   1      36.953  21.382  25.324  1.00  0.00    -0.042 A 
ATOM     18  C   UNL A   1      38.177  22.025  25.600  1.00  0.00     0.004 A 
ATOM     19  C   UNL A   1      38.210  23.366  25.984  1.00  0.00     0.000 A 
ATOM     20  C   UNL A   1      35.791  23.460  25.857  1.00  0.00     0.011 A 
ATOM     21  C   UNL A   1      37.019  24.075  26.132  1.00  0.00     0.001 A 
ENDBRANCH  11  15
BRANCH  13  22
ATOM     22  C   UNL A   1      33.292  18.288  24.746  1.00  0.00     0.065 A 
ATOM     23  C   UNL A   1      32.530  17.615  25.722  1.00  0.00     0.028 A 
ATOM     24  C   UNL A   1      34.018  17.555  23.807  1.00  0.00     0.028 A 
ATOM     25  C   UNL A   1      32.481  16.224  25.750  1.00  0.00     0.002 A 
ATOM     26  C   UNL A   1      33.991  16.155  23.865  1.00  0.00     0.002 A 
ATOM     27  C   UNL A   1      33.220  15.495  24.826  1.00  0.00     0.000 A 
ENDBRANCH  13  22
ENDBRANCH   9  10
BRANCH   8  28
ATOM     28  C   UNL A   1      31.611  23.621  26.212  1.00  0.00     0.105 C 
ATOM     29  N   UNL A   1      31.552  23.286  27.425  1.00  0.00    -0.192 NA
ENDBRANCH   8  28
ENDBRANCH   5   8
ENDBRANCH   3   4
ENDBRANCH   2   3
ENDBRANCH   1   2
BRANCH   1  30
ATOM     30  C   UNL A   1      32.247  29.699  26.143  1.00  0.00     0.002 C 
BRANCH  30  31
ATOM     31  C   UNL A   1      32.872  30.681  27.138  1.00  0.00     0.021 C 
BRANCH  31  32
ATOM     32  C   UNL A   1      34.223  30.226  27.670  1.00  0.00     0.116 C 
BRANCH  32  33
ATOM     33  N   UNL A   1      34.778  31.113  28.684  1.00  0.00    -0.352 N 
ATOM     34  C   UNL A   1      35.907  30.968  29.472  1.00  0.00     0.251 C 
ATOM     35  H   UNL A   1      34.271  31.944  28.832  1.00  0.00     0.163 HD
ATOM     36  O   UNL A   1      36.167  31.792  30.328  1.00  0.00    -0.269 OA
BRANCH  34  37
ATOM     37  C   UNL A   1      36.868  29.878  29.170  1.00  0.00     0.039 A 
ATOM     38  C   UNL A   1      37.144  28.954  30.186  1.00  0.00     0.014 A 
ATOM     39  C   UNL A   1      37.625  29.883  28.003  1.00  0.00     0.014 A 
ATOM     40  C   UNL A   1      38.324  28.216  30.136  1.00  0.00     0.010 A 
ATOM     41  C   UNL A   1      38.842  29.232  27.997  1.00  0.00     0.010 A 
ATOM     42  C   UNL A   1      39.220  28.452  29.095  1.00  0.00    -0.014 A 
BRANCH  42  43
ATOM     43  C   UNL A   1      40.613  28.027  29.120  1.00  0.00     0.031 A 
ATOM     44  C   UNL A   1      41.018  26.727  28.551  1.00  0.00     0.074 A 
ATOM     45  C   UNL A   1      41.556  28.888  29.565  1.00  0.00     0.049 A 
ATOM     46  N   UNL A   1      42.103  26.108  28.874  1.00  0.00    -0.248 NA
ATOM     47  C   UNL A   1      40.208  26.009  27.572  1.00  0.00     0.031 C 
ATOM     48  C   UNL A   1      43.004  28.774  29.414  1.00  0.00     0.029 A 
ATOM     49  N   UNL A   1      41.383  29.978  30.436  1.00  0.00    -0.354 N 
ATOM     50  C   UNL A   1      42.265  25.072  27.988  1.00  0.00     0.074 A 
ATOM     51  C   UNL A   1      41.036  25.018  27.228  1.00  0.00     0.031 C 
ATOM     52  C   UNL A   1      43.596  29.510  30.367  1.00  0.00     0.029 A 
ATOM     53  C   UNL A   1      42.547  30.002  31.243  1.00  0.00     0.049 A 
ATOM     54  H   UNL A   1      40.616  30.593  30.477  1.00  0.00     0.167 HD
ATOM     55  C   UNL A   1      43.465  24.434  27.900  1.00  0.00     0.037 A 
ATOM     56  C   UNL A   1      42.466  29.763  32.585  1.00  0.00     0.037 A 
ATOM     57  C   UNL A   1      44.435  24.941  28.860  1.00  0.00     0.049 A 
ATOM     58  C   UNL A   1      43.206  28.529  33.055  1.00  0.00     0.074 A 
ATOM     59  C   UNL A   1      45.456  25.875  28.793  1.00  0.00     0.029 A 
ATOM     60  N   UNL A   1      44.211  24.715  30.206  1.00  0.00    -0.354 N 
ATOM     61  N   UNL A   1      43.798  27.680  32.262  1.00  0.00    -0.248 NA
ATOM     62  C   UNL A   1      43.246  28.103  34.456  1.00  0.00     0.031 C 
ATOM     63  C   UNL A   1      45.807  26.245  30.122  1.00  0.00     0.029 A 
ATOM     64  C   UNL A   1      45.008  25.526  30.992  1.00  0.00     0.049 A 
ATOM     65  H   UNL A   1      43.568  24.059  30.559  1.00  0.00     0.167 HD
ATOM     66  C   UNL A   1      44.233  26.610  32.993  1.00  0.00     0.074 A 
ATOM     67  C   UNL A   1      43.872  26.919  34.363  1.00  0.00     0.031 C 
ATOM     68  C   UNL A   1      44.826  25.521  32.430  1.00  0.00     0.037 A 
BRANCH  55  69
ATOM     69  C   UNL A   1      43.786  23.515  26.760  1.00  0.00     0.064 A 
ATOM     70  C   UNL A   1      43.282  22.201  26.721  1.00  0.00     0.173 A 
ATOM     71  C   UNL A   1      44.639  23.873  25.699  1.00  0.00     0.173 A 
ATOM     72  F   UNL A   1      42.418  21.758  27.642  1.00  0.00    -0.203 F 
ATOM     73  C   UNL A   1      43.676  21.285  25.744  1.00  0.00     0.198 A 
ATOM     74  C   UNL A   1      45.076  22.941  24.755  1.00  0.00     0.198 A 
ATOM     75  F   UNL A   1      45.064  25.138  25.558  1.00  0.00    -0.203 F 
ATOM     76  F   UNL A   1      43.173  20.043  25.756  1.00  0.00    -0.200 F 
ATOM     77  C   UNL A   1      44.600  21.644  24.782  1.00  0.00     0.200 A 
ATOM     78  F   UNL A   1      45.974  23.304  23.828  1.00  0.00    -0.200 F 
ATOM     79  F   UNL A   1      45.023  20.748  23.881  1.00  0.00    -0.200 F 
ENDBRANCH  55  69
BRANCH  56  80
ATOM     80  C   UNL A   1      41.202  30.273  33.178  1.00  0.00     0.064 A 
ATOM     81  C   UNL A   1      41.041  31.666  33.313  1.00  0.00     0.173 A 
ATOM     82  C   UNL A   1      40.052  29.478  33.240  1.00  0.00     0.173 A 
ATOM     83  F   UNL A   1      42.114  32.472  33.260  1.00  0.00    -0.203 F 
ATOM     84  C   UNL A   1      39.777  32.245  33.374  1.00  0.00     0.198 A 
ATOM     85  C   UNL A   1      38.787  30.062  33.322  1.00  0.00     0.198 A 
ATOM     86  F   UNL A   1      40.138  28.148  33.103  1.00  0.00    -0.203 F 
ATOM     87  F   UNL A   1      39.653  33.580  33.378  1.00  0.00    -0.200 F 
ATOM     88  C   UNL A   1      38.649  31.442  33.350  1.00  0.00     0.200 A 
ATOM     89  F   UNL A   1      37.695  29.285  33.279  1.00  0.00    -0.200 F 
ATOM     90  F   UNL A   1      37.431  31.998  33.315  1.00  0.00    -0.200 F 
ENDBRANCH  56  80
BRANCH  68  91
ATOM     91  C   UNL A   1      45.316  24.364  33.234  1.00  0.00     0.064 A 
ATOM     92  C   UNL A   1      44.503  23.251  33.486  1.00  0.00     0.173 A 
ATOM     93  C   UNL A   1      46.562  24.406  33.885  1.00  0.00     0.173 A 
ATOM     94  F   UNL A   1      43.289  23.151  32.924  1.00  0.00    -0.203 F 
ATOM     95  C   UNL A   1      44.921  22.227  34.336  1.00  0.00     0.198 A 
ATOM     96  C   UNL A   1      46.959  23.404  34.766  1.00  0.00     0.198 A 
ATOM     97  F   UNL A   1      47.423  25.413  33.668  1.00  0.00    -0.203 F 
ATOM     98  F   UNL A   1      44.134  21.160  34.529  1.00  0.00    -0.200 F 
ATOM     99  C   UNL A   1      46.141  22.312  34.988  1.00  0.00     0.200 A 
ATOM    100  F   UNL A   1      48.134  23.505  35.402  1.00  0.00    -0.200 F 
ATOM    101  F   UNL A   1      46.528  21.340  35.824  1.00  0.00    -0.200 F 
ENDBRANCH  68  91
ENDBRANCH  42  43
ENDBRANCH  34  37
ENDBRANCH  32  33
ENDBRANCH  31  32
ENDBRANCH  30  31
ENDBRANCH   1  30
TORSDOF 17
ENDMDL
MODEL 2
REMARK VINA RESULT:     -13.5      3.716     10.467
REMARK SMILES Cc1ccccc1-c1nn(-c2ccccc2)cc1/C=C(\C#N)C(=O)NCCCCCCNC(=O)c1ccc(-c2c3nc(c(-c4c(F)c(F)c(F)c(F)c4F)c4ccc([nH]4)c(-c4c(F)c(F)c(F)c(F)c4F)c4nc(c(-c5c(F)c(F)c(F)c(F)c5F)c5ccc2[nH]5)C=C4)C=C3)cc1
REMARK SMILES IDX 28 1 27 2 26 3 25 4 23 5 24 6 20 8 19 9 18 10 8 11 9 12
REMARK SMILES IDX 10 13 17 14 7 15 1 16 2 17 3 18 4 19 6 20 5 21 11 22 12 23
REMARK SMILES IDX 16 24 13 25 15 26 14 27 21 28 22 29 29 30 30 31 31 32 32 33
REMARK SMILES IDX 33 34 34 36 35 37 36 38 97 39 37 40 96 41 38 42 39 43 40 44
REMARK SMILES IDX 90 45 41 46 95 47 89 48 91 49 42 50 94 51 88 52 87 53 43 55
REMARK SMILES IDX 75 56 55 57 74 58 56 59 59 60 73 61 92 62 57 63 58 64 72 66
REMARK SMILES IDX 93 67 60 68 44 69 45 70 53 71 46 72 47 73 51 74 54 75 48 76
REMARK SMILES IDX 49 77 52 78 50 79 76 80 77 81 85 82 78 83 79 84 83 85 86 86
REMARK SMILES IDX 80 87 81 88 84 89 82 90 61 91 62 92 70 93 63 94 64 95 68 96
REMARK SMILES IDX 71 97 65 98 66 99 69 100 67 101
REMARK H PARENT 25 7 32 35 91 54 59 65
REMARK Flexibility Score: inf
ROOT
ATOM      1  C   UNL A   1      36.433  23.092  24.560  1.00  0.00     0.002 C 
ENDROOT
BRANCH   1   2
ATOM      2  C   UNL A   1      35.062  23.481  23.987  1.00  0.00     0.021 C 
BRANCH   2   3
ATOM      3  C   UNL A   1      33.947  23.553  25.032  1.00  0.00     0.116 C 
BRANCH   3   4
ATOM      4  N   UNL A   1      32.662  23.175  24.472  1.00  0.00    -0.351 N 
ATOM      5  C   UNL A   1      31.702  23.882  23.818  1.00  0.00     0.261 C 
ATOM      6  O   UNL A   1      30.723  23.257  23.402  1.00  0.00    -0.268 OA
ATOM      7  H   UNL A   1      32.443  22.222  24.589  1.00  0.00     0.163 HD
BRANCH   5   8
ATOM      8  C   UNL A   1      31.803  25.334  23.570  1.00  0.00     0.117 C 
ATOM      9  C   UNL A   1      31.029  26.253  24.221  1.00  0.00     0.037 C 
BRANCH   9  10
ATOM     10  C   UNL A   1      30.909  27.726  24.082  1.00  0.00     0.022 A 
ATOM     11  C   UNL A   1      31.571  28.936  24.571  1.00  0.00     0.100 A 
ATOM     12  N   UNL A   1      31.186  29.995  23.856  1.00  0.00    -0.167 NA
ATOM     13  N   UNL A   1      30.073  29.628  23.223  1.00  0.00    -0.240 N 
ATOM     14  C   UNL A   1      29.903  28.260  23.276  1.00  0.00     0.123 A 
BRANCH  11  15
ATOM     15  C   UNL A   1      32.534  29.305  25.615  1.00  0.00     0.006 A 
ATOM     16  C   UNL A   1      31.192  31.415  26.235  1.00  0.00     0.045 C 
ATOM     17  C   UNL A   1      32.387  30.508  26.364  1.00  0.00    -0.042 A 
ATOM     18  C   UNL A   1      33.317  30.801  27.383  1.00  0.00     0.004 A 
ATOM     19  C   UNL A   1      34.396  29.952  27.631  1.00  0.00     0.000 A 
ATOM     20  C   UNL A   1      33.671  28.504  25.827  1.00  0.00     0.011 A 
ATOM     21  C   UNL A   1      34.585  28.819  26.841  1.00  0.00     0.001 A 
ENDBRANCH  11  15
BRANCH  13  22
ATOM     22  C   UNL A   1      29.258  30.647  22.669  1.00  0.00     0.065 A 
ATOM     23  C   UNL A   1      28.867  30.539  21.320  1.00  0.00     0.028 A 
ATOM     24  C   UNL A   1      28.914  31.784  23.401  1.00  0.00     0.028 A 
ATOM     25  C   UNL A   1      28.128  31.549  20.711  1.00  0.00     0.002 A 
ATOM     26  C   UNL A   1      28.200  32.812  22.771  1.00  0.00     0.002 A 
ATOM     27  C   UNL A   1      27.803  32.691  21.436  1.00  0.00     0.000 A 
ENDBRANCH  13  22
ENDBRANCH   9  10
BRANCH   8  28
ATOM     28  C   UNL A   1      32.733  26.028  22.588  1.00  0.00     0.105 C 
ATOM     29  N   UNL A   1      33.504  26.603  21.773  1.00  0.00    -0.192 NA
ENDBRANCH   8  28
ENDBRANCH   5   8
ENDBRANCH   3   4
ENDBRANCH   2   3
ENDBRANCH   1   2
BRANCH   1  30
ATOM     30  C   UNL A   1      36.794  21.596  24.506  1.00  0.00     0.002 C 
BRANCH  30  31
ATOM     31  C   UNL A   1      38.151  21.214  25.103  1.00  0.00     0.021 C 
BRANCH  31  32
ATOM     32  C   UNL A   1      38.691  22.241  26.087  1.00  0.00     0.116 C 
BRANCH  32  33
ATOM     33  N   UNL A   1      40.146  22.309  26.120  1.00  0.00    -0.352 N 
ATOM     34  C   UNL A   1      40.981  23.391  26.336  1.00  0.00     0.251 C 
ATOM     35  H   UNL A   1      40.605  21.452  25.963  1.00  0.00     0.163 HD
ATOM     36  O   UNL A   1      42.188  23.261  26.247  1.00  0.00    -0.269 OA
BRANCH  34  37
ATOM     37  C   UNL A   1      40.403  24.671  26.814  1.00  0.00     0.039 A 
ATOM     38  C   UNL A   1      40.805  25.847  26.169  1.00  0.00     0.014 A 
ATOM     39  C   UNL A   1      39.654  24.736  27.984  1.00  0.00     0.014 A 
ATOM     40  C   UNL A   1      40.673  27.068  26.827  1.00  0.00     0.010 A 
ATOM     41  C   UNL A   1      39.613  25.925  28.683  1.00  0.00     0.010 A 
ATOM     42  C   UNL A   1      40.183  27.077  28.132  1.00  0.00    -0.014 A 
BRANCH  42  43
ATOM     43  C   UNL A   1      40.332  28.207  29.039  1.00  0.00     0.031 A 
ATOM     44  C   UNL A   1      39.322  29.282  29.080  1.00  0.00     0.074 A 
ATOM     45  C   UNL A   1      41.347  28.204  29.933  1.00  0.00     0.049 A 
ATOM     46  N   UNL A   1      39.555  30.469  29.528  1.00  0.00    -0.248 NA
ATOM     47  C   UNL A   1      37.958  29.100  28.595  1.00  0.00     0.031 C 
ATOM     48  C   UNL A   1      41.509  29.075  31.094  1.00  0.00     0.029 A 
ATOM     49  N   UNL A   1      42.565  27.507  29.849  1.00  0.00    -0.354 N 
ATOM     50  C   UNL A   1      38.348  31.114  29.633  1.00  0.00     0.074 A 
ATOM     51  C   UNL A   1      37.388  30.242  28.993  1.00  0.00     0.031 C 
ATOM     52  C   UNL A   1      42.808  29.111  31.426  1.00  0.00     0.029 A 
ATOM     53  C   UNL A   1      43.534  28.378  30.405  1.00  0.00     0.049 A 
ATOM     54  H   UNL A   1      42.712  26.606  29.482  1.00  0.00     0.167 HD
ATOM     55  C   UNL A   1      38.252  32.266  30.352  1.00  0.00     0.037 A 
ATOM     56  C   UNL A   1      44.531  28.892  29.626  1.00  0.00     0.037 A 
ATOM     57  C   UNL A   1      39.537  32.697  30.885  1.00  0.00     0.049 A 
ATOM     58  C   UNL A   1      44.510  30.399  29.481  1.00  0.00     0.074 A 
ATOM     59  C   UNL A   1      40.173  32.539  32.105  1.00  0.00     0.029 A 
ATOM     60  N   UNL A   1      40.510  33.121  29.997  1.00  0.00    -0.354 N 
ATOM     61  N   UNL A   1      43.574  31.170  29.958  1.00  0.00    -0.248 NA
ATOM     62  C   UNL A   1      45.496  31.142  28.693  1.00  0.00     0.031 C 
ATOM     63  C   UNL A   1      41.556  32.825  31.924  1.00  0.00     0.029 A 
ATOM     64  C   UNL A   1      41.753  33.168  30.600  1.00  0.00     0.049 A 
ATOM     65  H   UNL A   1      40.339  33.358  29.058  1.00  0.00     0.167 HD
ATOM     66  C   UNL A   1      43.778  32.449  29.521  1.00  0.00     0.074 A 
ATOM     67  C   UNL A   1      44.996  32.388  28.737  1.00  0.00     0.031 C 
ATOM     68  C   UNL A   1      42.920  33.470  29.795  1.00  0.00     0.037 A 
BRANCH  55  69
ATOM     69  C   UNL A   1      36.924  32.840  30.747  1.00  0.00     0.064 A 
ATOM     70  C   UNL A   1      36.141  33.562  29.826  1.00  0.00     0.173 A 
ATOM     71  C   UNL A   1      36.403  32.748  32.051  1.00  0.00     0.173 A 
ATOM     72  F   UNL A   1      36.502  33.674  28.542  1.00  0.00    -0.203 F 
ATOM     73  C   UNL A   1      34.970  34.220  30.205  1.00  0.00     0.198 A 
ATOM     74  C   UNL A   1      35.262  33.453  32.442  1.00  0.00     0.198 A 
ATOM     75  F   UNL A   1      36.991  31.969  32.971  1.00  0.00    -0.203 F 
ATOM     76  F   UNL A   1      34.265  34.901  29.291  1.00  0.00    -0.200 F 
ATOM     77  C   UNL A   1      34.550  34.195  31.520  1.00  0.00     0.200 A 
ATOM     78  F   UNL A   1      34.866  33.420  33.723  1.00  0.00    -0.200 F 
ATOM     79  F   UNL A   1      33.459  34.877  31.895  1.00  0.00    -0.200 F 
ENDBRANCH  55  69
BRANCH  56  80
ATOM     80  C   UNL A   1      44.976  27.943  28.571  1.00  0.00     0.064 A 
ATOM     81  C   UNL A   1      45.760  26.837  28.955  1.00  0.00     0.173 A 
ATOM     82  C   UNL A   1      44.343  27.889  27.325  1.00  0.00     0.173 A 
ATOM     83  F   UNL A   1      46.387  26.841  30.143  1.00  0.00    -0.203 F 
ATOM     84  C   UNL A   1      45.801  25.679  28.185  1.00  0.00     0.198 A 
ATOM     85  C   UNL A   1      44.404  26.733  26.546  1.00  0.00     0.198 A 
ATOM     86  F   UNL A   1      43.571  28.903  26.910  1.00  0.00    -0.203 F 
ATOM     87  F   UNL A   1      46.457  24.600  28.635  1.00  0.00    -0.200 F 
ATOM     88  C   UNL A   1      45.099  25.619  26.993  1.00  0.00     0.200 A 
ATOM     89  F   UNL A   1      43.708  26.667  25.401  1.00  0.00    -0.200 F 
ATOM     90  F   UNL A   1      45.060  24.475  26.295  1.00  0.00    -0.200 F 
ENDBRANCH  56  80
BRANCH  68  91
ATOM     91  C   UNL A   1      43.158  34.868  29.332  1.00  0.00     0.064 A 
ATOM     92  C   UNL A   1      43.452  35.900  30.234  1.00  0.00     0.173 A 
ATOM     93  C   UNL A   1      42.961  35.232  27.988  1.00  0.00     0.173 A 
ATOM     94  F   UNL A   1      43.628  35.636  31.537  1.00  0.00    -0.203 F 
ATOM     95  C   UNL A   1      43.556  37.224  29.810  1.00  0.00     0.198 A 
ATOM     96  C   UNL A   1      43.022  36.560  27.574  1.00  0.00     0.198 A 
ATOM     97  F   UNL A   1      42.718  34.305  27.048  1.00  0.00    -0.203 F 
ATOM     98  F   UNL A   1      43.872  38.182  30.692  1.00  0.00    -0.200 F 
ATOM     99  C   UNL A   1      43.325  37.556  28.485  1.00  0.00     0.200 A 
ATOM    100  F   UNL A   1      42.782  36.870  26.293  1.00  0.00    -0.200 F 
ATOM    101  F   UNL A   1      43.398  38.832  28.085  1.00  0.00    -0.200 F 
ENDBRANCH  68  91
ENDBRANCH  42  43
ENDBRANCH  34  37
ENDBRANCH  32  33
ENDBRANCH  31  32
ENDBRANCH  30  31
ENDBRANCH   1  30
TORSDOF 17
ENDMDL
MODEL 3
REMARK VINA RESULT:     -13.4      4.062     10.689
REMARK SMILES Cc1ccccc1-c1nn(-c2ccccc2)cc1/C=C(\C#N)C(=O)NCCCCCCNC(=O)c1ccc(-c2c3nc(c(-c4c(F)c(F)c(F)c(F)c4F)c4ccc([nH]4)c(-c4c(F)c(F)c(F)c(F)c4F)c4nc(c(-c5c(F)c(F)c(F)c(F)c5F)c5ccc2[nH]5)C=C4)C=C3)cc1
REMARK SMILES IDX 28 1 27 2 26 3 25 4 23 5 24 6 20 8 19 9 18 10 8 11 9 12
REMARK SMILES IDX 10 13 17 14 7 15 1 16 2 17 3 18 4 19 6 20 5 21 11 22 12 23
REMARK SMILES IDX 16 24 13 25 15 26 14 27 21 28 22 29 29 30 30 31 31 32 32 33
REMARK SMILES IDX 33 34 34 36 35 37 36 38 97 39 37 40 96 41 38 42 39 43 40 44
REMARK SMILES IDX 90 45 41 46 95 47 89 48 91 49 42 50 94 51 88 52 87 53 43 55
REMARK SMILES IDX 75 56 55 57 74 58 56 59 59 60 73 61 92 62 57 63 58 64 72 66
REMARK SMILES IDX 93 67 60 68 44 69 45 70 53 71 46 72 47 73 51 74 54 75 48 76
REMARK SMILES IDX 49 77 52 78 50 79 76 80 77 81 85 82 78 83 79 84 83 85 86 86
REMARK SMILES IDX 80 87 81 88 84 89 82 90 61 91 62 92 70 93 63 94 64 95 68 96
REMARK SMILES IDX 71 97 65 98 66 99 69 100 67 101
REMARK H PARENT 25 7 32 35 91 54 59 65
REMARK Flexibility Score: inf
ROOT
ATOM      1  C   UNL A   1      36.643  23.451  24.120  1.00  0.00     0.002 C 
ENDROOT
BRANCH   1   2
ATOM      2  C   UNL A   1      35.178  23.449  23.657  1.00  0.00     0.021 C 
BRANCH   2   3
ATOM      3  C   UNL A   1      34.301  22.415  24.365  1.00  0.00     0.116 C 
BRANCH   3   4
ATOM      4  N   UNL A   1      33.034  22.229  23.683  1.00  0.00    -0.351 N 
ATOM      5  C   UNL A   1      31.901  22.979  23.631  1.00  0.00     0.261 C 
ATOM      6  O   UNL A   1      30.989  22.579  22.903  1.00  0.00    -0.268 OA
ATOM      7  H   UNL A   1      32.984  21.399  23.157  1.00  0.00     0.163 HD
BRANCH   5   8
ATOM      8  C   UNL A   1      31.739  24.243  24.379  1.00  0.00     0.117 C 
ATOM      9  C   UNL A   1      32.021  25.465  23.838  1.00  0.00     0.037 C 
BRANCH   9  10
ATOM     10  C   UNL A   1      32.003  26.833  24.415  1.00  0.00     0.022 A 
ATOM     11  C   UNL A   1      31.165  28.031  24.382  1.00  0.00     0.100 A 
ATOM     12  N   UNL A   1      31.523  28.874  25.354  1.00  0.00    -0.167 NA
ATOM     13  N   UNL A   1      32.736  28.490  25.746  1.00  0.00    -0.240 N 
ATOM     14  C   UNL A   1      33.039  27.236  25.258  1.00  0.00     0.123 A 
BRANCH  11  15
ATOM     15  C   UNL A   1      30.048  28.559  23.589  1.00  0.00     0.006 A 
ATOM     16  C   UNL A   1      28.560  26.540  24.171  1.00  0.00     0.045 C 
ATOM     17  C   UNL A   1      28.836  27.827  23.440  1.00  0.00    -0.042 A 
ATOM     18  C   UNL A   1      27.777  28.394  22.701  1.00  0.00     0.004 A 
ATOM     19  C   UNL A   1      27.924  29.634  22.079  1.00  0.00     0.000 A 
ATOM     20  C   UNL A   1      30.204  29.770  22.890  1.00  0.00     0.011 A 
ATOM     21  C   UNL A   1      29.141  30.310  22.156  1.00  0.00     0.001 A 
ENDBRANCH  11  15
BRANCH  13  22
ATOM     22  C   UNL A   1      33.504  29.401  26.516  1.00  0.00     0.065 A 
ATOM     23  C   UNL A   1      34.765  28.987  26.988  1.00  0.00     0.028 A 
ATOM     24  C   UNL A   1      33.001  30.648  26.885  1.00  0.00     0.028 A 
ATOM     25  C   UNL A   1      35.524  29.818  27.808  1.00  0.00     0.002 A 
ATOM     26  C   UNL A   1      33.755  31.463  27.739  1.00  0.00     0.002 A 
ATOM     27  C   UNL A   1      35.013  31.053  28.191  1.00  0.00     0.000 A 
ENDBRANCH  13  22
ENDBRANCH   9  10
BRANCH   8  28
ATOM     28  C   UNL A   1      31.262  24.396  25.814  1.00  0.00     0.105 C 
ATOM     29  N   UNL A   1      30.867  24.523  27.004  1.00  0.00    -0.192 NA
ENDBRANCH   8  28
ENDBRANCH   5   8
ENDBRANCH   3   4
ENDBRANCH   2   3
ENDBRANCH   1   2
BRANCH   1  30
ATOM     30  C   UNL A   1      37.227  22.089  24.537  1.00  0.00     0.002 C 
BRANCH  30  31
ATOM     31  C   UNL A   1      37.970  22.062  25.877  1.00  0.00     0.021 C 
BRANCH  31  32
ATOM     32  C   UNL A   1      38.583  23.402  26.256  1.00  0.00     0.116 C 
BRANCH  32  33
ATOM     33  N   UNL A   1      40.039  23.411  26.209  1.00  0.00    -0.352 N 
ATOM     34  C   UNL A   1      40.934  24.417  26.529  1.00  0.00     0.251 C 
ATOM     35  H   UNL A   1      40.450  22.570  25.902  1.00  0.00     0.163 HD
ATOM     36  O   UNL A   1      42.127  24.258  26.348  1.00  0.00    -0.269 OA
BRANCH  34  37
ATOM     37  C   UNL A   1      40.441  25.633  27.222  1.00  0.00     0.039 A 
ATOM     38  C   UNL A   1      40.509  26.849  26.530  1.00  0.00     0.014 A 
ATOM     39  C   UNL A   1      40.118  25.616  28.575  1.00  0.00     0.014 A 
ATOM     40  C   UNL A   1      40.501  28.044  27.245  1.00  0.00     0.010 A 
ATOM     41  C   UNL A   1      40.211  26.788  29.297  1.00  0.00     0.010 A 
ATOM     42  C   UNL A   1      40.470  27.993  28.637  1.00  0.00    -0.014 A 
BRANCH  42  43
ATOM     43  C   UNL A   1      40.815  29.122  29.492  1.00  0.00     0.031 A 
ATOM     44  C   UNL A   1      39.794  30.111  29.888  1.00  0.00     0.074 A 
ATOM     45  C   UNL A   1      42.058  29.192  30.019  1.00  0.00     0.049 A 
ATOM     46  N   UNL A   1      40.069  31.308  30.282  1.00  0.00    -0.248 NA
ATOM     47  C   UNL A   1      38.364  29.824  29.851  1.00  0.00     0.031 C 
ATOM     48  C   UNL A   1      42.516  30.061  31.100  1.00  0.00     0.029 A 
ATOM     49  N   UNL A   1      43.234  28.598  29.529  1.00  0.00    -0.354 N 
ATOM     50  C   UNL A   1      38.913  31.851  30.785  1.00  0.00     0.074 A 
ATOM     51  C   UNL A   1      37.867  30.911  30.451  1.00  0.00     0.031 C 
ATOM     52  C   UNL A   1      43.847  30.199  31.006  1.00  0.00     0.029 A 
ATOM     53  C   UNL A   1      44.263  29.538  29.782  1.00  0.00     0.049 A 
ATOM     54  H   UNL A   1      43.324  27.715  29.102  1.00  0.00     0.167 HD
ATOM     55  C   UNL A   1      38.966  32.984  31.539  1.00  0.00     0.037 A 
ATOM     56  C   UNL A   1      44.921  30.140  28.748  1.00  0.00     0.037 A 
ATOM     57  C   UNL A   1      40.318  33.512  31.655  1.00  0.00     0.049 A 
ATOM     58  C   UNL A   1      44.743  31.642  28.671  1.00  0.00     0.074 A 
ATOM     59  C   UNL A   1      41.319  33.393  32.605  1.00  0.00     0.029 A 
ATOM     60  N   UNL A   1      40.925  34.023  30.522  1.00  0.00    -0.354 N 
ATOM     61  N   UNL A   1      43.953  32.329  29.447  1.00  0.00    -0.248 NA
ATOM     62  C   UNL A   1      45.371  32.471  27.640  1.00  0.00     0.031 C 
ATOM     63  C   UNL A   1      42.548  33.793  32.008  1.00  0.00     0.029 A 
ATOM     64  C   UNL A   1      42.288  34.165  30.702  1.00  0.00     0.049 A 
ATOM     65  H   UNL A   1      40.448  34.257  29.693  1.00  0.00     0.167 HD
ATOM     66  C   UNL A   1      43.914  33.625  29.015  1.00  0.00     0.074 A 
ATOM     67  C   UNL A   1      44.821  33.672  27.885  1.00  0.00     0.031 C 
ATOM     68  C   UNL A   1      43.114  34.570  29.582  1.00  0.00     0.037 A 
BRANCH  55  69
ATOM     69  C   UNL A   1      37.794  33.444  32.354  1.00  0.00     0.064 A 
ATOM     70  C   UNL A   1      36.709  34.111  31.754  1.00  0.00     0.173 A 
ATOM     71  C   UNL A   1      37.720  33.293  33.751  1.00  0.00     0.173 A 
ATOM     72  F   UNL A   1      36.636  34.269  30.426  1.00  0.00    -0.203 F 
ATOM     73  C   UNL A   1      35.674  34.668  32.507  1.00  0.00     0.198 A 
ATOM     74  C   UNL A   1      36.714  33.898  34.508  1.00  0.00     0.198 A 
ATOM     75  F   UNL A   1      38.625  32.552  34.410  1.00  0.00    -0.203 F 
ATOM     76  F   UNL A   1      34.668  35.302  31.887  1.00  0.00    -0.200 F 
ATOM     77  C   UNL A   1      35.695  34.593  33.886  1.00  0.00     0.200 A 
ATOM     78  F   UNL A   1      36.748  33.817  35.846  1.00  0.00    -0.200 F 
ATOM     79  F   UNL A   1      34.733  35.178  34.611  1.00  0.00    -0.200 F 
ENDBRANCH  55  69
BRANCH  56  80
ATOM     80  C   UNL A   1      45.076  29.242  27.573  1.00  0.00     0.064 A 
ATOM     81  C   UNL A   1      46.065  28.240  27.624  1.00  0.00     0.173 A 
ATOM     82  C   UNL A   1      44.061  29.104  26.621  1.00  0.00     0.173 A 
ATOM     83  F   UNL A   1      47.061  28.327  28.522  1.00  0.00    -0.203 F 
ATOM     84  C   UNL A   1      45.967  27.089  26.849  1.00  0.00     0.198 A 
ATOM     85  C   UNL A   1      43.978  27.957  25.830  1.00  0.00     0.198 A 
ATOM     86  F   UNL A   1      43.084  30.017  26.533  1.00  0.00    -0.203 F 
ATOM     87  F   UNL A   1      46.856  26.098  27.008  1.00  0.00    -0.200 F 
ATOM     88  C   UNL A   1      44.907  26.936  25.972  1.00  0.00     0.200 A 
ATOM     89  F   UNL A   1      42.940  27.801  24.995  1.00  0.00    -0.200 F 
ATOM     90  F   UNL A   1      44.758  25.791  25.292  1.00  0.00    -0.200 F 
ENDBRANCH  56  80
BRANCH  68  91
ATOM     91  C   UNL A   1      43.089  35.987  29.118  1.00  0.00     0.064 A 
ATOM     92  C   UNL A   1      43.661  37.018  29.877  1.00  0.00     0.173 A 
ATOM     93  C   UNL A   1      42.370  36.364  27.969  1.00  0.00     0.173 A 
ATOM     94  F   UNL A   1      44.339  36.741  31.001  1.00  0.00    -0.203 F 
ATOM     95  C   UNL A   1      43.531  38.353  29.499  1.00  0.00     0.198 A 
ATOM     96  C   UNL A   1      42.205  37.701  27.617  1.00  0.00     0.198 A 
ATOM     97  F   UNL A   1      41.827  35.441  27.160  1.00  0.00    -0.203 F 
ATOM     98  F   UNL A   1      44.119  39.312  30.228  1.00  0.00    -0.200 F 
ATOM     99  C   UNL A   1      42.790  38.696  28.379  1.00  0.00     0.200 A 
ATOM    100  F   UNL A   1      41.474  38.020  26.540  1.00  0.00    -0.200 F 
ATOM    101  F   UNL A   1      42.644  39.981  28.032  1.00  0.00    -0.200 F 
ENDBRANCH  68  91
ENDBRANCH  42  43
ENDBRANCH  34  37
ENDBRANCH  32  33
ENDBRANCH  31  32
ENDBRANCH  30  31
ENDBRANCH   1  30
TORSDOF 17
ENDMDL
