MODEL 1
REMARK VINA RESULT:     -12.1      0.000      0.000
REMARK SMILES CCC1(C(=O)N[C@H]2C=C[C@H](C(=O)NCCCCCCNC(=O)c3ccc(-c4c5nc(c(-c6c(F)c(F)c(F)c(F)c6F)c6ccc([nH]6)c(-c6c(F)c(F)c(F)c(F)c6F)c6nc(c(-c7c(F)c(F)c(F)c(F)c7F)c7ccc4[nH]7)C=C6)C=C5)cc3)C2)CC[NH2+]CC1
REMARK SMILES IDX 16 1 15 2 14 3 13 4 11 5 12 6 10 8 7 9 8 10 86 11 9 12 6 13
REMARK SMILES IDX 4 14 5 15 3 17 87 18 91 19 88 20 90 21 89 22 2 25 1 26 17 27
REMARK SMILES IDX 18 28 19 29 20 30 21 31 22 33 23 34 24 35 85 36 25 37 84 38
REMARK SMILES IDX 26 39 27 40 28 41 78 42 29 43 83 44 77 45 79 46 30 47 82 48
REMARK SMILES IDX 76 49 75 50 31 52 63 53 43 54 62 55 44 56 47 57 61 58 80 59
REMARK SMILES IDX 45 60 46 61 60 63 81 64 48 65 32 66 33 67 41 68 34 69 35 70
REMARK SMILES IDX 39 71 42 72 36 73 37 74 40 75 38 76 64 77 65 78 73 79 66 80
REMARK SMILES IDX 67 81 71 82 74 83 68 84 69 85 72 86 70 87 49 88 50 89 58 90
REMARK SMILES IDX 51 91 52 92 56 93 59 94 53 95 54 96 57 97 55 98
REMARK H PARENT 13 7 6 16 89 23 89 24 20 32 79 51 47 62
REMARK Flexibility Score: inf
ROOT
ATOM      1  C   UNL A   1      32.410  30.077  27.201  1.00  0.00     0.002 C 
ENDROOT
BRANCH   1   2
ATOM      2  C   UNL A   1      33.816  29.839  26.653  1.00  0.00     0.021 C 
BRANCH   2   3
ATOM      3  C   UNL A   1      33.978  28.533  25.885  1.00  0.00     0.116 C 
BRANCH   3   4
ATOM      4  N   UNL A   1      33.502  28.631  24.522  1.00  0.00    -0.356 N 
ATOM      5  C   UNL A   1      32.374  28.182  23.911  1.00  0.00     0.227 C 
ATOM      6  O   UNL A   1      32.289  28.397  22.695  1.00  0.00    -0.274 OA
ATOM      7  H   UNL A   1      34.114  29.115  23.921  1.00  0.00     0.163 HD
BRANCH   5   8
ATOM      8  C   UNL A   1      31.188  27.523  24.643  1.00  0.00     0.103 C 
ATOM      9  C   UNL A   1      31.122  25.077  24.625  1.00  0.00     0.106 C 
ATOM     10  C   UNL A   1      29.975  25.675  23.856  1.00  0.00    -0.006 C 
ATOM     11  C   UNL A   1      31.604  26.282  25.443  1.00  0.00     0.047 C 
ATOM     12  C   UNL A   1      30.040  27.015  23.830  1.00  0.00    -0.016 C 
BRANCH   9  13
ATOM     13  N   UNL A   1      30.625  23.948  25.375  1.00  0.00    -0.349 N 
ATOM     14  C   UNL A   1      30.976  22.629  25.423  1.00  0.00     0.227 C 
ATOM     15  O   UNL A   1      30.198  21.926  26.073  1.00  0.00    -0.274 OA
ATOM     16  H   UNL A   1      29.878  24.175  25.975  1.00  0.00     0.164 HD
BRANCH  14  17
ATOM     17  C   UNL A   1      32.247  22.035  24.737  1.00  0.00     0.060 C 
ATOM     18  C   UNL A   1      33.533  22.773  25.214  1.00  0.00     0.078 C 
ATOM     19  C   UNL A   1      32.281  20.519  25.069  1.00  0.00     0.078 C 
ATOM     20  C   UNL A   1      34.813  21.938  25.095  1.00  0.00     0.261 C 
ATOM     21  C   UNL A   1      33.642  19.861  24.930  1.00  0.00     0.261 C 
ATOM     22  N   UNL A   1      34.646  20.611  25.681  1.00  0.00    -0.346 N 
ATOM     23  H   UNL A   1      34.344  20.704  26.650  1.00  0.00     0.346 HD
ATOM     24  H   UNL A   1      35.536  20.113  25.644  1.00  0.00     0.346 HD
BRANCH  17  25
ATOM     25  C   UNL A   1      32.210  22.119  23.163  1.00  0.00     0.014 C 
ATOM     26  C   UNL A   1      33.124  23.117  22.461  1.00  0.00     0.005 C 
ENDBRANCH  17  25
ENDBRANCH  14  17
ENDBRANCH   9  13
ENDBRANCH   5   8
ENDBRANCH   3   4
ENDBRANCH   2   3
ENDBRANCH   1   2
BRANCH   1  27
ATOM     27  C   UNL A   1      31.486  30.898  26.293  1.00  0.00     0.002 C 
BRANCH  27  28
ATOM     28  C   UNL A   1      31.371  32.387  26.635  1.00  0.00     0.021 C 
BRANCH  28  29
ATOM     29  C   UNL A   1      32.641  33.025  27.193  1.00  0.00     0.116 C 
BRANCH  29  30
ATOM     30  N   UNL A   1      32.412  34.379  27.671  1.00  0.00    -0.352 N 
ATOM     31  C   UNL A   1      32.990  35.053  28.712  1.00  0.00     0.251 C 
ATOM     32  H   UNL A   1      31.737  34.890  27.167  1.00  0.00     0.163 HD
ATOM     33  O   UNL A   1      32.524  36.135  29.076  1.00  0.00    -0.269 OA
BRANCH  31  34
ATOM     34  C   UNL A   1      34.155  34.487  29.420  1.00  0.00     0.039 A 
ATOM     35  C   UNL A   1      33.946  33.826  30.633  1.00  0.00     0.014 A 
ATOM     36  C   UNL A   1      35.452  34.626  28.915  1.00  0.00     0.014 A 
ATOM     37  C   UNL A   1      35.025  33.257  31.310  1.00  0.00     0.010 A 
ATOM     38  C   UNL A   1      36.519  33.996  29.554  1.00  0.00     0.010 A 
ATOM     39  C   UNL A   1      36.317  33.306  30.758  1.00  0.00    -0.014 A 
BRANCH  39  40
ATOM     40  C   UNL A   1      37.452  32.620  31.425  1.00  0.00     0.031 A 
ATOM     41  C   UNL A   1      38.143  31.461  30.762  1.00  0.00     0.074 A 
ATOM     42  C   UNL A   1      37.829  33.016  32.656  1.00  0.00     0.049 A 
ATOM     43  N   UNL A   1      39.138  30.731  31.201  1.00  0.00    -0.248 NA
ATOM     44  C   UNL A   1      37.637  31.052  29.444  1.00  0.00     0.031 C 
ATOM     45  C   UNL A   1      37.200  34.092  33.424  1.00  0.00     0.029 A 
ATOM     46  N   UNL A   1      38.828  32.559  33.480  1.00  0.00    -0.354 N 
ATOM     47  C   UNL A   1      39.369  29.777  30.219  1.00  0.00     0.074 A 
ATOM     48  C   UNL A   1      38.377  29.983  29.187  1.00  0.00     0.031 C 
ATOM     49  C   UNL A   1      37.844  34.230  34.593  1.00  0.00     0.029 A 
ATOM     50  C   UNL A   1      38.904  33.230  34.675  1.00  0.00     0.049 A 
ATOM     51  H   UNL A   1      39.431  31.820  33.236  1.00  0.00     0.167 HD
ATOM     52  C   UNL A   1      40.337  28.828  30.174  1.00  0.00     0.037 A 
ATOM     53  C   UNL A   1      39.733  33.057  35.722  1.00  0.00     0.037 A 
ATOM     54  C   UNL A   1      41.331  28.637  31.197  1.00  0.00     0.049 A 
ATOM     55  C   UNL A   1      40.793  31.992  35.648  1.00  0.00     0.074 A 
ATOM     56  C   UNL A   1      42.393  27.748  31.214  1.00  0.00     0.029 A 
ATOM     57  N   UNL A   1      41.383  29.340  32.393  1.00  0.00    -0.354 N 
ATOM     58  N   UNL A   1      41.055  31.151  34.679  1.00  0.00    -0.248 NA
ATOM     59  C   UNL A   1      41.679  31.860  36.813  1.00  0.00     0.031 C 
ATOM     60  C   UNL A   1      43.051  27.874  32.443  1.00  0.00     0.029 A 
ATOM     61  C   UNL A   1      42.439  28.884  33.167  1.00  0.00     0.049 A 
ATOM     62  H   UNL A   1      40.761  30.058  32.652  1.00  0.00     0.167 HD
ATOM     63  C   UNL A   1      42.147  30.407  35.103  1.00  0.00     0.074 A 
ATOM     64  C   UNL A   1      42.513  30.912  36.410  1.00  0.00     0.031 C 
ATOM     65  C   UNL A   1      42.790  29.396  34.468  1.00  0.00     0.037 A 
BRANCH  52  66
ATOM     66  C   UNL A   1      40.367  27.921  28.977  1.00  0.00     0.064 A 
ATOM     67  C   UNL A   1      41.145  28.216  27.847  1.00  0.00     0.173 A 
ATOM     68  C   UNL A   1      39.642  26.719  28.976  1.00  0.00     0.173 A 
ATOM     69  F   UNL A   1      41.849  29.356  27.790  1.00  0.00    -0.203 F 
ATOM     70  C   UNL A   1      41.172  27.358  26.749  1.00  0.00     0.198 A 
ATOM     71  C   UNL A   1      39.698  25.848  27.890  1.00  0.00     0.198 A 
ATOM     72  F   UNL A   1      38.887  26.383  30.033  1.00  0.00    -0.203 F 
ATOM     73  F   UNL A   1      41.882  27.687  25.662  1.00  0.00    -0.200 F 
ATOM     74  C   UNL A   1      40.455  26.172  26.776  1.00  0.00     0.200 A 
ATOM     75  F   UNL A   1      39.016  24.694  27.924  1.00  0.00    -0.200 F 
ATOM     76  F   UNL A   1      40.489  25.343  25.722  1.00  0.00    -0.200 F 
ENDBRANCH  52  66
BRANCH  53  77
ATOM     77  C   UNL A   1      39.604  33.927  36.921  1.00  0.00     0.064 A 
ATOM     78  C   UNL A   1      38.827  33.533  38.019  1.00  0.00     0.173 A 
ATOM     79  C   UNL A   1      40.255  35.167  36.995  1.00  0.00     0.173 A 
ATOM     80  F   UNL A   1      38.170  32.364  37.988  1.00  0.00    -0.203 F 
ATOM     81  C   UNL A   1      38.687  34.354  39.135  1.00  0.00     0.198 A 
ATOM     82  C   UNL A   1      40.141  35.974  38.125  1.00  0.00     0.198 A 
ATOM     83  F   UNL A   1      41.018  35.588  35.975  1.00  0.00    -0.203 F 
ATOM     84  F   UNL A   1      37.901  33.973  40.150  1.00  0.00    -0.200 F 
ATOM     85  C   UNL A   1      39.350  35.572  39.190  1.00  0.00     0.200 A 
ATOM     86  F   UNL A   1      40.798  37.141  38.181  1.00  0.00    -0.200 F 
ATOM     87  F   UNL A   1      39.222  36.359  40.267  1.00  0.00    -0.200 F 
ENDBRANCH  53  77
BRANCH  65  88
ATOM     88  C   UNL A   1      43.971  28.785  35.168  1.00  0.00     0.064 A 
ATOM     89  C   UNL A   1      43.830  27.689  36.031  1.00  0.00     0.173 A 
ATOM     90  C   UNL A   1      45.263  29.286  34.950  1.00  0.00     0.173 A 
ATOM     91  F   UNL A   1      42.614  27.181  36.287  1.00  0.00    -0.203 F 
ATOM     92  C   UNL A   1      44.935  27.137  36.675  1.00  0.00     0.198 A 
ATOM     93  C   UNL A   1      46.370  28.711  35.568  1.00  0.00     0.198 A 
ATOM     94  F   UNL A   1      45.454  30.330  34.129  1.00  0.00    -0.203 F 
ATOM     95  F   UNL A   1      44.769  26.126  37.539  1.00  0.00    -0.200 F 
ATOM     96  C   UNL A   1      46.204  27.644  36.437  1.00  0.00     0.200 A 
ATOM     97  F   UNL A   1      47.597  29.192  35.324  1.00  0.00    -0.200 F 
ATOM     98  F   UNL A   1      47.268  27.108  37.052  1.00  0.00    -0.200 F 
ENDBRANCH  65  88
ENDBRANCH  39  40
ENDBRANCH  31  34
ENDBRANCH  29  30
ENDBRANCH  28  29
ENDBRANCH  27  28
ENDBRANCH   1  27
TORSDOF 16
ENDMDL
MODEL 2
REMARK VINA RESULT:     -12.0      1.005      1.988
REMARK SMILES CCC1(C(=O)N[C@H]2C=C[C@H](C(=O)NCCCCCCNC(=O)c3ccc(-c4c5nc(c(-c6c(F)c(F)c(F)c(F)c6F)c6ccc([nH]6)c(-c6c(F)c(F)c(F)c(F)c6F)c6nc(c(-c7c(F)c(F)c(F)c(F)c7F)c7ccc4[nH]7)C=C6)C=C5)cc3)C2)CC[NH2+]CC1
REMARK SMILES IDX 16 1 15 2 14 3 13 4 11 5 12 6 10 8 7 9 8 10 86 11 9 12 6 13
REMARK SMILES IDX 4 14 5 15 3 17 87 18 91 19 88 20 90 21 89 22 2 25 1 26 17 27
REMARK SMILES IDX 18 28 19 29 20 30 21 31 22 33 23 34 24 35 85 36 25 37 84 38
REMARK SMILES IDX 26 39 27 40 28 41 78 42 29 43 83 44 77 45 79 46 30 47 82 48
REMARK SMILES IDX 76 49 75 50 31 52 63 53 43 54 62 55 44 56 47 57 61 58 80 59
REMARK SMILES IDX 45 60 46 61 60 63 81 64 48 65 32 66 33 67 41 68 34 69 35 70
REMARK SMILES IDX 39 71 42 72 36 73 37 74 40 75 38 76 64 77 65 78 73 79 66 80
REMARK SMILES IDX 67 81 71 82 74 83 68 84 69 85 72 86 70 87 49 88 50 89 58 90
REMARK SMILES IDX 51 91 52 92 56 93 59 94 53 95 54 96 57 97 55 98
REMARK H PARENT 13 7 6 16 89 23 89 24 20 32 79 51 47 62
REMARK Flexibility Score: inf
ROOT
ATOM      1  C   UNL A   1      32.299  30.034  27.184  1.00  0.00     0.002 C 
ENDROOT
BRANCH   1   2
ATOM      2  C   UNL A   1      32.470  28.564  26.804  1.00  0.00     0.021 C 
BRANCH   2   3
ATOM      3  C   UNL A   1      33.835  28.220  26.223  1.00  0.00     0.116 C 
BRANCH   3   4
ATOM      4  N   UNL A   1      34.028  28.769  24.898  1.00  0.00    -0.356 N 
ATOM      5  C   UNL A   1      33.509  28.441  23.686  1.00  0.00     0.227 C 
ATOM      6  O   UNL A   1      33.922  29.094  22.720  1.00  0.00    -0.274 OA
ATOM      7  H   UNL A   1      34.655  29.527  24.870  1.00  0.00     0.163 HD
BRANCH   5   8
ATOM      8  C   UNL A   1      32.399  27.393  23.466  1.00  0.00     0.103 C 
ATOM      9  C   UNL A   1      33.122  25.191  22.681  1.00  0.00     0.106 C 
ATOM     10  C   UNL A   1      32.286  25.907  21.655  1.00  0.00    -0.006 C 
ATOM     11  C   UNL A   1      32.803  25.995  23.949  1.00  0.00     0.047 C 
ATOM     12  C   UNL A   1      31.930  27.132  22.070  1.00  0.00    -0.016 C 
BRANCH   9  13
ATOM     13  N   UNL A   1      32.737  23.800  22.688  1.00  0.00    -0.349 N 
ATOM     14  C   UNL A   1      33.233  22.695  23.319  1.00  0.00     0.227 C 
ATOM     15  O   UNL A   1      32.731  21.633  22.942  1.00  0.00    -0.274 OA
ATOM     16  H   UNL A   1      31.957  23.606  22.119  1.00  0.00     0.164 HD
BRANCH  14  17
ATOM     17  C   UNL A   1      34.328  22.740  24.431  1.00  0.00     0.060 C 
ATOM     18  C   UNL A   1      33.759  23.344  25.749  1.00  0.00     0.078 C 
ATOM     19  C   UNL A   1      34.845  21.289  24.624  1.00  0.00     0.078 C 
ATOM     20  C   UNL A   1      34.507  22.903  27.013  1.00  0.00     0.261 C 
ATOM     21  C   UNL A   1      35.531  21.021  25.952  1.00  0.00     0.261 C 
ATOM     22  N   UNL A   1      34.680  21.453  27.057  1.00  0.00    -0.346 N 
ATOM     23  H   UNL A   1      33.769  21.001  26.980  1.00  0.00     0.346 HD
ATOM     24  H   UNL A   1      35.118  21.194  27.941  1.00  0.00     0.346 HD
BRANCH  17  25
ATOM     25  C   UNL A   1      35.596  23.587  24.031  1.00  0.00     0.014 C 
ATOM     26  C   UNL A   1      36.646  22.953  23.126  1.00  0.00     0.005 C 
ENDBRANCH  17  25
ENDBRANCH  14  17
ENDBRANCH   9  13
ENDBRANCH   5   8
ENDBRANCH   3   4
ENDBRANCH   2   3
ENDBRANCH   1   2
BRANCH   1  27
ATOM     27  C   UNL A   1      31.424  30.857  26.231  1.00  0.00     0.002 C 
BRANCH  27  28
ATOM     28  C   UNL A   1      31.383  32.364  26.502  1.00  0.00     0.021 C 
BRANCH  28  29
ATOM     29  C   UNL A   1      32.591  32.923  27.248  1.00  0.00     0.116 C 
BRANCH  29  30
ATOM     30  N   UNL A   1      32.386  34.296  27.679  1.00  0.00    -0.352 N 
ATOM     31  C   UNL A   1      32.976  34.997  28.694  1.00  0.00     0.251 C 
ATOM     32  H   UNL A   1      31.719  34.800  27.158  1.00  0.00     0.163 HD
ATOM     33  O   UNL A   1      32.528  36.099  29.020  1.00  0.00    -0.269 OA
BRANCH  31  34
ATOM     34  C   UNL A   1      34.133  34.437  29.421  1.00  0.00     0.039 A 
ATOM     35  C   UNL A   1      33.918  33.847  30.670  1.00  0.00     0.014 A 
ATOM     36  C   UNL A   1      35.428  34.514  28.898  1.00  0.00     0.014 A 
ATOM     37  C   UNL A   1      34.989  33.286  31.365  1.00  0.00     0.010 A 
ATOM     38  C   UNL A   1      36.484  33.890  29.560  1.00  0.00     0.010 A 
ATOM     39  C   UNL A   1      36.276  33.270  30.801  1.00  0.00    -0.014 A 
BRANCH  39  40
ATOM     40  C   UNL A   1      37.399  32.589  31.493  1.00  0.00     0.031 A 
ATOM     41  C   UNL A   1      38.110  31.433  30.846  1.00  0.00     0.074 A 
ATOM     42  C   UNL A   1      37.747  32.988  32.731  1.00  0.00     0.049 A 
ATOM     43  N   UNL A   1      39.097  30.707  31.307  1.00  0.00    -0.248 NA
ATOM     44  C   UNL A   1      37.634  31.021  29.517  1.00  0.00     0.031 C 
ATOM     45  C   UNL A   1      37.097  34.061  33.485  1.00  0.00     0.029 A 
ATOM     46  N   UNL A   1      38.730  32.536  33.577  1.00  0.00    -0.354 N 
ATOM     47  C   UNL A   1      39.354  29.753  30.331  1.00  0.00     0.074 A 
ATOM     48  C   UNL A   1      38.384  29.955  29.278  1.00  0.00     0.031 C 
ATOM     49  C   UNL A   1      37.714  34.203  34.668  1.00  0.00     0.029 A 
ATOM     50  C   UNL A   1      38.776  33.208  34.773  1.00  0.00     0.049 A 
ATOM     51  H   UNL A   1      39.341  31.799  33.347  1.00  0.00     0.167 HD
ATOM     52  C   UNL A   1      40.326  28.809  30.308  1.00  0.00     0.037 A 
ATOM     53  C   UNL A   1      39.583  33.039  35.838  1.00  0.00     0.037 A 
ATOM     54  C   UNL A   1      41.299  28.622  31.353  1.00  0.00     0.049 A 
ATOM     55  C   UNL A   1      40.649  31.979  35.788  1.00  0.00     0.074 A 
ATOM     56  C   UNL A   1      42.364  27.738  31.394  1.00  0.00     0.029 A 
ATOM     57  N   UNL A   1      41.322  29.327  32.549  1.00  0.00    -0.354 N 
ATOM     58  N   UNL A   1      40.936  31.137  34.826  1.00  0.00    -0.248 NA
ATOM     59  C   UNL A   1      41.510  31.851  36.973  1.00  0.00     0.031 C 
ATOM     60  C   UNL A   1      42.994  27.868  32.636  1.00  0.00     0.029 A 
ATOM     61  C   UNL A   1      42.362  28.876  33.346  1.00  0.00     0.049 A 
ATOM     62  H   UNL A   1      40.691  30.042  32.794  1.00  0.00     0.167 HD
ATOM     63  C   UNL A   1      42.022  30.398  35.274  1.00  0.00     0.074 A 
ATOM     64  C   UNL A   1      42.357  30.906  36.588  1.00  0.00     0.031 C 
ATOM     65  C   UNL A   1      42.682  29.390  34.655  1.00  0.00     0.037 A 
BRANCH  52  66
ATOM     66  C   UNL A   1      40.387  27.901  29.113  1.00  0.00     0.064 A 
ATOM     67  C   UNL A   1      39.649  26.708  29.054  1.00  0.00     0.173 A 
ATOM     68  C   UNL A   1      41.159  28.248  27.993  1.00  0.00     0.173 A 
ATOM     69  F   UNL A   1      38.903  26.323  30.100  1.00  0.00    -0.203 F 
ATOM     70  C   UNL A   1      39.707  25.882  27.933  1.00  0.00     0.198 A 
ATOM     71  C   UNL A   1      41.187  27.437  26.861  1.00  0.00     0.198 A 
ATOM     72  F   UNL A   1      41.878  29.380  27.991  1.00  0.00    -0.203 F 
ATOM     73  F   UNL A   1      39.034  24.724  27.921  1.00  0.00    -0.200 F 
ATOM     74  C   UNL A   1      40.469  26.252  26.835  1.00  0.00     0.200 A 
ATOM     75  F   UNL A   1      41.912  27.803  25.795  1.00  0.00    -0.200 F 
ATOM     76  F   UNL A   1      40.516  25.461  25.754  1.00  0.00    -0.200 F 
ENDBRANCH  52  66
BRANCH  53  77
ATOM     77  C   UNL A   1      39.425  33.909  37.033  1.00  0.00     0.064 A 
ATOM     78  C   UNL A   1      38.696  33.476  38.150  1.00  0.00     0.173 A 
ATOM     79  C   UNL A   1      39.997  35.188  37.085  1.00  0.00     0.173 A 
ATOM     80  F   UNL A   1      38.114  32.267  38.141  1.00  0.00    -0.203 F 
ATOM     81  C   UNL A   1      38.528  34.296  39.264  1.00  0.00     0.198 A 
ATOM     82  C   UNL A   1      39.855  35.995  38.212  1.00  0.00     0.198 A 
ATOM     83  F   UNL A   1      40.711  35.648  36.047  1.00  0.00    -0.203 F 
ATOM     84  F   UNL A   1      37.788  33.875  40.297  1.00  0.00    -0.200 F 
ATOM     85  C   UNL A   1      39.114  35.553  39.296  1.00  0.00     0.200 A 
ATOM     86  F   UNL A   1      40.439  37.202  38.246  1.00  0.00    -0.200 F 
ATOM     87  F   UNL A   1      38.958  36.339  40.370  1.00  0.00    -0.200 F 
ENDBRANCH  53  77
BRANCH  65  88
ATOM     88  C   UNL A   1      43.850  28.784  35.381  1.00  0.00     0.064 A 
ATOM     89  C   UNL A   1      45.153  29.279  35.223  1.00  0.00     0.173 A 
ATOM     90  C   UNL A   1      43.658  27.714  36.267  1.00  0.00     0.173 A 
ATOM     91  F   UNL A   1      45.394  30.291  34.375  1.00  0.00    -0.203 F 
ATOM     92  C   UNL A   1      46.224  28.704  35.900  1.00  0.00     0.198 A 
ATOM     93  C   UNL A   1      44.726  27.164  36.970  1.00  0.00     0.198 A 
ATOM     94  F   UNL A   1      42.431  27.207  36.460  1.00  0.00    -0.203 F 
ATOM     95  F   UNL A   1      47.468  29.156  35.691  1.00  0.00    -0.200 F 
ATOM     96  C   UNL A   1      46.009  27.652  36.779  1.00  0.00     0.200 A 
ATOM     97  F   UNL A   1      44.513  26.158  37.830  1.00  0.00    -0.200 F 
ATOM     98  F   UNL A   1      47.041  27.103  37.436  1.00  0.00    -0.200 F 
ENDBRANCH  65  88
ENDBRANCH  39  40
ENDBRANCH  31  34
ENDBRANCH  29  30
ENDBRANCH  28  29
ENDBRANCH  27  28
ENDBRANCH   1  27
TORSDOF 16
ENDMDL
MODEL 3
REMARK VINA RESULT:     -12.0      0.806      7.456
REMARK SMILES CCC1(C(=O)N[C@H]2C=C[C@H](C(=O)NCCCCCCNC(=O)c3ccc(-c4c5nc(c(-c6c(F)c(F)c(F)c(F)c6F)c6ccc([nH]6)c(-c6c(F)c(F)c(F)c(F)c6F)c6nc(c(-c7c(F)c(F)c(F)c(F)c7F)c7ccc4[nH]7)C=C6)C=C5)cc3)C2)CC[NH2+]CC1
REMARK SMILES IDX 16 1 15 2 14 3 13 4 11 5 12 6 10 8 7 9 8 10 86 11 9 12 6 13
REMARK SMILES IDX 4 14 5 15 3 17 87 18 91 19 88 20 90 21 89 22 2 25 1 26 17 27
REMARK SMILES IDX 18 28 19 29 20 30 21 31 22 33 23 34 24 35 85 36 25 37 84 38
REMARK SMILES IDX 26 39 27 40 28 41 78 42 29 43 83 44 77 45 79 46 30 47 82 48
REMARK SMILES IDX 76 49 75 50 31 52 63 53 43 54 62 55 44 56 47 57 61 58 80 59
REMARK SMILES IDX 45 60 46 61 60 63 81 64 48 65 32 66 33 67 41 68 34 69 35 70
REMARK SMILES IDX 39 71 42 72 36 73 37 74 40 75 38 76 64 77 65 78 73 79 66 80
REMARK SMILES IDX 67 81 71 82 74 83 68 84 69 85 72 86 70 87 49 88 50 89 58 90
REMARK SMILES IDX 51 91 52 92 56 93 59 94 53 95 54 96 57 97 55 98
REMARK H PARENT 13 7 6 16 89 23 89 24 20 32 79 51 47 62
REMARK Flexibility Score: inf
ROOT
ATOM      1  C   UNL A   1      32.438  30.221  27.080  1.00  0.00     0.002 C 
ENDROOT
BRANCH   1   2
ATOM      2  C   UNL A   1      33.717  29.898  26.311  1.00  0.00     0.021 C 
BRANCH   2   3
ATOM      3  C   UNL A   1      33.663  28.600  25.516  1.00  0.00     0.116 C 
BRANCH   3   4
ATOM      4  N   UNL A   1      33.098  28.782  24.196  1.00  0.00    -0.356 N 
ATOM      5  C   UNL A   1      31.873  28.503  23.677  1.00  0.00     0.227 C 
ATOM      6  O   UNL A   1      31.722  28.745  22.474  1.00  0.00    -0.274 OA
ATOM      7  H   UNL A   1      33.721  29.186  23.550  1.00  0.00     0.163 HD
BRANCH   5   8
ATOM      8  C   UNL A   1      30.670  28.002  24.501  1.00  0.00     0.103 C 
ATOM      9  C   UNL A   1      30.721  25.654  25.185  1.00  0.00     0.106 C 
ATOM     10  C   UNL A   1      29.606  25.932  24.214  1.00  0.00    -0.006 C 
ATOM     11  C   UNL A   1      31.085  27.071  25.646  1.00  0.00     0.047 C 
ATOM     12  C   UNL A   1      29.609  27.209  23.806  1.00  0.00    -0.016 C 
BRANCH   9  13
ATOM     13  N   UNL A   1      30.224  24.754  26.200  1.00  0.00    -0.349 N 
ATOM     14  C   UNL A   1      30.655  23.548  26.673  1.00  0.00     0.227 C 
ATOM     15  O   UNL A   1      29.863  22.998  27.441  1.00  0.00    -0.274 OA
ATOM     16  H   UNL A   1      29.405  25.076  26.641  1.00  0.00     0.164 HD
BRANCH  14  17
ATOM     17  C   UNL A   1      32.028  22.902  26.303  1.00  0.00     0.060 C 
ATOM     18  C   UNL A   1      32.858  22.587  27.582  1.00  0.00     0.078 C 
ATOM     19  C   UNL A   1      31.724  21.628  25.470  1.00  0.00     0.078 C 
ATOM     20  C   UNL A   1      33.887  21.465  27.400  1.00  0.00     0.261 C 
ATOM     21  C   UNL A   1      32.846  20.605  25.427  1.00  0.00     0.261 C 
ATOM     22  N   UNL A   1      33.290  20.284  26.781  1.00  0.00    -0.346 N 
ATOM     23  H   UNL A   1      32.492  19.978  27.336  1.00  0.00     0.346 HD
ATOM     24  H   UNL A   1      33.986  19.539  26.740  1.00  0.00     0.346 HD
BRANCH  17  25
ATOM     25  C   UNL A   1      32.920  23.809  25.371  1.00  0.00     0.014 C 
ATOM     26  C   UNL A   1      34.012  24.662  26.007  1.00  0.00     0.005 C 
ENDBRANCH  17  25
ENDBRANCH  14  17
ENDBRANCH   9  13
ENDBRANCH   5   8
ENDBRANCH   3   4
ENDBRANCH   2   3
ENDBRANCH   1   2
BRANCH   1  27
ATOM     27  C   UNL A   1      31.387  31.015  26.295  1.00  0.00     0.002 C 
BRANCH  27  28
ATOM     28  C   UNL A   1      31.391  32.530  26.525  1.00  0.00     0.021 C 
BRANCH  28  29
ATOM     29  C   UNL A   1      32.643  33.080  27.203  1.00  0.00     0.116 C 
BRANCH  29  30
ATOM     30  N   UNL A   1      32.431  34.408  27.756  1.00  0.00    -0.352 N 
ATOM     31  C   UNL A   1      33.038  35.026  28.815  1.00  0.00     0.251 C 
ATOM     32  H   UNL A   1      31.746  34.945  27.297  1.00  0.00     0.163 HD
ATOM     33  O   UNL A   1      32.584  36.089  29.246  1.00  0.00    -0.269 OA
BRANCH  31  34
ATOM     34  C   UNL A   1      34.219  34.423  29.463  1.00  0.00     0.039 A 
ATOM     35  C   UNL A   1      34.031  33.651  30.613  1.00  0.00     0.014 A 
ATOM     36  C   UNL A   1      35.509  34.633  28.966  1.00  0.00     0.014 A 
ATOM     37  C   UNL A   1      35.126  33.046  31.229  1.00  0.00     0.010 A 
ATOM     38  C   UNL A   1      36.592  33.970  29.539  1.00  0.00     0.010 A 
ATOM     39  C   UNL A   1      36.412  33.170  30.678  1.00  0.00    -0.014 A 
BRANCH  39  40
ATOM     40  C   UNL A   1      37.565  32.449  31.274  1.00  0.00     0.031 A 
ATOM     41  C   UNL A   1      38.091  32.832  32.630  1.00  0.00     0.074 A 
ATOM     42  C   UNL A   1      38.169  31.475  30.566  1.00  0.00     0.049 A 
ATOM     43  N   UNL A   1      39.098  32.327  33.298  1.00  0.00    -0.248 NA
ATOM     44  C   UNL A   1      37.414  33.942  33.314  1.00  0.00     0.031 C 
ATOM     45  C   UNL A   1      37.785  31.051  29.219  1.00  0.00     0.029 A 
ATOM     46  N   UNL A   1      39.235  30.668  30.878  1.00  0.00    -0.354 N 
ATOM     47  C   UNL A   1      39.177  33.061  34.474  1.00  0.00     0.074 A 
ATOM     48  C   UNL A   1      38.154  34.082  34.404  1.00  0.00     0.031 C 
ATOM     49  C   UNL A   1      38.584  30.045  28.831  1.00  0.00     0.029 A 
ATOM     50  C   UNL A   1      39.560  29.779  29.883  1.00  0.00     0.049 A 
ATOM     51  H   UNL A   1      39.720  30.722  31.733  1.00  0.00     0.167 HD
ATOM     52  C   UNL A   1      40.013  32.884  35.526  1.00  0.00     0.037 A 
ATOM     53  C   UNL A   1      40.538  28.855  29.824  1.00  0.00     0.037 A 
ATOM     54  C   UNL A   1      41.019  31.856  35.596  1.00  0.00     0.049 A 
ATOM     55  C   UNL A   1      41.456  28.684  31.003  1.00  0.00     0.074 A 
ATOM     56  C   UNL A   1      41.872  31.553  36.644  1.00  0.00     0.029 A 
ATOM     57  N   UNL A   1      41.316  30.968  34.572  1.00  0.00    -0.354 N 
ATOM     58  N   UNL A   1      41.469  29.329  32.143  1.00  0.00    -0.248 NA
ATOM     59  C   UNL A   1      42.494  27.650  30.887  1.00  0.00     0.031 C 
ATOM     60  C   UNL A   1      42.722  30.520  36.233  1.00  0.00     0.029 A 
ATOM     61  C   UNL A   1      42.360  30.137  34.952  1.00  0.00     0.049 A 
ATOM     62  H   UNL A   1      40.854  30.933  33.704  1.00  0.00     0.167 HD
ATOM     63  C   UNL A   1      42.494  28.765  32.890  1.00  0.00     0.074 A 
ATOM     64  C   UNL A   1      43.067  27.710  32.081  1.00  0.00     0.031 C 
ATOM     65  C   UNL A   1      42.922  29.092  34.134  1.00  0.00     0.037 A 
BRANCH  52  66
ATOM     66  C   UNL A   1      39.878  33.824  36.690  1.00  0.00     0.064 A 
ATOM     67  C   UNL A   1      39.032  33.541  37.773  1.00  0.00     0.173 A 
ATOM     68  C   UNL A   1      40.635  35.005  36.744  1.00  0.00     0.173 A 
ATOM     69  F   UNL A   1      38.277  32.432  37.769  1.00  0.00    -0.203 F 
ATOM     70  C   UNL A   1      38.926  34.417  38.851  1.00  0.00     0.198 A 
ATOM     71  C   UNL A   1      40.552  35.862  37.838  1.00  0.00     0.198 A 
ATOM     72  F   UNL A   1      41.466  35.322  35.739  1.00  0.00    -0.203 F 
ATOM     73  F   UNL A   1      38.073  34.150  39.849  1.00  0.00    -0.200 F 
ATOM     74  C   UNL A   1      39.692  35.572  38.886  1.00  0.00     0.200 A 
ATOM     75  F   UNL A   1      41.305  36.971  37.877  1.00  0.00    -0.200 F 
ATOM     76  F   UNL A   1      39.596  36.411  39.927  1.00  0.00    -0.200 F 
ENDBRANCH  52  66
BRANCH  53  77
ATOM     77  C   UNL A   1      40.683  28.007  28.611  1.00  0.00     0.064 A 
ATOM     78  C   UNL A   1      41.454  28.433  27.521  1.00  0.00     0.173 A 
ATOM     79  C   UNL A   1      40.057  26.755  28.518  1.00  0.00     0.173 A 
ATOM     80  F   UNL A   1      42.057  29.631  27.555  1.00  0.00    -0.203 F 
ATOM     81  C   UNL A   1      41.576  27.650  26.374  1.00  0.00     0.198 A 
ATOM     82  C   UNL A   1      40.206  25.959  27.383  1.00  0.00     0.198 A 
ATOM     83  F   UNL A   1      39.316  26.296  29.536  1.00  0.00    -0.203 F 
ATOM     84  F   UNL A   1      42.280  28.103  25.329  1.00  0.00    -0.200 F 
ATOM     85  C   UNL A   1      40.956  26.411  26.310  1.00  0.00     0.200 A 
ATOM     86  F   UNL A   1      39.621  24.754  27.333  1.00  0.00    -0.200 F 
ATOM     87  F   UNL A   1      41.080  25.655  25.210  1.00  0.00    -0.200 F 
ENDBRANCH  53  77
BRANCH  65  88
ATOM     88  C   UNL A   1      44.051  28.282  34.707  1.00  0.00     0.064 A 
ATOM     89  C   UNL A   1      45.388  28.682  34.570  1.00  0.00     0.173 A 
ATOM     90  C   UNL A   1      43.788  27.106  35.425  1.00  0.00     0.173 A 
ATOM     91  F   UNL A   1      45.695  29.791  33.879  1.00  0.00    -0.203 F 
ATOM     92  C   UNL A   1      46.422  27.918  35.104  1.00  0.00     0.198 A 
ATOM     93  C   UNL A   1      44.822  26.363  35.988  1.00  0.00     0.198 A 
ATOM     94  F   UNL A   1      42.526  26.682  35.591  1.00  0.00    -0.203 F 
ATOM     95  F   UNL A   1      47.695  28.289  34.913  1.00  0.00    -0.200 F 
ATOM     96  C   UNL A   1      46.138  26.763  35.819  1.00  0.00     0.200 A 
ATOM     97  F   UNL A   1      44.543  25.256  36.692  1.00  0.00    -0.200 F 
ATOM     98  F   UNL A   1      47.134  26.032  36.338  1.00  0.00    -0.200 F 
ENDBRANCH  65  88
ENDBRANCH  39  40
ENDBRANCH  31  34
ENDBRANCH  29  30
ENDBRANCH  28  29
ENDBRANCH  27  28
ENDBRANCH   1  27
TORSDOF 16
ENDMDL
