MODEL 1
REMARK VINA RESULT:     -12.9      0.000      0.000
REMARK SMILES Cc1ccnc(C(=O)c2[nH]c3cc(F)ccc3c2CC(=O)NCCCCCCNC(=O)c2ccc(-c3c4nc(c(-c5c(F)c(F)c(F)c(F)c5F)c5ccc([nH]5)c(-c5c(F)c(F)c(F)c(F)c5F)c5nc(c(-c6c(F)c(F)c(F)c(F)c6F)c6ccc3[nH]6)C=C5)C=C4)cc2)c1
REMARK SMILES IDX 25 1 24 2 23 3 22 4 20 5 21 6 19 8 18 9 9 10 10 11 11 12
REMARK SMILES IDX 17 14 12 15 16 16 13 17 15 18 14 19 7 20 8 21 6 22 1 23 2 24
REMARK SMILES IDX 3 25 95 26 4 27 5 28 26 29 27 30 28 31 29 32 30 33 31 35
REMARK SMILES IDX 32 36 33 37 94 38 34 39 93 40 35 41 36 42 37 43 87 44 38 45
REMARK SMILES IDX 92 46 86 47 88 48 39 49 91 50 85 51 84 52 40 54 72 55 52 56
REMARK SMILES IDX 71 57 53 58 56 59 70 60 89 61 54 62 55 63 69 65 90 66 57 67
REMARK SMILES IDX 41 68 42 69 50 70 43 71 44 72 48 73 51 74 45 75 46 76 49 77
REMARK SMILES IDX 47 78 73 79 74 80 82 81 75 82 76 83 80 84 83 85 77 86 78 87
REMARK SMILES IDX 81 88 79 89 58 90 59 91 67 92 60 93 61 94 65 95 68 96 62 97
REMARK SMILES IDX 63 98 66 99 64 100
REMARK H PARENT 22 7 10 13 29 34 88 53 56 64
REMARK Flexibility Score: inf
ROOT
ATOM      1  C   UNL A   1      32.092  29.524  26.693  1.00  0.00     0.002 C 
ENDROOT
BRANCH   1   2
ATOM      2  C   UNL A   1      31.316  28.207  26.570  1.00  0.00     0.021 C 
BRANCH   2   3
ATOM      3  C   UNL A   1      32.186  26.964  26.382  1.00  0.00     0.116 C 
BRANCH   3   4
ATOM      4  N   UNL A   1      31.544  25.760  26.867  1.00  0.00    -0.356 N 
ATOM      5  C   UNL A   1      31.879  24.453  26.656  1.00  0.00     0.224 C 
ATOM      6  O   UNL A   1      31.246  23.586  27.265  1.00  0.00    -0.275 OA
ATOM      7  H   UNL A   1      30.750  25.904  27.430  1.00  0.00     0.163 HD
BRANCH   5   8
ATOM      8  C   UNL A   1      33.080  24.080  25.801  1.00  0.00     0.138 C 
BRANCH   8   9
ATOM      9  C   UNL A   1      32.762  23.448  24.474  1.00  0.00    -0.002 A 
ATOM     10  C   UNL A   1      32.519  24.092  23.265  1.00  0.00     0.093 A 
ATOM     11  N   UNL A   1      32.341  23.119  22.308  1.00  0.00    -0.351 N 
ATOM     12  C   UNL A   1      32.342  21.871  22.876  1.00  0.00     0.049 A 
ATOM     13  H   UNL A   1      32.228  23.296  21.346  1.00  0.00     0.167 HD
ATOM     14  C   UNL A   1      32.590  22.041  24.238  1.00  0.00     0.004 A 
ATOM     15  C   UNL A   1      32.155  20.614  22.291  1.00  0.00     0.066 A 
ATOM     16  C   UNL A   1      32.640  20.893  25.061  1.00  0.00     0.013 A 
ATOM     17  C   UNL A   1      32.216  19.504  23.132  1.00  0.00     0.125 A 
ATOM     18  C   UNL A   1      32.451  19.628  24.494  1.00  0.00     0.040 A 
ATOM     19  F   UNL A   1      32.043  18.283  22.608  1.00  0.00    -0.207 F 
BRANCH  10  20
ATOM     20  C   UNL A   1      32.527  25.512  22.953  1.00  0.00     0.227 C 
ATOM     21  O   UNL A   1      33.544  26.055  22.536  1.00  0.00    -0.285 OA
BRANCH  20  22
ATOM     22  C   UNL A   1      31.239  26.290  23.104  1.00  0.00     0.113 A 
ATOM     23  C   UNL A   1      29.730  29.722  22.496  1.00  0.00     0.044 C 
ATOM     24  C   UNL A   1      29.905  28.287  22.897  1.00  0.00    -0.047 A 
ATOM     25  C   UNL A   1      28.854  27.596  23.498  1.00  0.00     0.023 A 
ATOM     26  C   UNL A   1      31.112  27.613  22.679  1.00  0.00     0.036 A 
ATOM     27  C   UNL A   1      29.055  26.278  23.874  1.00  0.00     0.112 A 
ATOM     28  N   UNL A   1      30.221  25.621  23.706  1.00  0.00    -0.253 NA
ENDBRANCH  20  22
ENDBRANCH  10  20
ENDBRANCH   8   9
ENDBRANCH   5   8
ENDBRANCH   3   4
ENDBRANCH   2   3
ENDBRANCH   1   2
BRANCH   1  29
ATOM     29  C   UNL A   1      31.574  30.690  25.842  1.00  0.00     0.002 C 
BRANCH  29  30
ATOM     30  C   UNL A   1      31.405  32.028  26.569  1.00  0.00     0.021 C 
BRANCH  30  31
ATOM     31  C   UNL A   1      32.687  32.636  27.136  1.00  0.00     0.116 C 
BRANCH  31  32
ATOM     32  N   UNL A   1      32.492  33.992  27.622  1.00  0.00    -0.352 N 
ATOM     33  C   UNL A   1      33.114  34.651  28.653  1.00  0.00     0.251 C 
ATOM     34  H   UNL A   1      31.813  34.516  27.141  1.00  0.00     0.163 HD
ATOM     35  O   UNL A   1      32.709  35.755  29.009  1.00  0.00    -0.269 OA
BRANCH  33  36
ATOM     36  C   UNL A   1      34.265  34.041  29.360  1.00  0.00     0.039 A 
ATOM     37  C   UNL A   1      35.559  34.376  28.943  1.00  0.00     0.014 A 
ATOM     38  C   UNL A   1      34.082  33.108  30.385  1.00  0.00     0.014 A 
ATOM     39  C   UNL A   1      36.668  33.816  29.584  1.00  0.00     0.010 A 
ATOM     40  C   UNL A   1      35.189  32.578  31.048  1.00  0.00     0.010 A 
ATOM     41  C   UNL A   1      36.491  32.927  30.654  1.00  0.00    -0.014 A 
BRANCH  41  42
ATOM     42  C   UNL A   1      37.655  32.348  31.369  1.00  0.00     0.031 A 
ATOM     43  C   UNL A   1      38.431  31.219  30.756  1.00  0.00     0.074 A 
ATOM     44  C   UNL A   1      37.977  32.799  32.595  1.00  0.00     0.049 A 
ATOM     45  N   UNL A   1      39.402  30.507  31.270  1.00  0.00    -0.248 NA
ATOM     46  C   UNL A   1      38.054  30.826  29.390  1.00  0.00     0.031 C 
ATOM     47  C   UNL A   1      37.289  33.873  33.309  1.00  0.00     0.029 A 
ATOM     48  N   UNL A   1      38.960  32.394  33.464  1.00  0.00    -0.354 N 
ATOM     49  C   UNL A   1      39.735  29.568  30.304  1.00  0.00     0.074 A 
ATOM     50  C   UNL A   1      38.855  29.791  29.176  1.00  0.00     0.031 C 
ATOM     51  C   UNL A   1      37.871  34.045  34.508  1.00  0.00     0.029 A 
ATOM     52  C   UNL A   1      38.954  33.077  34.655  1.00  0.00     0.049 A 
ATOM     53  H   UNL A   1      39.607  31.683  33.254  1.00  0.00     0.167 HD
ATOM     54  C   UNL A   1      40.690  28.609  30.354  1.00  0.00     0.037 A 
ATOM     55  C   UNL A   1      39.729  32.931  35.746  1.00  0.00     0.037 A 
ATOM     56  C   UNL A   1      41.588  28.402  31.459  1.00  0.00     0.049 A 
ATOM     57  C   UNL A   1      40.811  31.889  35.756  1.00  0.00     0.074 A 
ATOM     58  C   UNL A   1      42.599  27.466  31.588  1.00  0.00     0.029 A 
ATOM     59  N   UNL A   1      41.587  29.154  32.623  1.00  0.00    -0.354 N 
ATOM     60  N   UNL A   1      41.121  31.013  34.833  1.00  0.00    -0.248 NA
ATOM     61  C   UNL A   1      41.654  31.818  36.958  1.00  0.00     0.031 C 
ATOM     62  C   UNL A   1      43.205  27.644  32.837  1.00  0.00     0.029 A 
ATOM     63  C   UNL A   1      42.584  28.705  33.474  1.00  0.00     0.049 A 
ATOM     64  H   UNL A   1      40.971  29.897  32.816  1.00  0.00     0.167 HD
ATOM     65  C   UNL A   1      42.199  30.298  35.334  1.00  0.00     0.074 A 
ATOM     66  C   UNL A   1      42.499  30.848  36.640  1.00  0.00     0.031 C 
ATOM     67  C   UNL A   1      42.877  29.274  34.762  1.00  0.00     0.037 A 
BRANCH  54  68
ATOM     68  C   UNL A   1      40.812  27.701  29.170  1.00  0.00     0.064 A 
ATOM     69  C   UNL A   1      39.941  26.618  28.989  1.00  0.00     0.173 A 
ATOM     70  C   UNL A   1      41.786  27.939  28.189  1.00  0.00     0.173 A 
ATOM     71  F   UNL A   1      39.003  26.346  29.908  1.00  0.00    -0.203 F 
ATOM     72  C   UNL A   1      40.049  25.795  27.871  1.00  0.00     0.198 A 
ATOM     73  C   UNL A   1      41.881  27.124  27.065  1.00  0.00     0.198 A 
ATOM     74  F   UNL A   1      42.641  28.965  28.321  1.00  0.00    -0.203 F 
ATOM     75  F   UNL A   1      39.225  24.749  27.729  1.00  0.00    -0.200 F 
ATOM     76  C   UNL A   1      41.015  26.052  26.908  1.00  0.00     0.200 A 
ATOM     77  F   UNL A   1      42.811  27.376  26.134  1.00  0.00    -0.200 F 
ATOM     78  F   UNL A   1      41.116  25.261  25.831  1.00  0.00    -0.200 F 
ENDBRANCH  54  68
BRANCH  55  79
ATOM     79  C   UNL A   1      39.518  33.811  36.919  1.00  0.00     0.064 A 
ATOM     80  C   UNL A   1      40.096  35.085  36.973  1.00  0.00     0.173 A 
ATOM     81  C   UNL A   1      38.733  33.398  38.004  1.00  0.00     0.173 A 
ATOM     82  F   UNL A   1      40.871  35.511  35.965  1.00  0.00    -0.203 F 
ATOM     83  C   UNL A   1      39.904  35.913  38.077  1.00  0.00     0.198 A 
ATOM     84  C   UNL A   1      38.529  34.232  39.100  1.00  0.00     0.198 A 
ATOM     85  F   UNL A   1      38.160  32.184  37.995  1.00  0.00    -0.203 F 
ATOM     86  F   UNL A   1      40.493  37.117  38.118  1.00  0.00    -0.200 F 
ATOM     87  C   UNL A   1      39.119  35.487  39.137  1.00  0.00     0.200 A 
ATOM     88  F   UNL A   1      37.765  33.820  40.121  1.00  0.00    -0.200 F 
ATOM     89  F   UNL A   1      38.935  36.285  40.199  1.00  0.00    -0.200 F 
ENDBRANCH  55  79
BRANCH  67  90
ATOM     90  C   UNL A   1      44.025  28.700  35.533  1.00  0.00     0.064 A 
ATOM     91  C   UNL A   1      43.837  27.653  36.446  1.00  0.00     0.173 A 
ATOM     92  C   UNL A   1      45.326  29.177  35.327  1.00  0.00     0.173 A 
ATOM     93  F   UNL A   1      42.606  27.178  36.683  1.00  0.00    -0.203 F 
ATOM     94  C   UNL A   1      44.917  27.110  37.136  1.00  0.00     0.198 A 
ATOM     95  C   UNL A   1      46.404  28.623  36.010  1.00  0.00     0.198 A 
ATOM     96  F   UNL A   1      45.551  30.179  34.465  1.00  0.00    -0.203 F 
ATOM     97  F   UNL A   1      44.715  26.127  38.024  1.00  0.00    -0.200 F 
ATOM     98  C   UNL A   1      46.199  27.591  36.915  1.00  0.00     0.200 A 
ATOM     99  F   UNL A   1      47.643  29.087  35.795  1.00  0.00    -0.200 F 
ATOM    100  F   UNL A   1      47.236  27.066  37.580  1.00  0.00    -0.200 F 
ENDBRANCH  67  90
ENDBRANCH  41  42
ENDBRANCH  33  36
ENDBRANCH  31  32
ENDBRANCH  30  31
ENDBRANCH  29  30
ENDBRANCH   1  29
TORSDOF 16
ENDMDL
MODEL 2
REMARK VINA RESULT:     -12.9      0.179      1.552
REMARK SMILES Cc1ccnc(C(=O)c2[nH]c3cc(F)ccc3c2CC(=O)NCCCCCCNC(=O)c2ccc(-c3c4nc(c(-c5c(F)c(F)c(F)c(F)c5F)c5ccc([nH]5)c(-c5c(F)c(F)c(F)c(F)c5F)c5nc(c(-c6c(F)c(F)c(F)c(F)c6F)c6ccc3[nH]6)C=C5)C=C4)cc2)c1
REMARK SMILES IDX 25 1 24 2 23 3 22 4 20 5 21 6 19 8 18 9 9 10 10 11 11 12
REMARK SMILES IDX 17 14 12 15 16 16 13 17 15 18 14 19 7 20 8 21 6 22 1 23 2 24
REMARK SMILES IDX 3 25 95 26 4 27 5 28 26 29 27 30 28 31 29 32 30 33 31 35
REMARK SMILES IDX 32 36 33 37 94 38 34 39 93 40 35 41 36 42 37 43 87 44 38 45
REMARK SMILES IDX 92 46 86 47 88 48 39 49 91 50 85 51 84 52 40 54 72 55 52 56
REMARK SMILES IDX 71 57 53 58 56 59 70 60 89 61 54 62 55 63 69 65 90 66 57 67
REMARK SMILES IDX 41 68 42 69 50 70 43 71 44 72 48 73 51 74 45 75 46 76 49 77
REMARK SMILES IDX 47 78 73 79 74 80 82 81 75 82 76 83 80 84 83 85 77 86 78 87
REMARK SMILES IDX 81 88 79 89 58 90 59 91 67 92 60 93 61 94 65 95 68 96 62 97
REMARK SMILES IDX 63 98 66 99 64 100
REMARK H PARENT 22 7 10 13 29 34 88 53 56 64
REMARK Flexibility Score: inf
ROOT
ATOM      1  C   UNL A   1      32.334  29.675  26.868  1.00  0.00     0.002 C 
ENDROOT
BRANCH   1   2
ATOM      2  C   UNL A   1      31.716  28.343  27.313  1.00  0.00     0.021 C 
BRANCH   2   3
ATOM      3  C   UNL A   1      31.951  27.175  26.355  1.00  0.00     0.116 C 
BRANCH   3   4
ATOM      4  N   UNL A   1      31.395  25.933  26.850  1.00  0.00    -0.356 N 
ATOM      5  C   UNL A   1      31.807  24.649  26.632  1.00  0.00     0.224 C 
ATOM      6  O   UNL A   1      31.243  23.744  27.251  1.00  0.00    -0.275 OA
ATOM      7  H   UNL A   1      30.604  26.027  27.428  1.00  0.00     0.163 HD
BRANCH   5   8
ATOM      8  C   UNL A   1      33.014  24.354  25.753  1.00  0.00     0.138 C 
BRANCH   8   9
ATOM      9  C   UNL A   1      32.729  23.575  24.499  1.00  0.00    -0.002 A 
ATOM     10  C   UNL A   1      32.488  24.079  23.225  1.00  0.00     0.093 A 
ATOM     11  N   UNL A   1      32.345  23.005  22.376  1.00  0.00    -0.351 N 
ATOM     12  C   UNL A   1      32.367  21.826  23.076  1.00  0.00     0.049 A 
ATOM     13  H   UNL A   1      32.241  23.075  21.400  1.00  0.00     0.167 HD
ATOM     14  C   UNL A   1      32.592  22.147  24.415  1.00  0.00     0.004 A 
ATOM     15  C   UNL A   1      32.217  20.509  22.628  1.00  0.00     0.066 A 
ATOM     16  C   UNL A   1      32.657  21.095  25.357  1.00  0.00     0.013 A 
ATOM     17  C   UNL A   1      32.292  19.498  23.584  1.00  0.00     0.125 A 
ATOM     18  C   UNL A   1      32.505  19.773  24.927  1.00  0.00     0.040 A 
ATOM     19  F   UNL A   1      32.155  18.223  23.193  1.00  0.00    -0.207 F 
BRANCH  10  20
ATOM     20  C   UNL A   1      32.468  25.457  22.762  1.00  0.00     0.227 C 
ATOM     21  O   UNL A   1      33.429  25.932  22.170  1.00  0.00    -0.285 OA
BRANCH  20  22
ATOM     22  C   UNL A   1      31.212  26.272  22.980  1.00  0.00     0.113 A 
ATOM     23  C   UNL A   1      29.765  29.740  22.429  1.00  0.00     0.044 C 
ATOM     24  C   UNL A   1      29.924  28.304  22.833  1.00  0.00    -0.047 A 
ATOM     25  C   UNL A   1      28.891  27.647  23.501  1.00  0.00     0.023 A 
ATOM     26  C   UNL A   1      31.097  27.595  22.551  1.00  0.00     0.036 A 
ATOM     27  C   UNL A   1      29.077  26.327  23.877  1.00  0.00     0.112 A 
ATOM     28  N   UNL A   1      30.213  25.637  23.647  1.00  0.00    -0.253 NA
ENDBRANCH  20  22
ENDBRANCH  10  20
ENDBRANCH   8   9
ENDBRANCH   5   8
ENDBRANCH   3   4
ENDBRANCH   2   3
ENDBRANCH   1   2
BRANCH   1  29
ATOM     29  C   UNL A   1      31.422  30.599  26.052  1.00  0.00     0.002 C 
BRANCH  29  30
ATOM     30  C   UNL A   1      31.374  32.063  26.501  1.00  0.00     0.021 C 
BRANCH  30  31
ATOM     31  C   UNL A   1      32.613  32.566  27.239  1.00  0.00     0.116 C 
BRANCH  31  32
ATOM     32  N   UNL A   1      32.502  33.963  27.626  1.00  0.00    -0.352 N 
ATOM     33  C   UNL A   1      33.191  34.665  28.583  1.00  0.00     0.251 C 
ATOM     34  H   UNL A   1      31.832  34.483  27.128  1.00  0.00     0.163 HD
ATOM     35  O   UNL A   1      32.852  35.811  28.866  1.00  0.00    -0.269 OA
BRANCH  33  36
ATOM     36  C   UNL A   1      34.335  34.051  29.298  1.00  0.00     0.039 A 
ATOM     37  C   UNL A   1      35.633  34.390  28.896  1.00  0.00     0.014 A 
ATOM     38  C   UNL A   1      34.143  33.111  30.314  1.00  0.00     0.014 A 
ATOM     39  C   UNL A   1      36.736  33.828  29.544  1.00  0.00     0.010 A 
ATOM     40  C   UNL A   1      35.245  32.578  30.985  1.00  0.00     0.010 A 
ATOM     41  C   UNL A   1      36.549  32.932  30.606  1.00  0.00    -0.014 A 
BRANCH  41  42
ATOM     42  C   UNL A   1      37.707  32.349  31.329  1.00  0.00     0.031 A 
ATOM     43  C   UNL A   1      38.484  31.218  30.721  1.00  0.00     0.074 A 
ATOM     44  C   UNL A   1      38.022  32.798  32.558  1.00  0.00     0.049 A 
ATOM     45  N   UNL A   1      39.450  30.504  31.242  1.00  0.00    -0.248 NA
ATOM     46  C   UNL A   1      38.115  30.826  29.353  1.00  0.00     0.031 C 
ATOM     47  C   UNL A   1      37.332  33.875  33.267  1.00  0.00     0.029 A 
ATOM     48  N   UNL A   1      38.998  32.391  33.433  1.00  0.00    -0.354 N 
ATOM     49  C   UNL A   1      39.787  29.564  30.278  1.00  0.00     0.074 A 
ATOM     50  C   UNL A   1      38.915  29.789  29.144  1.00  0.00     0.031 C 
ATOM     51  C   UNL A   1      37.906  34.045  34.470  1.00  0.00     0.029 A 
ATOM     52  C   UNL A   1      38.986  33.074  34.624  1.00  0.00     0.049 A 
ATOM     53  H   UNL A   1      39.645  31.678  33.228  1.00  0.00     0.167 HD
ATOM     54  C   UNL A   1      40.739  28.602  30.334  1.00  0.00     0.037 A 
ATOM     55  C   UNL A   1      39.753  32.925  35.721  1.00  0.00     0.037 A 
ATOM     56  C   UNL A   1      41.629  28.393  31.445  1.00  0.00     0.049 A 
ATOM     57  C   UNL A   1      40.832  31.880  35.738  1.00  0.00     0.074 A 
ATOM     58  C   UNL A   1      42.636  27.453  31.581  1.00  0.00     0.029 A 
ATOM     59  N   UNL A   1      41.622  29.144  32.609  1.00  0.00    -0.354 N 
ATOM     60  N   UNL A   1      41.146  31.004  34.817  1.00  0.00    -0.248 NA
ATOM     61  C   UNL A   1      41.666  31.807  36.946  1.00  0.00     0.031 C 
ATOM     62  C   UNL A   1      43.235  27.630  32.834  1.00  0.00     0.029 A 
ATOM     63  C   UNL A   1      42.612  28.692  33.467  1.00  0.00     0.049 A 
ATOM     64  H   UNL A   1      41.007  29.889  32.798  1.00  0.00     0.167 HD
ATOM     65  C   UNL A   1      42.219  30.286  35.325  1.00  0.00     0.074 A 
ATOM     66  C   UNL A   1      42.511  30.835  36.633  1.00  0.00     0.031 C 
ATOM     67  C   UNL A   1      42.898  29.260  34.757  1.00  0.00     0.037 A 
BRANCH  54  68
ATOM     68  C   UNL A   1      40.867  27.694  29.151  1.00  0.00     0.064 A 
ATOM     69  C   UNL A   1      39.995  26.614  28.964  1.00  0.00     0.173 A 
ATOM     70  C   UNL A   1      41.848  27.930  28.177  1.00  0.00     0.173 A 
ATOM     71  F   UNL A   1      39.050  26.343  29.877  1.00  0.00    -0.203 F 
ATOM     72  C   UNL A   1      40.108  25.790  27.846  1.00  0.00     0.198 A 
ATOM     73  C   UNL A   1      41.948  27.115  27.053  1.00  0.00     0.198 A 
ATOM     74  F   UNL A   1      42.704  28.954  28.314  1.00  0.00    -0.203 F 
ATOM     75  F   UNL A   1      39.282  24.746  27.699  1.00  0.00    -0.200 F 
ATOM     76  C   UNL A   1      41.081  26.045  26.890  1.00  0.00     0.200 A 
ATOM     77  F   UNL A   1      42.885  27.365  26.128  1.00  0.00    -0.200 F 
ATOM     78  F   UNL A   1      41.187  25.254  25.814  1.00  0.00    -0.200 F 
ENDBRANCH  54  68
BRANCH  55  79
ATOM     79  C   UNL A   1      39.536  33.806  36.892  1.00  0.00     0.064 A 
ATOM     80  C   UNL A   1      38.740  33.387  37.966  1.00  0.00     0.173 A 
ATOM     81  C   UNL A   1      40.120  35.078  36.963  1.00  0.00     0.173 A 
ATOM     82  F   UNL A   1      38.145  32.185  37.929  1.00  0.00    -0.203 F 
ATOM     83  C   UNL A   1      38.528  34.214  39.067  1.00  0.00     0.198 A 
ATOM     84  C   UNL A   1      39.920  35.898  38.071  1.00  0.00     0.198 A 
ATOM     85  F   UNL A   1      40.889  35.520  35.957  1.00  0.00    -0.203 F 
ATOM     86  F   UNL A   1      37.739  33.802  40.068  1.00  0.00    -0.200 F 
ATOM     87  C   UNL A   1      39.121  35.466  39.119  1.00  0.00     0.200 A 
ATOM     88  F   UNL A   1      40.499  37.105  38.122  1.00  0.00    -0.200 F 
ATOM     89  F   UNL A   1      38.917  36.261  40.179  1.00  0.00    -0.200 F 
ENDBRANCH  55  79
BRANCH  67  90
ATOM     90  C   UNL A   1      44.039  28.683  35.536  1.00  0.00     0.064 A 
ATOM     91  C   UNL A   1      45.347  29.158  35.370  1.00  0.00     0.173 A 
ATOM     92  C   UNL A   1      43.812  27.675  36.483  1.00  0.00     0.173 A 
ATOM     93  F   UNL A   1      45.608  30.111  34.464  1.00  0.00    -0.203 F 
ATOM     94  C   UNL A   1      46.395  28.632  36.121  1.00  0.00     0.198 A 
ATOM     95  C   UNL A   1      44.861  27.161  37.240  1.00  0.00     0.198 A 
ATOM     96  F   UNL A   1      42.577  27.191  36.674  1.00  0.00    -0.203 F 
ATOM     97  F   UNL A   1      47.643  29.079  35.929  1.00  0.00    -0.200 F 
ATOM     98  C   UNL A   1      46.151  27.638  37.057  1.00  0.00     0.200 A 
ATOM     99  F   UNL A   1      44.625  26.202  38.147  1.00  0.00    -0.200 F 
ATOM    100  F   UNL A   1      47.161  27.134  37.778  1.00  0.00    -0.200 F 
ENDBRANCH  67  90
ENDBRANCH  41  42
ENDBRANCH  33  36
ENDBRANCH  31  32
ENDBRANCH  30  31
ENDBRANCH  29  30
ENDBRANCH   1  29
TORSDOF 16
ENDMDL
MODEL 3
REMARK VINA RESULT:     -12.8      3.825      9.043
REMARK SMILES Cc1ccnc(C(=O)c2[nH]c3cc(F)ccc3c2CC(=O)NCCCCCCNC(=O)c2ccc(-c3c4nc(c(-c5c(F)c(F)c(F)c(F)c5F)c5ccc([nH]5)c(-c5c(F)c(F)c(F)c(F)c5F)c5nc(c(-c6c(F)c(F)c(F)c(F)c6F)c6ccc3[nH]6)C=C5)C=C4)cc2)c1
REMARK SMILES IDX 25 1 24 2 23 3 22 4 20 5 21 6 19 8 18 9 9 10 10 11 11 12
REMARK SMILES IDX 17 14 12 15 16 16 13 17 15 18 14 19 7 20 8 21 6 22 1 23 2 24
REMARK SMILES IDX 3 25 95 26 4 27 5 28 26 29 27 30 28 31 29 32 30 33 31 35
REMARK SMILES IDX 32 36 33 37 94 38 34 39 93 40 35 41 36 42 37 43 87 44 38 45
REMARK SMILES IDX 92 46 86 47 88 48 39 49 91 50 85 51 84 52 40 54 72 55 52 56
REMARK SMILES IDX 71 57 53 58 56 59 70 60 89 61 54 62 55 63 69 65 90 66 57 67
REMARK SMILES IDX 41 68 42 69 50 70 43 71 44 72 48 73 51 74 45 75 46 76 49 77
REMARK SMILES IDX 47 78 73 79 74 80 82 81 75 82 76 83 80 84 83 85 77 86 78 87
REMARK SMILES IDX 81 88 79 89 58 90 59 91 67 92 60 93 61 94 65 95 68 96 62 97
REMARK SMILES IDX 63 98 66 99 64 100
REMARK H PARENT 22 7 10 13 29 34 88 53 56 64
REMARK Flexibility Score: inf
ROOT
ATOM      1  C   UNL A   1      30.911  27.322  24.883  1.00  0.00     0.002 C 
ENDROOT
BRANCH   1   2
ATOM      2  C   UNL A   1      30.658  26.469  26.133  1.00  0.00     0.021 C 
BRANCH   2   3
ATOM      3  C   UNL A   1      30.435  24.982  25.860  1.00  0.00     0.116 C 
BRANCH   3   4
ATOM      4  N   UNL A   1      31.059  24.136  26.856  1.00  0.00    -0.356 N 
ATOM      5  C   UNL A   1      32.161  23.336  26.750  1.00  0.00     0.224 C 
ATOM      6  O   UNL A   1      32.580  22.784  27.771  1.00  0.00    -0.275 OA
ATOM      7  H   UNL A   1      30.626  24.137  27.739  1.00  0.00     0.163 HD
BRANCH   5   8
ATOM      8  C   UNL A   1      32.928  23.231  25.440  1.00  0.00     0.138 C 
BRANCH   8   9
ATOM      9  C   UNL A   1      34.085  22.271  25.440  1.00  0.00    -0.002 A 
ATOM     10  C   UNL A   1      34.038  20.888  25.303  1.00  0.00     0.093 A 
ATOM     11  N   UNL A   1      35.336  20.429  25.293  1.00  0.00    -0.351 N 
ATOM     12  C   UNL A   1      36.215  21.453  25.538  1.00  0.00     0.049 A 
ATOM     13  H   UNL A   1      35.597  19.493  25.132  1.00  0.00     0.167 HD
ATOM     14  C   UNL A   1      35.463  22.622  25.650  1.00  0.00     0.004 A 
ATOM     15  C   UNL A   1      37.609  21.434  25.658  1.00  0.00     0.066 A 
ATOM     16  C   UNL A   1      36.140  23.835  25.908  1.00  0.00     0.013 A 
ATOM     17  C   UNL A   1      38.244  22.650  25.907  1.00  0.00     0.125 A 
ATOM     18  C   UNL A   1      37.534  23.835  26.035  1.00  0.00     0.040 A 
ATOM     19  F   UNL A   1      39.578  22.673  26.026  1.00  0.00    -0.207 F 
BRANCH  10  20
ATOM     20  C   UNL A   1      32.893  20.014  25.104  1.00  0.00     0.227 C 
ATOM     21  O   UNL A   1      31.754  20.467  25.100  1.00  0.00    -0.285 OA
BRANCH  20  22
ATOM     22  C   UNL A   1      33.144  18.544  24.849  1.00  0.00     0.113 A 
ATOM     23  C   UNL A   1      32.240  15.089  26.141  1.00  0.00     0.044 C 
ATOM     24  C   UNL A   1      32.845  16.203  25.339  1.00  0.00    -0.047 A 
ATOM     25  C   UNL A   1      33.743  15.918  24.311  1.00  0.00     0.023 A 
ATOM     26  C   UNL A   1      32.526  17.541  25.598  1.00  0.00     0.036 A 
ATOM     27  C   UNL A   1      34.298  16.970  23.603  1.00  0.00     0.112 A 
ATOM     28  N   UNL A   1      34.032  18.268  23.859  1.00  0.00    -0.253 NA
ENDBRANCH  20  22
ENDBRANCH  10  20
ENDBRANCH   8   9
ENDBRANCH   5   8
ENDBRANCH   3   4
ENDBRANCH   2   3
ENDBRANCH   1   2
BRANCH   1  29
ATOM     29  C   UNL A   1      32.057  28.336  24.984  1.00  0.00     0.002 C 
BRANCH  29  30
ATOM     30  C   UNL A   1      33.410  27.777  25.436  1.00  0.00     0.021 C 
BRANCH  30  31
ATOM     31  C   UNL A   1      33.831  28.142  26.859  1.00  0.00     0.116 C 
BRANCH  31  32
ATOM     32  N   UNL A   1      33.651  29.556  27.147  1.00  0.00    -0.352 N 
ATOM     33  C   UNL A   1      34.488  30.433  27.788  1.00  0.00     0.251 C 
ATOM     34  H   UNL A   1      32.800  29.941  26.836  1.00  0.00     0.163 HD
ATOM     35  O   UNL A   1      34.095  31.564  28.068  1.00  0.00    -0.269 OA
BRANCH  33  36
ATOM     36  C   UNL A   1      35.862  30.031  28.168  1.00  0.00     0.039 A 
ATOM     37  C   UNL A   1      36.882  30.159  27.218  1.00  0.00     0.014 A 
ATOM     38  C   UNL A   1      36.144  29.482  29.423  1.00  0.00     0.014 A 
ATOM     39  C   UNL A   1      38.190  29.786  27.539  1.00  0.00     0.010 A 
ATOM     40  C   UNL A   1      37.456  29.143  29.756  1.00  0.00     0.010 A 
ATOM     41  C   UNL A   1      38.490  29.292  28.818  1.00  0.00    -0.014 A 
BRANCH  41  42
ATOM     42  C   UNL A   1      39.877  28.921  29.189  1.00  0.00     0.031 A 
ATOM     43  C   UNL A   1      40.722  29.867  29.993  1.00  0.00     0.074 A 
ATOM     44  C   UNL A   1      40.398  27.759  28.753  1.00  0.00     0.049 A 
ATOM     45  N   UNL A   1      41.987  29.774  30.318  1.00  0.00    -0.248 NA
ATOM     46  C   UNL A   1      40.062  31.087  30.481  1.00  0.00     0.031 C 
ATOM     47  C   UNL A   1      39.690  26.765  27.947  1.00  0.00     0.029 A 
ATOM     48  N   UNL A   1      41.652  27.226  28.917  1.00  0.00    -0.354 N 
ATOM     49  C   UNL A   1      42.281  30.932  31.025  1.00  0.00     0.074 A 
ATOM     50  C   UNL A   1      41.066  31.719  31.073  1.00  0.00     0.031 C 
ATOM     51  C   UNL A   1      40.519  25.741  27.686  1.00  0.00     0.029 A 
ATOM     52  C   UNL A   1      41.822  26.019  28.285  1.00  0.00     0.049 A 
ATOM     53  H   UNL A   1      42.362  27.666  29.437  1.00  0.00     0.167 HD
ATOM     54  C   UNL A   1      43.457  31.302  31.586  1.00  0.00     0.037 A 
ATOM     55  C   UNL A   1      42.910  25.232  28.191  1.00  0.00     0.037 A 
ATOM     56  C   UNL A   1      44.658  30.511  31.569  1.00  0.00     0.049 A 
ATOM     57  C   UNL A   1      44.189  25.646  28.862  1.00  0.00     0.074 A 
ATOM     58  C   UNL A   1      45.891  30.800  32.127  1.00  0.00     0.029 A 
ATOM     59  N   UNL A   1      44.772  29.268  30.969  1.00  0.00    -0.354 N 
ATOM     60  N   UNL A   1      44.451  26.738  29.534  1.00  0.00    -0.248 NA
ATOM     61  C   UNL A   1      45.322  24.714  28.763  1.00  0.00     0.031 C 
ATOM     62  C   UNL A   1      46.756  29.733  31.856  1.00  0.00     0.029 A 
ATOM     63  C   UNL A   1      46.054  28.774  31.146  1.00  0.00     0.049 A 
ATOM     64  H   UNL A   1      44.049  28.804  30.487  1.00  0.00     0.167 HD
ATOM     65  C   UNL A   1      45.769  26.622  29.950  1.00  0.00     0.074 A 
ATOM     66  C   UNL A   1      46.253  25.347  29.463  1.00  0.00     0.031 C 
ATOM     67  C   UNL A   1      46.512  27.497  30.669  1.00  0.00     0.037 A 
BRANCH  54  68
ATOM     68  C   UNL A   1      43.501  32.633  32.269  1.00  0.00     0.064 A 
ATOM     69  C   UNL A   1      43.790  33.807  31.560  1.00  0.00     0.173 A 
ATOM     70  C   UNL A   1      43.216  32.740  33.638  1.00  0.00     0.173 A 
ATOM     71  F   UNL A   1      44.081  33.751  30.252  1.00  0.00    -0.203 F 
ATOM     72  C   UNL A   1      43.804  35.043  32.202  1.00  0.00     0.198 A 
ATOM     73  C   UNL A   1      43.216  33.978  34.273  1.00  0.00     0.198 A 
ATOM     74  F   UNL A   1      42.933  31.642  34.357  1.00  0.00    -0.203 F 
ATOM     75  F   UNL A   1      44.110  36.150  31.513  1.00  0.00    -0.200 F 
ATOM     76  C   UNL A   1      43.512  35.128  33.556  1.00  0.00     0.200 A 
ATOM     77  F   UNL A   1      42.929  34.059  35.579  1.00  0.00    -0.200 F 
ATOM     78  F   UNL A   1      43.524  36.318  34.171  1.00  0.00    -0.200 F 
ENDBRANCH  54  68
BRANCH  55  79
ATOM     79  C   UNL A   1      42.829  23.956  27.441  1.00  0.00     0.064 A 
ATOM     80  C   UNL A   1      43.197  23.894  26.091  1.00  0.00     0.173 A 
ATOM     81  C   UNL A   1      42.386  22.778  28.058  1.00  0.00     0.173 A 
ATOM     82  F   UNL A   1      43.606  25.003  25.457  1.00  0.00    -0.203 F 
ATOM     83  C   UNL A   1      43.117  22.698  25.381  1.00  0.00     0.198 A 
ATOM     84  C   UNL A   1      42.321  21.580  27.351  1.00  0.00     0.198 A 
ATOM     85  F   UNL A   1      42.023  22.792  29.349  1.00  0.00    -0.203 F 
ATOM     86  F   UNL A   1      43.446  22.670  24.082  1.00  0.00    -0.200 F 
ATOM     87  C   UNL A   1      42.682  21.542  26.012  1.00  0.00     0.200 A 
ATOM     88  F   UNL A   1      41.907  20.464  27.965  1.00  0.00    -0.200 F 
ATOM     89  F   UNL A   1      42.605  20.392  25.328  1.00  0.00    -0.200 F 
ENDBRANCH  55  79
BRANCH  67  90
ATOM     90  C   UNL A   1      47.917  27.094  30.994  1.00  0.00     0.064 A 
ATOM     91  C   UNL A   1      48.222  26.411  32.179  1.00  0.00     0.173 A 
ATOM     92  C   UNL A   1      48.957  27.360  30.093  1.00  0.00     0.173 A 
ATOM     93  F   UNL A   1      47.258  26.149  33.074  1.00  0.00    -0.203 F 
ATOM     94  C   UNL A   1      49.528  26.016  32.456  1.00  0.00     0.198 A 
ATOM     95  C   UNL A   1      50.259  26.954  30.369  1.00  0.00     0.198 A 
ATOM     96  F   UNL A   1      48.710  28.013  28.948  1.00  0.00    -0.203 F 
ATOM     97  F   UNL A   1      49.805  25.388  33.606  1.00  0.00    -0.200 F 
ATOM     98  C   UNL A   1      50.544  26.284  31.551  1.00  0.00     0.200 A 
ATOM     99  F   UNL A   1      51.240  27.210  29.492  1.00  0.00    -0.200 F 
ATOM    100  F   UNL A   1      51.799  25.903  31.820  1.00  0.00    -0.200 F 
ENDBRANCH  67  90
ENDBRANCH  41  42
ENDBRANCH  33  36
ENDBRANCH  31  32
ENDBRANCH  30  31
ENDBRANCH  29  30
ENDBRANCH   1  29
TORSDOF 16
ENDMDL
