MODEL 1
REMARK VINA RESULT:     -10.9      0.000      0.000
REMARK SMILES CC(C)(C)OC(=O)N1CC[C@@H]2CO[C@@H](CC(=O)NCCCCCCNC(=O)c3ccc(-c4c5nc(c(-c6c(F)c(F)c(F)c(F)c6F)c6ccc([nH]6)c(-c6c(F)c(F)c(F)c(F)c6F)c6nc(c(-c7c(F)c(F)c(F)c(F)c7F)c7ccc4[nH]7)C=C6)C=C5)cc3)[C@@H]2C1
REMARK SMILES IDX 20 1 19 2 18 3 16 4 17 5 15 7 14 8 8 9 9 10 92 11 10 12
REMARK SMILES IDX 91 13 11 14 12 15 13 16 6 17 7 18 5 19 2 20 1 21 3 22 4 23
REMARK SMILES IDX 21 24 22 25 23 26 24 27 25 28 26 29 27 31 28 32 29 33 90 34
REMARK SMILES IDX 30 35 89 36 31 37 32 38 33 39 83 40 34 41 88 42 82 43 84 44
REMARK SMILES IDX 35 45 87 46 81 47 80 48 36 50 68 51 48 52 67 53 49 54 52 55
REMARK SMILES IDX 66 56 85 57 50 58 51 59 65 61 86 62 53 63 37 64 38 65 46 66
REMARK SMILES IDX 39 67 40 68 44 69 47 70 41 71 42 72 45 73 43 74 69 75 70 76
REMARK SMILES IDX 78 77 71 78 72 79 76 80 79 81 73 82 74 83 77 84 75 85 54 86
REMARK SMILES IDX 55 87 63 88 56 89 57 90 61 91 64 92 58 93 59 94 62 95 60 96
REMARK H PARENT 18 6 25 30 84 49 52 60
REMARK Flexibility Score: inf
ROOT
ATOM      1  C   UNL A   1      41.372  21.803  26.232  1.00  0.00     0.021 C 
ENDROOT
BRANCH   1   2
ATOM      2  C   UNL A   1      39.880  21.932  26.553  1.00  0.00     0.116 C 
BRANCH   2   3
ATOM      3  N   UNL A   1      39.567  23.220  27.147  1.00  0.00    -0.356 N 
ATOM      4  C   UNL A   1      38.641  24.146  26.758  1.00  0.00     0.222 C 
ATOM      5  O   UNL A   1      38.613  25.236  27.332  1.00  0.00    -0.275 OA
ATOM      6  H   UNL A   1      40.096  23.460  27.941  1.00  0.00     0.163 HD
BRANCH   4   7
ATOM      7  C   UNL A   1      37.641  23.807  25.673  1.00  0.00     0.132 C 
BRANCH   7   8
ATOM      8  C   UNL A   1      36.278  23.277  26.129  1.00  0.00     0.132 C 
ATOM      9  N   UNL A   1      32.568  23.540  25.492  1.00  0.00    -0.308 N 
ATOM     10  C   UNL A   1      32.512  22.478  24.503  1.00  0.00     0.123 C 
ATOM     11  C   UNL A   1      33.823  23.705  26.213  1.00  0.00     0.129 C 
ATOM     12  C   UNL A   1      33.666  22.590  23.516  1.00  0.00     0.028 C 
ATOM     13  C   UNL A   1      35.071  23.740  25.311  1.00  0.00     0.044 C 
ATOM     14  C   UNL A   1      35.023  22.702  24.204  1.00  0.00     0.024 C 
ATOM     15  C   UNL A   1      35.488  21.436  24.910  1.00  0.00     0.164 C 
ATOM     16  O   UNL A   1      36.212  21.843  26.087  1.00  0.00    -0.377 OA
BRANCH   9  17
ATOM     17  C   UNL A   1      31.378  24.062  25.975  1.00  0.00     0.410 C 
ATOM     18  O   UNL A   1      31.110  24.137  27.169  1.00  0.00    -0.224 OA
BRANCH  17  19
ATOM     19  O   UNL A   1      30.550  24.449  24.973  1.00  0.00    -0.444 OA
BRANCH  19  20
ATOM     20  C   UNL A   1      30.563  25.800  24.441  1.00  0.00     0.106 C 
ATOM     21  C   UNL A   1      31.291  25.675  23.095  1.00  0.00     0.056 C 
ATOM     22  C   UNL A   1      31.376  26.695  25.378  1.00  0.00     0.056 C 
ATOM     23  C   UNL A   1      29.167  26.378  24.176  1.00  0.00     0.056 C 
ENDBRANCH  19  20
ENDBRANCH  17  19
ENDBRANCH   9  17
ENDBRANCH   7   8
ENDBRANCH   4   7
ENDBRANCH   2   3
ENDBRANCH   1   2
BRANCH   1  24
ATOM     24  C   UNL A   1      42.217  21.178  27.346  1.00  0.00     0.002 C 
BRANCH  24  25
ATOM     25  C   UNL A   1      41.971  19.689  27.596  1.00  0.00     0.002 C 
BRANCH  25  26
ATOM     26  C   UNL A   1      42.780  18.733  26.715  1.00  0.00     0.021 C 
BRANCH  26  27
ATOM     27  C   UNL A   1      42.791  19.069  25.225  1.00  0.00     0.116 C 
BRANCH  27  28
ATOM     28  N   UNL A   1      44.043  18.711  24.580  1.00  0.00    -0.352 N 
ATOM     29  C   UNL A   1      45.117  19.505  24.260  1.00  0.00     0.251 C 
ATOM     30  H   UNL A   1      44.135  17.762  24.337  1.00  0.00     0.163 HD
ATOM     31  O   UNL A   1      46.037  19.058  23.583  1.00  0.00    -0.269 OA
BRANCH  29  32
ATOM     32  C   UNL A   1      45.156  20.913  24.709  1.00  0.00     0.039 A 
ATOM     33  C   UNL A   1      45.566  21.190  26.016  1.00  0.00     0.014 A 
ATOM     34  C   UNL A   1      44.776  21.955  23.856  1.00  0.00     0.014 A 
ATOM     35  C   UNL A   1      45.654  22.514  26.451  1.00  0.00     0.010 A 
ATOM     36  C   UNL A   1      44.918  23.278  24.272  1.00  0.00     0.010 A 
ATOM     37  C   UNL A   1      45.359  23.569  25.573  1.00  0.00    -0.014 A 
BRANCH  37  38
ATOM     38  C   UNL A   1      45.505  24.985  25.997  1.00  0.00     0.031 A 
ATOM     39  C   UNL A   1      46.843  25.662  25.926  1.00  0.00     0.074 A 
ATOM     40  C   UNL A   1      44.443  25.638  26.506  1.00  0.00     0.049 A 
ATOM     41  N   UNL A   1      47.185  26.863  26.319  1.00  0.00    -0.248 NA
ATOM     42  C   UNL A   1      47.951  24.877  25.361  1.00  0.00     0.031 C 
ATOM     43  C   UNL A   1      43.102  25.076  26.666  1.00  0.00     0.029 A 
ATOM     44  N   UNL A   1      44.330  26.915  26.996  1.00  0.00    -0.354 N 
ATOM     45  C   UNL A   1      48.546  26.970  26.067  1.00  0.00     0.074 A 
ATOM     46  C   UNL A   1      48.977  25.700  25.525  1.00  0.00     0.031 C 
ATOM     47  C   UNL A   1      42.297  26.009  27.202  1.00  0.00     0.029 A 
ATOM     48  C   UNL A   1      43.071  27.221  27.451  1.00  0.00     0.049 A 
ATOM     49  H   UNL A   1      45.081  27.552  27.019  1.00  0.00     0.167 HD
ATOM     50  C   UNL A   1      49.358  28.037  26.256  1.00  0.00     0.037 A 
ATOM     51  C   UNL A   1      42.597  28.350  28.010  1.00  0.00     0.037 A 
ATOM     52  C   UNL A   1      48.923  29.311  26.763  1.00  0.00     0.049 A 
ATOM     53  C   UNL A   1      43.518  29.524  28.196  1.00  0.00     0.074 A 
ATOM     54  C   UNL A   1      49.657  30.474  26.926  1.00  0.00     0.029 A 
ATOM     55  N   UNL A   1      47.633  29.591  27.189  1.00  0.00    -0.354 N 
ATOM     56  N   UNL A   1      44.788  29.633  27.897  1.00  0.00    -0.248 NA
ATOM     57  C   UNL A   1      42.935  30.735  28.792  1.00  0.00     0.031 C 
ATOM     58  C   UNL A   1      48.820  31.446  27.482  1.00  0.00     0.029 A 
ATOM     59  C   UNL A   1      47.555  30.902  27.630  1.00  0.00     0.049 A 
ATOM     60  H   UNL A   1      46.884  28.952  27.180  1.00  0.00     0.167 HD
ATOM     61  C   UNL A   1      45.152  30.927  28.244  1.00  0.00     0.074 A 
ATOM     62  C   UNL A   1      43.964  31.570  28.766  1.00  0.00     0.031 C 
ATOM     63  C   UNL A   1      46.362  31.529  28.138  1.00  0.00     0.037 A 
BRANCH  50  64
ATOM     64  C   UNL A   1      50.808  27.873  25.905  1.00  0.00     0.064 A 
ATOM     65  C   UNL A   1      51.265  28.018  24.588  1.00  0.00     0.173 A 
ATOM     66  C   UNL A   1      51.756  27.605  26.905  1.00  0.00     0.173 A 
ATOM     67  F   UNL A   1      50.396  28.262  23.595  1.00  0.00    -0.203 F 
ATOM     68  C   UNL A   1      52.614  27.875  24.278  1.00  0.00     0.198 A 
ATOM     69  C   UNL A   1      53.108  27.488  26.596  1.00  0.00     0.198 A 
ATOM     70  F   UNL A   1      51.371  27.463  28.182  1.00  0.00    -0.203 F 
ATOM     71  F   UNL A   1      53.023  27.975  23.006  1.00  0.00    -0.200 F 
ATOM     72  C   UNL A   1      53.536  27.617  25.282  1.00  0.00     0.200 A 
ATOM     73  F   UNL A   1      53.998  27.250  27.568  1.00  0.00    -0.200 F 
ATOM     74  F   UNL A   1      54.836  27.486  24.984  1.00  0.00    -0.200 F 
ENDBRANCH  50  64
BRANCH  51  75
ATOM     75  C   UNL A   1      41.169  28.435  28.408  1.00  0.00     0.064 A 
ATOM     76  C   UNL A   1      40.753  28.007  29.675  1.00  0.00     0.173 A 
ATOM     77  C   UNL A   1      40.196  28.942  27.535  1.00  0.00     0.173 A 
ATOM     78  F   UNL A   1      41.646  27.495  30.536  1.00  0.00    -0.203 F 
ATOM     79  C   UNL A   1      39.413  28.068  30.051  1.00  0.00     0.198 A 
ATOM     80  C   UNL A   1      38.860  29.024  27.920  1.00  0.00     0.198 A 
ATOM     81  F   UNL A   1      40.546  29.367  26.312  1.00  0.00    -0.203 F 
ATOM     82  F   UNL A   1      39.035  27.617  31.255  1.00  0.00    -0.200 F 
ATOM     83  C   UNL A   1      38.468  28.582  29.175  1.00  0.00     0.200 A 
ATOM     84  F   UNL A   1      37.951  29.531  27.076  1.00  0.00    -0.200 F 
ATOM     85  F   UNL A   1      37.179  28.643  29.538  1.00  0.00    -0.200 F 
ENDBRANCH  51  75
BRANCH  63  86
ATOM     86  C   UNL A   1      46.455  32.962  28.567  1.00  0.00     0.064 A 
ATOM     87  C   UNL A   1      46.149  34.011  27.687  1.00  0.00     0.173 A 
ATOM     88  C   UNL A   1      46.815  33.288  29.882  1.00  0.00     0.173 A 
ATOM     89  F   UNL A   1      45.816  33.749  26.414  1.00  0.00    -0.203 F 
ATOM     90  C   UNL A   1      46.221  35.337  28.105  1.00  0.00     0.198 A 
ATOM     91  C   UNL A   1      46.864  34.614  30.303  1.00  0.00     0.198 A 
ATOM     92  F   UNL A   1      47.112  32.320  30.762  1.00  0.00    -0.203 F 
ATOM     93  F   UNL A   1      45.965  36.326  27.237  1.00  0.00    -0.200 F 
ATOM     94  C   UNL A   1      46.572  35.637  29.413  1.00  0.00     0.200 A 
ATOM     95  F   UNL A   1      47.193  34.902  31.570  1.00  0.00    -0.200 F 
ATOM     96  F   UNL A   1      46.637  36.914  29.815  1.00  0.00    -0.200 F 
ENDBRANCH  63  86
ENDBRANCH  37  38
ENDBRANCH  29  32
ENDBRANCH  27  28
ENDBRANCH  26  27
ENDBRANCH  25  26
ENDBRANCH  24  25
ENDBRANCH   1  24
TORSDOF 17
ENDMDL
MODEL 2
REMARK VINA RESULT:     -10.3      5.108     11.354
REMARK SMILES CC(C)(C)OC(=O)N1CC[C@@H]2CO[C@@H](CC(=O)NCCCCCCNC(=O)c3ccc(-c4c5nc(c(-c6c(F)c(F)c(F)c(F)c6F)c6ccc([nH]6)c(-c6c(F)c(F)c(F)c(F)c6F)c6nc(c(-c7c(F)c(F)c(F)c(F)c7F)c7ccc4[nH]7)C=C6)C=C5)cc3)[C@@H]2C1
REMARK SMILES IDX 20 1 19 2 18 3 16 4 17 5 15 7 14 8 8 9 9 10 92 11 10 12
REMARK SMILES IDX 91 13 11 14 12 15 13 16 6 17 7 18 5 19 2 20 1 21 3 22 4 23
REMARK SMILES IDX 21 24 22 25 23 26 24 27 25 28 26 29 27 31 28 32 29 33 90 34
REMARK SMILES IDX 30 35 89 36 31 37 32 38 33 39 83 40 34 41 88 42 82 43 84 44
REMARK SMILES IDX 35 45 87 46 81 47 80 48 36 50 68 51 48 52 67 53 49 54 52 55
REMARK SMILES IDX 66 56 85 57 50 58 51 59 65 61 86 62 53 63 37 64 38 65 46 66
REMARK SMILES IDX 39 67 40 68 44 69 47 70 41 71 42 72 45 73 43 74 69 75 70 76
REMARK SMILES IDX 78 77 71 78 72 79 76 80 79 81 73 82 74 83 77 84 75 85 54 86
REMARK SMILES IDX 55 87 63 88 56 89 57 90 61 91 64 92 58 93 59 94 62 95 60 96
REMARK H PARENT 18 6 25 30 84 49 52 60
REMARK Flexibility Score: inf
ROOT
ATOM      1  C   UNL A   1      37.962  32.492  32.741  1.00  0.00     0.021 C 
ENDROOT
BRANCH   1   2
ATOM      2  C   UNL A   1      37.833  31.031  33.179  1.00  0.00     0.116 C 
BRANCH   2   3
ATOM      3  N   UNL A   1      37.835  30.901  34.627  1.00  0.00    -0.356 N 
ATOM      4  C   UNL A   1      38.812  30.417  35.448  1.00  0.00     0.222 C 
ATOM      5  O   UNL A   1      38.568  30.281  36.647  1.00  0.00    -0.275 OA
ATOM      6  H   UNL A   1      37.015  31.205  35.080  1.00  0.00     0.163 HD
BRANCH   4   7
ATOM      7  C   UNL A   1      40.183  30.101  34.888  1.00  0.00     0.132 C 
BRANCH   7   8
ATOM      8  C   UNL A   1      40.955  28.957  35.552  1.00  0.00     0.132 C 
ATOM      9  N   UNL A   1      43.212  26.020  34.833  1.00  0.00    -0.308 N 
ATOM     10  C   UNL A   1      44.457  26.759  34.946  1.00  0.00     0.123 C 
ATOM     11  C   UNL A   1      41.995  26.713  35.231  1.00  0.00     0.129 C 
ATOM     12  C   UNL A   1      44.364  28.098  34.226  1.00  0.00     0.028 C 
ATOM     13  C   UNL A   1      41.843  28.122  34.627  1.00  0.00     0.044 C 
ATOM     14  C   UNL A   1      43.142  28.909  34.643  1.00  0.00     0.024 C 
ATOM     15  C   UNL A   1      43.189  29.451  36.064  1.00  0.00     0.164 C 
ATOM     16  O   UNL A   1      41.843  29.424  36.578  1.00  0.00    -0.377 OA
BRANCH   9  17
ATOM     17  C   UNL A   1      43.266  24.637  34.745  1.00  0.00     0.410 C 
ATOM     18  O   UNL A   1      42.323  23.906  35.025  1.00  0.00    -0.224 OA
BRANCH  17  19
ATOM     19  O   UNL A   1      44.485  24.202  34.339  1.00  0.00    -0.444 OA
BRANCH  19  20
ATOM     20  C   UNL A   1      45.230  23.199  35.078  1.00  0.00     0.106 C 
ATOM     21  C   UNL A   1      46.685  23.391  34.625  1.00  0.00     0.056 C 
ATOM     22  C   UNL A   1      44.745  21.810  34.657  1.00  0.00     0.056 C 
ATOM     23  C   UNL A   1      45.177  23.379  36.600  1.00  0.00     0.056 C 
ENDBRANCH  19  20
ENDBRANCH  17  19
ENDBRANCH   9  17
ENDBRANCH   7   8
ENDBRANCH   4   7
ENDBRANCH   2   3
ENDBRANCH   1   2
BRANCH   1  24
ATOM     24  C   UNL A   1      37.267  32.831  31.419  1.00  0.00     0.002 C 
BRANCH  24  25
ATOM     25  C   UNL A   1      35.857  33.411  31.551  1.00  0.00     0.002 C 
BRANCH  25  26
ATOM     26  C   UNL A   1      34.770  32.681  30.758  1.00  0.00     0.021 C 
BRANCH  26  27
ATOM     27  C   UNL A   1      34.899  32.767  29.240  1.00  0.00     0.116 C 
BRANCH  27  28
ATOM     28  N   UNL A   1      34.156  31.724  28.554  1.00  0.00    -0.352 N 
ATOM     29  C   UNL A   1      34.594  30.515  28.072  1.00  0.00     0.251 C 
ATOM     30  H   UNL A   1      33.199  31.911  28.415  1.00  0.00     0.163 HD
ATOM     31  O   UNL A   1      33.852  29.817  27.388  1.00  0.00    -0.269 OA
BRANCH  29  32
ATOM     32  C   UNL A   1      35.972  30.061  28.353  1.00  0.00     0.039 A 
ATOM     33  C   UNL A   1      36.940  30.194  27.355  1.00  0.00     0.014 A 
ATOM     34  C   UNL A   1      36.307  29.491  29.586  1.00  0.00     0.014 A 
ATOM     35  C   UNL A   1      38.259  29.813  27.611  1.00  0.00     0.010 A 
ATOM     36  C   UNL A   1      37.635  29.163  29.860  1.00  0.00     0.010 A 
ATOM     37  C   UNL A   1      38.622  29.323  28.875  1.00  0.00    -0.014 A 
BRANCH  37  38
ATOM     38  C   UNL A   1      40.031  28.969  29.186  1.00  0.00     0.031 A 
ATOM     39  C   UNL A   1      40.906  29.935  29.931  1.00  0.00     0.074 A 
ATOM     40  C   UNL A   1      40.537  27.804  28.739  1.00  0.00     0.049 A 
ATOM     41  N   UNL A   1      42.177  29.839  30.230  1.00  0.00    -0.248 NA
ATOM     42  C   UNL A   1      40.276  31.185  30.380  1.00  0.00     0.031 C 
ATOM     43  C   UNL A   1      39.800  26.802  27.968  1.00  0.00     0.029 A 
ATOM     44  N   UNL A   1      41.797  27.272  28.859  1.00  0.00    -0.354 N 
ATOM     45  C   UNL A   1      42.502  31.021  30.881  1.00  0.00     0.074 A 
ATOM     46  C   UNL A   1      41.307  31.836  30.901  1.00  0.00     0.031 C 
ATOM     47  C   UNL A   1      40.617  25.770  27.697  1.00  0.00     0.029 A 
ATOM     48  C   UNL A   1      41.940  26.051  28.247  1.00  0.00     0.049 A 
ATOM     49  H   UNL A   1      42.529  27.724  29.337  1.00  0.00     0.167 HD
ATOM     50  C   UNL A   1      43.687  31.385  31.429  1.00  0.00     0.037 A 
ATOM     51  C   UNL A   1      43.017  25.252  28.138  1.00  0.00     0.037 A 
ATOM     52  C   UNL A   1      44.865  30.560  31.440  1.00  0.00     0.049 A 
ATOM     53  C   UNL A   1      44.316  25.675  28.766  1.00  0.00     0.074 A 
ATOM     54  C   UNL A   1      46.093  30.814  32.029  1.00  0.00     0.029 A 
ATOM     55  N   UNL A   1      44.963  29.317  30.832  1.00  0.00    -0.354 N 
ATOM     56  N   UNL A   1      44.594  26.768  29.434  1.00  0.00    -0.248 NA
ATOM     57  C   UNL A   1      45.450  24.749  28.631  1.00  0.00     0.031 C 
ATOM     58  C   UNL A   1      46.943  29.739  31.749  1.00  0.00     0.029 A 
ATOM     59  C   UNL A   1      46.236  28.799  31.018  1.00  0.00     0.049 A 
ATOM     60  H   UNL A   1      44.237  28.870  30.341  1.00  0.00     0.167 HD
ATOM     61  C   UNL A   1      45.923  26.652  29.819  1.00  0.00     0.074 A 
ATOM     62  C   UNL A   1      46.393  25.376  29.320  1.00  0.00     0.031 C 
ATOM     63  C   UNL A   1      46.684  27.524  30.523  1.00  0.00     0.037 A 
BRANCH  50  64
ATOM     64  C   UNL A   1      43.764  32.739  32.070  1.00  0.00     0.064 A 
ATOM     65  C   UNL A   1      43.351  32.949  33.393  1.00  0.00     0.173 A 
ATOM     66  C   UNL A   1      44.294  33.830  31.364  1.00  0.00     0.173 A 
ATOM     67  F   UNL A   1      42.826  31.940  34.104  1.00  0.00    -0.203 F 
ATOM     68  C   UNL A   1      43.440  34.209  33.980  1.00  0.00     0.198 A 
ATOM     69  C   UNL A   1      44.406  35.083  31.962  1.00  0.00     0.198 A 
ATOM     70  F   UNL A   1      44.709  33.681  30.097  1.00  0.00    -0.203 F 
ATOM     71  F   UNL A   1      42.999  34.396  35.231  1.00  0.00    -0.200 F 
ATOM     72  C   UNL A   1      43.973  35.273  33.267  1.00  0.00     0.200 A 
ATOM     73  F   UNL A   1      44.931  36.107  31.276  1.00  0.00    -0.200 F 
ATOM     74  F   UNL A   1      44.063  36.484  33.835  1.00  0.00    -0.200 F 
ENDBRANCH  50  64
BRANCH  51  75
ATOM     75  C   UNL A   1      42.906  23.953  27.428  1.00  0.00     0.064 A 
ATOM     76  C   UNL A   1      42.491  22.799  28.105  1.00  0.00     0.173 A 
ATOM     77  C   UNL A   1      43.210  23.838  26.064  1.00  0.00     0.173 A 
ATOM     78  F   UNL A   1      42.210  22.857  29.415  1.00  0.00    -0.203 F 
ATOM     79  C   UNL A   1      42.400  21.574  27.449  1.00  0.00     0.198 A 
ATOM     80  C   UNL A   1      43.097  22.617  25.403  1.00  0.00     0.198 A 
ATOM     81  F   UNL A   1      43.609  24.915  25.371  1.00  0.00    -0.203 F 
ATOM     82  F   UNL A   1      42.038  20.477  28.130  1.00  0.00    -0.200 F 
ATOM     83  C   UNL A   1      42.697  21.485  26.098  1.00  0.00     0.200 A 
ATOM     84  F   UNL A   1      43.375  22.536  24.095  1.00  0.00    -0.200 F 
ATOM     85  F   UNL A   1      42.607  20.306  25.467  1.00  0.00    -0.200 F 
ENDBRANCH  51  75
BRANCH  63  86
ATOM     86  C   UNL A   1      48.095  27.115  30.823  1.00  0.00     0.064 A 
ATOM     87  C   UNL A   1      48.420  26.408  31.989  1.00  0.00     0.173 A 
ATOM     88  C   UNL A   1      49.125  27.401  29.915  1.00  0.00     0.173 A 
ATOM     89  F   UNL A   1      47.471  26.127  32.895  1.00  0.00    -0.203 F 
ATOM     90  C   UNL A   1      49.732  26.018  32.245  1.00  0.00     0.198 A 
ATOM     91  C   UNL A   1      50.432  26.989  30.164  1.00  0.00     0.198 A 
ATOM     92  F   UNL A   1      48.863  28.072  28.784  1.00  0.00    -0.203 F 
ATOM     93  F   UNL A   1      50.028  25.378  33.385  1.00  0.00    -0.200 F 
ATOM     94  C   UNL A   1      50.734  26.303  31.330  1.00  0.00     0.200 A 
ATOM     95  F   UNL A   1      51.397  27.257  29.274  1.00  0.00    -0.200 F 
ATOM     96  F   UNL A   1      51.996  25.924  31.576  1.00  0.00    -0.200 F 
ENDBRANCH  63  86
ENDBRANCH  37  38
ENDBRANCH  29  32
ENDBRANCH  27  28
ENDBRANCH  26  27
ENDBRANCH  25  26
ENDBRANCH  24  25
ENDBRANCH   1  24
TORSDOF 17
ENDMDL
MODEL 3
REMARK VINA RESULT:     -10.3      6.450     11.918
REMARK SMILES CC(C)(C)OC(=O)N1CC[C@@H]2CO[C@@H](CC(=O)NCCCCCCNC(=O)c3ccc(-c4c5nc(c(-c6c(F)c(F)c(F)c(F)c6F)c6ccc([nH]6)c(-c6c(F)c(F)c(F)c(F)c6F)c6nc(c(-c7c(F)c(F)c(F)c(F)c7F)c7ccc4[nH]7)C=C6)C=C5)cc3)[C@@H]2C1
REMARK SMILES IDX 20 1 19 2 18 3 16 4 17 5 15 7 14 8 8 9 9 10 92 11 10 12
REMARK SMILES IDX 91 13 11 14 12 15 13 16 6 17 7 18 5 19 2 20 1 21 3 22 4 23
REMARK SMILES IDX 21 24 22 25 23 26 24 27 25 28 26 29 27 31 28 32 29 33 90 34
REMARK SMILES IDX 30 35 89 36 31 37 32 38 33 39 83 40 34 41 88 42 82 43 84 44
REMARK SMILES IDX 35 45 87 46 81 47 80 48 36 50 68 51 48 52 67 53 49 54 52 55
REMARK SMILES IDX 66 56 85 57 50 58 51 59 65 61 86 62 53 63 37 64 38 65 46 66
REMARK SMILES IDX 39 67 40 68 44 69 47 70 41 71 42 72 45 73 43 74 69 75 70 76
REMARK SMILES IDX 78 77 71 78 72 79 76 80 79 81 73 82 74 83 77 84 75 85 54 86
REMARK SMILES IDX 55 87 63 88 56 89 57 90 61 91 64 92 58 93 59 94 62 95 60 96
REMARK H PARENT 18 6 25 30 84 49 52 60
REMARK Flexibility Score: inf
ROOT
ATOM      1  C   UNL A   1      35.131  30.885  28.083  1.00  0.00     0.021 C 
ENDROOT
BRANCH   1   2
ATOM      2  C   UNL A   1      34.418  30.070  27.001  1.00  0.00     0.116 C 
BRANCH   2   3
ATOM      3  N   UNL A   1      33.450  29.148  27.571  1.00  0.00    -0.356 N 
ATOM      4  C   UNL A   1      32.138  28.964  27.242  1.00  0.00     0.222 C 
ATOM      5  O   UNL A   1      31.452  28.208  27.933  1.00  0.00    -0.275 OA
ATOM      6  H   UNL A   1      33.788  28.575  28.297  1.00  0.00     0.163 HD
BRANCH   4   7
ATOM      7  C   UNL A   1      31.560  29.647  26.021  1.00  0.00     0.132 C 
BRANCH   7   8
ATOM      8  C   UNL A   1      31.816  28.978  24.667  1.00  0.00     0.132 C 
ATOM      9  N   UNL A   1      32.418  25.640  23.014  1.00  0.00    -0.308 N 
ATOM     10  C   UNL A   1      31.019  25.350  22.753  1.00  0.00     0.123 C 
ATOM     11  C   UNL A   1      32.735  26.976  23.498  1.00  0.00     0.129 C 
ATOM     12  C   UNL A   1      30.158  25.679  23.966  1.00  0.00     0.028 C 
ATOM     13  C   UNL A   1      31.858  27.448  24.673  1.00  0.00     0.044 C 
ATOM     14  C   UNL A   1      30.393  27.092  24.489  1.00  0.00     0.024 C 
ATOM     15  C   UNL A   1      29.888  28.203  23.580  1.00  0.00     0.164 C 
ATOM     16  O   UNL A   1      30.807  29.307  23.700  1.00  0.00    -0.377 OA
BRANCH   9  17
ATOM     17  C   UNL A   1      33.384  24.825  22.442  1.00  0.00     0.410 C 
ATOM     18  O   UNL A   1      33.277  24.335  21.324  1.00  0.00    -0.224 OA
BRANCH  17  19
ATOM     19  O   UNL A   1      34.434  24.623  23.276  1.00  0.00    -0.444 OA
BRANCH  19  20
ATOM     20  C   UNL A   1      34.417  23.596  24.302  1.00  0.00     0.106 C 
ATOM     21  C   UNL A   1      35.862  23.078  24.352  1.00  0.00     0.056 C 
ATOM     22  C   UNL A   1      33.487  22.465  23.858  1.00  0.00     0.056 C 
ATOM     23  C   UNL A   1      34.048  24.115  25.697  1.00  0.00     0.056 C 
ENDBRANCH  19  20
ENDBRANCH  17  19
ENDBRANCH   9  17
ENDBRANCH   7   8
ENDBRANCH   4   7
ENDBRANCH   2   3
ENDBRANCH   1   2
BRANCH   1  24
ATOM     24  C   UNL A   1      34.787  32.377  28.097  1.00  0.00     0.002 C 
BRANCH  24  25
ATOM     25  C   UNL A   1      33.294  32.703  28.182  1.00  0.00     0.002 C 
BRANCH  25  26
ATOM     26  C   UNL A   1      32.897  34.092  27.676  1.00  0.00     0.021 C 
BRANCH  26  27
ATOM     27  C   UNL A   1      33.591  35.263  28.368  1.00  0.00     0.116 C 
BRANCH  27  28
ATOM     28  N   UNL A   1      32.902  35.690  29.574  1.00  0.00    -0.352 N 
ATOM     29  C   UNL A   1      33.125  35.327  30.880  1.00  0.00     0.251 C 
ATOM     30  H   UNL A   1      32.169  36.332  29.435  1.00  0.00     0.163 HD
ATOM     31  O   UNL A   1      32.348  35.679  31.761  1.00  0.00    -0.269 OA
BRANCH  29  32
ATOM     32  C   UNL A   1      34.292  34.487  31.226  1.00  0.00     0.039 A 
ATOM     33  C   UNL A   1      35.571  34.950  30.908  1.00  0.00     0.014 A 
ATOM     34  C   UNL A   1      34.128  33.243  31.844  1.00  0.00     0.014 A 
ATOM     35  C   UNL A   1      36.691  34.196  31.265  1.00  0.00     0.010 A 
ATOM     36  C   UNL A   1      35.248  32.517  32.249  1.00  0.00     0.010 A 
ATOM     37  C   UNL A   1      36.539  32.989  31.964  1.00  0.00    -0.014 A 
BRANCH  37  38
ATOM     38  C   UNL A   1      37.719  32.203  32.404  1.00  0.00     0.031 A 
ATOM     39  C   UNL A   1      38.393  32.515  33.709  1.00  0.00     0.074 A 
ATOM     40  C   UNL A   1      38.222  31.249  31.595  1.00  0.00     0.049 A 
ATOM     41  N   UNL A   1      39.475  31.993  34.228  1.00  0.00    -0.248 NA
ATOM     42  C   UNL A   1      37.783  33.572  34.529  1.00  0.00     0.031 C 
ATOM     43  C   UNL A   1      37.684  30.882  30.286  1.00  0.00     0.029 A 
ATOM     44  N   UNL A   1      39.308  30.425  31.753  1.00  0.00    -0.354 N 
ATOM     45  C   UNL A   1      39.686  32.669  35.422  1.00  0.00     0.074 A 
ATOM     46  C   UNL A   1      38.643  33.666  35.533  1.00  0.00     0.031 C 
ATOM     47  C   UNL A   1      38.432  29.895  29.765  1.00  0.00     0.029 A 
ATOM     48  C   UNL A   1      39.519  29.582  30.690  1.00  0.00     0.049 A 
ATOM     49  H   UNL A   1      39.882  30.437  32.553  1.00  0.00     0.167 HD
ATOM     50  C   UNL A   1      40.652  32.465  36.349  1.00  0.00     0.037 A 
ATOM     51  C   UNL A   1      40.482  28.666  30.482  1.00  0.00     0.037 A 
ATOM     52  C   UNL A   1      41.668  31.450  36.255  1.00  0.00     0.049 A 
ATOM     53  C   UNL A   1      41.535  28.450  31.533  1.00  0.00     0.074 A 
ATOM     54  C   UNL A   1      42.649  31.121  37.176  1.00  0.00     0.029 A 
ATOM     55  N   UNL A   1      41.832  30.598  35.174  1.00  0.00    -0.354 N 
ATOM     56  N   UNL A   1      41.687  29.054  32.686  1.00  0.00    -0.248 NA
ATOM     57  C   UNL A   1      42.547  27.420  31.257  1.00  0.00     0.031 C 
ATOM     58  C   UNL A   1      43.427  30.093  36.636  1.00  0.00     0.029 A 
ATOM     59  C   UNL A   1      42.910  29.755  35.397  1.00  0.00     0.049 A 
ATOM     60  H   UNL A   1      41.269  30.593  34.367  1.00  0.00     0.167 HD
ATOM     61  C   UNL A   1      42.793  28.464  33.283  1.00  0.00     0.074 A 
ATOM     62  C   UNL A   1      43.267  27.445  32.369  1.00  0.00     0.031 C 
ATOM     63  C   UNL A   1      43.363  28.740  34.480  1.00  0.00     0.037 A 
BRANCH  50  64
ATOM     64  C   UNL A   1      40.652  33.357  37.556  1.00  0.00     0.064 A 
ATOM     65  C   UNL A   1      41.544  34.433  37.672  1.00  0.00     0.173 A 
ATOM     66  C   UNL A   1      39.725  33.156  38.589  1.00  0.00     0.173 A 
ATOM     67  F   UNL A   1      42.457  34.659  36.716  1.00  0.00    -0.203 F 
ATOM     68  C   UNL A   1      41.525  35.260  38.791  1.00  0.00     0.198 A 
ATOM     69  C   UNL A   1      39.691  34.000  39.695  1.00  0.00     0.198 A 
ATOM     70  F   UNL A   1      38.846  32.144  38.523  1.00  0.00    -0.203 F 
ATOM     71  F   UNL A   1      42.415  36.256  38.902  1.00  0.00    -0.200 F 
ATOM     72  C   UNL A   1      40.595  35.048  39.799  1.00  0.00     0.200 A 
ATOM     73  F   UNL A   1      38.786  33.801  40.662  1.00  0.00    -0.200 F 
ATOM     74  F   UNL A   1      40.575  35.849  40.874  1.00  0.00    -0.200 F 
ENDBRANCH  50  64
BRANCH  51  75
ATOM     75  C   UNL A   1      40.479  27.860  29.235  1.00  0.00     0.064 A 
ATOM     76  C   UNL A   1      39.674  26.719  29.121  1.00  0.00     0.173 A 
ATOM     77  C   UNL A   1      41.278  28.210  28.137  1.00  0.00     0.173 A 
ATOM     78  F   UNL A   1      38.909  26.335  30.154  1.00  0.00    -0.203 F 
ATOM     79  C   UNL A   1      39.678  25.949  27.961  1.00  0.00     0.198 A 
ATOM     80  C   UNL A   1      41.264  27.451  26.968  1.00  0.00     0.198 A 
ATOM     81  F   UNL A   1      42.064  29.295  28.197  1.00  0.00    -0.203 F 
ATOM     82  F   UNL A   1      38.926  24.841  27.893  1.00  0.00    -0.200 F 
ATOM     83  C   UNL A   1      40.469  26.318  26.884  1.00  0.00     0.200 A 
ATOM     84  F   UNL A   1      42.021  27.817  25.925  1.00  0.00    -0.200 F 
ATOM     85  F   UNL A   1      40.471  25.578  25.766  1.00  0.00    -0.200 F 
ENDBRANCH  51  75
BRANCH  63  86
ATOM     86  C   UNL A   1      44.543  27.910  34.886  1.00  0.00     0.064 A 
ATOM     87  C   UNL A   1      45.856  28.326  34.625  1.00  0.00     0.173 A 
ATOM     88  C   UNL A   1      44.358  26.705  35.579  1.00  0.00     0.173 A 
ATOM     89  F   UNL A   1      46.082  29.464  33.950  1.00  0.00    -0.203 F 
ATOM     90  C   UNL A   1      46.943  27.554  35.026  1.00  0.00     0.198 A 
ATOM     91  C   UNL A   1      45.448  25.947  35.999  1.00  0.00     0.198 A 
ATOM     92  F   UNL A   1      43.121  26.267  35.857  1.00  0.00    -0.203 F 
ATOM     93  F   UNL A   1      48.189  27.950  34.730  1.00  0.00    -0.200 F 
ATOM     94  C   UNL A   1      46.739  26.369  35.717  1.00  0.00     0.200 A 
ATOM     95  F   UNL A   1      45.249  24.807  36.676  1.00  0.00    -0.200 F 
ATOM     96  F   UNL A   1      47.786  25.629  36.106  1.00  0.00    -0.200 F 
ENDBRANCH  63  86
ENDBRANCH  37  38
ENDBRANCH  29  32
ENDBRANCH  27  28
ENDBRANCH  26  27
ENDBRANCH  25  26
ENDBRANCH  24  25
ENDBRANCH   1  24
TORSDOF 17
ENDMDL
