MODEL 1
REMARK VINA RESULT:     -11.0      0.000      0.000
REMARK SMILES C[C@H](NC(=O)OCc1ccccc1)C(=O)NCC(=O)N1CCC[C@H]1C(=O)NCCCCCCNC(=O)c1ccc(-c2c3nc(c(-c4c(F)c(F)c(F)c(F)c4F)c4ccc([nH]4)c(-c4c(F)c(F)c(F)c(F)c4F)c4nc(c(-c5c(F)c(F)c(F)c(F)c5F)c5ccc2[nH]5)C=C4)C=C3)cc1
REMARK SMILES IDX 25 1 26 2 27 3 24 5 20 6 21 7 22 8 23 9 18 10 19 11 17 12
REMARK SMILES IDX 16 13 14 14 15 15 2 17 1 18 3 19 4 20 5 22 6 23 7 24 8 25
REMARK SMILES IDX 9 26 13 27 10 28 12 29 11 30 28 31 29 32 30 33 31 34 32 35
REMARK SMILES IDX 33 36 34 37 35 38 36 40 37 41 38 42 99 43 39 44 98 45 40 46
REMARK SMILES IDX 41 47 42 48 92 49 43 50 97 51 91 52 93 53 44 54 96 55 90 56
REMARK SMILES IDX 89 57 45 59 77 60 57 61 76 62 58 63 61 64 75 65 94 66 59 67
REMARK SMILES IDX 60 68 74 70 95 71 62 72 46 73 47 74 55 75 48 76 49 77 53 78
REMARK SMILES IDX 56 79 50 80 51 81 54 82 52 83 78 84 79 85 87 86 80 87 81 88
REMARK SMILES IDX 85 89 88 90 82 91 83 92 86 93 84 94 63 95 64 96 72 97 65 98
REMARK SMILES IDX 66 99 70 100 73 101 67 102 68 103 71 104 69 105
REMARK H PARENT 27 4 16 16 3 21 34 39 93 58 61 69
REMARK Flexibility Score: inf
ROOT
ATOM      1  C   UNL A   1      36.625  22.996  24.231  1.00  0.00     0.242 C 
ATOM      2  O   UNL A   1      36.648  22.979  22.997  1.00  0.00    -0.273 OA
ATOM      3  N   UNL A   1      37.778  23.398  24.856  1.00  0.00    -0.354 N 
ATOM      4  H   UNL A   1      38.600  23.422  24.315  1.00  0.00     0.163 HD
ENDROOT
BRANCH   1   5
ATOM      5  C   UNL A   1      35.360  22.570  25.061  1.00  0.00     0.174 C 
ATOM      6  N   UNL A   1      34.024  22.605  24.402  1.00  0.00    -0.329 N 
ATOM      7  C   UNL A   1      33.707  21.274  23.923  1.00  0.00     0.120 C 
ATOM      8  C   UNL A   1      34.270  20.366  24.997  1.00  0.00     0.024 C 
ATOM      9  C   UNL A   1      35.526  21.082  25.474  1.00  0.00     0.037 C 
BRANCH   6  10
ATOM     10  C   UNL A   1      33.172  23.674  24.569  1.00  0.00     0.242 C 
ATOM     11  O   UNL A   1      32.303  23.941  23.728  1.00  0.00    -0.273 OA
BRANCH  10  12
ATOM     12  C   UNL A   1      33.186  24.637  25.772  1.00  0.00     0.216 C 
BRANCH  12  13
ATOM     13  N   UNL A   1      32.196  25.641  26.063  1.00  0.00    -0.345 N 
ATOM     14  C   UNL A   1      32.186  26.971  25.774  1.00  0.00     0.242 C 
ATOM     15  O   UNL A   1      31.130  27.574  25.985  1.00  0.00    -0.273 OA
ATOM     16  H   UNL A   1      31.402  25.315  26.547  1.00  0.00     0.164 HD
BRANCH  14  17
ATOM     17  C   UNL A   1      33.393  27.710  25.151  1.00  0.00     0.171 C 
ATOM     18  C   UNL A   1      33.304  29.220  25.304  1.00  0.00     0.042 C 
BRANCH  17  19
ATOM     19  N   UNL A   1      33.741  27.182  23.836  1.00  0.00    -0.310 N 
ATOM     20  C   UNL A   1      33.149  27.260  22.617  1.00  0.00     0.408 C 
ATOM     21  H   UNL A   1      34.577  26.661  23.833  1.00  0.00     0.167 HD
ATOM     22  O   UNL A   1      33.561  26.576  21.694  1.00  0.00    -0.225 OA
BRANCH  20  23
ATOM     23  O   UNL A   1      32.118  28.133  22.558  1.00  0.00    -0.445 OA
BRANCH  23  24
ATOM     24  C   UNL A   1      30.815  27.530  22.457  1.00  0.00     0.270 C 
BRANCH  24  25
ATOM     25  C   UNL A   1      29.706  28.556  22.493  1.00  0.00    -0.011 A 
ATOM     26  C   UNL A   1      29.940  29.861  22.037  1.00  0.00     0.007 A 
ATOM     27  C   UNL A   1      28.446  28.237  23.023  1.00  0.00     0.007 A 
ATOM     28  C   UNL A   1      28.953  30.839  22.157  1.00  0.00     0.000 A 
ATOM     29  C   UNL A   1      27.463  29.218  23.149  1.00  0.00     0.000 A 
ATOM     30  C   UNL A   1      27.719  30.521  22.724  1.00  0.00     0.000 A 
ENDBRANCH  24  25
ENDBRANCH  23  24
ENDBRANCH  20  23
ENDBRANCH  17  19
ENDBRANCH  14  17
ENDBRANCH  12  13
ENDBRANCH  10  12
ENDBRANCH   6  10
ENDBRANCH   1   5
BRANCH   3  31
ATOM     31  C   UNL A   1      37.884  23.786  26.234  1.00  0.00     0.116 C 
BRANCH  31  32
ATOM     32  C   UNL A   1      39.258  23.685  26.874  1.00  0.00     0.021 C 
BRANCH  32  33
ATOM     33  C   UNL A   1      40.116  22.494  26.462  1.00  0.00     0.002 C 
BRANCH  33  34
ATOM     34  C   UNL A   1      41.026  21.904  27.542  1.00  0.00     0.002 C 
BRANCH  34  35
ATOM     35  C   UNL A   1      41.632  20.529  27.248  1.00  0.00     0.021 C 
BRANCH  35  36
ATOM     36  C   UNL A   1      41.456  20.012  25.823  1.00  0.00     0.116 C 
BRANCH  36  37
ATOM     37  N   UNL A   1      42.587  19.219  25.367  1.00  0.00    -0.352 N 
ATOM     38  C   UNL A   1      43.862  19.604  25.037  1.00  0.00     0.251 C 
ATOM     39  H   UNL A   1      42.409  18.255  25.282  1.00  0.00     0.163 HD
ATOM     40  O   UNL A   1      44.637  18.801  24.528  1.00  0.00    -0.269 OA
BRANCH  38  41
ATOM     41  C   UNL A   1      44.296  20.997  25.263  1.00  0.00     0.039 A 
ATOM     42  C   UNL A   1      43.927  21.972  24.333  1.00  0.00     0.014 A 
ATOM     43  C   UNL A   1      45.054  21.345  26.384  1.00  0.00     0.014 A 
ATOM     44  C   UNL A   1      44.239  23.311  24.573  1.00  0.00     0.010 A 
ATOM     45  C   UNL A   1      45.307  22.688  26.657  1.00  0.00     0.010 A 
ATOM     46  C   UNL A   1      44.885  23.684  25.762  1.00  0.00    -0.014 A 
BRANCH  46  47
ATOM     47  C   UNL A   1      45.067  25.114  26.122  1.00  0.00     0.031 A 
ATOM     48  C   UNL A   1      46.422  25.753  26.047  1.00  0.00     0.074 A 
ATOM     49  C   UNL A   1      44.018  25.806  26.606  1.00  0.00     0.049 A 
ATOM     50  N   UNL A   1      46.792  26.953  26.420  1.00  0.00    -0.248 NA
ATOM     51  C   UNL A   1      47.512  24.930  25.502  1.00  0.00     0.031 C 
ATOM     52  C   UNL A   1      42.661  25.279  26.764  1.00  0.00     0.029 A 
ATOM     53  N   UNL A   1      43.930  27.093  27.075  1.00  0.00    -0.354 N 
ATOM     54  C   UNL A   1      48.155  27.023  26.168  1.00  0.00     0.074 A 
ATOM     55  C   UNL A   1      48.557  25.732  25.651  1.00  0.00     0.031 C 
ATOM     56  C   UNL A   1      41.877  26.233  27.285  1.00  0.00     0.029 A 
ATOM     57  C   UNL A   1      42.683  27.421  27.547  1.00  0.00     0.049 A 
ATOM     58  H   UNL A   1      44.689  27.721  27.074  1.00  0.00     0.167 HD
ATOM     59  C   UNL A   1      48.990  28.076  26.340  1.00  0.00     0.037 A 
ATOM     60  C   UNL A   1      42.243  28.541  28.151  1.00  0.00     0.037 A 
ATOM     61  C   UNL A   1      48.578  29.361  26.848  1.00  0.00     0.049 A 
ATOM     62  C   UNL A   1      43.199  29.681  28.368  1.00  0.00     0.074 A 
ATOM     63  C   UNL A   1      49.331  30.514  26.985  1.00  0.00     0.029 A 
ATOM     64  N   UNL A   1      47.307  29.656  27.318  1.00  0.00    -0.354 N 
ATOM     65  N   UNL A   1      44.466  29.769  28.047  1.00  0.00    -0.248 NA
ATOM     66  C   UNL A   1      42.666  30.878  29.036  1.00  0.00     0.031 C 
ATOM     67  C   UNL A   1      48.536  31.483  27.607  1.00  0.00     0.029 A 
ATOM     68  C   UNL A   1      47.268  30.957  27.796  1.00  0.00     0.049 A 
ATOM     69  H   UNL A   1      46.544  29.033  27.314  1.00  0.00     0.167 HD
ATOM     70  C   UNL A   1      44.880  31.028  28.459  1.00  0.00     0.074 A 
ATOM     71  C   UNL A   1      43.720  31.681  29.031  1.00  0.00     0.031 C 
ATOM     72  C   UNL A   1      46.111  31.590  28.377  1.00  0.00     0.037 A 
BRANCH  59  73
ATOM     73  C   UNL A   1      50.440  27.881  25.998  1.00  0.00     0.064 A 
ATOM     74  C   UNL A   1      50.918  28.021  24.686  1.00  0.00     0.173 A 
ATOM     75  C   UNL A   1      51.373  27.592  27.006  1.00  0.00     0.173 A 
ATOM     76  F   UNL A   1      50.069  28.291  23.683  1.00  0.00    -0.203 F 
ATOM     77  C   UNL A   1      52.268  27.844  24.391  1.00  0.00     0.198 A 
ATOM     78  C   UNL A   1      52.727  27.450  26.713  1.00  0.00     0.198 A 
ATOM     79  F   UNL A   1      50.974  27.456  28.280  1.00  0.00    -0.203 F 
ATOM     80  F   UNL A   1      52.691  27.929  23.123  1.00  0.00    -0.200 F 
ATOM     81  C   UNL A   1      53.172  27.567  25.405  1.00  0.00     0.200 A 
ATOM     82  F   UNL A   1      53.601  27.199  27.698  1.00  0.00    -0.200 F 
ATOM     83  F   UNL A   1      54.472  27.405  25.121  1.00  0.00    -0.200 F 
ENDBRANCH  59  73
BRANCH  60  84
ATOM     84  C   UNL A   1      40.830  28.627  28.606  1.00  0.00     0.064 A 
ATOM     85  C   UNL A   1      39.813  29.041  27.737  1.00  0.00     0.173 A 
ATOM     86  C   UNL A   1      40.466  28.288  29.919  1.00  0.00     0.173 A 
ATOM     87  F   UNL A   1      40.112  29.398  26.479  1.00  0.00    -0.203 F 
ATOM     88  C   UNL A   1      38.489  29.128  28.165  1.00  0.00     0.198 A 
ATOM     89  C   UNL A   1      39.139  28.343  30.337  1.00  0.00     0.198 A 
ATOM     90  F   UNL A   1      41.400  27.881  30.792  1.00  0.00    -0.203 F 
ATOM     91  F   UNL A   1      37.544  29.569  27.325  1.00  0.00    -0.200 F 
ATOM     92  C   UNL A   1      38.151  28.770  29.462  1.00  0.00     0.200 A 
ATOM     93  F   UNL A   1      38.815  27.978  31.585  1.00  0.00    -0.200 F 
ATOM     94  F   UNL A   1      36.878  28.843  29.870  1.00  0.00    -0.200 F 
ENDBRANCH  60  84
BRANCH  72  95
ATOM     95  C   UNL A   1      46.272  32.981  28.921  1.00  0.00     0.064 A 
ATOM     96  C   UNL A   1      46.687  33.208  30.242  1.00  0.00     0.173 A 
ATOM     97  C   UNL A   1      46.061  34.099  28.100  1.00  0.00     0.173 A 
ATOM     98  F   UNL A   1      46.885  32.173  31.074  1.00  0.00    -0.203 F 
ATOM     99  C   UNL A   1      46.865  34.501  30.726  1.00  0.00     0.198 A 
ATOM    100  C   UNL A   1      46.272  35.390  28.576  1.00  0.00     0.198 A 
ATOM    101  F   UNL A   1      45.669  33.939  26.827  1.00  0.00    -0.203 F 
ATOM    102  F   UNL A   1      47.218  34.694  32.004  1.00  0.00    -0.200 F 
ATOM    103  C   UNL A   1      46.668  35.591  29.890  1.00  0.00     0.200 A 
ATOM    104  F   UNL A   1      46.098  36.440  27.763  1.00  0.00    -0.200 F 
ATOM    105  F   UNL A   1      46.854  36.834  30.353  1.00  0.00    -0.200 F 
ENDBRANCH  72  95
ENDBRANCH  46  47
ENDBRANCH  38  41
ENDBRANCH  36  37
ENDBRANCH  35  36
ENDBRANCH  34  35
ENDBRANCH  33  34
ENDBRANCH  32  33
ENDBRANCH  31  32
ENDBRANCH   3  31
TORSDOF 21
ENDMDL
MODEL 2
REMARK VINA RESULT:     -10.9      1.472      7.366
REMARK SMILES C[C@H](NC(=O)OCc1ccccc1)C(=O)NCC(=O)N1CCC[C@H]1C(=O)NCCCCCCNC(=O)c1ccc(-c2c3nc(c(-c4c(F)c(F)c(F)c(F)c4F)c4ccc([nH]4)c(-c4c(F)c(F)c(F)c(F)c4F)c4nc(c(-c5c(F)c(F)c(F)c(F)c5F)c5ccc2[nH]5)C=C4)C=C3)cc1
REMARK SMILES IDX 25 1 26 2 27 3 24 5 20 6 21 7 22 8 23 9 18 10 19 11 17 12
REMARK SMILES IDX 16 13 14 14 15 15 2 17 1 18 3 19 4 20 5 22 6 23 7 24 8 25
REMARK SMILES IDX 9 26 13 27 10 28 12 29 11 30 28 31 29 32 30 33 31 34 32 35
REMARK SMILES IDX 33 36 34 37 35 38 36 40 37 41 38 42 99 43 39 44 98 45 40 46
REMARK SMILES IDX 41 47 42 48 92 49 43 50 97 51 91 52 93 53 44 54 96 55 90 56
REMARK SMILES IDX 89 57 45 59 77 60 57 61 76 62 58 63 61 64 75 65 94 66 59 67
REMARK SMILES IDX 60 68 74 70 95 71 62 72 46 73 47 74 55 75 48 76 49 77 53 78
REMARK SMILES IDX 56 79 50 80 51 81 54 82 52 83 78 84 79 85 87 86 80 87 81 88
REMARK SMILES IDX 85 89 88 90 82 91 83 92 86 93 84 94 63 95 64 96 72 97 65 98
REMARK SMILES IDX 66 99 70 100 73 101 67 102 68 103 71 104 69 105
REMARK H PARENT 27 4 16 16 3 21 34 39 93 58 61 69
REMARK Flexibility Score: inf
ROOT
ATOM      1  C   UNL A   1      34.759  23.358  23.509  1.00  0.00     0.242 C 
ATOM      2  O   UNL A   1      34.813  22.955  22.344  1.00  0.00    -0.273 OA
ATOM      3  N   UNL A   1      35.738  22.906  24.356  1.00  0.00    -0.354 N 
ATOM      4  H   UNL A   1      36.268  22.131  24.060  1.00  0.00     0.163 HD
ENDROOT
BRANCH   1   5
ATOM      5  C   UNL A   1      33.631  24.327  24.020  1.00  0.00     0.174 C 
ATOM      6  N   UNL A   1      32.559  24.743  23.072  1.00  0.00    -0.329 N 
ATOM      7  C   UNL A   1      31.407  23.887  23.267  1.00  0.00     0.120 C 
ATOM      8  C   UNL A   1      31.385  23.656  24.765  1.00  0.00     0.024 C 
ATOM      9  C   UNL A   1      32.854  23.612  25.159  1.00  0.00     0.037 C 
BRANCH   6  10
ATOM     10  C   UNL A   1      32.619  25.950  22.410  1.00  0.00     0.242 C 
ATOM     11  O   UNL A   1      31.804  26.238  21.524  1.00  0.00    -0.273 OA
BRANCH  10  12
ATOM     12  C   UNL A   1      33.664  27.052  22.672  1.00  0.00     0.216 C 
BRANCH  12  13
ATOM     13  N   UNL A   1      33.882  27.731  23.923  1.00  0.00    -0.345 N 
ATOM     14  C   UNL A   1      33.005  28.404  24.717  1.00  0.00     0.242 C 
ATOM     15  O   UNL A   1      33.418  28.746  25.829  1.00  0.00    -0.273 OA
ATOM     16  H   UNL A   1      34.808  27.705  24.255  1.00  0.00     0.164 HD
BRANCH  14  17
ATOM     17  C   UNL A   1      31.540  28.687  24.311  1.00  0.00     0.171 C 
ATOM     18  C   UNL A   1      31.028  30.018  24.837  1.00  0.00     0.042 C 
BRANCH  17  19
ATOM     19  N   UNL A   1      30.687  27.516  24.485  1.00  0.00    -0.310 N 
ATOM     20  C   UNL A   1      29.512  27.130  23.924  1.00  0.00     0.408 C 
ATOM     21  H   UNL A   1      31.034  26.874  25.146  1.00  0.00     0.167 HD
ATOM     22  O   UNL A   1      28.907  26.170  24.374  1.00  0.00    -0.225 OA
BRANCH  20  23
ATOM     23  O   UNL A   1      29.125  27.891  22.875  1.00  0.00    -0.445 OA
BRANCH  23  24
ATOM     24  C   UNL A   1      27.860  28.557  23.040  1.00  0.00     0.270 C 
BRANCH  24  25
ATOM     25  C   UNL A   1      27.914  30.003  22.603  1.00  0.00    -0.011 A 
ATOM     26  C   UNL A   1      28.079  30.322  21.248  1.00  0.00     0.007 A 
ATOM     27  C   UNL A   1      27.848  31.043  23.543  1.00  0.00     0.007 A 
ATOM     28  C   UNL A   1      28.227  31.650  20.848  1.00  0.00     0.000 A 
ATOM     29  C   UNL A   1      28.004  32.370  23.142  1.00  0.00     0.000 A 
ATOM     30  C   UNL A   1      28.202  32.672  21.796  1.00  0.00     0.000 A 
ENDBRANCH  24  25
ENDBRANCH  23  24
ENDBRANCH  20  23
ENDBRANCH  17  19
ENDBRANCH  14  17
ENDBRANCH  12  13
ENDBRANCH  10  12
ENDBRANCH   6  10
ENDBRANCH   1   5
BRANCH   3  31
ATOM     31  C   UNL A   1      36.053  23.469  25.638  1.00  0.00     0.116 C 
BRANCH  31  32
ATOM     32  C   UNL A   1      37.389  24.180  25.768  1.00  0.00     0.021 C 
BRANCH  32  33
ATOM     33  C   UNL A   1      38.344  23.650  26.830  1.00  0.00     0.002 C 
BRANCH  33  34
ATOM     34  C   UNL A   1      39.546  22.847  26.328  1.00  0.00     0.002 C 
BRANCH  34  35
ATOM     35  C   UNL A   1      39.611  21.377  26.750  1.00  0.00     0.021 C 
BRANCH  35  36
ATOM     36  C   UNL A   1      39.558  20.354  25.619  1.00  0.00     0.116 C 
BRANCH  36  37
ATOM     37  N   UNL A   1      40.492  19.255  25.807  1.00  0.00    -0.352 N 
ATOM     38  C   UNL A   1      41.824  19.272  26.134  1.00  0.00     0.251 C 
ATOM     39  H   UNL A   1      40.107  18.358  25.680  1.00  0.00     0.163 HD
ATOM     40  O   UNL A   1      42.481  18.236  26.102  1.00  0.00    -0.269 OA
BRANCH  38  41
ATOM     41  C   UNL A   1      42.482  20.544  26.494  1.00  0.00     0.039 A 
ATOM     42  C   UNL A   1      43.010  21.337  25.472  1.00  0.00     0.014 A 
ATOM     43  C   UNL A   1      42.572  20.960  27.825  1.00  0.00     0.014 A 
ATOM     44  C   UNL A   1      43.548  22.589  25.775  1.00  0.00     0.010 A 
ATOM     45  C   UNL A   1      43.048  22.236  28.119  1.00  0.00     0.010 A 
ATOM     46  C   UNL A   1      43.522  23.069  27.094  1.00  0.00    -0.014 A 
BRANCH  46  47
ATOM     47  C   UNL A   1      43.923  24.463  27.412  1.00  0.00     0.031 A 
ATOM     48  C   UNL A   1      42.901  25.470  27.850  1.00  0.00     0.074 A 
ATOM     49  C   UNL A   1      45.201  24.839  27.214  1.00  0.00     0.049 A 
ATOM     50  N   UNL A   1      43.046  26.754  28.067  1.00  0.00    -0.248 NA
ATOM     51  C   UNL A   1      41.530  24.977  28.048  1.00  0.00     0.031 C 
ATOM     52  C   UNL A   1      46.276  23.958  26.751  1.00  0.00     0.029 A 
ATOM     53  N   UNL A   1      45.811  26.060  27.353  1.00  0.00    -0.354 N 
ATOM     54  C   UNL A   1      41.786  27.222  28.414  1.00  0.00     0.074 A 
ATOM     55  C   UNL A   1      40.880  26.096  28.336  1.00  0.00     0.031 C 
ATOM     56  C   UNL A   1      47.411  24.664  26.652  1.00  0.00     0.029 A 
ATOM     57  C   UNL A   1      47.136  26.057  26.993  1.00  0.00     0.049 A 
ATOM     58  H   UNL A   1      45.343  26.862  27.680  1.00  0.00     0.167 HD
ATOM     59  C   UNL A   1      41.424  28.476  28.778  1.00  0.00     0.037 A 
ATOM     60  C   UNL A   1      48.025  27.066  26.915  1.00  0.00     0.037 A 
ATOM     61  C   UNL A   1      42.337  29.589  28.861  1.00  0.00     0.049 A 
ATOM     62  C   UNL A   1      47.589  28.457  27.285  1.00  0.00     0.074 A 
ATOM     63  C   UNL A   1      42.083  30.879  29.294  1.00  0.00     0.029 A 
ATOM     64  N   UNL A   1      43.671  29.549  28.485  1.00  0.00    -0.354 N 
ATOM     65  N   UNL A   1      46.416  28.873  27.695  1.00  0.00    -0.248 NA
ATOM     66  C   UNL A   1      48.598  29.520  27.178  1.00  0.00     0.031 C 
ATOM     67  C   UNL A   1      43.245  31.637  29.111  1.00  0.00     0.029 A 
ATOM     68  C   UNL A   1      44.242  30.805  28.626  1.00  0.00     0.049 A 
ATOM     69  H   UNL A   1      44.144  28.747  28.165  1.00  0.00     0.167 HD
ATOM     70  C   UNL A   1      46.546  30.238  27.906  1.00  0.00     0.074 A 
ATOM     71  C   UNL A   1      47.922  30.577  27.605  1.00  0.00     0.031 C 
ATOM     72  C   UNL A   1      45.609  31.132  28.308  1.00  0.00     0.037 A 
BRANCH  59  73
ATOM     73  C   UNL A   1      39.976  28.722  29.094  1.00  0.00     0.064 A 
ATOM     74  C   UNL A   1      39.453  28.518  30.380  1.00  0.00     0.173 A 
ATOM     75  C   UNL A   1      39.108  29.209  28.105  1.00  0.00     0.173 A 
ATOM     76  F   UNL A   1      40.237  28.047  31.362  1.00  0.00    -0.203 F 
ATOM     77  C   UNL A   1      38.109  28.760  30.654  1.00  0.00     0.198 A 
ATOM     78  C   UNL A   1      37.773  29.482  28.392  1.00  0.00     0.198 A 
ATOM     79  F   UNL A   1      39.555  29.431  26.859  1.00  0.00    -0.203 F 
ATOM     80  F   UNL A   1      37.621  28.507  31.876  1.00  0.00    -0.200 F 
ATOM     81  C   UNL A   1      37.272  29.249  29.663  1.00  0.00     0.200 A 
ATOM     82  F   UNL A   1      36.970  29.971  27.436  1.00  0.00    -0.200 F 
ATOM     83  F   UNL A   1      35.981  29.488  29.931  1.00  0.00    -0.200 F 
ENDBRANCH  59  73
BRANCH  60  84
ATOM     84  C   UNL A   1      49.411  26.794  26.452  1.00  0.00     0.064 A 
ATOM     85  C   UNL A   1      50.406  26.380  27.347  1.00  0.00     0.173 A 
ATOM     86  C   UNL A   1      49.768  26.934  25.101  1.00  0.00     0.173 A 
ATOM     87  F   UNL A   1      50.120  26.253  28.652  1.00  0.00    -0.203 F 
ATOM     88  C   UNL A   1      51.707  26.131  26.915  1.00  0.00     0.198 A 
ATOM     89  C   UNL A   1      51.060  26.652  24.664  1.00  0.00     0.198 A 
ATOM     90  F   UNL A   1      48.853  27.323  24.201  1.00  0.00    -0.203 F 
ATOM     91  F   UNL A   1      52.649  25.779  27.800  1.00  0.00    -0.200 F 
ATOM     92  C   UNL A   1      52.031  26.258  25.572  1.00  0.00     0.200 A 
ATOM     93  F   UNL A   1      51.363  26.759  23.363  1.00  0.00    -0.200 F 
ATOM     94  F   UNL A   1      53.280  26.009  25.154  1.00  0.00    -0.200 F 
ENDBRANCH  60  84
BRANCH  72  95
ATOM     95  C   UNL A   1      46.036  32.566  28.443  1.00  0.00     0.064 A 
ATOM     96  C   UNL A   1      45.907  33.472  27.379  1.00  0.00     0.173 A 
ATOM     97  C   UNL A   1      46.530  33.053  29.662  1.00  0.00     0.173 A 
ATOM     98  F   UNL A   1      45.457  33.053  26.186  1.00  0.00    -0.203 F 
ATOM     99  C   UNL A   1      46.275  34.807  27.526  1.00  0.00     0.198 A 
ATOM    100  C   UNL A   1      46.866  34.396  29.816  1.00  0.00     0.198 A 
ATOM    101  F   UNL A   1      46.668  32.231  30.713  1.00  0.00    -0.203 F 
ATOM    102  F   UNL A   1      46.186  35.643  26.483  1.00  0.00    -0.200 F 
ATOM    103  C   UNL A   1      46.744  35.270  28.747  1.00  0.00     0.200 A 
ATOM    104  F   UNL A   1      47.302  34.845  31.000  1.00  0.00    -0.200 F 
ATOM    105  F   UNL A   1      47.084  36.558  28.889  1.00  0.00    -0.200 F 
ENDBRANCH  72  95
ENDBRANCH  46  47
ENDBRANCH  38  41
ENDBRANCH  36  37
ENDBRANCH  35  36
ENDBRANCH  34  35
ENDBRANCH  33  34
ENDBRANCH  32  33
ENDBRANCH  31  32
ENDBRANCH   3  31
TORSDOF 21
ENDMDL
MODEL 3
REMARK VINA RESULT:     -10.8      1.637      7.426
REMARK SMILES C[C@H](NC(=O)OCc1ccccc1)C(=O)NCC(=O)N1CCC[C@H]1C(=O)NCCCCCCNC(=O)c1ccc(-c2c3nc(c(-c4c(F)c(F)c(F)c(F)c4F)c4ccc([nH]4)c(-c4c(F)c(F)c(F)c(F)c4F)c4nc(c(-c5c(F)c(F)c(F)c(F)c5F)c5ccc2[nH]5)C=C4)C=C3)cc1
REMARK SMILES IDX 25 1 26 2 27 3 24 5 20 6 21 7 22 8 23 9 18 10 19 11 17 12
REMARK SMILES IDX 16 13 14 14 15 15 2 17 1 18 3 19 4 20 5 22 6 23 7 24 8 25
REMARK SMILES IDX 9 26 13 27 10 28 12 29 11 30 28 31 29 32 30 33 31 34 32 35
REMARK SMILES IDX 33 36 34 37 35 38 36 40 37 41 38 42 99 43 39 44 98 45 40 46
REMARK SMILES IDX 41 47 42 48 92 49 43 50 97 51 91 52 93 53 44 54 96 55 90 56
REMARK SMILES IDX 89 57 45 59 77 60 57 61 76 62 58 63 61 64 75 65 94 66 59 67
REMARK SMILES IDX 60 68 74 70 95 71 62 72 46 73 47 74 55 75 48 76 49 77 53 78
REMARK SMILES IDX 56 79 50 80 51 81 54 82 52 83 78 84 79 85 87 86 80 87 81 88
REMARK SMILES IDX 85 89 88 90 82 91 83 92 86 93 84 94 63 95 64 96 72 97 65 98
REMARK SMILES IDX 66 99 70 100 73 101 67 102 68 103 71 104 69 105
REMARK H PARENT 27 4 16 16 3 21 34 39 93 58 61 69
REMARK Flexibility Score: inf
ROOT
ATOM      1  C   UNL A   1      34.116  22.436  27.144  1.00  0.00     0.242 C 
ATOM      2  O   UNL A   1      33.779  21.749  28.113  1.00  0.00    -0.273 OA
ATOM      3  N   UNL A   1      35.456  22.472  26.860  1.00  0.00    -0.354 N 
ATOM      4  H   UNL A   1      36.074  22.154  27.557  1.00  0.00     0.163 HD
ENDROOT
BRANCH   1   5
ATOM      5  C   UNL A   1      33.082  23.243  26.277  1.00  0.00     0.174 C 
ATOM      6  N   UNL A   1      32.333  22.530  25.205  1.00  0.00    -0.329 N 
ATOM      7  C   UNL A   1      31.039  22.137  25.725  1.00  0.00     0.120 C 
ATOM      8  C   UNL A   1      30.647  23.296  26.618  1.00  0.00     0.024 C 
ATOM      9  C   UNL A   1      31.964  23.769  27.218  1.00  0.00     0.037 C 
BRANCH   6  10
ATOM     10  C   UNL A   1      32.740  22.584  23.890  1.00  0.00     0.242 C 
ATOM     11  O   UNL A   1      33.531  21.751  23.427  1.00  0.00    -0.273 OA
BRANCH  10  12
ATOM     12  C   UNL A   1      32.288  23.644  22.867  1.00  0.00     0.216 C 
BRANCH  12  13
ATOM     13  N   UNL A   1      31.095  24.445  22.950  1.00  0.00    -0.345 N 
ATOM     14  C   UNL A   1      30.882  25.635  23.575  1.00  0.00     0.242 C 
ATOM     15  O   UNL A   1      29.807  26.197  23.343  1.00  0.00    -0.273 OA
ATOM     16  H   UNL A   1      30.311  24.076  22.482  1.00  0.00     0.164 HD
BRANCH  14  17
ATOM     17  C   UNL A   1      31.933  26.314  24.483  1.00  0.00     0.171 C 
ATOM     18  C   UNL A   1      31.312  27.042  25.665  1.00  0.00     0.042 C 
BRANCH  17  19
ATOM     19  N   UNL A   1      32.951  27.020  23.712  1.00  0.00    -0.310 N 
ATOM     20  C   UNL A   1      32.984  28.238  23.112  1.00  0.00     0.408 C 
ATOM     21  H   UNL A   1      33.785  26.508  23.605  1.00  0.00     0.167 HD
ATOM     22  O   UNL A   1      33.910  28.528  22.372  1.00  0.00    -0.225 OA
BRANCH  20  23
ATOM     23  O   UNL A   1      31.934  29.032  23.417  1.00  0.00    -0.445 OA
BRANCH  23  24
ATOM     24  C   UNL A   1      30.974  29.208  22.359  1.00  0.00     0.270 C 
BRANCH  24  25
ATOM     25  C   UNL A   1      29.683  29.819  22.852  1.00  0.00    -0.011 A 
ATOM     26  C   UNL A   1      28.469  29.145  22.662  1.00  0.00     0.007 A 
ATOM     27  C   UNL A   1      29.671  31.083  23.461  1.00  0.00     0.007 A 
ATOM     28  C   UNL A   1      27.263  29.745  23.026  1.00  0.00     0.000 A 
ATOM     29  C   UNL A   1      28.464  31.685  23.817  1.00  0.00     0.000 A 
ATOM     30  C   UNL A   1      27.260  31.019  23.592  1.00  0.00     0.000 A 
ENDBRANCH  24  25
ENDBRANCH  23  24
ENDBRANCH  20  23
ENDBRANCH  17  19
ENDBRANCH  14  17
ENDBRANCH  12  13
ENDBRANCH  10  12
ENDBRANCH   6  10
ENDBRANCH   1   5
BRANCH   3  31
ATOM     31  C   UNL A   1      36.033  22.936  25.630  1.00  0.00     0.116 C 
BRANCH  31  32
ATOM     32  C   UNL A   1      36.836  21.930  24.824  1.00  0.00     0.021 C 
BRANCH  32  33
ATOM     33  C   UNL A   1      36.430  20.468  24.959  1.00  0.00     0.002 C 
BRANCH  33  34
ATOM     34  C   UNL A   1      37.565  19.441  24.953  1.00  0.00     0.002 C 
BRANCH  34  35
ATOM     35  C   UNL A   1      38.986  19.991  25.104  1.00  0.00     0.021 C 
BRANCH  35  36
ATOM     36  C   UNL A   1      39.759  19.516  26.330  1.00  0.00     0.116 C 
BRANCH  36  37
ATOM     37  N   UNL A   1      41.065  18.968  25.998  1.00  0.00    -0.352 N 
ATOM     38  C   UNL A   1      42.289  19.583  25.922  1.00  0.00     0.251 C 
ATOM     39  H   UNL A   1      41.071  18.004  25.796  1.00  0.00     0.163 HD
ATOM     40  O   UNL A   1      43.258  18.975  25.477  1.00  0.00    -0.269 OA
BRANCH  38  41
ATOM     41  C   UNL A   1      42.438  20.989  26.345  1.00  0.00     0.039 A 
ATOM     42  C   UNL A   1      42.779  21.256  27.674  1.00  0.00     0.014 A 
ATOM     43  C   UNL A   1      42.250  22.039  25.443  1.00  0.00     0.014 A 
ATOM     44  C   UNL A   1      43.023  22.570  28.076  1.00  0.00     0.010 A 
ATOM     45  C   UNL A   1      42.558  23.343  25.827  1.00  0.00     0.010 A 
ATOM     46  C   UNL A   1      42.965  23.617  27.142  1.00  0.00    -0.014 A 
BRANCH  46  47
ATOM     47  C   UNL A   1      43.392  24.993  27.503  1.00  0.00     0.031 A 
ATOM     48  C   UNL A   1      42.412  25.970  28.081  1.00  0.00     0.074 A 
ATOM     49  C   UNL A   1      44.649  25.384  27.218  1.00  0.00     0.049 A 
ATOM     50  N   UNL A   1      42.575  27.240  28.358  1.00  0.00    -0.248 NA
ATOM     51  C   UNL A   1      41.062  25.461  28.367  1.00  0.00     0.031 C 
ATOM     52  C   UNL A   1      45.680  24.535  26.617  1.00  0.00     0.029 A 
ATOM     53  N   UNL A   1      45.269  26.599  27.374  1.00  0.00    -0.354 N 
ATOM     54  C   UNL A   1      41.349  27.683  28.835  1.00  0.00     0.074 A 
ATOM     55  C   UNL A   1      40.440  26.559  28.772  1.00  0.00     0.031 C 
ATOM     56  C   UNL A   1      46.804  25.250  26.462  1.00  0.00     0.029 A 
ATOM     57  C   UNL A   1      46.559  26.620  26.903  1.00  0.00     0.049 A 
ATOM     58  H   UNL A   1      44.832  27.379  27.784  1.00  0.00     0.167 HD
ATOM     59  C   UNL A   1      41.021  28.913  29.298  1.00  0.00     0.037 A 
ATOM     60  C   UNL A   1      47.439  27.636  26.806  1.00  0.00     0.037 A 
ATOM     61  C   UNL A   1      41.938  30.024  29.366  1.00  0.00     0.049 A 
ATOM     62  C   UNL A   1      47.037  29.002  27.289  1.00  0.00     0.074 A 
ATOM     63  C   UNL A   1      41.723  31.286  29.891  1.00  0.00     0.029 A 
ATOM     64  N   UNL A   1      43.236  30.010  28.877  1.00  0.00    -0.354 N 
ATOM     65  N   UNL A   1      45.903  29.390  27.820  1.00  0.00    -0.248 NA
ATOM     66  C   UNL A   1      48.034  30.074  27.157  1.00  0.00     0.031 C 
ATOM     67  C   UNL A   1      42.866  32.058  29.653  1.00  0.00     0.029 A 
ATOM     68  C   UNL A   1      43.817  31.258  29.039  1.00  0.00     0.049 A 
ATOM     69  H   UNL A   1      43.680  29.229  28.473  1.00  0.00     0.167 HD
ATOM     70  C   UNL A   1      46.052  30.742  28.096  1.00  0.00     0.074 A 
ATOM     71  C   UNL A   1      47.397  31.103  27.698  1.00  0.00     0.031 C 
ATOM     72  C   UNL A   1      45.153  31.608  28.625  1.00  0.00     0.037 A 
BRANCH  59  73
ATOM     73  C   UNL A   1      39.605  29.135  29.750  1.00  0.00     0.064 A 
ATOM     74  C   UNL A   1      39.212  28.938  31.082  1.00  0.00     0.173 A 
ATOM     75  C   UNL A   1      38.636  29.591  28.843  1.00  0.00     0.173 A 
ATOM     76  F   UNL A   1      40.096  28.497  31.989  1.00  0.00    -0.203 F 
ATOM     77  C   UNL A   1      37.895  29.158  31.482  1.00  0.00     0.198 A 
ATOM     78  C   UNL A   1      37.330  29.842  29.253  1.00  0.00     0.198 A 
ATOM     79  F   UNL A   1      38.958  29.805  27.557  1.00  0.00    -0.203 F 
ATOM     80  F   UNL A   1      37.532  28.912  32.748  1.00  0.00    -0.200 F 
ATOM     81  C   UNL A   1      36.958  29.616  30.570  1.00  0.00     0.200 A 
ATOM     82  F   UNL A   1      36.429  30.302  28.373  1.00  0.00    -0.200 F 
ATOM     83  F   UNL A   1      35.694  29.834  30.957  1.00  0.00    -0.200 F 
ENDBRANCH  59  73
BRANCH  60  84
ATOM     84  C   UNL A   1      48.781  27.396  26.213  1.00  0.00     0.064 A 
ATOM     85  C   UNL A   1      49.882  27.078  27.018  1.00  0.00     0.173 A 
ATOM     86  C   UNL A   1      48.987  27.471  24.826  1.00  0.00     0.173 A 
ATOM     87  F   UNL A   1      49.741  27.017  28.351  1.00  0.00    -0.203 F 
ATOM     88  C   UNL A   1      51.142  26.859  26.463  1.00  0.00     0.198 A 
ATOM     89  C   UNL A   1      50.239  27.219  24.269  1.00  0.00     0.198 A 
ATOM     90  F   UNL A   1      47.966  27.768  24.009  1.00  0.00    -0.203 F 
ATOM     91  F   UNL A   1      52.186  26.600  27.260  1.00  0.00    -0.200 F 
ATOM     92  C   UNL A   1      51.317  26.921  25.088  1.00  0.00     0.200 A 
ATOM     93  F   UNL A   1      50.399  27.262  22.939  1.00  0.00    -0.200 F 
ATOM     94  F   UNL A   1      52.526  26.700  24.553  1.00  0.00    -0.200 F 
ENDBRANCH  60  84
BRANCH  72  95
ATOM     95  C   UNL A   1      45.590  33.034  28.803  1.00  0.00     0.064 A 
ATOM     96  C   UNL A   1      45.413  33.987  27.789  1.00  0.00     0.173 A 
ATOM     97  C   UNL A   1      46.146  33.465  30.018  1.00  0.00     0.173 A 
ATOM     98  F   UNL A   1      44.904  33.623  26.602  1.00  0.00    -0.203 F 
ATOM     99  C   UNL A   1      45.792  35.314  27.978  1.00  0.00     0.198 A 
ATOM    100  C   UNL A   1      46.493  34.799  30.215  1.00  0.00     0.198 A 
ATOM    101  F   UNL A   1      46.332  32.596  31.023  1.00  0.00    -0.203 F 
ATOM    102  F   UNL A   1      45.655  36.196  26.979  1.00  0.00    -0.200 F 
ATOM    103  C   UNL A   1      46.322  35.720  29.194  1.00  0.00     0.200 A 
ATOM    104  F   UNL A   1      46.987  35.193  31.396  1.00  0.00    -0.200 F 
ATOM    105  F   UNL A   1      46.672  37.001  29.378  1.00  0.00    -0.200 F 
ENDBRANCH  72  95
ENDBRANCH  46  47
ENDBRANCH  38  41
ENDBRANCH  36  37
ENDBRANCH  35  36
ENDBRANCH  34  35
ENDBRANCH  33  34
ENDBRANCH  32  33
ENDBRANCH  31  32
ENDBRANCH   3  31
TORSDOF 21
ENDMDL
