MODEL 1
REMARK VINA RESULT:     -11.9      0.000      0.000
REMARK SMILES O=C(CCS(=O)(=O)Nc1ccc(-c2ccccc2)cc1)NCCCCCCNC(=O)c1ccc(-c2c3nc(c(-c4c(F)c(F)c(F)c(F)c4F)c4ccc([nH]4)c(-c4c(F)c(F)c(F)c(F)c4F)c4nc(c(-c5c(F)c(F)c(F)c(F)c5F)c5ccc2[nH]5)C=C4)C=C3)cc1
REMARK SMILES IDX 23 1 22 2 21 3 1 4 2 5 3 7 4 8 5 9 6 10 7 11 8 12 9 14 10 15
REMARK SMILES IDX 20 16 11 17 19 18 12 19 13 20 14 21 18 22 15 23 17 24 16 25
REMARK SMILES IDX 24 26 25 27 26 28 27 29 28 30 29 31 30 33 31 34 32 35 93 36
REMARK SMILES IDX 33 37 92 38 34 39 35 40 36 41 86 42 37 43 91 44 85 45 87 46
REMARK SMILES IDX 38 47 90 48 84 49 83 50 39 52 71 53 51 54 70 55 52 56 55 57
REMARK SMILES IDX 69 58 88 59 53 60 54 61 68 63 89 64 56 65 40 66 41 67 49 68
REMARK SMILES IDX 42 69 43 70 47 71 50 72 44 73 45 74 48 75 46 76 72 77 73 78
REMARK SMILES IDX 81 79 74 80 75 81 79 82 82 83 76 84 77 85 80 86 78 87 57 88
REMARK SMILES IDX 58 89 66 90 59 91 60 92 64 93 67 94 61 95 62 96 65 97 63 98
REMARK H PARENT 21 6 8 13 28 32 87 51 55 62
REMARK Flexibility Score: inf
ROOT
ATOM      1  C   UNL A   1      36.985  23.207  25.126  1.00  0.00     0.021 C 
ENDROOT
BRANCH   1   2
ATOM      2  C   UNL A   1      35.760  23.849  25.776  1.00  0.00     0.116 C 
BRANCH   2   3
ATOM      3  N   UNL A   1      35.095  24.799  24.910  1.00  0.00    -0.356 N 
ATOM      4  O   UNL A   1      33.382  25.398  26.313  1.00  0.00    -0.275 OA
ATOM      5  C   UNL A   1      34.021  25.565  25.279  1.00  0.00     0.221 C 
ATOM      6  H   UNL A   1      35.437  24.902  23.992  1.00  0.00     0.163 HD
BRANCH   5   7
ATOM      7  C   UNL A   1      33.664  26.663  24.293  1.00  0.00     0.118 C 
BRANCH   7   8
ATOM      8  C   UNL A   1      32.413  26.465  23.440  1.00  0.00     0.170 C 
BRANCH   8   9
ATOM      9  S   UNL A   1      32.457  25.117  22.254  1.00  0.00     0.233 S 
ATOM     10  O   UNL A   1      31.894  25.563  20.994  1.00  0.00    -0.207 OA
ATOM     11  O   UNL A   1      33.810  24.604  22.250  1.00  0.00    -0.207 OA
BRANCH   9  12
ATOM     12  N   UNL A   1      31.534  23.835  22.824  1.00  0.00    -0.284 N 
ATOM     13  H   UNL A   1      30.559  23.964  22.859  1.00  0.00     0.180 HD
BRANCH  12  14
ATOM     14  C   UNL A   1      32.043  22.570  23.262  1.00  0.00     0.049 A 
ATOM     15  C   UNL A   1      32.453  22.399  24.592  1.00  0.00     0.027 A 
ATOM     16  C   UNL A   1      31.959  21.440  22.461  1.00  0.00     0.027 A 
ATOM     17  C   UNL A   1      32.863  21.134  25.066  1.00  0.00     0.011 A 
ATOM     18  C   UNL A   1      32.408  20.200  22.909  1.00  0.00     0.011 A 
ATOM     19  C   UNL A   1      32.868  20.024  24.214  1.00  0.00    -0.018 A 
BRANCH  19  20
ATOM     20  C   UNL A   1      33.266  18.676  24.619  1.00  0.00    -0.018 A 
ATOM     21  C   UNL A   1      32.516  17.980  25.578  1.00  0.00     0.009 A 
ATOM     22  C   UNL A   1      34.273  17.986  23.924  1.00  0.00     0.009 A 
ATOM     23  C   UNL A   1      32.745  16.623  25.817  1.00  0.00     0.001 A 
ATOM     24  C   UNL A   1      34.505  16.629  24.167  1.00  0.00     0.001 A 
ATOM     25  C   UNL A   1      33.734  15.947  25.105  1.00  0.00     0.000 A 
ENDBRANCH  19  20
ENDBRANCH  12  14
ENDBRANCH   9  12
ENDBRANCH   8   9
ENDBRANCH   7   8
ENDBRANCH   5   7
ENDBRANCH   2   3
ENDBRANCH   1   2
BRANCH   1  26
ATOM     26  C   UNL A   1      36.713  21.956  24.278  1.00  0.00     0.002 C 
BRANCH  26  27
ATOM     27  C   UNL A   1      36.711  20.619  25.025  1.00  0.00     0.002 C 
BRANCH  27  28
ATOM     28  C   UNL A   1      37.976  19.773  24.882  1.00  0.00     0.021 C 
BRANCH  28  29
ATOM     29  C   UNL A   1      39.118  20.136  25.826  1.00  0.00     0.116 C 
BRANCH  29  30
ATOM     30  N   UNL A   1      40.182  19.144  25.855  1.00  0.00    -0.352 N 
ATOM     31  C   UNL A   1      41.523  19.309  26.101  1.00  0.00     0.251 C 
ATOM     32  H   UNL A   1      39.900  18.220  25.670  1.00  0.00     0.163 HD
ATOM     33  O   UNL A   1      42.294  18.362  25.979  1.00  0.00    -0.269 OA
BRANCH  31  34
ATOM     34  C   UNL A   1      42.051  20.639  26.479  1.00  0.00     0.039 A 
ATOM     35  C   UNL A   1      42.365  21.546  25.464  1.00  0.00     0.014 A 
ATOM     36  C   UNL A   1      42.231  20.997  27.817  1.00  0.00     0.014 A 
ATOM     37  C   UNL A   1      42.796  22.833  25.793  1.00  0.00     0.010 A 
ATOM     38  C   UNL A   1      42.578  22.305  28.144  1.00  0.00     0.010 A 
ATOM     39  C   UNL A   1      42.869  23.236  27.137  1.00  0.00    -0.014 A 
BRANCH  39  40
ATOM     40  C   UNL A   1      43.238  24.630  27.497  1.00  0.00     0.031 A 
ATOM     41  C   UNL A   1      44.678  25.063  27.490  1.00  0.00     0.074 A 
ATOM     42  C   UNL A   1      42.278  25.492  27.883  1.00  0.00     0.049 A 
ATOM     43  N   UNL A   1      45.194  26.230  27.787  1.00  0.00    -0.248 NA
ATOM     44  C   UNL A   1      45.673  24.044  27.128  1.00  0.00     0.031 C 
ATOM     45  C   UNL A   1      40.851  25.178  27.978  1.00  0.00     0.029 A 
ATOM     46  N   UNL A   1      42.354  26.808  28.264  1.00  0.00    -0.354 N 
ATOM     47  C   UNL A   1      46.569  26.079  27.663  1.00  0.00     0.074 A 
ATOM     48  C   UNL A   1      46.811  24.694  27.322  1.00  0.00     0.031 C 
ATOM     49  C   UNL A   1      40.182  26.282  28.347  1.00  0.00     0.029 A 
ATOM     50  C   UNL A   1      41.134  27.368  28.556  1.00  0.00     0.049 A 
ATOM     51  H   UNL A   1      43.202  27.303  28.322  1.00  0.00     0.167 HD
ATOM     52  C   UNL A   1      47.539  27.015  27.798  1.00  0.00     0.037 A 
ATOM     53  C   UNL A   1      40.820  28.617  28.946  1.00  0.00     0.037 A 
ATOM     54  C   UNL A   1      47.290  28.397  28.121  1.00  0.00     0.049 A 
ATOM     55  C   UNL A   1      41.919  29.633  29.109  1.00  0.00     0.074 A 
ATOM     56  C   UNL A   1      48.194  29.440  28.208  1.00  0.00     0.029 A 
ATOM     57  N   UNL A   1      46.042  28.925  28.424  1.00  0.00    -0.354 N 
ATOM     58  N   UNL A   1      43.207  29.503  28.902  1.00  0.00    -0.248 NA
ATOM     59  C   UNL A   1      41.515  30.972  29.557  1.00  0.00     0.031 C 
ATOM     60  C   UNL A   1      47.505  30.582  28.631  1.00  0.00     0.029 A 
ATOM     61  C   UNL A   1      46.160  30.270  28.738  1.00  0.00     0.049 A 
ATOM     62  H   UNL A   1      45.198  28.418  28.417  1.00  0.00     0.167 HD
ATOM     63  C   UNL A   1      43.763  30.750  29.159  1.00  0.00     0.074 A 
ATOM     64  C   UNL A   1      42.667  31.625  29.521  1.00  0.00     0.031 C 
ATOM     65  C   UNL A   1      45.062  31.133  29.098  1.00  0.00     0.037 A 
BRANCH  52  66
ATOM     66  C   UNL A   1      48.964  26.568  27.614  1.00  0.00     0.064 A 
ATOM     67  C   UNL A   1      49.545  26.445  26.342  1.00  0.00     0.173 A 
ATOM     68  C   UNL A   1      49.764  26.270  28.727  1.00  0.00     0.173 A 
ATOM     69  F   UNL A   1      48.826  26.709  25.241  1.00  0.00    -0.203 F 
ATOM     70  C   UNL A   1      50.856  25.999  26.191  1.00  0.00     0.198 A 
ATOM     71  C   UNL A   1      51.086  25.861  28.575  1.00  0.00     0.198 A 
ATOM     72  F   UNL A   1      49.264  26.378  29.968  1.00  0.00    -0.203 F 
ATOM     73  F   UNL A   1      51.365  25.825  24.963  1.00  0.00    -0.200 F 
ATOM     74  C   UNL A   1      51.627  25.713  27.307  1.00  0.00     0.200 A 
ATOM     75  F   UNL A   1      51.835  25.601  29.656  1.00  0.00    -0.200 F 
ATOM     76  F   UNL A   1      52.888  25.284  27.160  1.00  0.00    -0.200 F 
ENDBRANCH  52  66
BRANCH  53  77
ATOM     77  C   UNL A   1      39.398  28.993  29.166  1.00  0.00     0.064 A 
ATOM     78  C   UNL A   1      38.607  29.451  28.103  1.00  0.00     0.173 A 
ATOM     79  C   UNL A   1      38.801  28.908  30.432  1.00  0.00     0.173 A 
ATOM     80  F   UNL A   1      39.137  29.570  26.876  1.00  0.00    -0.203 F 
ATOM     81  C   UNL A   1      37.280  29.829  28.301  1.00  0.00     0.198 A 
ATOM     82  C   UNL A   1      37.466  29.256  30.623  1.00  0.00     0.198 A 
ATOM     83  F   UNL A   1      39.513  28.472  31.482  1.00  0.00    -0.203 F 
ATOM     84  F   UNL A   1      36.562  30.308  27.277  1.00  0.00    -0.200 F 
ATOM     85  C   UNL A   1      36.709  29.725  29.560  1.00  0.00     0.200 A 
ATOM     86  F   UNL A   1      36.913  29.139  31.838  1.00  0.00    -0.200 F 
ATOM     87  F   UNL A   1      35.432  30.082  29.750  1.00  0.00    -0.200 F 
ENDBRANCH  53  77
BRANCH  65  88
ATOM     88  C   UNL A   1      45.366  32.577  29.394  1.00  0.00     0.064 A 
ATOM     89  C   UNL A   1      45.720  33.011  30.679  1.00  0.00     0.173 A 
ATOM     90  C   UNL A   1      45.320  33.534  28.368  1.00  0.00     0.173 A 
ATOM     91  F   UNL A   1      45.765  32.140  31.699  1.00  0.00    -0.203 F 
ATOM     92  C   UNL A   1      45.977  34.357  30.936  1.00  0.00     0.198 A 
ATOM     93  C   UNL A   1      45.615  34.871  28.620  1.00  0.00     0.198 A 
ATOM     94  F   UNL A   1      44.995  33.173  27.118  1.00  0.00    -0.203 F 
ATOM     95  F   UNL A   1      46.248  34.758  32.186  1.00  0.00    -0.200 F 
ATOM     96  C   UNL A   1      45.932  35.283  29.905  1.00  0.00     0.200 A 
ATOM     97  F   UNL A   1      45.587  35.761  27.619  1.00  0.00    -0.200 F 
ATOM     98  F   UNL A   1      46.182  36.576  30.154  1.00  0.00    -0.200 F 
ENDBRANCH  65  88
ENDBRANCH  39  40
ENDBRANCH  31  34
ENDBRANCH  29  30
ENDBRANCH  28  29
ENDBRANCH  27  28
ENDBRANCH  26  27
ENDBRANCH   1  26
TORSDOF 18
ENDMDL
MODEL 2
REMARK VINA RESULT:     -11.9      0.881      7.202
REMARK SMILES O=C(CCS(=O)(=O)Nc1ccc(-c2ccccc2)cc1)NCCCCCCNC(=O)c1ccc(-c2c3nc(c(-c4c(F)c(F)c(F)c(F)c4F)c4ccc([nH]4)c(-c4c(F)c(F)c(F)c(F)c4F)c4nc(c(-c5c(F)c(F)c(F)c(F)c5F)c5ccc2[nH]5)C=C4)C=C3)cc1
REMARK SMILES IDX 23 1 22 2 21 3 1 4 2 5 3 7 4 8 5 9 6 10 7 11 8 12 9 14 10 15
REMARK SMILES IDX 20 16 11 17 19 18 12 19 13 20 14 21 18 22 15 23 17 24 16 25
REMARK SMILES IDX 24 26 25 27 26 28 27 29 28 30 29 31 30 33 31 34 32 35 93 36
REMARK SMILES IDX 33 37 92 38 34 39 35 40 36 41 86 42 37 43 91 44 85 45 87 46
REMARK SMILES IDX 38 47 90 48 84 49 83 50 39 52 71 53 51 54 70 55 52 56 55 57
REMARK SMILES IDX 69 58 88 59 53 60 54 61 68 63 89 64 56 65 40 66 41 67 49 68
REMARK SMILES IDX 42 69 43 70 47 71 50 72 44 73 45 74 48 75 46 76 72 77 73 78
REMARK SMILES IDX 81 79 74 80 75 81 79 82 82 83 76 84 77 85 80 86 78 87 57 88
REMARK SMILES IDX 58 89 66 90 59 91 60 92 64 93 67 94 61 95 62 96 65 97 63 98
REMARK H PARENT 21 6 8 13 28 32 87 51 55 62
REMARK Flexibility Score: inf
ROOT
ATOM      1  C   UNL A   1      37.063  23.277  25.135  1.00  0.00     0.021 C 
ENDROOT
BRANCH   1   2
ATOM      2  C   UNL A   1      35.846  23.692  25.960  1.00  0.00     0.116 C 
BRANCH   2   3
ATOM      3  N   UNL A   1      34.853  24.403  25.183  1.00  0.00    -0.356 N 
ATOM      4  O   UNL A   1      33.126  24.335  26.690  1.00  0.00    -0.275 OA
ATOM      5  C   UNL A   1      33.611  24.750  25.643  1.00  0.00     0.221 C 
ATOM      6  H   UNL A   1      35.086  24.654  24.259  1.00  0.00     0.163 HD
BRANCH   5   7
ATOM      7  C   UNL A   1      32.852  25.708  24.741  1.00  0.00     0.118 C 
BRANCH   7   8
ATOM      8  C   UNL A   1      33.387  25.918  23.327  1.00  0.00     0.170 C 
BRANCH   8   9
ATOM      9  S   UNL A   1      33.262  24.519  22.207  1.00  0.00     0.233 S 
ATOM     10  O   UNL A   1      32.919  24.992  20.880  1.00  0.00    -0.207 OA
ATOM     11  O   UNL A   1      34.477  23.748  22.360  1.00  0.00    -0.207 OA
BRANCH   9  12
ATOM     12  N   UNL A   1      32.050  23.483  22.733  1.00  0.00    -0.284 N 
ATOM     13  H   UNL A   1      31.136  23.847  22.778  1.00  0.00     0.180 HD
BRANCH  12  14
ATOM     14  C   UNL A   1      32.230  22.116  23.121  1.00  0.00     0.049 A 
ATOM     15  C   UNL A   1      32.010  21.086  22.196  1.00  0.00     0.027 A 
ATOM     16  C   UNL A   1      32.809  21.781  24.336  1.00  0.00     0.027 A 
ATOM     17  C   UNL A   1      32.277  19.742  22.532  1.00  0.00     0.011 A 
ATOM     18  C   UNL A   1      33.030  20.452  24.691  1.00  0.00     0.011 A 
ATOM     19  C   UNL A   1      32.767  19.411  23.799  1.00  0.00    -0.018 A 
BRANCH  19  20
ATOM     20  C   UNL A   1      33.082  18.050  24.233  1.00  0.00    -0.018 A 
ATOM     21  C   UNL A   1      34.326  17.483  23.920  1.00  0.00     0.009 A 
ATOM     22  C   UNL A   1      32.239  17.367  25.124  1.00  0.00     0.009 A 
ATOM     23  C   UNL A   1      34.731  16.280  24.504  1.00  0.00     0.001 A 
ATOM     24  C   UNL A   1      32.642  16.161  25.705  1.00  0.00     0.001 A 
ATOM     25  C   UNL A   1      33.891  15.625  25.402  1.00  0.00     0.000 A 
ENDBRANCH  19  20
ENDBRANCH  12  14
ENDBRANCH   9  12
ENDBRANCH   8   9
ENDBRANCH   7   8
ENDBRANCH   5   7
ENDBRANCH   2   3
ENDBRANCH   1   2
BRANCH   1  26
ATOM     26  C   UNL A   1      36.889  22.017  24.275  1.00  0.00     0.002 C 
BRANCH  26  27
ATOM     27  C   UNL A   1      36.710  20.698  25.035  1.00  0.00     0.002 C 
BRANCH  27  28
ATOM     28  C   UNL A   1      37.888  19.726  24.970  1.00  0.00     0.021 C 
BRANCH  28  29
ATOM     29  C   UNL A   1      39.139  20.159  25.727  1.00  0.00     0.116 C 
BRANCH  29  30
ATOM     30  N   UNL A   1      40.147  19.115  25.823  1.00  0.00    -0.352 N 
ATOM     31  C   UNL A   1      41.495  19.221  26.069  1.00  0.00     0.251 C 
ATOM     32  H   UNL A   1      39.816  18.198  25.691  1.00  0.00     0.163 HD
ATOM     33  O   UNL A   1      42.213  18.228  26.009  1.00  0.00    -0.269 OA
BRANCH  31  34
ATOM     34  C   UNL A   1      42.092  20.541  26.370  1.00  0.00     0.039 A 
ATOM     35  C   UNL A   1      42.544  21.328  25.309  1.00  0.00     0.014 A 
ATOM     36  C   UNL A   1      42.204  21.006  27.683  1.00  0.00     0.014 A 
ATOM     37  C   UNL A   1      43.046  22.608  25.558  1.00  0.00     0.010 A 
ATOM     38  C   UNL A   1      42.624  22.312  27.922  1.00  0.00     0.010 A 
ATOM     39  C   UNL A   1      43.054  23.125  26.864  1.00  0.00    -0.014 A 
BRANCH  39  40
ATOM     40  C   UNL A   1      43.499  24.518  27.131  1.00  0.00     0.031 A 
ATOM     41  C   UNL A   1      42.537  25.533  27.682  1.00  0.00     0.074 A 
ATOM     42  C   UNL A   1      44.760  24.881  26.826  1.00  0.00     0.049 A 
ATOM     43  N   UNL A   1      42.737  26.796  27.966  1.00  0.00    -0.248 NA
ATOM     44  C   UNL A   1      41.160  25.078  27.921  1.00  0.00     0.031 C 
ATOM     45  C   UNL A   1      45.773  24.002  26.241  1.00  0.00     0.029 A 
ATOM     46  N   UNL A   1      45.406  26.084  26.967  1.00  0.00    -0.354 N 
ATOM     47  C   UNL A   1      41.512  27.286  28.400  1.00  0.00     0.074 A 
ATOM     48  C   UNL A   1      40.562  26.202  28.284  1.00  0.00     0.031 C 
ATOM     49  C   UNL A   1      46.925  24.681  26.115  1.00  0.00     0.029 A 
ATOM     50  C   UNL A   1      46.720  26.052  26.569  1.00  0.00     0.049 A 
ATOM     51  H   UNL A   1      44.969  26.891  27.321  1.00  0.00     0.167 HD
ATOM     52  C   UNL A   1      41.213  28.520  28.872  1.00  0.00     0.037 A 
ATOM     53  C   UNL A   1      47.655  27.021  26.573  1.00  0.00     0.037 A 
ATOM     54  C   UNL A   1      42.169  29.591  28.999  1.00  0.00     0.049 A 
ATOM     55  C   UNL A   1      47.290  28.389  27.083  1.00  0.00     0.074 A 
ATOM     56  C   UNL A   1      41.986  30.853  29.534  1.00  0.00     0.029 A 
ATOM     57  N   UNL A   1      43.488  29.527  28.572  1.00  0.00    -0.354 N 
ATOM     58  N   UNL A   1      46.154  28.817  27.574  1.00  0.00    -0.248 NA
ATOM     59  C   UNL A   1      48.348  29.409  27.042  1.00  0.00     0.031 C 
ATOM     60  C   UNL A   1      43.172  31.576  29.368  1.00  0.00     0.029 A 
ATOM     61  C   UNL A   1      44.119  30.742  28.796  1.00  0.00     0.049 A 
ATOM     62  H   UNL A   1      43.914  28.735  28.171  1.00  0.00     0.167 HD
ATOM     63  C   UNL A   1      46.366  30.142  27.933  1.00  0.00     0.074 A 
ATOM     64  C   UNL A   1      47.747  30.440  27.617  1.00  0.00     0.031 C 
ATOM     65  C   UNL A   1      45.495  31.029  28.477  1.00  0.00     0.037 A 
BRANCH  52  66
ATOM     66  C   UNL A   1      39.786  28.784  29.269  1.00  0.00     0.064 A 
ATOM     67  C   UNL A   1      39.331  28.584  30.582  1.00  0.00     0.173 A 
ATOM     68  C   UNL A   1      38.862  29.255  28.324  1.00  0.00     0.173 A 
ATOM     69  F   UNL A   1      40.169  28.127  31.525  1.00  0.00    -0.203 F 
ATOM     70  C   UNL A   1      37.999  28.803  30.922  1.00  0.00     0.198 A 
ATOM     71  C   UNL A   1      37.539  29.509  28.676  1.00  0.00     0.198 A 
ATOM     72  F   UNL A   1      39.241  29.472  27.055  1.00  0.00    -0.203 F 
ATOM     73  F   UNL A   1      37.574  28.538  32.166  1.00  0.00    -0.200 F 
ATOM     74  C   UNL A   1      37.105  29.270  29.971  1.00  0.00     0.200 A 
ATOM     75  F   UNL A   1      36.680  29.977  27.759  1.00  0.00    -0.200 F 
ATOM     76  F   UNL A   1      35.823  29.480  30.300  1.00  0.00    -0.200 F 
ENDBRANCH  52  66
BRANCH  53  77
ATOM     77  C   UNL A   1      49.039  26.721  26.120  1.00  0.00     0.064 A 
ATOM     78  C   UNL A   1      49.440  27.005  24.807  1.00  0.00     0.173 A 
ATOM     79  C   UNL A   1      49.986  26.145  26.979  1.00  0.00     0.173 A 
ATOM     80  F   UNL A   1      48.565  27.538  23.940  1.00  0.00    -0.203 F 
ATOM     81  C   UNL A   1      50.727  26.707  24.364  1.00  0.00     0.198 A 
ATOM     82  C   UNL A   1      51.282  25.875  26.544  1.00  0.00     0.198 A 
ATOM     83  F   UNL A   1      49.656  25.856  28.246  1.00  0.00    -0.203 F 
ATOM     84  F   UNL A   1      51.067  26.946  23.090  1.00  0.00    -0.200 F 
ATOM     85  C   UNL A   1      51.649  26.147  25.235  1.00  0.00     0.200 A 
ATOM     86  F   UNL A   1      52.175  25.349  27.394  1.00  0.00    -0.200 F 
ATOM     87  F   UNL A   1      52.888  25.866  24.811  1.00  0.00    -0.200 F 
ENDBRANCH  53  77
BRANCH  65  88
ATOM     88  C   UNL A   1      46.025  32.399  28.801  1.00  0.00     0.064 A 
ATOM     89  C   UNL A   1      46.627  32.687  30.035  1.00  0.00     0.173 A 
ATOM     90  C   UNL A   1      45.946  33.432  27.854  1.00  0.00     0.173 A 
ATOM     91  F   UNL A   1      46.716  31.741  30.982  1.00  0.00    -0.203 F 
ATOM     92  C   UNL A   1      47.092  33.969  30.324  1.00  0.00     0.198 A 
ATOM     93  C   UNL A   1      46.447  34.700  28.132  1.00  0.00     0.198 A 
ATOM     94  F   UNL A   1      45.387  33.209  26.655  1.00  0.00    -0.203 F 
ATOM     95  F   UNL A   1      47.603  34.236  31.534  1.00  0.00    -0.200 F 
ATOM     96  C   UNL A   1      47.009  34.971  29.369  1.00  0.00     0.200 A 
ATOM     97  F   UNL A   1      46.381  35.663  27.202  1.00  0.00    -0.200 F 
ATOM     98  F   UNL A   1      47.460  36.202  29.648  1.00  0.00    -0.200 F 
ENDBRANCH  65  88
ENDBRANCH  39  40
ENDBRANCH  31  34
ENDBRANCH  29  30
ENDBRANCH  28  29
ENDBRANCH  27  28
ENDBRANCH  26  27
ENDBRANCH   1  26
TORSDOF 18
ENDMDL
MODEL 3
REMARK VINA RESULT:     -11.8      0.723      2.168
REMARK SMILES O=C(CCS(=O)(=O)Nc1ccc(-c2ccccc2)cc1)NCCCCCCNC(=O)c1ccc(-c2c3nc(c(-c4c(F)c(F)c(F)c(F)c4F)c4ccc([nH]4)c(-c4c(F)c(F)c(F)c(F)c4F)c4nc(c(-c5c(F)c(F)c(F)c(F)c5F)c5ccc2[nH]5)C=C4)C=C3)cc1
REMARK SMILES IDX 23 1 22 2 21 3 1 4 2 5 3 7 4 8 5 9 6 10 7 11 8 12 9 14 10 15
REMARK SMILES IDX 20 16 11 17 19 18 12 19 13 20 14 21 18 22 15 23 17 24 16 25
REMARK SMILES IDX 24 26 25 27 26 28 27 29 28 30 29 31 30 33 31 34 32 35 93 36
REMARK SMILES IDX 33 37 92 38 34 39 35 40 36 41 86 42 37 43 91 44 85 45 87 46
REMARK SMILES IDX 38 47 90 48 84 49 83 50 39 52 71 53 51 54 70 55 52 56 55 57
REMARK SMILES IDX 69 58 88 59 53 60 54 61 68 63 89 64 56 65 40 66 41 67 49 68
REMARK SMILES IDX 42 69 43 70 47 71 50 72 44 73 45 74 48 75 46 76 72 77 73 78
REMARK SMILES IDX 81 79 74 80 75 81 79 82 82 83 76 84 77 85 80 86 78 87 57 88
REMARK SMILES IDX 58 89 66 90 59 91 60 92 64 93 67 94 61 95 62 96 65 97 63 98
REMARK H PARENT 21 6 8 13 28 32 87 51 55 62
REMARK Flexibility Score: inf
ROOT
ATOM      1  C   UNL A   1      37.103  23.249  25.177  1.00  0.00     0.021 C 
ENDROOT
BRANCH   1   2
ATOM      2  C   UNL A   1      35.889  23.676  26.001  1.00  0.00     0.116 C 
BRANCH   2   3
ATOM      3  N   UNL A   1      34.880  24.351  25.213  1.00  0.00    -0.356 N 
ATOM      4  O   UNL A   1      33.136  24.210  26.695  1.00  0.00    -0.275 OA
ATOM      5  C   UNL A   1      33.619  24.648  25.656  1.00  0.00     0.221 C 
ATOM      6  H   UNL A   1      35.116  24.615  24.294  1.00  0.00     0.163 HD
BRANCH   5   7
ATOM      7  C   UNL A   1      32.837  25.579  24.747  1.00  0.00     0.118 C 
BRANCH   7   8
ATOM      8  C   UNL A   1      33.409  25.855  23.359  1.00  0.00     0.170 C 
BRANCH   8   9
ATOM      9  S   UNL A   1      33.255  24.534  22.152  1.00  0.00     0.233 S 
ATOM     10  O   UNL A   1      32.934  25.099  20.856  1.00  0.00    -0.207 OA
ATOM     11  O   UNL A   1      34.447  23.721  22.263  1.00  0.00    -0.207 OA
BRANCH   9  12
ATOM     12  N   UNL A   1      32.011  23.501  22.604  1.00  0.00    -0.284 N 
ATOM     13  H   UNL A   1      31.098  23.870  22.605  1.00  0.00     0.180 HD
BRANCH  12  14
ATOM     14  C   UNL A   1      32.162  22.129  22.988  1.00  0.00     0.049 A 
ATOM     15  C   UNL A   1      31.947  21.108  22.051  1.00  0.00     0.027 A 
ATOM     16  C   UNL A   1      32.711  21.778  24.212  1.00  0.00     0.027 A 
ATOM     17  C   UNL A   1      32.187  19.758  22.385  1.00  0.00     0.011 A 
ATOM     18  C   UNL A   1      32.905  20.444  24.563  1.00  0.00     0.011 A 
ATOM     19  C   UNL A   1      32.645  19.412  23.661  1.00  0.00    -0.018 A 
BRANCH  19  20
ATOM     20  C   UNL A   1      32.931  18.044  24.092  1.00  0.00    -0.018 A 
ATOM     21  C   UNL A   1      34.015  17.345  23.541  1.00  0.00     0.009 A 
ATOM     22  C   UNL A   1      32.260  17.483  25.190  1.00  0.00     0.009 A 
ATOM     23  C   UNL A   1      34.437  16.132  24.090  1.00  0.00     0.001 A 
ATOM     24  C   UNL A   1      32.678  16.266  25.737  1.00  0.00     0.001 A 
ATOM     25  C   UNL A   1      33.772  15.598  25.192  1.00  0.00     0.000 A 
ENDBRANCH  19  20
ENDBRANCH  12  14
ENDBRANCH   9  12
ENDBRANCH   8   9
ENDBRANCH   7   8
ENDBRANCH   5   7
ENDBRANCH   2   3
ENDBRANCH   1   2
BRANCH   1  26
ATOM     26  C   UNL A   1      36.894  22.036  24.259  1.00  0.00     0.002 C 
BRANCH  26  27
ATOM     27  C   UNL A   1      36.665  20.691  24.956  1.00  0.00     0.002 C 
BRANCH  27  28
ATOM     28  C   UNL A   1      37.854  19.730  24.959  1.00  0.00     0.021 C 
BRANCH  28  29
ATOM     29  C   UNL A   1      39.077  20.201  25.738  1.00  0.00     0.116 C 
BRANCH  29  30
ATOM     30  N   UNL A   1      40.124  19.197  25.833  1.00  0.00    -0.352 N 
ATOM     31  C   UNL A   1      41.463  19.352  26.103  1.00  0.00     0.251 C 
ATOM     32  H   UNL A   1      39.832  18.270  25.680  1.00  0.00     0.163 HD
ATOM     33  O   UNL A   1      42.220  18.390  26.039  1.00  0.00    -0.269 OA
BRANCH  31  34
ATOM     34  C   UNL A   1      42.002  20.689  26.437  1.00  0.00     0.039 A 
ATOM     35  C   UNL A   1      42.287  21.574  25.394  1.00  0.00     0.014 A 
ATOM     36  C   UNL A   1      42.222  21.076  27.761  1.00  0.00     0.014 A 
ATOM     37  C   UNL A   1      42.728  22.867  25.682  1.00  0.00     0.010 A 
ATOM     38  C   UNL A   1      42.579  22.390  28.049  1.00  0.00     0.010 A 
ATOM     39  C   UNL A   1      42.841  23.299  27.014  1.00  0.00    -0.014 A 
BRANCH  39  40
ATOM     40  C   UNL A   1      43.221  24.699  27.334  1.00  0.00     0.031 A 
ATOM     41  C   UNL A   1      44.626  25.180  27.099  1.00  0.00     0.074 A 
ATOM     42  C   UNL A   1      42.311  25.525  27.886  1.00  0.00     0.049 A 
ATOM     43  N   UNL A   1      45.148  26.359  27.328  1.00  0.00    -0.248 NA
ATOM     44  C   UNL A   1      45.580  24.198  26.562  1.00  0.00     0.031 C 
ATOM     45  C   UNL A   1      40.930  25.163  28.207  1.00  0.00     0.029 A 
ATOM     46  N   UNL A   1      42.409  26.838  28.272  1.00  0.00    -0.354 N 
ATOM     47  C   UNL A   1      46.489  26.255  26.979  1.00  0.00     0.074 A 
ATOM     48  C   UNL A   1      46.714  24.883  26.580  1.00  0.00     0.031 C 
ATOM     49  C   UNL A   1      40.297  26.240  28.700  1.00  0.00     0.029 A 
ATOM     50  C   UNL A   1      41.237  27.354  28.769  1.00  0.00     0.049 A 
ATOM     51  H   UNL A   1      43.240  27.360  28.199  1.00  0.00     0.167 HD
ATOM     52  C   UNL A   1      47.439  27.220  26.970  1.00  0.00     0.037 A 
ATOM     53  C   UNL A   1      40.953  28.588  29.226  1.00  0.00     0.037 A 
ATOM     54  C   UNL A   1      47.204  28.589  27.353  1.00  0.00     0.049 A 
ATOM     55  C   UNL A   1      42.033  29.636  29.225  1.00  0.00     0.074 A 
ATOM     56  C   UNL A   1      48.079  29.661  27.310  1.00  0.00     0.029 A 
ATOM     57  N   UNL A   1      46.008  29.072  27.865  1.00  0.00    -0.354 N 
ATOM     58  N   UNL A   1      43.272  29.552  28.809  1.00  0.00    -0.248 NA
ATOM     59  C   UNL A   1      41.667  30.957  29.756  1.00  0.00     0.031 C 
ATOM     60  C   UNL A   1      47.434  30.774  27.859  1.00  0.00     0.029 A 
ATOM     61  C   UNL A   1      46.134  30.417  28.179  1.00  0.00     0.049 A 
ATOM     62  H   UNL A   1      45.189  28.539  27.987  1.00  0.00     0.167 HD
ATOM     63  C   UNL A   1      43.825  30.813  28.993  1.00  0.00     0.074 A 
ATOM     64  C   UNL A   1      42.777  31.647  29.544  1.00  0.00     0.031 C 
ATOM     65  C   UNL A   1      45.085  31.239  28.728  1.00  0.00     0.037 A 
BRANCH  52  66
ATOM     66  C   UNL A   1      48.827  26.823  26.548  1.00  0.00     0.064 A 
ATOM     67  C   UNL A   1      49.761  26.304  27.458  1.00  0.00     0.173 A 
ATOM     68  C   UNL A   1      49.227  26.954  25.209  1.00  0.00     0.173 A 
ATOM     69  F   UNL A   1      49.437  26.165  28.753  1.00  0.00    -0.203 F 
ATOM     70  C   UNL A   1      51.052  25.973  27.055  1.00  0.00     0.198 A 
ATOM     71  C   UNL A   1      50.507  26.586  24.800  1.00  0.00     0.198 A 
ATOM     72  F   UNL A   1      48.374  27.437  24.292  1.00  0.00    -0.203 F 
ATOM     73  F   UNL A   1      51.945  25.543  27.957  1.00  0.00    -0.200 F 
ATOM     74  C   UNL A   1      51.421  26.109  25.726  1.00  0.00     0.200 A 
ATOM     75  F   UNL A   1      50.857  26.703  23.512  1.00  0.00    -0.200 F 
ATOM     76  F   UNL A   1      52.664  25.789  25.338  1.00  0.00    -0.200 F 
ENDBRANCH  52  66
BRANCH  53  77
ATOM     77  C   UNL A   1      39.576  28.914  29.682  1.00  0.00     0.064 A 
ATOM     78  C   UNL A   1      39.203  28.734  31.021  1.00  0.00     0.173 A 
ATOM     79  C   UNL A   1      38.605  29.405  28.797  1.00  0.00     0.173 A 
ATOM     80  F   UNL A   1      40.090  28.248  31.903  1.00  0.00    -0.203 F 
ATOM     81  C   UNL A   1      37.908  29.014  31.455  1.00  0.00     0.198 A 
ATOM     82  C   UNL A   1      37.319  29.713  29.237  1.00  0.00     0.198 A 
ATOM     83  F   UNL A   1      38.909  29.598  27.504  1.00  0.00    -0.203 F 
ATOM     84  F   UNL A   1      37.568  28.788  32.730  1.00  0.00    -0.200 F 
ATOM     85  C   UNL A   1      36.969  29.508  30.563  1.00  0.00     0.200 A 
ATOM     86  F   UNL A   1      36.419  30.206  28.376  1.00  0.00    -0.200 F 
ATOM     87  F   UNL A   1      35.727  29.783  30.981  1.00  0.00    -0.200 F 
ENDBRANCH  53  77
BRANCH  65  88
ATOM     88  C   UNL A   1      45.388  32.688  28.995  1.00  0.00     0.064 A 
ATOM     89  C   UNL A   1      45.148  33.684  28.037  1.00  0.00     0.173 A 
ATOM     90  C   UNL A   1      45.910  33.085  30.236  1.00  0.00     0.173 A 
ATOM     91  F   UNL A   1      44.664  33.358  26.829  1.00  0.00    -0.203 F 
ATOM     92  C   UNL A   1      45.456  35.018  28.297  1.00  0.00     0.198 A 
ATOM     93  C   UNL A   1      46.181  34.424  30.505  1.00  0.00     0.198 A 
ATOM     94  F   UNL A   1      46.152  32.176  31.191  1.00  0.00    -0.203 F 
ATOM     95  F   UNL A   1      45.279  35.942  27.342  1.00  0.00    -0.200 F 
ATOM     96  C   UNL A   1      45.965  35.388  29.533  1.00  0.00     0.200 A 
ATOM     97  F   UNL A   1      46.656  34.780  31.707  1.00  0.00    -0.200 F 
ATOM     98  F   UNL A   1      46.257  36.671  29.782  1.00  0.00    -0.200 F 
ENDBRANCH  65  88
ENDBRANCH  39  40
ENDBRANCH  31  34
ENDBRANCH  29  30
ENDBRANCH  28  29
ENDBRANCH  27  28
ENDBRANCH  26  27
ENDBRANCH   1  26
TORSDOF 18
ENDMDL
