MODEL 1
REMARK VINA RESULT:     -13.1      0.000      0.000
REMARK SMILES COc1ccccc1-n1nnc(C(=O)NCCCCCCNC(=O)c2ccc(-c3c4nc(c(-c5c(F)c(F)c(F)c(F)c5F)c5ccc([nH]5)c(-c5c(F)c(F)c(F)c(F)c5F)c5nc(c(-c6c(F)c(F)c(F)c(F)c6F)c6ccc3[nH]6)C=C5)C=C4)cc2)c1-c1ccc(Cl)cc1
REMARK SMILES IDX 18 1 17 2 16 3 15 4 13 5 14 6 12 8 9 9 10 10 88 11 11 12
REMARK SMILES IDX 8 13 3 14 4 15 5 16 7 17 6 18 2 19 1 20 89 21 90 22 95 23
REMARK SMILES IDX 91 24 94 25 92 26 93 27 19 28 20 29 21 30 22 31 23 32 24 34
REMARK SMILES IDX 25 35 26 36 87 37 27 38 86 39 28 40 29 41 30 42 80 43 31 44
REMARK SMILES IDX 85 45 79 46 81 47 32 48 84 49 78 50 77 51 33 53 65 54 45 55
REMARK SMILES IDX 64 56 46 57 49 58 63 59 82 60 47 61 48 62 62 64 83 65 50 66
REMARK SMILES IDX 34 67 35 68 43 69 36 70 37 71 41 72 44 73 38 74 39 75 42 76
REMARK SMILES IDX 40 77 66 78 67 79 75 80 68 81 69 82 73 83 76 84 70 85 71 86
REMARK SMILES IDX 74 87 72 88 51 89 52 90 60 91 53 92 54 93 58 94 61 95 55 96
REMARK SMILES IDX 56 97 59 98 57 99
REMARK H PARENT 15 7 22 33 81 52 49 63
REMARK Flexibility Score: inf
ROOT
ATOM      1  C   UNL A   1      37.703  23.476  25.764  1.00  0.00     0.002 C 
ENDROOT
BRANCH   1   2
ATOM      2  C   UNL A   1      36.301  24.066  25.781  1.00  0.00     0.021 C 
BRANCH   2   3
ATOM      3  C   UNL A   1      35.133  23.105  25.734  1.00  0.00     0.116 C 
BRANCH   3   4
ATOM      4  N   UNL A   1      34.319  22.871  26.885  1.00  0.00    -0.351 N 
ATOM      5  C   UNL A   1      32.951  23.076  26.986  1.00  0.00     0.274 C 
ATOM      6  O   UNL A   1      32.432  22.712  28.045  1.00  0.00    -0.267 OA
ATOM      7  H   UNL A   1      34.775  22.528  27.686  1.00  0.00     0.163 HD
BRANCH   5   8
ATOM      8  C   UNL A   1      32.132  23.724  25.933  1.00  0.00     0.178 A 
ATOM      9  N   UNL A   1      31.044  24.906  24.430  1.00  0.00    -0.208 N 
ATOM     10  N   UNL A   1      30.626  23.635  24.313  1.00  0.00    -0.061 NA
ATOM     11  C   UNL A   1      31.900  25.042  25.525  1.00  0.00     0.108 A 
ATOM     12  N   UNL A   1      31.357  22.897  25.131  1.00  0.00    -0.124 NA
BRANCH   9  13
ATOM     13  C   UNL A   1      30.517  25.949  23.632  1.00  0.00     0.109 A 
ATOM     14  C   UNL A   1      31.338  26.710  22.784  1.00  0.00     0.144 A 
ATOM     15  C   UNL A   1      30.891  27.968  22.370  1.00  0.00     0.049 A 
ATOM     16  C   UNL A   1      29.633  28.439  22.743  1.00  0.00     0.004 A 
ATOM     17  C   UNL A   1      29.218  26.386  23.945  1.00  0.00     0.032 A 
ATOM     18  C   UNL A   1      28.788  27.640  23.511  1.00  0.00     0.003 A 
BRANCH  14  19
ATOM     19  O   UNL A   1      32.614  26.421  22.383  1.00  0.00    -0.494 OA
ATOM     20  C   UNL A   1      32.777  25.498  21.309  1.00  0.00     0.278 C 
ENDBRANCH  14  19
ENDBRANCH   9  13
BRANCH  11  21
ATOM     21  C   UNL A   1      32.247  26.379  26.018  1.00  0.00     0.003 A 
ATOM     22  C   UNL A   1      31.347  27.148  26.761  1.00  0.00     0.012 A 
ATOM     23  C   UNL A   1      33.534  26.891  25.750  1.00  0.00     0.012 A 
ATOM     24  C   UNL A   1      31.739  28.395  27.255  1.00  0.00     0.021 A 
ATOM     25  C   UNL A   1      33.914  28.146  26.219  1.00  0.00     0.021 A 
ATOM     26  C   UNL A   1      33.018  28.886  26.984  1.00  0.00     0.041 A 
ATOM     27  Cl  UNL A   1      33.488  30.431  27.575  1.00  0.00    -0.084 Cl
ENDBRANCH  11  21
ENDBRANCH   5   8
ENDBRANCH   3   4
ENDBRANCH   2   3
ENDBRANCH   1   2
BRANCH   1  28
ATOM     28  C   UNL A   1      37.883  22.033  25.256  1.00  0.00     0.002 C 
BRANCH  28  29
ATOM     29  C   UNL A   1      38.985  21.163  25.875  1.00  0.00     0.021 C 
BRANCH  29  30
ATOM     30  C   UNL A   1      40.063  21.909  26.637  1.00  0.00     0.116 C 
BRANCH  30  31
ATOM     31  N   UNL A   1      41.374  21.933  25.985  1.00  0.00    -0.352 N 
ATOM     32  C   UNL A   1      42.194  23.030  25.776  1.00  0.00     0.251 C 
ATOM     33  H   UNL A   1      41.711  21.068  25.656  1.00  0.00     0.163 HD
ATOM     34  O   UNL A   1      43.062  23.012  24.893  1.00  0.00    -0.269 OA
BRANCH  32  35
ATOM     35  C   UNL A   1      42.059  24.217  26.644  1.00  0.00     0.039 A 
ATOM     36  C   UNL A   1      42.673  24.360  27.893  1.00  0.00     0.014 A 
ATOM     37  C   UNL A   1      41.270  25.244  26.166  1.00  0.00     0.014 A 
ATOM     38  C   UNL A   1      42.417  25.524  28.631  1.00  0.00     0.010 A 
ATOM     39  C   UNL A   1      41.463  26.485  26.676  1.00  0.00     0.010 A 
ATOM     40  C   UNL A   1      41.746  26.587  28.010  1.00  0.00    -0.014 A 
BRANCH  40  41
ATOM     41  C   UNL A   1      41.545  27.909  28.583  1.00  0.00     0.031 A 
ATOM     42  C   UNL A   1      42.616  28.833  28.163  1.00  0.00     0.074 A 
ATOM     43  C   UNL A   1      40.431  28.292  29.262  1.00  0.00     0.049 A 
ATOM     44  N   UNL A   1      43.614  29.189  28.893  1.00  0.00    -0.248 NA
ATOM     45  C   UNL A   1      42.758  29.197  26.743  1.00  0.00     0.031 C 
ATOM     46  C   UNL A   1      39.204  27.538  29.555  1.00  0.00     0.029 A 
ATOM     47  N   UNL A   1      40.157  29.507  29.838  1.00  0.00    -0.354 N 
ATOM     48  C   UNL A   1      44.379  30.032  28.105  1.00  0.00     0.074 A 
ATOM     49  C   UNL A   1      43.936  29.826  26.752  1.00  0.00     0.031 C 
ATOM     50  C   UNL A   1      38.252  28.364  30.061  1.00  0.00     0.029 A 
ATOM     51  C   UNL A   1      38.833  29.676  30.275  1.00  0.00     0.049 A 
ATOM     52  H   UNL A   1      40.840  30.210  29.937  1.00  0.00     0.167 HD
ATOM     53  C   UNL A   1      45.100  31.021  28.698  1.00  0.00     0.037 A 
ATOM     54  C   UNL A   1      38.287  30.809  30.809  1.00  0.00     0.037 A 
ATOM     55  C   UNL A   1      45.184  30.794  30.122  1.00  0.00     0.049 A 
ATOM     56  C   UNL A   1      39.417  31.613  31.345  1.00  0.00     0.074 A 
ATOM     57  C   UNL A   1      45.731  29.803  30.914  1.00  0.00     0.029 A 
ATOM     58  N   UNL A   1      44.245  31.429  30.898  1.00  0.00    -0.354 N 
ATOM     59  N   UNL A   1      40.135  31.224  32.362  1.00  0.00    -0.248 NA
ATOM     60  C   UNL A   1      40.067  32.527  30.419  1.00  0.00     0.031 C 
ATOM     61  C   UNL A   1      44.782  29.598  31.960  1.00  0.00     0.029 A 
ATOM     62  C   UNL A   1      43.766  30.544  31.829  1.00  0.00     0.049 A 
ATOM     63  H   UNL A   1      43.961  32.367  30.801  1.00  0.00     0.167 HD
ATOM     64  C   UNL A   1      41.443  31.444  31.959  1.00  0.00     0.074 A 
ATOM     65  C   UNL A   1      41.337  32.289  30.766  1.00  0.00     0.031 C 
ATOM     66  C   UNL A   1      42.458  30.662  32.430  1.00  0.00     0.037 A 
BRANCH  53  67
ATOM     67  C   UNL A   1      45.336  32.383  28.100  1.00  0.00     0.064 A 
ATOM     68  C   UNL A   1      44.222  33.209  27.848  1.00  0.00     0.173 A 
ATOM     69  C   UNL A   1      46.542  32.777  27.483  1.00  0.00     0.173 A 
ATOM     70  F   UNL A   1      43.021  32.912  28.368  1.00  0.00    -0.203 F 
ATOM     71  C   UNL A   1      44.295  34.299  26.979  1.00  0.00     0.198 A 
ATOM     72  C   UNL A   1      46.621  33.895  26.655  1.00  0.00     0.198 A 
ATOM     73  F   UNL A   1      47.656  32.043  27.553  1.00  0.00    -0.203 F 
ATOM     74  F   UNL A   1      43.183  34.978  26.669  1.00  0.00    -0.200 F 
ATOM     75  C   UNL A   1      45.493  34.638  26.379  1.00  0.00     0.200 A 
ATOM     76  F   UNL A   1      47.787  34.191  26.061  1.00  0.00    -0.200 F 
ATOM     77  F   UNL A   1      45.554  35.645  25.499  1.00  0.00    -0.200 F 
ENDBRANCH  53  67
BRANCH  54  78
ATOM     78  C   UNL A   1      36.945  31.423  30.578  1.00  0.00     0.064 A 
ATOM     79  C   UNL A   1      36.035  31.647  31.635  1.00  0.00     0.173 A 
ATOM     80  C   UNL A   1      36.663  32.094  29.375  1.00  0.00     0.173 A 
ATOM     81  F   UNL A   1      36.248  31.096  32.839  1.00  0.00    -0.203 F 
ATOM     82  C   UNL A   1      34.932  32.505  31.496  1.00  0.00     0.198 A 
ATOM     83  C   UNL A   1      35.567  32.954  29.240  1.00  0.00     0.198 A 
ATOM     84  F   UNL A   1      37.505  32.009  28.335  1.00  0.00    -0.203 F 
ATOM     85  F   UNL A   1      34.124  32.737  32.541  1.00  0.00    -0.200 F 
ATOM     86  C   UNL A   1      34.708  33.168  30.303  1.00  0.00     0.200 A 
ATOM     87  F   UNL A   1      35.388  33.627  28.095  1.00  0.00    -0.200 F 
ATOM     88  F   UNL A   1      33.698  34.043  30.189  1.00  0.00    -0.200 F 
ENDBRANCH  54  78
BRANCH  66  89
ATOM     89  C   UNL A   1      42.148  29.734  33.575  1.00  0.00     0.064 A 
ATOM     90  C   UNL A   1      41.698  28.407  33.435  1.00  0.00     0.173 A 
ATOM     91  C   UNL A   1      42.445  30.175  34.869  1.00  0.00     0.173 A 
ATOM     92  F   UNL A   1      41.484  27.874  32.227  1.00  0.00    -0.203 F 
ATOM     93  C   UNL A   1      41.511  27.584  34.547  1.00  0.00     0.198 A 
ATOM     94  C   UNL A   1      42.292  29.342  35.973  1.00  0.00     0.198 A 
ATOM     95  F   UNL A   1      42.933  31.410  35.058  1.00  0.00    -0.203 F 
ATOM     96  F   UNL A   1      41.069  26.326  34.390  1.00  0.00    -0.200 F 
ATOM     97  C   UNL A   1      41.812  28.053  35.815  1.00  0.00     0.200 A 
ATOM     98  F   UNL A   1      42.637  29.784  37.190  1.00  0.00    -0.200 F 
ATOM     99  F   UNL A   1      41.663  27.255  36.882  1.00  0.00    -0.200 F 
ENDBRANCH  66  89
ENDBRANCH  40  41
ENDBRANCH  32  35
ENDBRANCH  30  31
ENDBRANCH  29  30
ENDBRANCH  28  29
ENDBRANCH   1  28
TORSDOF 16
ENDMDL
MODEL 2
REMARK VINA RESULT:     -12.8      1.033      1.583
REMARK SMILES COc1ccccc1-n1nnc(C(=O)NCCCCCCNC(=O)c2ccc(-c3c4nc(c(-c5c(F)c(F)c(F)c(F)c5F)c5ccc([nH]5)c(-c5c(F)c(F)c(F)c(F)c5F)c5nc(c(-c6c(F)c(F)c(F)c(F)c6F)c6ccc3[nH]6)C=C5)C=C4)cc2)c1-c1ccc(Cl)cc1
REMARK SMILES IDX 18 1 17 2 16 3 15 4 13 5 14 6 12 8 9 9 10 10 88 11 11 12
REMARK SMILES IDX 8 13 3 14 4 15 5 16 7 17 6 18 2 19 1 20 89 21 90 22 95 23
REMARK SMILES IDX 91 24 94 25 92 26 93 27 19 28 20 29 21 30 22 31 23 32 24 34
REMARK SMILES IDX 25 35 26 36 87 37 27 38 86 39 28 40 29 41 30 42 80 43 31 44
REMARK SMILES IDX 85 45 79 46 81 47 32 48 84 49 78 50 77 51 33 53 65 54 45 55
REMARK SMILES IDX 64 56 46 57 49 58 63 59 82 60 47 61 48 62 62 64 83 65 50 66
REMARK SMILES IDX 34 67 35 68 43 69 36 70 37 71 41 72 44 73 38 74 39 75 42 76
REMARK SMILES IDX 40 77 66 78 67 79 75 80 68 81 69 82 73 83 76 84 70 85 71 86
REMARK SMILES IDX 74 87 72 88 51 89 52 90 60 91 53 92 54 93 58 94 61 95 55 96
REMARK SMILES IDX 56 97 59 98 57 99
REMARK H PARENT 15 7 22 33 81 52 49 63
REMARK Flexibility Score: inf
ROOT
ATOM      1  C   UNL A   1      36.656  23.177  24.215  1.00  0.00     0.002 C 
ENDROOT
BRANCH   1   2
ATOM      2  C   UNL A   1      35.327  23.662  24.776  1.00  0.00     0.021 C 
BRANCH   2   3
ATOM      3  C   UNL A   1      34.303  22.617  25.163  1.00  0.00     0.116 C 
BRANCH   3   4
ATOM      4  N   UNL A   1      33.552  22.729  26.374  1.00  0.00    -0.351 N 
ATOM      5  C   UNL A   1      32.341  23.386  26.538  1.00  0.00     0.274 C 
ATOM      6  O   UNL A   1      31.817  23.272  27.650  1.00  0.00    -0.267 OA
ATOM      7  H   UNL A   1      33.932  22.296  27.171  1.00  0.00     0.163 HD
BRANCH   5   8
ATOM      8  C   UNL A   1      31.701  24.214  25.488  1.00  0.00     0.178 A 
ATOM      9  N   UNL A   1      30.901  25.640  24.016  1.00  0.00    -0.208 N 
ATOM     10  N   UNL A   1      30.328  24.451  23.767  1.00  0.00    -0.061 NA
ATOM     11  C   UNL A   1      31.679  25.578  25.174  1.00  0.00     0.108 A 
ATOM     12  N   UNL A   1      30.889  23.562  24.570  1.00  0.00    -0.124 NA
BRANCH   9  13
ATOM     13  C   UNL A   1      30.582  26.800  23.272  1.00  0.00     0.109 A 
ATOM     14  C   UNL A   1      31.563  27.505  22.556  1.00  0.00     0.144 A 
ATOM     15  C   UNL A   1      31.316  28.839  22.217  1.00  0.00     0.049 A 
ATOM     16  C   UNL A   1      30.101  29.446  22.533  1.00  0.00     0.004 A 
ATOM     17  C   UNL A   1      29.326  27.382  23.522  1.00  0.00     0.032 A 
ATOM     18  C   UNL A   1      29.098  28.712  23.164  1.00  0.00     0.003 A 
BRANCH  14  19
ATOM     19  O   UNL A   1      32.821  27.079  22.230  1.00  0.00    -0.494 OA
ATOM     20  C   UNL A   1      32.937  25.867  21.489  1.00  0.00     0.278 C 
ENDBRANCH  14  19
ENDBRANCH   9  13
BRANCH  11  21
ATOM     21  C   UNL A   1      32.160  26.815  25.797  1.00  0.00     0.003 A 
ATOM     22  C   UNL A   1      31.339  27.598  26.614  1.00  0.00     0.012 A 
ATOM     23  C   UNL A   1      33.496  27.212  25.581  1.00  0.00     0.012 A 
ATOM     24  C   UNL A   1      31.856  28.742  27.229  1.00  0.00     0.021 A 
ATOM     25  C   UNL A   1      34.002  28.368  26.172  1.00  0.00     0.021 A 
ATOM     26  C   UNL A   1      33.182  29.118  27.008  1.00  0.00     0.041 A 
ATOM     27  Cl  UNL A   1      33.806  30.539  27.748  1.00  0.00    -0.084 Cl
ENDBRANCH  11  21
ENDBRANCH   5   8
ENDBRANCH   3   4
ENDBRANCH   2   3
ENDBRANCH   1   2
BRANCH   1  28
ATOM     28  C   UNL A   1      36.951  21.665  24.240  1.00  0.00     0.002 C 
BRANCH  28  29
ATOM     29  C   UNL A   1      37.981  21.129  25.242  1.00  0.00     0.021 C 
BRANCH  29  30
ATOM     30  C   UNL A   1      38.777  22.178  25.993  1.00  0.00     0.116 C 
BRANCH  30  31
ATOM     31  N   UNL A   1      39.950  21.668  26.706  1.00  0.00    -0.352 N 
ATOM     32  C   UNL A   1      40.995  22.402  27.246  1.00  0.00     0.251 C 
ATOM     33  H   UNL A   1      40.003  20.691  26.812  1.00  0.00     0.163 HD
ATOM     34  O   UNL A   1      42.093  21.872  27.464  1.00  0.00    -0.269 OA
BRANCH  32  35
ATOM     35  C   UNL A   1      40.782  23.817  27.607  1.00  0.00     0.039 A 
ATOM     36  C   UNL A   1      39.570  24.500  27.462  1.00  0.00     0.014 A 
ATOM     37  C   UNL A   1      41.871  24.492  28.122  1.00  0.00     0.014 A 
ATOM     38  C   UNL A   1      39.526  25.859  27.801  1.00  0.00     0.010 A 
ATOM     39  C   UNL A   1      41.639  25.603  28.863  1.00  0.00     0.010 A 
ATOM     40  C   UNL A   1      40.619  26.426  28.472  1.00  0.00    -0.014 A 
BRANCH  40  41
ATOM     41  C   UNL A   1      40.664  27.770  29.029  1.00  0.00     0.031 A 
ATOM     42  C   UNL A   1      41.709  28.577  28.369  1.00  0.00     0.074 A 
ATOM     43  C   UNL A   1      39.753  28.271  29.904  1.00  0.00     0.049 A 
ATOM     44  N   UNL A   1      42.864  28.843  28.872  1.00  0.00    -0.248 NA
ATOM     45  C   UNL A   1      41.592  28.904  26.939  1.00  0.00     0.031 C 
ATOM     46  C   UNL A   1      38.545  27.646  30.463  1.00  0.00     0.029 A 
ATOM     47  N   UNL A   1      39.717  29.515  30.481  1.00  0.00    -0.354 N 
ATOM     48  C   UNL A   1      43.528  29.595  27.917  1.00  0.00     0.074 A 
ATOM     49  C   UNL A   1      42.802  29.415  26.689  1.00  0.00     0.031 C 
ATOM     50  C   UNL A   1      37.799  28.570  31.122  1.00  0.00     0.029 A 
ATOM     51  C   UNL A   1      38.532  29.821  31.170  1.00  0.00     0.049 A 
ATOM     52  H   UNL A   1      40.468  30.148  30.417  1.00  0.00     0.167 HD
ATOM     53  C   UNL A   1      44.444  30.517  28.318  1.00  0.00     0.037 A 
ATOM     54  C   UNL A   1      38.214  31.010  31.763  1.00  0.00     0.037 A 
ATOM     55  C   UNL A   1      44.794  30.303  29.704  1.00  0.00     0.049 A 
ATOM     56  C   UNL A   1      39.500  31.706  32.033  1.00  0.00     0.074 A 
ATOM     57  C   UNL A   1      45.396  29.274  30.403  1.00  0.00     0.029 A 
ATOM     58  N   UNL A   1      44.097  31.038  30.631  1.00  0.00    -0.354 N 
ATOM     59  N   UNL A   1      40.371  31.262  32.897  1.00  0.00    -0.248 NA
ATOM     60  C   UNL A   1      40.032  32.537  30.965  1.00  0.00     0.031 C 
ATOM     61  C   UNL A   1      44.665  29.179  31.625  1.00  0.00     0.029 A 
ATOM     62  C   UNL A   1      43.737  30.219  31.669  1.00  0.00     0.049 A 
ATOM     63  H   UNL A   1      43.889  31.999  30.560  1.00  0.00     0.167 HD
ATOM     64  C   UNL A   1      41.584  31.346  32.232  1.00  0.00     0.074 A 
ATOM     65  C   UNL A   1      41.317  32.180  31.057  1.00  0.00     0.031 C 
ATOM     66  C   UNL A   1      42.596  30.474  32.516  1.00  0.00     0.037 A 
BRANCH  53  67
ATOM     67  C   UNL A   1      44.680  31.839  27.639  1.00  0.00     0.064 A 
ATOM     68  C   UNL A   1      45.874  32.019  26.912  1.00  0.00     0.173 A 
ATOM     69  C   UNL A   1      43.957  33.016  27.926  1.00  0.00     0.173 A 
ATOM     70  F   UNL A   1      46.650  30.968  26.604  1.00  0.00    -0.203 F 
ATOM     71  C   UNL A   1      46.346  33.288  26.571  1.00  0.00     0.198 A 
ATOM     72  C   UNL A   1      44.406  34.277  27.541  1.00  0.00     0.198 A 
ATOM     73  F   UNL A   1      42.857  33.014  28.687  1.00  0.00    -0.203 F 
ATOM     74  F   UNL A   1      47.547  33.418  25.994  1.00  0.00    -0.200 F 
ATOM     75  C   UNL A   1      45.614  34.416  26.891  1.00  0.00     0.200 A 
ATOM     76  F   UNL A   1      43.696  35.361  27.885  1.00  0.00    -0.200 F 
ATOM     77  F   UNL A   1      46.092  35.637  26.621  1.00  0.00    -0.200 F 
ENDBRANCH  53  67
BRANCH  54  78
ATOM     78  C   UNL A   1      36.917  31.750  31.787  1.00  0.00     0.064 A 
ATOM     79  C   UNL A   1      36.315  32.163  32.995  1.00  0.00     0.173 A 
ATOM     80  C   UNL A   1      36.412  32.345  30.617  1.00  0.00     0.173 A 
ATOM     81  F   UNL A   1      36.764  31.695  34.169  1.00  0.00    -0.203 F 
ATOM     82  C   UNL A   1      35.294  33.126  33.025  1.00  0.00     0.198 A 
ATOM     83  C   UNL A   1      35.398  33.309  30.649  1.00  0.00     0.198 A 
ATOM     84  F   UNL A   1      36.965  32.079  29.425  1.00  0.00    -0.203 F 
ATOM     85  F   UNL A   1      34.788  33.535  34.198  1.00  0.00    -0.200 F 
ATOM     86  C   UNL A   1      34.846  33.708  31.852  1.00  0.00     0.200 A 
ATOM     87  F   UNL A   1      35.008  33.899  29.510  1.00  0.00    -0.200 F 
ATOM     88  F   UNL A   1      33.921  34.679  31.883  1.00  0.00    -0.200 F 
ENDBRANCH  54  78
BRANCH  66  89
ATOM     89  C   UNL A   1      42.439  29.598  33.731  1.00  0.00     0.064 A 
ATOM     90  C   UNL A   1      41.855  28.317  33.729  1.00  0.00     0.173 A 
ATOM     91  C   UNL A   1      43.027  30.030  34.925  1.00  0.00     0.173 A 
ATOM     92  F   UNL A   1      41.357  27.788  32.606  1.00  0.00    -0.203 F 
ATOM     93  C   UNL A   1      41.821  27.534  34.884  1.00  0.00     0.198 A 
ATOM     94  C   UNL A   1      43.025  29.233  36.066  1.00  0.00     0.198 A 
ATOM     95  F   UNL A   1      43.651  31.217  34.971  1.00  0.00    -0.203 F 
ATOM     96  F   UNL A   1      41.247  26.321  34.861  1.00  0.00    -0.200 F 
ATOM     97  C   UNL A   1      42.410  27.992  36.051  1.00  0.00     0.200 A 
ATOM     98  F   UNL A   1      43.643  29.661  37.174  1.00  0.00    -0.200 F 
ATOM     99  F   UNL A   1      42.407  27.230  37.153  1.00  0.00    -0.200 F 
ENDBRANCH  66  89
ENDBRANCH  40  41
ENDBRANCH  32  35
ENDBRANCH  30  31
ENDBRANCH  29  30
ENDBRANCH  28  29
ENDBRANCH   1  28
TORSDOF 16
ENDMDL
MODEL 3
REMARK VINA RESULT:     -12.7      3.146      7.846
REMARK SMILES COc1ccccc1-n1nnc(C(=O)NCCCCCCNC(=O)c2ccc(-c3c4nc(c(-c5c(F)c(F)c(F)c(F)c5F)c5ccc([nH]5)c(-c5c(F)c(F)c(F)c(F)c5F)c5nc(c(-c6c(F)c(F)c(F)c(F)c6F)c6ccc3[nH]6)C=C5)C=C4)cc2)c1-c1ccc(Cl)cc1
REMARK SMILES IDX 18 1 17 2 16 3 15 4 13 5 14 6 12 8 9 9 10 10 88 11 11 12
REMARK SMILES IDX 8 13 3 14 4 15 5 16 7 17 6 18 2 19 1 20 89 21 90 22 95 23
REMARK SMILES IDX 91 24 94 25 92 26 93 27 19 28 20 29 21 30 22 31 23 32 24 34
REMARK SMILES IDX 25 35 26 36 87 37 27 38 86 39 28 40 29 41 30 42 80 43 31 44
REMARK SMILES IDX 85 45 79 46 81 47 32 48 84 49 78 50 77 51 33 53 65 54 45 55
REMARK SMILES IDX 64 56 46 57 49 58 63 59 82 60 47 61 48 62 62 64 83 65 50 66
REMARK SMILES IDX 34 67 35 68 43 69 36 70 37 71 41 72 44 73 38 74 39 75 42 76
REMARK SMILES IDX 40 77 66 78 67 79 75 80 68 81 69 82 73 83 76 84 70 85 71 86
REMARK SMILES IDX 74 87 72 88 51 89 52 90 60 91 53 92 54 93 58 94 61 95 55 96
REMARK SMILES IDX 56 97 59 98 57 99
REMARK H PARENT 15 7 22 33 81 52 49 63
REMARK Flexibility Score: inf
ROOT
ATOM      1  C   UNL A   1      33.234  30.223  26.692  1.00  0.00     0.002 C 
ENDROOT
BRANCH   1   2
ATOM      2  C   UNL A   1      33.469  28.782  27.122  1.00  0.00     0.021 C 
BRANCH   2   3
ATOM      3  C   UNL A   1      33.676  27.750  26.035  1.00  0.00     0.116 C 
BRANCH   3   4
ATOM      4  N   UNL A   1      34.001  28.136  24.699  1.00  0.00    -0.351 N 
ATOM      5  C   UNL A   1      33.631  27.478  23.534  1.00  0.00     0.274 C 
ATOM      6  O   UNL A   1      33.936  28.044  22.480  1.00  0.00    -0.267 OA
ATOM      7  H   UNL A   1      34.542  28.951  24.593  1.00  0.00     0.163 HD
BRANCH   5   8
ATOM      8  C   UNL A   1      32.948  26.163  23.510  1.00  0.00     0.178 A 
ATOM      9  N   UNL A   1      32.139  24.119  23.608  1.00  0.00    -0.208 N 
ATOM     10  N   UNL A   1      31.222  24.878  22.986  1.00  0.00    -0.061 NA
ATOM     11  C   UNL A   1      33.304  24.852  23.845  1.00  0.00     0.108 A 
ATOM     12  N   UNL A   1      31.647  26.129  23.026  1.00  0.00    -0.124 NA
BRANCH   9  13
ATOM     13  C   UNL A   1      31.956  22.731  23.810  1.00  0.00     0.109 A 
ATOM     14  C   UNL A   1      31.936  22.173  25.099  1.00  0.00     0.144 A 
ATOM     15  C   UNL A   1      32.195  20.807  25.243  1.00  0.00     0.049 A 
ATOM     16  C   UNL A   1      32.417  19.999  24.128  1.00  0.00     0.004 A 
ATOM     17  C   UNL A   1      32.100  21.906  22.680  1.00  0.00     0.032 A 
ATOM     18  C   UNL A   1      32.347  20.543  22.846  1.00  0.00     0.003 A 
BRANCH  14  19
ATOM     19  O   UNL A   1      31.799  22.835  26.289  1.00  0.00    -0.494 OA
ATOM     20  C   UNL A   1      30.492  23.267  26.659  1.00  0.00     0.278 C 
ENDBRANCH  14  19
ENDBRANCH   9  13
BRANCH  11  21
ATOM     21  C   UNL A   1      34.533  24.159  24.246  1.00  0.00     0.003 A 
ATOM     22  C   UNL A   1      34.999  24.184  25.563  1.00  0.00     0.012 A 
ATOM     23  C   UNL A   1      35.252  23.430  23.274  1.00  0.00     0.012 A 
ATOM     24  C   UNL A   1      36.147  23.466  25.910  1.00  0.00     0.021 A 
ATOM     25  C   UNL A   1      36.411  22.738  23.616  1.00  0.00     0.021 A 
ATOM     26  C   UNL A   1      36.843  22.746  24.938  1.00  0.00     0.041 A 
ATOM     27  Cl  UNL A   1      38.268  21.883  25.365  1.00  0.00    -0.084 Cl
ENDBRANCH  11  21
ENDBRANCH   5   8
ENDBRANCH   3   4
ENDBRANCH   2   3
ENDBRANCH   1   2
BRANCH   1  28
ATOM     28  C   UNL A   1      31.782  30.723  26.575  1.00  0.00     0.002 C 
BRANCH  28  29
ATOM     29  C   UNL A   1      31.474  32.186  26.922  1.00  0.00     0.021 C 
BRANCH  29  30
ATOM     30  C   UNL A   1      32.675  33.104  27.031  1.00  0.00     0.116 C 
BRANCH  30  31
ATOM     31  N   UNL A   1      32.493  34.253  27.920  1.00  0.00    -0.352 N 
ATOM     32  C   UNL A   1      33.113  34.485  29.138  1.00  0.00     0.251 C 
ATOM     33  H   UNL A   1      31.856  34.940  27.618  1.00  0.00     0.163 HD
ATOM     34  O   UNL A   1      32.610  35.256  29.967  1.00  0.00    -0.269 OA
BRANCH  32  35
ATOM     35  C   UNL A   1      34.409  33.842  29.431  1.00  0.00     0.039 A 
ATOM     36  C   UNL A   1      34.590  32.808  30.357  1.00  0.00     0.014 A 
ATOM     37  C   UNL A   1      35.502  34.309  28.729  1.00  0.00     0.014 A 
ATOM     38  C   UNL A   1      35.889  32.324  30.568  1.00  0.00     0.010 A 
ATOM     39  C   UNL A   1      36.582  33.497  28.618  1.00  0.00     0.010 A 
ATOM     40  C   UNL A   1      36.913  32.729  29.701  1.00  0.00    -0.014 A 
BRANCH  40  41
ATOM     41  C   UNL A   1      38.268  32.200  29.689  1.00  0.00     0.031 A 
ATOM     42  C   UNL A   1      38.292  30.830  29.141  1.00  0.00     0.074 A 
ATOM     43  C   UNL A   1      39.381  32.928  29.971  1.00  0.00     0.049 A 
ATOM     44  N   UNL A   1      38.388  29.755  29.843  1.00  0.00    -0.248 NA
ATOM     45  C   UNL A   1      37.921  30.593  27.736  1.00  0.00     0.031 C 
ATOM     46  C   UNL A   1      39.510  34.352  30.311  1.00  0.00     0.029 A 
ATOM     47  N   UNL A   1      40.690  32.516  29.989  1.00  0.00    -0.354 N 
ATOM     48  C   UNL A   1      38.346  28.707  28.938  1.00  0.00     0.074 A 
ATOM     49  C   UNL A   1      37.843  29.259  27.709  1.00  0.00     0.031 C 
ATOM     50  C   UNL A   1      40.817  34.723  30.297  1.00  0.00     0.029 A 
ATOM     51  C   UNL A   1      41.639  33.546  30.095  1.00  0.00     0.049 A 
ATOM     52  H   UNL A   1      40.945  31.567  29.931  1.00  0.00     0.167 HD
ATOM     53  C   UNL A   1      39.007  27.554  29.228  1.00  0.00     0.037 A 
ATOM     54  C   UNL A   1      42.998  33.411  30.060  1.00  0.00     0.037 A 
ATOM     55  C   UNL A   1      39.377  27.528  30.625  1.00  0.00     0.049 A 
ATOM     56  C   UNL A   1      43.296  32.005  30.438  1.00  0.00     0.074 A 
ATOM     57  C   UNL A   1      38.673  27.524  31.813  1.00  0.00     0.029 A 
ATOM     58  N   UNL A   1      40.641  27.973  30.930  1.00  0.00    -0.354 N 
ATOM     59  N   UNL A   1      43.067  31.535  31.633  1.00  0.00    -0.248 NA
ATOM     60  C   UNL A   1      43.307  31.025  29.362  1.00  0.00     0.031 C 
ATOM     61  C   UNL A   1      39.403  28.392  32.679  1.00  0.00     0.029 A 
ATOM     62  C   UNL A   1      40.571  28.789  32.028  1.00  0.00     0.049 A 
ATOM     63  H   UNL A   1      41.463  27.743  30.438  1.00  0.00     0.167 HD
ATOM     64  C   UNL A   1      42.440  30.319  31.408  1.00  0.00     0.074 A 
ATOM     65  C   UNL A   1      42.654  30.039  29.986  1.00  0.00     0.031 C 
ATOM     66  C   UNL A   1      41.540  29.823  32.306  1.00  0.00     0.037 A 
BRANCH  53  67
ATOM     67  C   UNL A   1      39.700  26.688  28.210  1.00  0.00     0.064 A 
ATOM     68  C   UNL A   1      39.530  25.290  28.289  1.00  0.00     0.173 A 
ATOM     69  C   UNL A   1      40.751  27.130  27.379  1.00  0.00     0.173 A 
ATOM     70  F   UNL A   1      38.574  24.763  29.068  1.00  0.00    -0.203 F 
ATOM     71  C   UNL A   1      40.399  24.406  27.648  1.00  0.00     0.198 A 
ATOM     72  C   UNL A   1      41.585  26.243  26.702  1.00  0.00     0.198 A 
ATOM     73  F   UNL A   1      41.092  28.419  27.280  1.00  0.00    -0.203 F 
ATOM     74  F   UNL A   1      40.278  23.088  27.855  1.00  0.00    -0.200 F 
ATOM     75  C   UNL A   1      41.429  24.882  26.860  1.00  0.00     0.200 A 
ATOM     76  F   UNL A   1      42.596  26.726  25.964  1.00  0.00    -0.200 F 
ATOM     77  F   UNL A   1      42.300  24.039  26.293  1.00  0.00    -0.200 F 
ENDBRANCH  53  67
BRANCH  54  78
ATOM     78  C   UNL A   1      44.025  34.262  29.388  1.00  0.00     0.064 A 
ATOM     79  C   UNL A   1      44.160  34.301  27.983  1.00  0.00     0.173 A 
ATOM     80  C   UNL A   1      44.673  35.292  30.093  1.00  0.00     0.173 A 
ATOM     81  F   UNL A   1      43.534  33.395  27.218  1.00  0.00    -0.203 F 
ATOM     82  C   UNL A   1      44.876  35.319  27.333  1.00  0.00     0.198 A 
ATOM     83  C   UNL A   1      45.381  36.310  29.443  1.00  0.00     0.198 A 
ATOM     84  F   UNL A   1      44.544  35.391  31.424  1.00  0.00    -0.203 F 
ATOM     85  F   UNL A   1      44.931  35.353  25.993  1.00  0.00    -0.200 F 
ATOM     86  C   UNL A   1      45.473  36.330  28.064  1.00  0.00     0.200 A 
ATOM     87  F   UNL A   1      45.914  37.309  30.160  1.00  0.00    -0.200 F 
ATOM     88  F   UNL A   1      46.097  37.343  27.443  1.00  0.00    -0.200 F 
ENDBRANCH  54  78
BRANCH  66  89
ATOM     89  C   UNL A   1      41.443  30.506  33.645  1.00  0.00     0.064 A 
ATOM     90  C   UNL A   1      40.562  31.561  33.948  1.00  0.00     0.173 A 
ATOM     91  C   UNL A   1      42.192  29.975  34.702  1.00  0.00     0.173 A 
ATOM     92  F   UNL A   1      39.740  32.061  33.020  1.00  0.00    -0.203 F 
ATOM     93  C   UNL A   1      40.476  32.086  35.238  1.00  0.00     0.198 A 
ATOM     94  C   UNL A   1      42.079  30.476  35.995  1.00  0.00     0.198 A 
ATOM     95  F   UNL A   1      43.005  28.931  34.486  1.00  0.00    -0.203 F 
ATOM     96  F   UNL A   1      39.637  33.101  35.500  1.00  0.00    -0.200 F 
ATOM     97  C   UNL A   1      41.233  31.540  36.262  1.00  0.00     0.200 A 
ATOM     98  F   UNL A   1      42.774  29.908  36.989  1.00  0.00    -0.200 F 
ATOM     99  F   UNL A   1      41.130  32.022  37.508  1.00  0.00    -0.200 F 
ENDBRANCH  66  89
ENDBRANCH  40  41
ENDBRANCH  32  35
ENDBRANCH  30  31
ENDBRANCH  29  30
ENDBRANCH  28  29
ENDBRANCH   1  28
TORSDOF 16
ENDMDL
