MODEL 1
REMARK VINA RESULT:     -13.4      0.000      0.000
REMARK SMILES Cc1c(NCc2ccc(-c3ccc(Cl)cc3)o2)cccc1C(=O)NCCCCCCNC(=O)c1ccc(-c2c3nc(c(-c4c(F)c(F)c(F)c(F)c4F)c4ccc([nH]4)c(-c4c(F)c(F)c(F)c(F)c4F)c4nc(c(-c5c(F)c(F)c(F)c(F)c5F)c5ccc2[nH]5)C=C4)C=C3)cc1
REMARK SMILES IDX 26 1 25 2 24 3 22 4 23 5 21 7 1 8 2 9 3 10 18 11 20 12 19 13
REMARK SMILES IDX 4 14 5 16 6 17 7 18 17 19 8 20 9 21 10 22 11 23 16 24 12 25
REMARK SMILES IDX 15 26 13 27 14 28 27 29 28 30 29 31 30 32 31 33 32 34 33 36
REMARK SMILES IDX 34 37 35 38 96 39 36 40 95 41 37 42 38 43 39 44 89 45 40 46
REMARK SMILES IDX 94 47 88 48 90 49 41 50 93 51 87 52 86 53 42 55 74 56 54 57
REMARK SMILES IDX 73 58 55 59 58 60 72 61 91 62 56 63 57 64 71 66 92 67 59 68
REMARK SMILES IDX 43 69 44 70 52 71 45 72 46 73 50 74 53 75 47 76 48 77 51 78
REMARK SMILES IDX 49 79 75 80 76 81 84 82 77 83 78 84 82 85 85 86 79 87 80 88
REMARK SMILES IDX 83 89 81 90 60 91 61 92 69 93 62 94 63 95 67 96 70 97 64 98
REMARK SMILES IDX 65 99 68 100 66 101
REMARK H PARENT 24 6 4 15 31 35 90 54 58 65
REMARK Flexibility Score: inf
ROOT
ATOM      1  C   UNL A   1      33.103  28.632  24.405  1.00  0.00     0.021 C 
ENDROOT
BRANCH   1   2
ATOM      2  C   UNL A   1      33.348  29.027  22.938  1.00  0.00     0.116 C 
BRANCH   2   3
ATOM      3  N   UNL A   1      32.115  29.506  22.348  1.00  0.00    -0.352 N 
ATOM      4  C   UNL A   1      30.869  28.966  22.158  1.00  0.00     0.251 C 
ATOM      5  O   UNL A   1      30.066  29.665  21.533  1.00  0.00    -0.269 OA
ATOM      6  H   UNL A   1      32.188  30.427  22.005  1.00  0.00     0.163 HD
BRANCH   4   7
ATOM      7  C   UNL A   1      30.380  27.669  22.727  1.00  0.00     0.044 A 
ATOM      8  C   UNL A   1      31.907  26.090  21.431  1.00  0.00     0.047 C 
ATOM      9  C   UNL A   1      30.874  26.366  22.488  1.00  0.00    -0.015 A 
ATOM     10  C   UNL A   1      30.310  25.250  23.175  1.00  0.00     0.038 A 
ATOM     11  C   UNL A   1      29.135  25.442  23.911  1.00  0.00     0.026 A 
ATOM     12  C   UNL A   1      29.212  27.808  23.500  1.00  0.00     0.014 A 
ATOM     13  C   UNL A   1      28.574  26.706  24.057  1.00  0.00     0.003 A 
BRANCH  10  14
ATOM     14  N   UNL A   1      30.895  24.000  23.064  1.00  0.00    -0.378 N 
ATOM     15  H   UNL A   1      30.908  23.595  22.166  1.00  0.00     0.161 HD
BRANCH  14  16
ATOM     16  C   UNL A   1      31.493  23.223  24.142  1.00  0.00     0.188 C 
BRANCH  16  17
ATOM     17  C   UNL A   1      32.801  23.772  24.606  1.00  0.00     0.123 A 
ATOM     18  C   UNL A   1      33.222  25.036  24.967  1.00  0.00     0.048 A 
ATOM     19  O   UNL A   1      33.837  22.889  24.718  1.00  0.00    -0.459 OA
ATOM     20  C   UNL A   1      34.568  24.913  25.376  1.00  0.00     0.051 A 
ATOM     21  C   UNL A   1      34.911  23.591  25.186  1.00  0.00     0.134 A 
BRANCH  21  22
ATOM     22  C   UNL A   1      36.140  22.842  25.374  1.00  0.00     0.017 A 
ATOM     23  C   UNL A   1      37.245  23.442  25.994  1.00  0.00     0.013 A 
ATOM     24  C   UNL A   1      36.255  21.533  24.891  1.00  0.00     0.013 A 
ATOM     25  C   UNL A   1      38.449  22.742  26.124  1.00  0.00     0.021 A 
ATOM     26  C   UNL A   1      37.462  20.837  25.008  1.00  0.00     0.021 A 
ATOM     27  C   UNL A   1      38.553  21.446  25.623  1.00  0.00     0.041 A 
ATOM     28  Cl  UNL A   1      40.042  20.596  25.758  1.00  0.00    -0.084 Cl
ENDBRANCH  21  22
ENDBRANCH  16  17
ENDBRANCH  14  16
ENDBRANCH  10  14
ENDBRANCH   4   7
ENDBRANCH   2   3
ENDBRANCH   1   2
BRANCH   1  29
ATOM     29  C   UNL A   1      32.304  29.645  25.236  1.00  0.00     0.002 C 
BRANCH  29  30
ATOM     30  C   UNL A   1      32.156  29.332  26.733  1.00  0.00     0.002 C 
BRANCH  30  31
ATOM     31  C   UNL A   1      33.456  29.278  27.540  1.00  0.00     0.021 C 
BRANCH  31  32
ATOM     32  C   UNL A   1      34.377  30.475  27.324  1.00  0.00     0.116 C 
BRANCH  32  33
ATOM     33  N   UNL A   1      34.715  31.186  28.551  1.00  0.00    -0.352 N 
ATOM     34  C   UNL A   1      35.722  30.939  29.462  1.00  0.00     0.251 C 
ATOM     35  H   UNL A   1      34.139  31.956  28.761  1.00  0.00     0.163 HD
ATOM     36  O   UNL A   1      35.818  31.625  30.477  1.00  0.00    -0.269 OA
BRANCH  34  37
ATOM     37  C   UNL A   1      36.760  29.928  29.157  1.00  0.00     0.039 A 
ATOM     38  C   UNL A   1      37.044  28.956  30.125  1.00  0.00     0.014 A 
ATOM     39  C   UNL A   1      37.551  30.027  28.015  1.00  0.00     0.014 A 
ATOM     40  C   UNL A   1      38.244  28.250  30.058  1.00  0.00     0.010 A 
ATOM     41  C   UNL A   1      38.779  29.395  27.991  1.00  0.00     0.010 A 
ATOM     42  C   UNL A   1      39.154  28.559  29.047  1.00  0.00    -0.014 A 
BRANCH  42  43
ATOM     43  C   UNL A   1      40.550  28.138  29.068  1.00  0.00     0.031 A 
ATOM     44  C   UNL A   1      40.960  26.839  28.495  1.00  0.00     0.074 A 
ATOM     45  C   UNL A   1      41.484  28.992  29.544  1.00  0.00     0.049 A 
ATOM     46  N   UNL A   1      42.073  26.244  28.767  1.00  0.00    -0.248 NA
ATOM     47  C   UNL A   1      40.112  26.086  27.581  1.00  0.00     0.031 C 
ATOM     48  C   UNL A   1      42.936  28.885  29.422  1.00  0.00     0.029 A 
ATOM     49  N   UNL A   1      41.288  30.043  30.455  1.00  0.00    -0.354 N 
ATOM     50  C   UNL A   1      42.198  25.167  27.921  1.00  0.00     0.074 A 
ATOM     51  C   UNL A   1      40.934  25.095  27.221  1.00  0.00     0.031 C 
ATOM     52  C   UNL A   1      43.501  29.572  30.428  1.00  0.00     0.029 A 
ATOM     53  C   UNL A   1      42.427  30.017  31.298  1.00  0.00     0.049 A 
ATOM     54  H   UNL A   1      40.525  30.664  30.499  1.00  0.00     0.167 HD
ATOM     55  C   UNL A   1      43.394  24.514  27.840  1.00  0.00     0.037 A 
ATOM     56  C   UNL A   1      42.306  29.714  32.623  1.00  0.00     0.037 A 
ATOM     57  C   UNL A   1      44.356  25.032  28.807  1.00  0.00     0.049 A 
ATOM     58  C   UNL A   1      43.072  28.486  33.066  1.00  0.00     0.074 A 
ATOM     59  C   UNL A   1      45.385  25.959  28.750  1.00  0.00     0.029 A 
ATOM     60  N   UNL A   1      44.130  24.794  30.151  1.00  0.00    -0.354 N 
ATOM     61  N   UNL A   1      43.684  27.667  32.255  1.00  0.00    -0.248 NA
ATOM     62  C   UNL A   1      43.112  28.026  34.457  1.00  0.00     0.031 C 
ATOM     63  C   UNL A   1      45.749  26.298  30.084  1.00  0.00     0.029 A 
ATOM     64  C   UNL A   1      44.945  25.575  30.944  1.00  0.00     0.049 A 
ATOM     65  H   UNL A   1      43.471  24.149  30.497  1.00  0.00     0.167 HD
ATOM     66  C   UNL A   1      44.144  26.594  32.965  1.00  0.00     0.074 A 
ATOM     67  C   UNL A   1      43.763  26.858  34.339  1.00  0.00     0.031 C 
ATOM     68  C   UNL A   1      44.772  25.536  32.382  1.00  0.00     0.037 A 
BRANCH  55  69
ATOM     69  C   UNL A   1      43.761  23.544  26.745  1.00  0.00     0.064 A 
ATOM     70  C   UNL A   1      43.277  22.217  26.767  1.00  0.00     0.173 A 
ATOM     71  C   UNL A   1      44.618  23.843  25.670  1.00  0.00     0.173 A 
ATOM     72  F   UNL A   1      42.378  21.815  27.674  1.00  0.00    -0.203 F 
ATOM     73  C   UNL A   1      43.708  21.246  25.859  1.00  0.00     0.198 A 
ATOM     74  C   UNL A   1      45.098  22.858  24.800  1.00  0.00     0.198 A 
ATOM     75  F   UNL A   1      44.973  25.104  25.395  1.00  0.00    -0.203 F 
ATOM     76  F   UNL A   1      43.214  20.002  25.932  1.00  0.00    -0.200 F 
ATOM     77  C   UNL A   1      44.651  21.557  24.901  1.00  0.00     0.200 A 
ATOM     78  F   UNL A   1      45.999  23.182  23.861  1.00  0.00    -0.200 F 
ATOM     79  F   UNL A   1      45.107  20.614  24.066  1.00  0.00    -0.200 F 
ENDBRANCH  55  69
BRANCH  56  80
ATOM     80  C   UNL A   1      41.005  30.149  33.201  1.00  0.00     0.064 A 
ATOM     81  C   UNL A   1      40.779  31.528  33.388  1.00  0.00     0.173 A 
ATOM     82  C   UNL A   1      39.893  29.302  33.225  1.00  0.00     0.173 A 
ATOM     83  F   UNL A   1      41.812  32.386  33.374  1.00  0.00    -0.203 F 
ATOM     84  C   UNL A   1      39.488  32.045  33.464  1.00  0.00     0.198 A 
ATOM     85  C   UNL A   1      38.602  29.822  33.328  1.00  0.00     0.198 A 
ATOM     86  F   UNL A   1      40.037  27.982  33.035  1.00  0.00    -0.203 F 
ATOM     87  F   UNL A   1      39.301  33.372  33.513  1.00  0.00    -0.200 F 
ATOM     88  C   UNL A   1      38.400  31.192  33.409  1.00  0.00     0.200 A 
ATOM     89  F   UNL A   1      37.548  28.998  33.250  1.00  0.00    -0.200 F 
ATOM     90  F   UNL A   1      37.156  31.691  33.390  1.00  0.00    -0.200 F 
ENDBRANCH  56  80
BRANCH  68  91
ATOM     91  C   UNL A   1      45.282  24.372  33.164  1.00  0.00     0.064 A 
ATOM     92  C   UNL A   1      44.479  23.253  33.429  1.00  0.00     0.173 A 
ATOM     93  C   UNL A   1      46.552  24.402  33.771  1.00  0.00     0.173 A 
ATOM     94  F   UNL A   1      43.243  23.163  32.913  1.00  0.00    -0.203 F 
ATOM     95  C   UNL A   1      44.930  22.211  34.239  1.00  0.00     0.198 A 
ATOM     96  C   UNL A   1      46.983  23.381  34.613  1.00  0.00     0.198 A 
ATOM     97  F   UNL A   1      47.404  25.412  33.541  1.00  0.00    -0.203 F 
ATOM     98  F   UNL A   1      44.153  21.139  34.439  1.00  0.00    -0.200 F 
ATOM     99  C   UNL A   1      46.176  22.282  34.842  1.00  0.00     0.200 A 
ATOM    100  F   UNL A   1      48.185  23.467  35.201  1.00  0.00    -0.200 F 
ATOM    101  F   UNL A   1      46.599  21.291  35.637  1.00  0.00    -0.200 F 
ENDBRANCH  68  91
ENDBRANCH  42  43
ENDBRANCH  34  37
ENDBRANCH  32  33
ENDBRANCH  31  32
ENDBRANCH  30  31
ENDBRANCH  29  30
ENDBRANCH   1  29
TORSDOF 17
ENDMDL
MODEL 2
REMARK VINA RESULT:     -13.3      3.897     10.119
REMARK SMILES Cc1c(NCc2ccc(-c3ccc(Cl)cc3)o2)cccc1C(=O)NCCCCCCNC(=O)c1ccc(-c2c3nc(c(-c4c(F)c(F)c(F)c(F)c4F)c4ccc([nH]4)c(-c4c(F)c(F)c(F)c(F)c4F)c4nc(c(-c5c(F)c(F)c(F)c(F)c5F)c5ccc2[nH]5)C=C4)C=C3)cc1
REMARK SMILES IDX 26 1 25 2 24 3 22 4 23 5 21 7 1 8 2 9 3 10 18 11 20 12 19 13
REMARK SMILES IDX 4 14 5 16 6 17 7 18 17 19 8 20 9 21 10 22 11 23 16 24 12 25
REMARK SMILES IDX 15 26 13 27 14 28 27 29 28 30 29 31 30 32 31 33 32 34 33 36
REMARK SMILES IDX 34 37 35 38 96 39 36 40 95 41 37 42 38 43 39 44 89 45 40 46
REMARK SMILES IDX 94 47 88 48 90 49 41 50 93 51 87 52 86 53 42 55 74 56 54 57
REMARK SMILES IDX 73 58 55 59 58 60 72 61 91 62 56 63 57 64 71 66 92 67 59 68
REMARK SMILES IDX 43 69 44 70 52 71 45 72 46 73 50 74 53 75 47 76 48 77 51 78
REMARK SMILES IDX 49 79 75 80 76 81 84 82 77 83 78 84 82 85 85 86 79 87 80 88
REMARK SMILES IDX 83 89 81 90 60 91 61 92 69 93 62 94 63 95 67 96 70 97 64 98
REMARK SMILES IDX 65 99 68 100 66 101
REMARK H PARENT 24 6 4 15 31 35 90 54 58 65
REMARK Flexibility Score: inf
ROOT
ATOM      1  C   UNL A   1      35.799  21.879  24.662  1.00  0.00     0.021 C 
ENDROOT
BRANCH   1   2
ATOM      2  C   UNL A   1      35.177  21.249  25.921  1.00  0.00     0.116 C 
BRANCH   2   3
ATOM      3  N   UNL A   1      34.110  20.346  25.539  1.00  0.00    -0.352 N 
ATOM      4  C   UNL A   1      32.785  20.504  25.224  1.00  0.00     0.251 C 
ATOM      5  O   UNL A   1      32.151  19.466  25.016  1.00  0.00    -0.269 OA
ATOM      6  H   UNL A   1      34.403  19.406  25.497  1.00  0.00     0.163 HD
BRANCH   4   7
ATOM      7  C   UNL A   1      32.085  21.812  25.013  1.00  0.00     0.044 A 
ATOM      8  C   UNL A   1      32.812  22.244  22.607  1.00  0.00     0.047 C 
ATOM      9  C   UNL A   1      32.006  22.582  23.830  1.00  0.00    -0.015 A 
ATOM     10  C   UNL A   1      31.237  23.784  23.809  1.00  0.00     0.038 A 
ATOM     11  C   UNL A   1      30.751  24.288  25.021  1.00  0.00     0.026 A 
ATOM     12  C   UNL A   1      31.554  22.354  26.199  1.00  0.00     0.014 A 
ATOM     13  C   UNL A   1      30.925  23.594  26.213  1.00  0.00     0.003 A 
BRANCH  10  14
ATOM     14  N   UNL A   1      31.028  24.452  22.615  1.00  0.00    -0.378 N 
ATOM     15  H   UNL A   1      30.334  24.087  22.018  1.00  0.00     0.161 HD
BRANCH  14  16
ATOM     16  C   UNL A   1      31.730  25.641  22.152  1.00  0.00     0.188 C 
BRANCH  16  17
ATOM     17  C   UNL A   1      31.244  26.899  22.793  1.00  0.00     0.123 A 
ATOM     18  C   UNL A   1      30.099  27.654  22.643  1.00  0.00     0.048 A 
ATOM     19  O   UNL A   1      32.056  27.468  23.731  1.00  0.00    -0.459 OA
ATOM     20  C   UNL A   1      30.187  28.709  23.577  1.00  0.00     0.051 A 
ATOM     21  C   UNL A   1      31.406  28.571  24.205  1.00  0.00     0.134 A 
BRANCH  21  22
ATOM     22  C   UNL A   1      32.100  29.345  25.219  1.00  0.00     0.017 A 
ATOM     23  C   UNL A   1      33.337  28.910  25.717  1.00  0.00     0.013 A 
ATOM     24  C   UNL A   1      31.520  30.504  25.749  1.00  0.00     0.013 A 
ATOM     25  C   UNL A   1      33.979  29.622  26.734  1.00  0.00     0.021 A 
ATOM     26  C   UNL A   1      32.155  31.209  26.775  1.00  0.00     0.021 A 
ATOM     27  C   UNL A   1      33.381  30.764  27.263  1.00  0.00     0.041 A 
ATOM     28  Cl  UNL A   1      34.159  31.623  28.534  1.00  0.00    -0.084 Cl
ENDBRANCH  21  22
ENDBRANCH  16  17
ENDBRANCH  14  16
ENDBRANCH  10  14
ENDBRANCH   4   7
ENDBRANCH   2   3
ENDBRANCH   1   2
BRANCH   1  29
ATOM     29  C   UNL A   1      36.348  23.302  24.839  1.00  0.00     0.002 C 
BRANCH  29  30
ATOM     30  C   UNL A   1      37.567  23.452  25.761  1.00  0.00     0.002 C 
BRANCH  30  31
ATOM     31  C   UNL A   1      38.556  22.285  25.763  1.00  0.00     0.021 C 
BRANCH  31  32
ATOM     32  C   UNL A   1      39.675  22.414  26.792  1.00  0.00     0.116 C 
BRANCH  32  33
ATOM     33  N   UNL A   1      40.963  22.787  26.219  1.00  0.00    -0.352 N 
ATOM     34  C   UNL A   1      41.530  24.036  26.069  1.00  0.00     0.251 C 
ATOM     35  H   UNL A   1      41.507  22.037  25.889  1.00  0.00     0.163 HD
ATOM     36  O   UNL A   1      42.616  24.158  25.506  1.00  0.00    -0.269 OA
BRANCH  34  37
ATOM     37  C   UNL A   1      40.890  25.216  26.694  1.00  0.00     0.039 A 
ATOM     38  C   UNL A   1      41.009  26.454  26.048  1.00  0.00     0.014 A 
ATOM     39  C   UNL A   1      40.323  25.143  27.964  1.00  0.00     0.014 A 
ATOM     40  C   UNL A   1      40.778  27.627  26.766  1.00  0.00     0.010 A 
ATOM     41  C   UNL A   1      40.178  26.300  28.702  1.00  0.00     0.010 A 
ATOM     42  C   UNL A   1      40.471  27.539  28.123  1.00  0.00    -0.014 A 
BRANCH  42  43
ATOM     43  C   UNL A   1      40.536  28.675  29.036  1.00  0.00     0.031 A 
ATOM     44  C   UNL A   1      39.419  29.636  29.133  1.00  0.00     0.074 A 
ATOM     45  C   UNL A   1      41.602  28.792  29.860  1.00  0.00     0.049 A 
ATOM     46  N   UNL A   1      39.521  30.821  29.633  1.00  0.00    -0.248 NA
ATOM     47  C   UNL A   1      38.084  29.336  28.631  1.00  0.00     0.031 C 
ATOM     48  C   UNL A   1      41.748  29.683  31.008  1.00  0.00     0.029 A 
ATOM     49  N   UNL A   1      42.887  28.260  29.667  1.00  0.00    -0.354 N 
ATOM     50  C   UNL A   1      38.257  31.355  29.729  1.00  0.00     0.074 A 
ATOM     51  C   UNL A   1      37.399  30.399  29.062  1.00  0.00     0.031 C 
ATOM     52  C   UNL A   1      43.057  29.897  31.219  1.00  0.00     0.029 A 
ATOM     53  C   UNL A   1      43.774  29.264  30.127  1.00  0.00     0.049 A 
ATOM     54  H   UNL A   1      43.122  27.380  29.293  1.00  0.00     0.167 HD
ATOM     55  C   UNL A   1      38.065  32.500  30.446  1.00  0.00     0.037 A 
ATOM     56  C   UNL A   1      44.617  29.899  29.261  1.00  0.00     0.037 A 
ATOM     57  C   UNL A   1      39.329  33.056  30.919  1.00  0.00     0.049 A 
ATOM     58  C   UNL A   1      44.415  31.396  29.162  1.00  0.00     0.074 A 
ATOM     59  C   UNL A   1      40.036  32.981  32.108  1.00  0.00     0.029 A 
ATOM     60  N   UNL A   1      40.201  33.590  29.988  1.00  0.00    -0.354 N 
ATOM     61  N   UNL A   1      43.431  32.045  29.720  1.00  0.00    -0.248 NA
ATOM     62  C   UNL A   1      45.252  32.262  28.328  1.00  0.00     0.031 C 
ATOM     63  C   UNL A   1      41.360  33.446  31.866  1.00  0.00     0.029 A 
ATOM     64  C   UNL A   1      41.450  33.806  30.535  1.00  0.00     0.049 A 
ATOM     65  H   UNL A   1      39.962  33.789  29.054  1.00  0.00     0.167 HD
ATOM     66  C   UNL A   1      43.464  33.348  29.310  1.00  0.00     0.074 A 
ATOM     67  C   UNL A   1      44.619  33.441  28.440  1.00  0.00     0.031 C 
ATOM     68  C   UNL A   1      42.524  34.262  29.675  1.00  0.00     0.037 A 
BRANCH  55  69
ATOM     69  C   UNL A   1      36.717  33.008  30.894  1.00  0.00     0.064 A 
ATOM     70  C   UNL A   1      35.975  33.893  30.082  1.00  0.00     0.173 A 
ATOM     71  C   UNL A   1      36.119  32.696  32.129  1.00  0.00     0.173 A 
ATOM     72  F   UNL A   1      36.371  34.203  28.842  1.00  0.00    -0.203 F 
ATOM     73  C   UNL A   1      34.796  34.503  30.520  1.00  0.00     0.198 A 
ATOM     74  C   UNL A   1      34.975  33.353  32.593  1.00  0.00     0.198 A 
ATOM     75  F   UNL A   1      36.592  31.710  32.901  1.00  0.00    -0.203 F 
ATOM     76  F   UNL A   1      34.137  35.336  29.703  1.00  0.00    -0.200 F 
ATOM     77  C   UNL A   1      34.318  34.265  31.791  1.00  0.00     0.200 A 
ATOM     78  F   UNL A   1      34.512  33.095  33.824  1.00  0.00    -0.200 F 
ATOM     79  F   UNL A   1      33.220  34.892  32.233  1.00  0.00    -0.200 F 
ENDBRANCH  55  69
BRANCH  56  80
ATOM     80  C   UNL A   1      45.052  29.031  28.133  1.00  0.00     0.064 A 
ATOM     81  C   UNL A   1      46.016  28.034  28.384  1.00  0.00     0.173 A 
ATOM     82  C   UNL A   1      44.302  28.924  26.959  1.00  0.00     0.173 A 
ATOM     83  F   UNL A   1      46.765  28.088  29.498  1.00  0.00    -0.203 F 
ATOM     84  C   UNL A   1      46.131  26.916  27.562  1.00  0.00     0.198 A 
ATOM     85  C   UNL A   1      44.438  27.815  26.122  1.00  0.00     0.198 A 
ATOM     86  F   UNL A   1      43.355  29.829  26.670  1.00  0.00    -0.203 F 
ATOM     87  F   UNL A   1      46.968  25.923  27.896  1.00  0.00    -0.200 F 
ATOM     88  C   UNL A   1      45.323  26.796  26.445  1.00  0.00     0.200 A 
ATOM     89  F   UNL A   1      43.639  27.688  25.055  1.00  0.00    -0.200 F 
ATOM     90  F   UNL A   1      45.364  25.682  25.702  1.00  0.00    -0.200 F 
ENDBRANCH  56  80
BRANCH  68  91
ATOM     91  C   UNL A   1      42.572  35.687  29.234  1.00  0.00     0.064 A 
ATOM     92  C   UNL A   1      41.934  36.117  28.061  1.00  0.00     0.173 A 
ATOM     93  C   UNL A   1      43.361  36.634  29.914  1.00  0.00     0.173 A 
ATOM     94  F   UNL A   1      41.188  35.267  27.339  1.00  0.00    -0.203 F 
ATOM     95  C   UNL A   1      42.061  37.430  27.606  1.00  0.00     0.198 A 
ATOM     96  C   UNL A   1      43.521  37.931  29.433  1.00  0.00     0.198 A 
ATOM     97  F   UNL A   1      43.973  36.324  31.066  1.00  0.00    -0.203 F 
ATOM     98  F   UNL A   1      41.406  37.818  26.504  1.00  0.00    -0.200 F 
ATOM     99  C   UNL A   1      42.866  38.331  28.284  1.00  0.00     0.200 A 
ATOM    100  F   UNL A   1      44.312  38.791  30.091  1.00  0.00    -0.200 F 
ATOM    101  F   UNL A   1      43.005  39.585  27.833  1.00  0.00    -0.200 F 
ENDBRANCH  68  91
ENDBRANCH  42  43
ENDBRANCH  34  37
ENDBRANCH  32  33
ENDBRANCH  31  32
ENDBRANCH  30  31
ENDBRANCH  29  30
ENDBRANCH   1  29
TORSDOF 17
ENDMDL
MODEL 3
REMARK VINA RESULT:     -13.2      4.242     10.437
REMARK SMILES Cc1c(NCc2ccc(-c3ccc(Cl)cc3)o2)cccc1C(=O)NCCCCCCNC(=O)c1ccc(-c2c3nc(c(-c4c(F)c(F)c(F)c(F)c4F)c4ccc([nH]4)c(-c4c(F)c(F)c(F)c(F)c4F)c4nc(c(-c5c(F)c(F)c(F)c(F)c5F)c5ccc2[nH]5)C=C4)C=C3)cc1
REMARK SMILES IDX 26 1 25 2 24 3 22 4 23 5 21 7 1 8 2 9 3 10 18 11 20 12 19 13
REMARK SMILES IDX 4 14 5 16 6 17 7 18 17 19 8 20 9 21 10 22 11 23 16 24 12 25
REMARK SMILES IDX 15 26 13 27 14 28 27 29 28 30 29 31 30 32 31 33 32 34 33 36
REMARK SMILES IDX 34 37 35 38 96 39 36 40 95 41 37 42 38 43 39 44 89 45 40 46
REMARK SMILES IDX 94 47 88 48 90 49 41 50 93 51 87 52 86 53 42 55 74 56 54 57
REMARK SMILES IDX 73 58 55 59 58 60 72 61 91 62 56 63 57 64 71 66 92 67 59 68
REMARK SMILES IDX 43 69 44 70 52 71 45 72 46 73 50 74 53 75 47 76 48 77 51 78
REMARK SMILES IDX 49 79 75 80 76 81 84 82 77 83 78 84 82 85 85 86 79 87 80 88
REMARK SMILES IDX 83 89 81 90 60 91 61 92 69 93 62 94 63 95 67 96 70 97 64 98
REMARK SMILES IDX 65 99 68 100 66 101
REMARK H PARENT 24 6 4 15 31 35 90 54 58 65
REMARK Flexibility Score: inf
ROOT
ATOM      1  C   UNL A   1      35.985  21.729  24.922  1.00  0.00     0.021 C 
ENDROOT
BRANCH   1   2
ATOM      2  C   UNL A   1      35.117  21.326  26.127  1.00  0.00     0.116 C 
BRANCH   2   3
ATOM      3  N   UNL A   1      34.054  20.442  25.691  1.00  0.00    -0.352 N 
ATOM      4  C   UNL A   1      32.836  20.630  25.091  1.00  0.00     0.251 C 
ATOM      5  O   UNL A   1      32.150  19.617  24.932  1.00  0.00    -0.269 OA
ATOM      6  H   UNL A   1      34.251  19.493  25.865  1.00  0.00     0.163 HD
BRANCH   4   7
ATOM      7  C   UNL A   1      32.326  21.922  24.528  1.00  0.00     0.044 A 
ATOM      8  C   UNL A   1      30.540  22.417  26.281  1.00  0.00     0.047 C 
ATOM      9  C   UNL A   1      31.355  22.793  25.075  1.00  0.00    -0.015 A 
ATOM     10  C   UNL A   1      31.041  24.018  24.415  1.00  0.00     0.038 A 
ATOM     11  C   UNL A   1      31.545  24.232  23.126  1.00  0.00     0.026 A 
ATOM     12  C   UNL A   1      32.822  22.200  23.240  1.00  0.00     0.014 A 
ATOM     13  C   UNL A   1      32.412  23.322  22.530  1.00  0.00     0.003 A 
BRANCH  10  14
ATOM     14  N   UNL A   1      30.213  24.943  25.027  1.00  0.00    -0.378 N 
ATOM     15  H   UNL A   1      29.266  24.937  24.757  1.00  0.00     0.161 HD
BRANCH  14  16
ATOM     16  C   UNL A   1      30.602  25.923  26.032  1.00  0.00     0.188 C 
BRANCH  16  17
ATOM     17  C   UNL A   1      31.041  27.224  25.446  1.00  0.00     0.123 A 
ATOM     18  C   UNL A   1      32.224  27.934  25.499  1.00  0.00     0.048 A 
ATOM     19  O   UNL A   1      30.128  27.900  24.689  1.00  0.00    -0.459 OA
ATOM     20  C   UNL A   1      32.046  29.075  24.687  1.00  0.00     0.051 A 
ATOM     21  C   UNL A   1      30.746  29.028  24.231  1.00  0.00     0.134 A 
BRANCH  21  22
ATOM     22  C   UNL A   1      29.947  29.912  23.402  1.00  0.00     0.017 A 
ATOM     23  C   UNL A   1      29.677  29.578  22.067  1.00  0.00     0.013 A 
ATOM     24  C   UNL A   1      29.481  31.132  23.908  1.00  0.00     0.013 A 
ATOM     25  C   UNL A   1      28.957  30.454  21.250  1.00  0.00     0.021 A 
ATOM     26  C   UNL A   1      28.772  32.015  23.088  1.00  0.00     0.021 A 
ATOM     27  C   UNL A   1      28.515  31.672  21.763  1.00  0.00     0.041 A 
ATOM     28  Cl  UNL A   1      27.653  32.762  20.750  1.00  0.00    -0.084 Cl
ENDBRANCH  21  22
ENDBRANCH  16  17
ENDBRANCH  14  16
ENDBRANCH  10  14
ENDBRANCH   4   7
ENDBRANCH   2   3
ENDBRANCH   1   2
BRANCH   1  29
ATOM     29  C   UNL A   1      36.517  23.168  24.944  1.00  0.00     0.002 C 
BRANCH  29  30
ATOM     30  C   UNL A   1      37.760  23.422  25.811  1.00  0.00     0.002 C 
BRANCH  30  31
ATOM     31  C   UNL A   1      38.758  22.267  25.909  1.00  0.00     0.021 C 
BRANCH  31  32
ATOM     32  C   UNL A   1      39.857  22.475  26.946  1.00  0.00     0.116 C 
BRANCH  32  33
ATOM     33  N   UNL A   1      41.124  22.922  26.380  1.00  0.00    -0.352 N 
ATOM     34  C   UNL A   1      41.595  24.205  26.182  1.00  0.00     0.251 C 
ATOM     35  H   UNL A   1      41.733  22.204  26.095  1.00  0.00     0.163 HD
ATOM     36  O   UNL A   1      42.680  24.386  25.634  1.00  0.00    -0.269 OA
BRANCH  34  37
ATOM     37  C   UNL A   1      40.851  25.357  26.740  1.00  0.00     0.039 A 
ATOM     38  C   UNL A   1      40.918  26.581  26.060  1.00  0.00     0.014 A 
ATOM     39  C   UNL A   1      40.234  25.284  27.986  1.00  0.00     0.014 A 
ATOM     40  C   UNL A   1      40.579  27.756  26.728  1.00  0.00     0.010 A 
ATOM     41  C   UNL A   1      39.980  26.451  28.679  1.00  0.00     0.010 A 
ATOM     42  C   UNL A   1      40.217  27.688  28.074  1.00  0.00    -0.014 A 
BRANCH  42  43
ATOM     43  C   UNL A   1      40.166  28.852  28.951  1.00  0.00     0.031 A 
ATOM     44  C   UNL A   1      39.079  29.846  28.832  1.00  0.00     0.074 A 
ATOM     45  C   UNL A   1      41.084  28.969  29.937  1.00  0.00     0.049 A 
ATOM     46  N   UNL A   1      39.134  31.044  29.307  1.00  0.00    -0.248 NA
ATOM     47  C   UNL A   1      37.837  29.564  28.123  1.00  0.00     0.031 C 
ATOM     48  C   UNL A   1      41.066  29.895  31.067  1.00  0.00     0.029 A 
ATOM     49  N   UNL A   1      42.366  28.398  29.976  1.00  0.00    -0.354 N 
ATOM     50  C   UNL A   1      37.889  31.614  29.175  1.00  0.00     0.074 A 
ATOM     51  C   UNL A   1      37.124  30.659  28.403  1.00  0.00     0.031 C 
ATOM     52  C   UNL A   1      42.328  30.081  31.487  1.00  0.00     0.029 A 
ATOM     53  C   UNL A   1      43.196  29.392  30.549  1.00  0.00     0.049 A 
ATOM     54  H   UNL A   1      42.631  27.499  29.673  1.00  0.00     0.167 HD
ATOM     55  C   UNL A   1      37.619  32.788  29.817  1.00  0.00     0.037 A 
ATOM     56  C   UNL A   1      44.190  29.975  29.817  1.00  0.00     0.037 A 
ATOM     57  C   UNL A   1      38.803  33.326  30.477  1.00  0.00     0.049 A 
ATOM     58  C   UNL A   1      44.055  31.473  29.642  1.00  0.00     0.074 A 
ATOM     59  C   UNL A   1      39.301  33.272  31.769  1.00  0.00     0.029 A 
ATOM     60  N   UNL A   1      39.834  33.804  29.689  1.00  0.00    -0.354 N 
ATOM     61  N   UNL A   1      43.013  32.166  30.009  1.00  0.00    -0.248 NA
ATOM     62  C   UNL A   1      45.046  32.288  28.934  1.00  0.00     0.031 C 
ATOM     63  C   UNL A   1      40.661  33.694  31.737  1.00  0.00     0.029 A 
ATOM     64  C   UNL A   1      40.981  34.006  30.430  1.00  0.00     0.049 A 
ATOM     65  H   UNL A   1      39.760  33.978  28.723  1.00  0.00     0.167 HD
ATOM     66  C   UNL A   1      43.155  33.453  29.572  1.00  0.00     0.074 A 
ATOM     67  C   UNL A   1      44.441  33.486  28.904  1.00  0.00     0.031 C 
ATOM     68  C   UNL A   1      42.197  34.404  29.748  1.00  0.00     0.037 A 
BRANCH  55  69
ATOM     69  C   UNL A   1      36.232  33.346  30.019  1.00  0.00     0.064 A 
ATOM     70  C   UNL A   1      35.482  33.827  28.923  1.00  0.00     0.173 A 
ATOM     71  C   UNL A   1      35.600  33.475  31.269  1.00  0.00     0.173 A 
ATOM     72  F   UNL A   1      35.913  33.683  27.664  1.00  0.00    -0.203 F 
ATOM     73  C   UNL A   1      34.260  34.486  29.081  1.00  0.00     0.198 A 
ATOM     74  C   UNL A   1      34.408  34.189  31.435  1.00  0.00     0.198 A 
ATOM     75  F   UNL A   1      36.086  32.870  32.360  1.00  0.00    -0.203 F 
ATOM     76  F   UNL A   1      33.596  34.922  28.001  1.00  0.00    -0.200 F 
ATOM     77  C   UNL A   1      33.743  34.704  30.341  1.00  0.00     0.200 A 
ATOM     78  F   UNL A   1      33.909  34.375  32.665  1.00  0.00    -0.200 F 
ATOM     79  F   UNL A   1      32.600  35.385  30.498  1.00  0.00    -0.200 F 
ENDBRANCH  55  69
BRANCH  56  80
ATOM     80  C   UNL A   1      44.778  29.058  28.803  1.00  0.00     0.064 A 
ATOM     81  C   UNL A   1      45.682  28.066  29.236  1.00  0.00     0.173 A 
ATOM     82  C   UNL A   1      44.211  28.906  27.535  1.00  0.00     0.173 A 
ATOM     83  F   UNL A   1      46.257  28.163  30.446  1.00  0.00    -0.203 F 
ATOM     84  C   UNL A   1      45.904  26.914  28.487  1.00  0.00     0.198 A 
ATOM     85  C   UNL A   1      44.457  27.762  26.774  1.00  0.00     0.198 A 
ATOM     86  F   UNL A   1      43.329  29.804  27.071  1.00  0.00    -0.203 F 
ATOM     87  F   UNL A   1      46.670  25.932  28.982  1.00  0.00    -0.200 F 
ATOM     88  C   UNL A   1      45.271  26.752  27.267  1.00  0.00     0.200 A 
ATOM     89  F   UNL A   1      43.824  27.595  25.605  1.00  0.00    -0.200 F 
ATOM     90  F   UNL A   1      45.409  25.607  26.585  1.00  0.00    -0.200 F 
ENDBRANCH  56  80
BRANCH  68  91
ATOM     91  C   UNL A   1      42.363  35.811  29.279  1.00  0.00     0.064 A 
ATOM     92  C   UNL A   1      41.838  36.246  28.054  1.00  0.00     0.173 A 
ATOM     93  C   UNL A   1      43.156  36.728  29.994  1.00  0.00     0.173 A 
ATOM     94  F   UNL A   1      41.097  35.422  27.298  1.00  0.00    -0.203 F 
ATOM     95  C   UNL A   1      42.077  37.536  27.579  1.00  0.00     0.198 A 
ATOM     96  C   UNL A   1      43.429  38.000  29.498  1.00  0.00     0.198 A 
ATOM     97  F   UNL A   1      43.664  36.414  31.195  1.00  0.00    -0.203 F 
ATOM     98  F   UNL A   1      41.528  37.932  26.423  1.00  0.00    -0.200 F 
ATOM     99  C   UNL A   1      42.883  38.407  28.295  1.00  0.00     0.200 A 
ATOM    100  F   UNL A   1      44.220  38.829  30.192  1.00  0.00    -0.200 F 
ATOM    101  F   UNL A   1      43.130  39.637  27.827  1.00  0.00    -0.200 F 
ENDBRANCH  68  91
ENDBRANCH  42  43
ENDBRANCH  34  37
ENDBRANCH  32  33
ENDBRANCH  31  32
ENDBRANCH  30  31
ENDBRANCH  29  30
ENDBRANCH   1  29
TORSDOF 17
ENDMDL
