MODEL 1
REMARK VINA RESULT:     -14.0      0.000      0.000
REMARK SMILES Cc1ccc(-c2cnnc(-n3nc(C)c4c3NC(=O)C[C@@H]4c3ccc(C(=O)NCCCCCCNC(=O)c4ccc(-c5c6nc(c(-c7c(F)c(F)c(F)c(F)c7F)c7ccc([nH]7)c(-c7c(F)c(F)c(F)c(F)c7F)c7nc(c(-c8c(F)c(F)c(F)c(F)c8F)c8ccc5[nH]8)C=C7)C=C6)cc4)cc3)n2)cc1
REMARK SMILES IDX 31 1 30 2 29 3 28 4 26 5 27 6 25 8 22 9 23 10 102 11 24 12
REMARK SMILES IDX 101 13 21 14 11 15 12 16 16 17 13 18 15 19 17 20 14 21 18 22
REMARK SMILES IDX 20 24 19 25 10 26 6 27 7 28 103 29 8 30 9 31 5 32 1 33 2 34
REMARK SMILES IDX 3 35 105 36 4 37 104 38 32 39 33 40 34 41 35 42 36 43 37 45
REMARK SMILES IDX 38 46 39 47 100 48 40 49 99 50 41 51 42 52 43 53 93 54 44 55
REMARK SMILES IDX 98 56 92 57 94 58 45 59 97 60 91 61 90 62 46 64 78 65 58 66
REMARK SMILES IDX 77 67 59 68 62 69 76 70 95 71 60 72 61 73 75 75 96 76 63 77
REMARK SMILES IDX 47 78 48 79 56 80 49 81 50 82 54 83 57 84 51 85 52 86 55 87
REMARK SMILES IDX 53 88 79 89 80 90 88 91 81 92 82 93 86 94 89 95 83 96 84 97
REMARK SMILES IDX 87 98 85 99 64 100 65 101 73 102 66 103 67 104 71 105 74 106
REMARK SMILES IDX 68 107 69 108 72 109 70 110
REMARK H PARENT 28 7 17 23 35 44 94 63 62 74
REMARK Flexibility Score: inf
ROOT
ATOM      1  C   UNL A   1      36.358  20.047  24.501  1.00  0.00     0.002 C 
ENDROOT
BRANCH   1   2
ATOM      2  C   UNL A   1      36.169  18.651  25.111  1.00  0.00     0.021 C 
BRANCH   2   3
ATOM      3  C   UNL A   1      35.330  17.703  24.251  1.00  0.00     0.116 C 
BRANCH   3   4
ATOM      4  N   UNL A   1      34.113  17.306  24.942  1.00  0.00    -0.352 N 
ATOM      5  C   UNL A   1      32.966  18.004  25.230  1.00  0.00     0.251 C 
ATOM      6  O   UNL A   1      31.999  17.414  25.703  1.00  0.00    -0.269 OA
ATOM      7  H   UNL A   1      34.111  16.374  25.259  1.00  0.00     0.163 HD
BRANCH   5   8
ATOM      8  C   UNL A   1      32.852  19.444  24.912  1.00  0.00     0.039 A 
ATOM      9  C   UNL A   1      32.237  22.149  24.485  1.00  0.00    -0.040 A 
ATOM     10  C   UNL A   1      32.721  21.712  25.733  1.00  0.00     0.005 A 
ATOM     11  C   UNL A   1      32.264  21.242  23.415  1.00  0.00     0.005 A 
ATOM     12  C   UNL A   1      33.033  20.368  25.942  1.00  0.00     0.014 A 
ATOM     13  C   UNL A   1      32.556  19.898  23.630  1.00  0.00     0.014 A 
BRANCH   9  14
ATOM     14  C   UNL A   1      31.674  23.552  24.397  1.00  0.00     0.064 C 
ATOM     15  N   UNL A   1      33.353  26.293  26.055  1.00  0.00    -0.180 N 
ATOM     16  N   UNL A   1      34.468  25.829  25.422  1.00  0.00    -0.168 NA
ATOM     17  C   UNL A   1      32.414  25.275  26.093  1.00  0.00     0.143 A 
ATOM     18  C   UNL A   1      34.014  24.845  24.640  1.00  0.00     0.066 A 
ATOM     19  C   UNL A   1      32.658  24.536  24.948  1.00  0.00     0.026 A 
ATOM     20  N   UNL A   1      31.430  24.885  26.982  1.00  0.00    -0.310 N 
ATOM     21  C   UNL A   1      34.987  24.175  23.740  1.00  0.00     0.069 C 
ATOM     22  C   UNL A   1      30.527  23.838  26.579  1.00  0.00     0.226 C 
ATOM     23  H   UNL A   1      31.349  25.310  27.865  1.00  0.00     0.171 HD
ATOM     24  C   UNL A   1      30.320  23.696  25.090  1.00  0.00     0.113 C 
ATOM     25  O   UNL A   1      29.941  23.229  27.442  1.00  0.00    -0.275 OA
BRANCH  15  26
ATOM     26  C   UNL A   1      33.117  27.699  26.149  1.00  0.00     0.272 A 
ATOM     27  C   UNL A   1      33.504  29.793  26.970  1.00  0.00     0.095 A 
ATOM     28  C   UNL A   1      32.271  30.200  26.487  1.00  0.00     0.164 A 
ATOM     29  N   UNL A   1      33.936  28.502  26.862  1.00  0.00    -0.208 NA
ATOM     30  N   UNL A   1      31.479  29.354  25.820  1.00  0.00    -0.153 NA
ATOM     31  N   UNL A   1      31.932  28.102  25.613  1.00  0.00    -0.109 NA
BRANCH  27  32
ATOM     32  C   UNL A   1      34.446  30.783  27.507  1.00  0.00     0.002 A 
ATOM     33  C   UNL A   1      37.310  33.729  28.874  1.00  0.00     0.044 C 
ATOM     34  C   UNL A   1      36.326  32.714  28.375  1.00  0.00    -0.051 A 
ATOM     35  C   UNL A   1      34.964  33.025  28.321  1.00  0.00     0.004 A 
ATOM     36  C   UNL A   1      36.748  31.443  27.976  1.00  0.00     0.004 A 
ATOM     37  C   UNL A   1      34.034  32.071  27.889  1.00  0.00     0.011 A 
ATOM     38  C   UNL A   1      35.817  30.490  27.552  1.00  0.00     0.011 A 
ENDBRANCH  27  32
ENDBRANCH  15  26
ENDBRANCH   9  14
ENDBRANCH   5   8
ENDBRANCH   3   4
ENDBRANCH   2   3
ENDBRANCH   1   2
BRANCH   1  39
ATOM     39  C   UNL A   1      36.606  21.184  25.505  1.00  0.00     0.002 C 
BRANCH  39  40
ATOM     40  C   UNL A   1      37.656  22.212  25.084  1.00  0.00     0.021 C 
BRANCH  40  41
ATOM     41  C   UNL A   1      37.906  23.275  26.137  1.00  0.00     0.116 C 
BRANCH  41  42
ATOM     42  N   UNL A   1      39.110  23.036  26.917  1.00  0.00    -0.352 N 
ATOM     43  C   UNL A   1      40.002  23.918  27.491  1.00  0.00     0.251 C 
ATOM     44  H   UNL A   1      39.325  22.086  27.057  1.00  0.00     0.163 HD
ATOM     45  O   UNL A   1      41.083  23.492  27.893  1.00  0.00    -0.269 OA
BRANCH  43  46
ATOM     46  C   UNL A   1      39.590  25.303  27.835  1.00  0.00     0.039 A 
ATOM     47  C   UNL A   1      39.939  26.304  26.911  1.00  0.00     0.014 A 
ATOM     48  C   UNL A   1      39.305  25.644  29.146  1.00  0.00     0.014 A 
ATOM     49  C   UNL A   1      40.313  27.555  27.375  1.00  0.00     0.010 A 
ATOM     50  C   UNL A   1      39.867  26.785  29.638  1.00  0.00     0.010 A 
ATOM     51  C   UNL A   1      40.401  27.717  28.748  1.00  0.00    -0.014 A 
BRANCH  51  52
ATOM     52  C   UNL A   1      40.920  28.879  29.419  1.00  0.00     0.031 A 
ATOM     53  C   UNL A   1      39.917  29.801  29.975  1.00  0.00     0.074 A 
ATOM     54  C   UNL A   1      42.235  28.882  29.723  1.00  0.00     0.049 A 
ATOM     55  N   UNL A   1      40.158  31.021  30.280  1.00  0.00    -0.248 NA
ATOM     56  C   UNL A   1      38.515  29.432  30.188  1.00  0.00     0.031 C 
ATOM     57  C   UNL A   1      42.920  29.657  30.747  1.00  0.00     0.029 A 
ATOM     58  N   UNL A   1      43.274  28.224  29.040  1.00  0.00    -0.354 N 
ATOM     59  C   UNL A   1      39.089  31.476  31.024  1.00  0.00     0.074 A 
ATOM     60  C   UNL A   1      38.044  30.508  30.826  1.00  0.00     0.031 C 
ATOM     61  C   UNL A   1      44.235  29.687  30.468  1.00  0.00     0.029 A 
ATOM     62  C   UNL A   1      44.412  29.054  29.171  1.00  0.00     0.049 A 
ATOM     63  H   UNL A   1      43.220  27.361  28.568  1.00  0.00     0.167 HD
ATOM     64  C   UNL A   1      39.306  32.527  31.861  1.00  0.00     0.037 A 
ATOM     65  C   UNL A   1      44.947  29.674  28.075  1.00  0.00     0.037 A 
ATOM     66  C   UNL A   1      40.698  32.944  31.750  1.00  0.00     0.049 A 
ATOM     67  C   UNL A   1      44.821  31.173  28.159  1.00  0.00     0.074 A 
ATOM     68  C   UNL A   1      41.817  32.598  32.490  1.00  0.00     0.029 A 
ATOM     69  N   UNL A   1      41.156  33.481  30.555  1.00  0.00    -0.354 N 
ATOM     70  N   UNL A   1      43.854  31.782  28.791  1.00  0.00    -0.248 NA
ATOM     71  C   UNL A   1      45.800  32.097  27.596  1.00  0.00     0.031 C 
ATOM     72  C   UNL A   1      42.960  32.921  31.722  1.00  0.00     0.029 A 
ATOM     73  C   UNL A   1      42.534  33.464  30.521  1.00  0.00     0.049 A 
ATOM     74  H   UNL A   1      40.580  33.824  29.835  1.00  0.00     0.167 HD
ATOM     75  C   UNL A   1      44.079  33.134  28.759  1.00  0.00     0.074 A 
ATOM     76  C   UNL A   1      45.300  33.281  27.991  1.00  0.00     0.031 C 
ATOM     77  C   UNL A   1      43.260  34.023  29.397  1.00  0.00     0.037 A 
BRANCH  64  78
ATOM     78  C   UNL A   1      38.415  32.993  32.987  1.00  0.00     0.064 A 
ATOM     79  C   UNL A   1      38.457  32.326  34.235  1.00  0.00     0.173 A 
ATOM     80  C   UNL A   1      37.493  34.054  32.921  1.00  0.00     0.173 A 
ATOM     81  F   UNL A   1      39.332  31.341  34.478  1.00  0.00    -0.203 F 
ATOM     82  C   UNL A   1      37.603  32.639  35.291  1.00  0.00     0.198 A 
ATOM     83  C   UNL A   1      36.618  34.352  33.974  1.00  0.00     0.198 A 
ATOM     84  F   UNL A   1      37.429  34.867  31.862  1.00  0.00    -0.203 F 
ATOM     85  F   UNL A   1      37.687  31.950  36.438  1.00  0.00    -0.200 F 
ATOM     86  C   UNL A   1      36.669  33.641  35.156  1.00  0.00     0.200 A 
ATOM     87  F   UNL A   1      35.724  35.341  33.833  1.00  0.00    -0.200 F 
ATOM     88  F   UNL A   1      35.835  33.931  36.163  1.00  0.00    -0.200 F 
ENDBRANCH  64  78
BRANCH  65  89
ATOM     89  C   UNL A   1      44.797  28.848  26.843  1.00  0.00     0.064 A 
ATOM     90  C   UNL A   1      45.632  27.718  26.737  1.00  0.00     0.173 A 
ATOM     91  C   UNL A   1      43.593  28.835  26.124  1.00  0.00     0.173 A 
ATOM     92  F   UNL A   1      46.811  27.696  27.382  1.00  0.00    -0.203 F 
ATOM     93  C   UNL A   1      45.190  26.552  26.117  1.00  0.00     0.198 A 
ATOM     94  C   UNL A   1      43.165  27.669  25.485  1.00  0.00     0.198 A 
ATOM     95  F   UNL A   1      42.766  29.889  26.166  1.00  0.00    -0.203 F 
ATOM     96  F   UNL A   1      45.935  25.439  26.180  1.00  0.00    -0.200 F 
ATOM     97  C   UNL A   1      43.936  26.516  25.532  1.00  0.00     0.200 A 
ATOM     98  F   UNL A   1      41.955  27.631  24.908  1.00  0.00    -0.200 F 
ATOM     99  F   UNL A   1      43.454  25.360  25.054  1.00  0.00    -0.200 F 
ENDBRANCH  65  89
BRANCH  77 100
ATOM    100  C   UNL A   1      43.160  35.510  29.138  1.00  0.00     0.064 A 
ATOM    101  C   UNL A   1      42.416  36.073  28.090  1.00  0.00     0.173 A 
ATOM    102  C   UNL A   1      43.706  36.449  30.054  1.00  0.00     0.173 A 
ATOM    103  F   UNL A   1      41.717  35.313  27.237  1.00  0.00    -0.203 F 
ATOM    104  C   UNL A   1      42.309  37.455  27.915  1.00  0.00     0.198 A 
ATOM    105  C   UNL A   1      43.529  37.824  29.921  1.00  0.00     0.198 A 
ATOM    106  F   UNL A   1      44.405  36.071  31.134  1.00  0.00    -0.203 F 
ATOM    107  F   UNL A   1      41.643  37.934  26.855  1.00  0.00    -0.200 F 
ATOM    108  C   UNL A   1      42.855  38.329  28.833  1.00  0.00     0.200 A 
ATOM    109  F   UNL A   1      43.999  38.648  30.869  1.00  0.00    -0.200 F 
ATOM    110  F   UNL A   1      42.712  39.651  28.684  1.00  0.00    -0.200 F 
ENDBRANCH  77 100
ENDBRANCH  51  52
ENDBRANCH  43  46
ENDBRANCH  41  42
ENDBRANCH  40  41
ENDBRANCH  39  40
ENDBRANCH   1  39
TORSDOF 16
ENDMDL
MODEL 2
REMARK VINA RESULT:     -13.7      1.838      3.132
REMARK SMILES Cc1ccc(-c2cnnc(-n3nc(C)c4c3NC(=O)C[C@@H]4c3ccc(C(=O)NCCCCCCNC(=O)c4ccc(-c5c6nc(c(-c7c(F)c(F)c(F)c(F)c7F)c7ccc([nH]7)c(-c7c(F)c(F)c(F)c(F)c7F)c7nc(c(-c8c(F)c(F)c(F)c(F)c8F)c8ccc5[nH]8)C=C7)C=C6)cc4)cc3)n2)cc1
REMARK SMILES IDX 31 1 30 2 29 3 28 4 26 5 27 6 25 8 22 9 23 10 102 11 24 12
REMARK SMILES IDX 101 13 21 14 11 15 12 16 16 17 13 18 15 19 17 20 14 21 18 22
REMARK SMILES IDX 20 24 19 25 10 26 6 27 7 28 103 29 8 30 9 31 5 32 1 33 2 34
REMARK SMILES IDX 3 35 105 36 4 37 104 38 32 39 33 40 34 41 35 42 36 43 37 45
REMARK SMILES IDX 38 46 39 47 100 48 40 49 99 50 41 51 42 52 43 53 93 54 44 55
REMARK SMILES IDX 98 56 92 57 94 58 45 59 97 60 91 61 90 62 46 64 78 65 58 66
REMARK SMILES IDX 77 67 59 68 62 69 76 70 95 71 60 72 61 73 75 75 96 76 63 77
REMARK SMILES IDX 47 78 48 79 56 80 49 81 50 82 54 83 57 84 51 85 52 86 55 87
REMARK SMILES IDX 53 88 79 89 80 90 88 91 81 92 82 93 86 94 89 95 83 96 84 97
REMARK SMILES IDX 87 98 85 99 64 100 65 101 73 102 66 103 67 104 71 105 74 106
REMARK SMILES IDX 68 107 69 108 72 109 70 110
REMARK H PARENT 28 7 17 23 35 44 94 63 62 74
REMARK Flexibility Score: inf
ROOT
ATOM      1  C   UNL A   1      37.390  18.870  24.982  1.00  0.00     0.002 C 
ENDROOT
BRANCH   1   2
ATOM      2  C   UNL A   1      36.500  17.669  25.335  1.00  0.00     0.021 C 
BRANCH   2   3
ATOM      3  C   UNL A   1      35.380  17.406  24.326  1.00  0.00     0.116 C 
BRANCH   3   4
ATOM      4  N   UNL A   1      34.152  17.009  24.999  1.00  0.00    -0.352 N 
ATOM      5  C   UNL A   1      32.999  17.705  25.264  1.00  0.00     0.251 C 
ATOM      6  O   UNL A   1      32.025  17.114  25.723  1.00  0.00    -0.269 OA
ATOM      7  H   UNL A   1      34.149  16.079  25.322  1.00  0.00     0.163 HD
BRANCH   5   8
ATOM      8  C   UNL A   1      32.884  19.142  24.934  1.00  0.00     0.039 A 
ATOM      9  C   UNL A   1      32.275  21.846  24.498  1.00  0.00    -0.040 A 
ATOM     10  C   UNL A   1      32.793  21.418  25.736  1.00  0.00     0.005 A 
ATOM     11  C   UNL A   1      32.265  20.929  23.437  1.00  0.00     0.005 A 
ATOM     12  C   UNL A   1      33.102  20.075  25.950  1.00  0.00     0.014 A 
ATOM     13  C   UNL A   1      32.555  19.585  23.656  1.00  0.00     0.014 A 
BRANCH   9  14
ATOM     14  C   UNL A   1      31.720  23.253  24.413  1.00  0.00     0.064 C 
ATOM     15  N   UNL A   1      33.457  25.996  26.006  1.00  0.00    -0.180 N 
ATOM     16  N   UNL A   1      34.553  25.519  25.348  1.00  0.00    -0.168 NA
ATOM     17  C   UNL A   1      32.513  24.985  26.076  1.00  0.00     0.143 A 
ATOM     18  C   UNL A   1      34.073  24.532  24.586  1.00  0.00     0.066 A 
ATOM     19  C   UNL A   1      32.723  24.234  24.931  1.00  0.00     0.026 A 
ATOM     20  N   UNL A   1      31.549  24.608  26.992  1.00  0.00    -0.310 N 
ATOM     21  C   UNL A   1      35.019  23.848  23.669  1.00  0.00     0.069 C 
ATOM     22  C   UNL A   1      30.629  23.564  26.621  1.00  0.00     0.226 C 
ATOM     23  H   UNL A   1      31.492  25.041  27.873  1.00  0.00     0.171 HD
ATOM     24  C   UNL A   1      30.384  23.411  25.138  1.00  0.00     0.113 C 
ATOM     25  O   UNL A   1      30.061  22.966  27.503  1.00  0.00    -0.275 OA
BRANCH  15  26
ATOM     26  C   UNL A   1      33.232  27.404  26.094  1.00  0.00     0.272 A 
ATOM     27  C   UNL A   1      32.313  29.380  25.415  1.00  0.00     0.095 A 
ATOM     28  C   UNL A   1      33.255  30.064  26.165  1.00  0.00     0.164 A 
ATOM     29  N   UNL A   1      32.316  28.017  25.314  1.00  0.00    -0.208 NA
ATOM     30  N   UNL A   1      34.167  29.409  26.891  1.00  0.00    -0.153 NA
ATOM     31  N   UNL A   1      34.122  28.062  26.886  1.00  0.00    -0.109 NA
BRANCH  27  32
ATOM     32  C   UNL A   1      31.194  30.105  24.801  1.00  0.00     0.002 A 
ATOM     33  C   UNL A   1      27.745  32.090  23.093  1.00  0.00     0.044 C 
ATOM     34  C   UNL A   1      28.923  31.386  23.698  1.00  0.00    -0.051 A 
ATOM     35  C   UNL A   1      29.653  31.996  24.724  1.00  0.00     0.004 A 
ATOM     36  C   UNL A   1      29.319  30.127  23.240  1.00  0.00     0.004 A 
ATOM     37  C   UNL A   1      30.774  31.361  25.271  1.00  0.00     0.011 A 
ATOM     38  C   UNL A   1      30.443  29.499  23.783  1.00  0.00     0.011 A 
ENDBRANCH  27  32
ENDBRANCH  15  26
ENDBRANCH   9  14
ENDBRANCH   5   8
ENDBRANCH   3   4
ENDBRANCH   2   3
ENDBRANCH   1   2
BRANCH   1  39
ATOM     39  C   UNL A   1      36.677  20.229  24.914  1.00  0.00     0.002 C 
BRANCH  39  40
ATOM     40  C   UNL A   1      37.590  21.440  24.722  1.00  0.00     0.021 C 
BRANCH  40  41
ATOM     41  C   UNL A   1      37.788  22.245  25.992  1.00  0.00     0.116 C 
BRANCH  41  42
ATOM     42  N   UNL A   1      39.158  22.211  26.483  1.00  0.00    -0.352 N 
ATOM     43  C   UNL A   1      40.079  23.223  26.657  1.00  0.00     0.251 C 
ATOM     44  H   UNL A   1      39.481  21.315  26.732  1.00  0.00     0.163 HD
ATOM     45  O   UNL A   1      41.256  22.928  26.850  1.00  0.00    -0.269 OA
BRANCH  43  46
ATOM     46  C   UNL A   1      39.638  24.630  26.842  1.00  0.00     0.039 A 
ATOM     47  C   UNL A   1      40.442  25.618  26.244  1.00  0.00     0.014 A 
ATOM     48  C   UNL A   1      38.792  24.967  27.883  1.00  0.00     0.014 A 
ATOM     49  C   UNL A   1      40.629  26.825  26.897  1.00  0.00     0.010 A 
ATOM     50  C   UNL A   1      39.124  26.051  28.642  1.00  0.00     0.010 A 
ATOM     51  C   UNL A   1      40.069  26.955  28.158  1.00  0.00    -0.014 A 
BRANCH  51  52
ATOM     52  C   UNL A   1      40.282  28.058  29.055  1.00  0.00     0.031 A 
ATOM     53  C   UNL A   1      39.271  29.127  29.008  1.00  0.00     0.074 A 
ATOM     54  C   UNL A   1      41.198  27.894  30.032  1.00  0.00     0.049 A 
ATOM     55  N   UNL A   1      39.463  30.313  29.450  1.00  0.00    -0.248 NA
ATOM     56  C   UNL A   1      37.950  28.959  28.398  1.00  0.00     0.031 C 
ATOM     57  C   UNL A   1      41.301  28.606  31.298  1.00  0.00     0.029 A 
ATOM     58  N   UNL A   1      42.343  27.077  30.005  1.00  0.00    -0.354 N 
ATOM     59  C   UNL A   1      38.233  30.935  29.503  1.00  0.00     0.074 A 
ATOM     60  C   UNL A   1      37.353  30.111  28.719  1.00  0.00     0.031 C 
ATOM     61  C   UNL A   1      42.542  28.447  31.790  1.00  0.00     0.029 A 
ATOM     62  C   UNL A   1      43.318  27.750  30.778  1.00  0.00     0.049 A 
ATOM     63  H   UNL A   1      42.444  26.214  29.543  1.00  0.00     0.167 HD
ATOM     64  C   UNL A   1      38.090  31.976  30.368  1.00  0.00     0.037 A 
ATOM     65  C   UNL A   1      44.445  28.252  30.187  1.00  0.00     0.037 A 
ATOM     66  C   UNL A   1      39.354  32.197  31.059  1.00  0.00     0.049 A 
ATOM     67  C   UNL A   1      44.494  29.757  30.255  1.00  0.00     0.074 A 
ATOM     68  C   UNL A   1      39.821  31.729  32.277  1.00  0.00     0.029 A 
ATOM     69  N   UNL A   1      40.460  32.624  30.339  1.00  0.00    -0.354 N 
ATOM     70  N   UNL A   1      43.430  30.513  30.277  1.00  0.00    -0.248 NA
ATOM     71  C   UNL A   1      45.734  30.519  30.366  1.00  0.00     0.031 C 
ATOM     72  C   UNL A   1      41.230  31.866  32.280  1.00  0.00     0.029 A 
ATOM     73  C   UNL A   1      41.612  32.419  31.068  1.00  0.00     0.049 A 
ATOM     74  H   UNL A   1      40.427  33.016  29.438  1.00  0.00     0.167 HD
ATOM     75  C   UNL A   1      43.812  31.820  30.435  1.00  0.00     0.074 A 
ATOM     76  C   UNL A   1      45.261  31.773  30.473  1.00  0.00     0.031 C 
ATOM     77  C   UNL A   1      42.904  32.834  30.556  1.00  0.00     0.037 A 
BRANCH  64  78
ATOM     78  C   UNL A   1      36.797  32.599  30.836  1.00  0.00     0.064 A 
ATOM     79  C   UNL A   1      36.102  33.493  29.986  1.00  0.00     0.173 A 
ATOM     80  C   UNL A   1      36.191  32.391  32.089  1.00  0.00     0.173 A 
ATOM     81  F   UNL A   1      36.514  33.739  28.736  1.00  0.00    -0.203 F 
ATOM     82  C   UNL A   1      34.952  34.175  30.381  1.00  0.00     0.198 A 
ATOM     83  C   UNL A   1      35.048  33.095  32.494  1.00  0.00     0.198 A 
ATOM     84  F   UNL A   1      36.646  31.475  32.949  1.00  0.00    -0.203 F 
ATOM     85  F   UNL A   1      34.359  35.023  29.529  1.00  0.00    -0.200 F 
ATOM     86  C   UNL A   1      34.434  33.990  31.643  1.00  0.00     0.200 A 
ATOM     87  F   UNL A   1      34.546  32.894  33.720  1.00  0.00    -0.200 F 
ATOM     88  F   UNL A   1      33.340  34.659  32.030  1.00  0.00    -0.200 F 
ENDBRANCH  64  78
BRANCH  65  89
ATOM     89  C   UNL A   1      44.892  27.410  29.039  1.00  0.00     0.064 A 
ATOM     90  C   UNL A   1      45.355  26.117  29.351  1.00  0.00     0.173 A 
ATOM     91  C   UNL A   1      44.392  27.628  27.748  1.00  0.00     0.173 A 
ATOM     92  F   UNL A   1      45.872  25.867  30.566  1.00  0.00    -0.203 F 
ATOM     93  C   UNL A   1      45.136  25.046  28.487  1.00  0.00     0.198 A 
ATOM     94  C   UNL A   1      44.194  26.553  26.877  1.00  0.00     0.198 A 
ATOM     95  F   UNL A   1      43.956  28.842  27.384  1.00  0.00    -0.203 F 
ATOM     96  F   UNL A   1      45.433  23.800  28.881  1.00  0.00    -0.200 F 
ATOM     97  C   UNL A   1      44.512  25.260  27.269  1.00  0.00     0.200 A 
ATOM     98  F   UNL A   1      43.600  26.756  25.692  1.00  0.00    -0.200 F 
ATOM     99  F   UNL A   1      44.179  24.217  26.497  1.00  0.00    -0.200 F 
ENDBRANCH  65  89
BRANCH  77 100
ATOM    100  C   UNL A   1      43.161  34.311  30.353  1.00  0.00     0.064 A 
ATOM    101  C   UNL A   1      43.589  35.178  31.370  1.00  0.00     0.173 A 
ATOM    102  C   UNL A   1      43.128  34.885  29.053  1.00  0.00     0.173 A 
ATOM    103  F   UNL A   1      43.816  34.742  32.615  1.00  0.00    -0.203 F 
ATOM    104  C   UNL A   1      43.865  36.526  31.128  1.00  0.00     0.198 A 
ATOM    105  C   UNL A   1      43.482  36.208  28.804  1.00  0.00     0.198 A 
ATOM    106  F   UNL A   1      42.784  34.177  27.967  1.00  0.00    -0.203 F 
ATOM    107  F   UNL A   1      44.203  37.322  32.152  1.00  0.00    -0.200 F 
ATOM    108  C   UNL A   1      43.822  37.038  29.847  1.00  0.00     0.200 A 
ATOM    109  F   UNL A   1      43.509  36.661  27.542  1.00  0.00    -0.200 F 
ATOM    110  F   UNL A   1      44.128  38.320  29.615  1.00  0.00    -0.200 F 
ENDBRANCH  77 100
ENDBRANCH  51  52
ENDBRANCH  43  46
ENDBRANCH  41  42
ENDBRANCH  40  41
ENDBRANCH  39  40
ENDBRANCH   1  39
TORSDOF 16
ENDMDL
MODEL 3
REMARK VINA RESULT:     -13.3      1.478      2.544
REMARK SMILES Cc1ccc(-c2cnnc(-n3nc(C)c4c3NC(=O)C[C@@H]4c3ccc(C(=O)NCCCCCCNC(=O)c4ccc(-c5c6nc(c(-c7c(F)c(F)c(F)c(F)c7F)c7ccc([nH]7)c(-c7c(F)c(F)c(F)c(F)c7F)c7nc(c(-c8c(F)c(F)c(F)c(F)c8F)c8ccc5[nH]8)C=C7)C=C6)cc4)cc3)n2)cc1
REMARK SMILES IDX 31 1 30 2 29 3 28 4 26 5 27 6 25 8 22 9 23 10 102 11 24 12
REMARK SMILES IDX 101 13 21 14 11 15 12 16 16 17 13 18 15 19 17 20 14 21 18 22
REMARK SMILES IDX 20 24 19 25 10 26 6 27 7 28 103 29 8 30 9 31 5 32 1 33 2 34
REMARK SMILES IDX 3 35 105 36 4 37 104 38 32 39 33 40 34 41 35 42 36 43 37 45
REMARK SMILES IDX 38 46 39 47 100 48 40 49 99 50 41 51 42 52 43 53 93 54 44 55
REMARK SMILES IDX 98 56 92 57 94 58 45 59 97 60 91 61 90 62 46 64 78 65 58 66
REMARK SMILES IDX 77 67 59 68 62 69 76 70 95 71 60 72 61 73 75 75 96 76 63 77
REMARK SMILES IDX 47 78 48 79 56 80 49 81 50 82 54 83 57 84 51 85 52 86 55 87
REMARK SMILES IDX 53 88 79 89 80 90 88 91 81 92 82 93 86 94 89 95 83 96 84 97
REMARK SMILES IDX 87 98 85 99 64 100 65 101 73 102 66 103 67 104 71 105 74 106
REMARK SMILES IDX 68 107 69 108 72 109 70 110
REMARK H PARENT 28 7 17 23 35 44 94 63 62 74
REMARK Flexibility Score: inf
ROOT
ATOM      1  C   UNL A   1      37.047  19.219  24.754  1.00  0.00     0.002 C 
ENDROOT
BRANCH   1   2
ATOM      2  C   UNL A   1      36.083  18.057  25.036  1.00  0.00     0.021 C 
BRANCH   2   3
ATOM      3  C   UNL A   1      35.174  17.700  23.857  1.00  0.00     0.116 C 
BRANCH   3   4
ATOM      4  N   UNL A   1      33.922  17.122  24.319  1.00  0.00    -0.352 N 
ATOM      5  C   UNL A   1      32.774  17.707  24.793  1.00  0.00     0.251 C 
ATOM      6  O   UNL A   1      31.777  17.018  24.990  1.00  0.00    -0.269 OA
ATOM      7  H   UNL A   1      33.891  16.138  24.284  1.00  0.00     0.163 HD
BRANCH   5   8
ATOM      8  C   UNL A   1      32.696  19.169  25.002  1.00  0.00     0.039 A 
ATOM      9  C   UNL A   1      32.933  21.959  25.195  1.00  0.00    -0.040 A 
ATOM     10  C   UNL A   1      32.442  21.361  24.019  1.00  0.00     0.005 A 
ATOM     11  C   UNL A   1      33.106  21.145  26.324  1.00  0.00     0.005 A 
ATOM     12  C   UNL A   1      32.317  19.974  23.926  1.00  0.00     0.014 A 
ATOM     13  C   UNL A   1      33.001  19.761  26.225  1.00  0.00     0.014 A 
BRANCH   9  14
ATOM     14  C   UNL A   1      33.289  23.430  25.145  1.00  0.00     0.064 C 
ATOM     15  N   UNL A   1      30.785  25.877  24.233  1.00  0.00    -0.180 N 
ATOM     16  N   UNL A   1      30.021  25.263  25.181  1.00  0.00    -0.168 NA
ATOM     17  C   UNL A   1      31.793  25.006  23.851  1.00  0.00     0.143 A 
ATOM     18  C   UNL A   1      30.842  24.366  25.733  1.00  0.00     0.066 A 
ATOM     19  C   UNL A   1      32.049  24.253  24.985  1.00  0.00     0.026 A 
ATOM     20  N   UNL A   1      32.472  24.753  22.674  1.00  0.00    -0.310 N 
ATOM     21  C   UNL A   1      30.327  23.572  26.877  1.00  0.00     0.069 C 
ATOM     22  C   UNL A   1      33.596  23.854  22.718  1.00  0.00     0.226 C 
ATOM     23  H   UNL A   1      32.195  25.174  21.829  1.00  0.00     0.171 HD
ATOM     24  C   UNL A   1      34.303  23.762  24.050  1.00  0.00     0.113 C 
ATOM     25  O   UNL A   1      33.944  23.326  21.689  1.00  0.00    -0.275 OA
BRANCH  15  26
ATOM     26  C   UNL A   1      30.776  27.301  24.119  1.00  0.00     0.272 A 
ATOM     27  C   UNL A   1      31.079  29.423  24.902  1.00  0.00     0.095 A 
ATOM     28  C   UNL A   1      30.310  29.908  23.858  1.00  0.00     0.164 A 
ATOM     29  N   UNL A   1      31.284  28.086  25.093  1.00  0.00    -0.208 NA
ATOM     30  N   UNL A   1      29.796  29.084  22.939  1.00  0.00    -0.153 NA
ATOM     31  N   UNL A   1      30.073  27.770  23.052  1.00  0.00    -0.109 NA
BRANCH  27  32
ATOM     32  C   UNL A   1      31.809  30.354  25.772  1.00  0.00     0.002 A 
ATOM     33  C   UNL A   1      33.804  33.053  28.508  1.00  0.00     0.044 C 
ATOM     34  C   UNL A   1      33.096  32.111  27.580  1.00  0.00    -0.051 A 
ATOM     35  C   UNL A   1      33.677  30.883  27.251  1.00  0.00     0.004 A 
ATOM     36  C   UNL A   1      31.862  32.450  27.020  1.00  0.00     0.004 A 
ATOM     37  C   UNL A   1      33.040  30.012  26.359  1.00  0.00     0.011 A 
ATOM     38  C   UNL A   1      31.231  31.582  26.124  1.00  0.00     0.011 A 
ENDBRANCH  27  32
ENDBRANCH  15  26
ENDBRANCH   9  14
ENDBRANCH   5   8
ENDBRANCH   3   4
ENDBRANCH   2   3
ENDBRANCH   1   2
BRANCH   1  39
ATOM     39  C   UNL A   1      36.468  20.628  24.954  1.00  0.00     0.002 C 
BRANCH  39  40
ATOM     40  C   UNL A   1      37.419  21.780  24.632  1.00  0.00     0.021 C 
BRANCH  40  41
ATOM     41  C   UNL A   1      37.629  22.726  25.799  1.00  0.00     0.116 C 
BRANCH  41  42
ATOM     42  N   UNL A   1      38.923  22.559  26.443  1.00  0.00    -0.352 N 
ATOM     43  C   UNL A   1      39.858  23.491  26.844  1.00  0.00     0.251 C 
ATOM     44  H   UNL A   1      39.174  21.624  26.623  1.00  0.00     0.163 HD
ATOM     45  O   UNL A   1      40.987  23.109  27.142  1.00  0.00    -0.269 OA
BRANCH  43  46
ATOM     46  C   UNL A   1      39.459  24.892  27.137  1.00  0.00     0.039 A 
ATOM     47  C   UNL A   1      40.026  25.885  26.318  1.00  0.00     0.014 A 
ATOM     48  C   UNL A   1      38.951  25.230  28.379  1.00  0.00     0.014 A 
ATOM     49  C   UNL A   1      40.370  27.107  26.874  1.00  0.00     0.010 A 
ATOM     50  C   UNL A   1      39.468  26.332  28.994  1.00  0.00     0.010 A 
ATOM     51  C   UNL A   1      40.206  27.246  28.243  1.00  0.00    -0.014 A 
BRANCH  51  52
ATOM     52  C   UNL A   1      40.649  28.368  29.026  1.00  0.00     0.031 A 
ATOM     53  C   UNL A   1      39.618  29.365  29.358  1.00  0.00     0.074 A 
ATOM     54  C   UNL A   1      41.861  28.274  29.613  1.00  0.00     0.049 A 
ATOM     55  N   UNL A   1      39.875  30.565  29.724  1.00  0.00    -0.248 NA
ATOM     56  C   UNL A   1      38.181  29.103  29.252  1.00  0.00     0.031 C 
ATOM     57  C   UNL A   1      42.357  29.000  30.772  1.00  0.00     0.029 A 
ATOM     58  N   UNL A   1      42.973  27.537  29.168  1.00  0.00    -0.354 N 
ATOM     59  C   UNL A   1      38.706  31.101  30.219  1.00  0.00     0.074 A 
ATOM     60  C   UNL A   1      37.661  30.213  29.784  1.00  0.00     0.031 C 
ATOM     61  C   UNL A   1      43.700  28.930  30.791  1.00  0.00     0.029 A 
ATOM     62  C   UNL A   1      44.112  28.280  29.557  1.00  0.00     0.049 A 
ATOM     63  H   UNL A   1      42.961  26.679  28.685  1.00  0.00     0.167 HD
ATOM     64  C   UNL A   1      38.809  32.137  31.097  1.00  0.00     0.037 A 
ATOM     65  C   UNL A   1      44.920  28.854  28.615  1.00  0.00     0.037 A 
ATOM     66  C   UNL A   1      40.218  32.448  31.301  1.00  0.00     0.049 A 
ATOM     67  C   UNL A   1      44.891  30.359  28.687  1.00  0.00     0.074 A 
ATOM     68  C   UNL A   1      41.116  32.022  32.265  1.00  0.00     0.029 A 
ATOM     69  N   UNL A   1      40.967  32.944  30.243  1.00  0.00    -0.354 N 
ATOM     70  N   UNL A   1      43.855  31.041  29.097  1.00  0.00    -0.248 NA
ATOM     71  C   UNL A   1      46.035  31.204  28.365  1.00  0.00     0.031 C 
ATOM     72  C   UNL A   1      42.422  32.255  31.772  1.00  0.00     0.029 A 
ATOM     73  C   UNL A   1      42.313  32.824  30.514  1.00  0.00     0.049 A 
ATOM     74  H   UNL A   1      40.591  33.327  29.418  1.00  0.00     0.167 HD
ATOM     75  C   UNL A   1      44.181  32.372  29.132  1.00  0.00     0.074 A 
ATOM     76  C   UNL A   1      45.549  32.424  28.655  1.00  0.00     0.031 C 
ATOM     77  C   UNL A   1      43.309  33.323  29.585  1.00  0.00     0.037 A 
BRANCH  64  78
ATOM     78  C   UNL A   1      37.727  32.673  32.004  1.00  0.00     0.064 A 
ATOM     79  C   UNL A   1      36.698  33.482  31.463  1.00  0.00     0.173 A 
ATOM     80  C   UNL A   1      37.638  32.461  33.392  1.00  0.00     0.173 A 
ATOM     81  F   UNL A   1      36.605  33.717  30.148  1.00  0.00    -0.203 F 
ATOM     82  C   UNL A   1      35.718  34.086  32.249  1.00  0.00     0.198 A 
ATOM     83  C   UNL A   1      36.667  33.088  34.184  1.00  0.00     0.198 A 
ATOM     84  F   UNL A   1      38.451  31.613  34.028  1.00  0.00    -0.203 F 
ATOM     85  F   UNL A   1      34.786  34.856  31.669  1.00  0.00    -0.200 F 
ATOM     86  C   UNL A   1      35.712  33.905  33.613  1.00  0.00     0.200 A 
ATOM     87  F   UNL A   1      36.663  32.890  35.509  1.00  0.00    -0.200 F 
ATOM     88  F   UNL A   1      34.781  34.500  34.371  1.00  0.00    -0.200 F 
ENDBRANCH  64  78
BRANCH  65  89
ATOM     89  C   UNL A   1      44.986  28.036  27.369  1.00  0.00     0.064 A 
ATOM     90  C   UNL A   1      45.619  26.782  27.472  1.00  0.00     0.173 A 
ATOM     91  C   UNL A   1      44.045  28.206  26.344  1.00  0.00     0.173 A 
ATOM     92  F   UNL A   1      46.551  26.580  28.420  1.00  0.00    -0.203 F 
ATOM     93  C   UNL A   1      45.182  25.691  26.725  1.00  0.00     0.198 A 
ATOM     94  C   UNL A   1      43.626  27.112  25.582  1.00  0.00     0.198 A 
ATOM     95  F   UNL A   1      43.425  29.383  26.180  1.00  0.00    -0.203 F 
ATOM     96  F   UNL A   1      45.686  24.472  26.966  1.00  0.00    -0.200 F 
ATOM     97  C   UNL A   1      44.152  25.849  25.813  1.00  0.00     0.200 A 
ATOM     98  F   UNL A   1      42.636  27.262  24.690  1.00  0.00    -0.200 F 
ATOM     99  F   UNL A   1      43.639  24.778  25.191  1.00  0.00    -0.200 F 
ENDBRANCH  65  89
BRANCH  77 100
ATOM    100  C   UNL A   1      43.379  34.812  29.329  1.00  0.00     0.064 A 
ATOM    101  C   UNL A   1      43.695  35.761  30.313  1.00  0.00     0.173 A 
ATOM    102  C   UNL A   1      43.274  35.331  28.010  1.00  0.00     0.173 A 
ATOM    103  F   UNL A   1      43.975  35.401  31.572  1.00  0.00    -0.203 F 
ATOM    104  C   UNL A   1      43.799  37.124  30.024  1.00  0.00     0.198 A 
ATOM    105  C   UNL A   1      43.459  36.679  27.713  1.00  0.00     0.198 A 
ATOM    106  F   UNL A   1      43.022  34.548  26.951  1.00  0.00    -0.203 F 
ATOM    107  F   UNL A   1      44.034  37.991  31.018  1.00  0.00    -0.200 F 
ATOM    108  C   UNL A   1      43.692  37.581  28.726  1.00  0.00     0.200 A 
ATOM    109  F   UNL A   1      43.429  37.087  26.436  1.00  0.00    -0.200 F 
ATOM    110  F   UNL A   1      43.835  38.883  28.448  1.00  0.00    -0.200 F 
ENDBRANCH  77 100
ENDBRANCH  51  52
ENDBRANCH  43  46
ENDBRANCH  41  42
ENDBRANCH  40  41
ENDBRANCH  39  40
ENDBRANCH   1  39
TORSDOF 16
ENDMDL
