MODEL 1
REMARK VINA RESULT:     -11.9      0.000      0.000
REMARK SMILES CC(C)(C)NS(=O)(=O)c1csc(C(=O)Nc2ccccc2C(=O)NCCCCCCNC(=O)c2ccc(-c3c4nc(c(-c5c(F)c(F)c(F)c(F)c5F)c5ccc([nH]5)c(-c5c(F)c(F)c(F)c(F)c5F)c5nc(c(-c6c(F)c(F)c(F)c(F)c6F)c6ccc3[nH]6)C=C5)C=C4)cc2)c1
REMARK SMILES IDX 26 1 25 2 24 3 22 4 23 5 21 7 16 8 17 9 18 10 20 11 19 12
REMARK SMILES IDX 15 13 13 14 14 15 12 17 9 18 10 19 97 20 11 21 6 22 7 23
REMARK SMILES IDX 8 24 5 25 2 27 1 28 3 29 4 30 27 31 28 32 29 33 30 34 31 35
REMARK SMILES IDX 32 36 33 38 34 39 35 40 96 41 36 42 95 43 37 44 38 45 39 46
REMARK SMILES IDX 89 47 40 48 94 49 88 50 90 51 41 52 93 53 87 54 86 55 42 57
REMARK SMILES IDX 74 58 54 59 73 60 55 61 58 62 72 63 91 64 56 65 57 66 71 68
REMARK SMILES IDX 92 69 59 70 43 71 44 72 52 73 45 74 46 75 50 76 53 77 47 78
REMARK SMILES IDX 48 79 51 80 49 81 75 82 76 83 84 84 77 85 78 86 82 87 85 88
REMARK SMILES IDX 79 89 80 90 83 91 81 92 60 93 61 94 69 95 62 96 63 97 67 98
REMARK SMILES IDX 70 99 64 100 65 101 68 102 66 103
REMARK H PARENT 24 6 15 16 5 26 31 37 90 56 58 67
REMARK Flexibility Score: inf
ROOT
ATOM      1  C   UNL A   1      35.586  24.446  25.513  1.00  0.00     0.021 C 
ENDROOT
BRANCH   1   2
ATOM      2  C   UNL A   1      34.856  23.289  26.175  1.00  0.00     0.116 C 
BRANCH   2   3
ATOM      3  N   UNL A   1      34.387  22.285  25.252  1.00  0.00    -0.352 N 
ATOM      4  C   UNL A   1      33.235  22.221  24.512  1.00  0.00     0.253 C 
ATOM      5  O   UNL A   1      33.054  21.208  23.835  1.00  0.00    -0.269 OA
ATOM      6  H   UNL A   1      34.994  21.519  25.132  1.00  0.00     0.163 HD
BRANCH   4   7
ATOM      7  C   UNL A   1      32.176  23.278  24.521  1.00  0.00     0.063 A 
ATOM      8  C   UNL A   1      31.923  24.269  23.551  1.00  0.00     0.054 A 
ATOM      9  C   UNL A   1      30.948  25.251  23.824  1.00  0.00     0.027 A 
ATOM     10  C   UNL A   1      30.115  25.165  24.940  1.00  0.00     0.002 A 
ATOM     11  C   UNL A   1      31.302  23.196  25.631  1.00  0.00     0.016 A 
ATOM     12  C   UNL A   1      30.268  24.112  25.827  1.00  0.00     0.001 A 
BRANCH   8  13
ATOM     13  N   UNL A   1      32.470  24.383  22.256  1.00  0.00    -0.321 N 
ATOM     14  C   UNL A   1      32.612  25.432  21.362  1.00  0.00     0.265 C 
ATOM     15  O   UNL A   1      32.991  25.106  20.232  1.00  0.00    -0.268 OA
ATOM     16  H   UNL A   1      32.831  23.533  21.913  1.00  0.00     0.170 HD
BRANCH  14  17
ATOM     17  C   UNL A   1      32.459  26.817  21.775  1.00  0.00     0.094 A 
ATOM     18  C   UNL A   1      31.516  28.730  22.709  1.00  0.00     0.093 A 
ATOM     19  C   UNL A   1      32.850  29.000  22.893  1.00  0.00     0.087 A 
ATOM     20  C   UNL A   1      31.314  27.553  21.956  1.00  0.00     0.047 A 
ATOM     21  S   UNL A   1      33.828  27.729  22.279  1.00  0.00    -0.137 S 
BRANCH  18  22
ATOM     22  S   UNL A   1      30.171  29.569  23.383  1.00  0.00     0.241 S 
ATOM     23  O   UNL A   1      30.618  30.060  24.659  1.00  0.00    -0.207 OA
ATOM     24  O   UNL A   1      29.057  28.648  23.264  1.00  0.00    -0.207 OA
BRANCH  22  25
ATOM     25  N   UNL A   1      29.809  30.887  22.392  1.00  0.00    -0.206 NA
ATOM     26  H   UNL A   1      30.643  31.474  22.414  1.00  0.00     0.141 HD
BRANCH  25  27
ATOM     27  C   UNL A   1      28.661  31.832  22.567  1.00  0.00     0.025 C 
ATOM     28  C   UNL A   1      29.125  33.231  23.003  1.00  0.00     0.028 C 
ATOM     29  C   UNL A   1      27.571  31.287  23.495  1.00  0.00     0.028 C 
ATOM     30  C   UNL A   1      28.049  31.997  21.160  1.00  0.00     0.028 C 
ENDBRANCH  25  27
ENDBRANCH  22  25
ENDBRANCH  18  22
ENDBRANCH  14  17
ENDBRANCH   8  13
ENDBRANCH   4   7
ENDBRANCH   2   3
ENDBRANCH   1   2
BRANCH   1  31
ATOM     31  C   UNL A   1      34.700  25.612  25.049  1.00  0.00     0.002 C 
BRANCH  31  32
ATOM     32  C   UNL A   1      33.723  26.219  26.065  1.00  0.00     0.002 C 
BRANCH  32  33
ATOM     33  C   UNL A   1      33.655  27.743  26.156  1.00  0.00     0.021 C 
BRANCH  33  34
ATOM     34  C   UNL A   1      33.169  28.324  27.477  1.00  0.00     0.116 C 
BRANCH  34  35
ATOM     35  N   UNL A   1      33.177  29.775  27.513  1.00  0.00    -0.352 N 
ATOM     36  C   UNL A   1      34.197  30.638  27.829  1.00  0.00     0.251 C 
ATOM     37  H   UNL A   1      32.324  30.205  27.274  1.00  0.00     0.163 HD
ATOM     38  O   UNL A   1      33.990  31.846  27.884  1.00  0.00    -0.269 OA
BRANCH  36  39
ATOM     39  C   UNL A   1      35.543  30.112  28.149  1.00  0.00     0.039 A 
ATOM     40  C   UNL A   1      36.508  30.096  27.139  1.00  0.00     0.014 A 
ATOM     41  C   UNL A   1      35.861  29.653  29.430  1.00  0.00     0.014 A 
ATOM     42  C   UNL A   1      37.814  29.703  27.433  1.00  0.00     0.010 A 
ATOM     43  C   UNL A   1      37.179  29.325  29.739  1.00  0.00     0.010 A 
ATOM     44  C   UNL A   1      38.172  29.361  28.746  1.00  0.00    -0.014 A 
BRANCH  44  45
ATOM     45  C   UNL A   1      39.586  29.093  29.111  1.00  0.00     0.031 A 
ATOM     46  C   UNL A   1      40.394  30.123  29.846  1.00  0.00     0.074 A 
ATOM     47  C   UNL A   1      40.162  27.944  28.706  1.00  0.00     0.049 A 
ATOM     48  N   UNL A   1      41.662  30.102  30.172  1.00  0.00    -0.248 NA
ATOM     49  C   UNL A   1      39.692  31.351  30.247  1.00  0.00     0.031 C 
ATOM     50  C   UNL A   1      39.495  26.887  27.945  1.00  0.00     0.029 A 
ATOM     51  N   UNL A   1      41.446  27.479  28.861  1.00  0.00    -0.354 N 
ATOM     52  C   UNL A   1      41.911  31.313  30.803  1.00  0.00     0.074 A 
ATOM     53  C   UNL A   1      40.675  32.066  30.775  1.00  0.00     0.031 C 
ATOM     54  C   UNL A   1      40.367  25.894  27.710  1.00  0.00     0.029 A 
ATOM     55  C   UNL A   1      41.666  26.262  28.264  1.00  0.00     0.049 A 
ATOM     56  H   UNL A   1      42.142  27.972  29.354  1.00  0.00     0.167 HD
ATOM     57  C   UNL A   1      43.063  31.748  31.368  1.00  0.00     0.037 A 
ATOM     58  C   UNL A   1      42.793  25.532  28.156  1.00  0.00     0.037 A 
ATOM     59  C   UNL A   1      44.283  30.984  31.410  1.00  0.00     0.049 A 
ATOM     60  C   UNL A   1      44.063  26.049  28.776  1.00  0.00     0.074 A 
ATOM     61  C   UNL A   1      45.479  31.305  32.029  1.00  0.00     0.029 A 
ATOM     62  N   UNL A   1      44.467  29.751  30.801  1.00  0.00    -0.354 N 
ATOM     63  N   UNL A   1      44.266  27.161  29.440  1.00  0.00    -0.248 NA
ATOM     64  C   UNL A   1      45.261  25.210  28.631  1.00  0.00     0.031 C 
ATOM     65  C   UNL A   1      46.404  30.294  31.745  1.00  0.00     0.029 A 
ATOM     66  C   UNL A   1      45.768  29.316  30.998  1.00  0.00     0.049 A 
ATOM     67  H   UNL A   1      43.775  29.257  30.305  1.00  0.00     0.167 HD
ATOM     68  C   UNL A   1      45.605  27.146  29.809  1.00  0.00     0.074 A 
ATOM     69  C   UNL A   1      46.161  25.905  29.312  1.00  0.00     0.031 C 
ATOM     70  C   UNL A   1      46.309  28.080  30.492  1.00  0.00     0.037 A 
BRANCH  57  71
ATOM     71  C   UNL A   1      43.066  33.116  31.987  1.00  0.00     0.064 A 
ATOM     72  C   UNL A   1      43.375  34.262  31.240  1.00  0.00     0.173 A 
ATOM     73  C   UNL A   1      42.698  33.288  33.330  1.00  0.00     0.173 A 
ATOM     74  F   UNL A   1      43.743  34.153  29.954  1.00  0.00    -0.203 F 
ATOM     75  C   UNL A   1      43.341  35.528  31.821  1.00  0.00     0.198 A 
ATOM     76  C   UNL A   1      42.635  34.557  33.900  1.00  0.00     0.198 A 
ATOM     77  F   UNL A   1      42.385  32.225  34.087  1.00  0.00    -0.203 F 
ATOM     78  F   UNL A   1      43.682  36.605  31.100  1.00  0.00    -0.200 F 
ATOM     79  C   UNL A   1      42.962  35.675  33.148  1.00  0.00     0.200 A 
ATOM     80  F   UNL A   1      42.254  34.698  35.177  1.00  0.00    -0.200 F 
ATOM     81  F   UNL A   1      42.917  36.894  33.701  1.00  0.00    -0.200 F 
ENDBRANCH  57  71
BRANCH  58  82
ATOM     82  C   UNL A   1      42.773  24.236  27.427  1.00  0.00     0.064 A 
ATOM     83  C   UNL A   1      42.443  23.043  28.085  1.00  0.00     0.173 A 
ATOM     84  C   UNL A   1      43.091  24.161  26.063  1.00  0.00     0.173 A 
ATOM     85  F   UNL A   1      42.153  23.059  29.394  1.00  0.00    -0.203 F 
ATOM     86  C   UNL A   1      42.452  21.823  27.412  1.00  0.00     0.198 A 
ATOM     87  C   UNL A   1      43.070  22.945  25.383  1.00  0.00     0.198 A 
ATOM     88  F   UNL A   1      43.412  25.274  25.386  1.00  0.00    -0.203 F 
ATOM     89  F   UNL A   1      42.183  20.692  28.077  1.00  0.00    -0.200 F 
ATOM     90  C   UNL A   1      42.761  21.776  26.060  1.00  0.00     0.200 A 
ATOM     91  F   UNL A   1      43.356  22.906  24.075  1.00  0.00    -0.200 F 
ATOM     92  F   UNL A   1      42.768  20.603  25.413  1.00  0.00    -0.200 F 
ENDBRANCH  58  82
BRANCH  70  93
ATOM     93  C   UNL A   1      47.758  27.790  30.757  1.00  0.00     0.064 A 
ATOM     94  C   UNL A   1      48.168  27.099  31.907  1.00  0.00     0.173 A 
ATOM     95  C   UNL A   1      48.743  28.167  29.831  1.00  0.00     0.173 A 
ATOM     96  F   UNL A   1      47.269  26.731  32.831  1.00  0.00    -0.203 F 
ATOM     97  C   UNL A   1      49.513  26.813  32.129  1.00  0.00     0.198 A 
ATOM     98  C   UNL A   1      50.082  27.853  30.041  1.00  0.00     0.198 A 
ATOM     99  F   UNL A   1      48.402  28.826  28.713  1.00  0.00    -0.203 F 
ATOM    100  F   UNL A   1      49.887  26.191  33.255  1.00  0.00    -0.200 F 
ATOM    101  C   UNL A   1      50.468  27.183  31.192  1.00  0.00     0.200 A 
ATOM    102  F   UNL A   1      51.000  28.197  29.128  1.00  0.00    -0.200 F 
ATOM    103  F   UNL A   1      51.760  26.897  31.402  1.00  0.00    -0.200 F 
ENDBRANCH  70  93
ENDBRANCH  44  45
ENDBRANCH  36  39
ENDBRANCH  34  35
ENDBRANCH  33  34
ENDBRANCH  32  33
ENDBRANCH  31  32
ENDBRANCH   1  31
TORSDOF 18
ENDMDL
MODEL 2
REMARK VINA RESULT:     -11.8      3.316      6.384
REMARK SMILES CC(C)(C)NS(=O)(=O)c1csc(C(=O)Nc2ccccc2C(=O)NCCCCCCNC(=O)c2ccc(-c3c4nc(c(-c5c(F)c(F)c(F)c(F)c5F)c5ccc([nH]5)c(-c5c(F)c(F)c(F)c(F)c5F)c5nc(c(-c6c(F)c(F)c(F)c(F)c6F)c6ccc3[nH]6)C=C5)C=C4)cc2)c1
REMARK SMILES IDX 26 1 25 2 24 3 22 4 23 5 21 7 16 8 17 9 18 10 20 11 19 12
REMARK SMILES IDX 15 13 13 14 14 15 12 17 9 18 10 19 97 20 11 21 6 22 7 23
REMARK SMILES IDX 8 24 5 25 2 27 1 28 3 29 4 30 27 31 28 32 29 33 30 34 31 35
REMARK SMILES IDX 32 36 33 38 34 39 35 40 96 41 36 42 95 43 37 44 38 45 39 46
REMARK SMILES IDX 89 47 40 48 94 49 88 50 90 51 41 52 93 53 87 54 86 55 42 57
REMARK SMILES IDX 74 58 54 59 73 60 55 61 58 62 72 63 91 64 56 65 57 66 71 68
REMARK SMILES IDX 92 69 59 70 43 71 44 72 52 73 45 74 46 75 50 76 53 77 47 78
REMARK SMILES IDX 48 79 51 80 49 81 75 82 76 83 84 84 77 85 78 86 82 87 85 88
REMARK SMILES IDX 79 89 80 90 83 91 81 92 60 93 61 94 69 95 62 96 63 97 67 98
REMARK SMILES IDX 70 99 64 100 65 101 68 102 66 103
REMARK H PARENT 24 6 15 16 5 26 31 37 90 56 58 67
REMARK Flexibility Score: inf
ROOT
ATOM      1  C   UNL A   1      34.774  24.330  22.773  1.00  0.00     0.021 C 
ENDROOT
BRANCH   1   2
ATOM      2  C   UNL A   1      33.431  24.886  23.217  1.00  0.00     0.116 C 
BRANCH   2   3
ATOM      3  N   UNL A   1      32.316  24.009  22.956  1.00  0.00    -0.352 N 
ATOM      4  C   UNL A   1      31.719  23.064  23.749  1.00  0.00     0.253 C 
ATOM      5  O   UNL A   1      30.804  22.405  23.251  1.00  0.00    -0.269 OA
ATOM      6  H   UNL A   1      31.916  24.105  22.061  1.00  0.00     0.163 HD
BRANCH   4   7
ATOM      7  C   UNL A   1      32.146  22.757  25.150  1.00  0.00     0.063 A 
ATOM      8  C   UNL A   1      31.542  23.167  26.356  1.00  0.00     0.054 A 
ATOM      9  C   UNL A   1      32.190  22.868  27.574  1.00  0.00     0.027 A 
ATOM     10  C   UNL A   1      33.307  22.034  27.622  1.00  0.00     0.002 A 
ATOM     11  C   UNL A   1      33.263  21.892  25.226  1.00  0.00     0.016 A 
ATOM     12  C   UNL A   1      33.823  21.513  26.447  1.00  0.00     0.001 A 
BRANCH   8  13
ATOM     13  N   UNL A   1      30.292  23.794  26.538  1.00  0.00    -0.321 N 
ATOM     14  C   UNL A   1      29.848  25.102  26.433  1.00  0.00     0.265 C 
ATOM     15  O   UNL A   1      28.701  25.297  26.847  1.00  0.00    -0.268 OA
ATOM     16  H   UNL A   1      29.579  23.165  26.795  1.00  0.00     0.170 HD
BRANCH  14  17
ATOM     17  C   UNL A   1      30.630  26.125  25.759  1.00  0.00     0.094 A 
ATOM     18  C   UNL A   1      31.180  27.837  24.280  1.00  0.00     0.093 A 
ATOM     19  C   UNL A   1      31.984  28.165  25.345  1.00  0.00     0.087 A 
ATOM     20  C   UNL A   1      30.519  26.607  24.477  1.00  0.00     0.047 A 
ATOM     21  S   UNL A   1      31.795  27.043  26.631  1.00  0.00    -0.137 S 
BRANCH  18  22
ATOM     22  S   UNL A   1      30.834  28.795  22.892  1.00  0.00     0.241 S 
ATOM     23  O   UNL A   1      30.129  27.927  21.986  1.00  0.00    -0.207 OA
ATOM     24  O   UNL A   1      32.099  29.409  22.535  1.00  0.00    -0.207 OA
BRANCH  22  25
ATOM     25  N   UNL A   1      29.805  30.052  23.350  1.00  0.00    -0.206 NA
ATOM     26  H   UNL A   1      29.636  29.909  24.345  1.00  0.00     0.141 HD
BRANCH  25  27
ATOM     27  C   UNL A   1      28.460  30.348  22.761  1.00  0.00     0.025 C 
ATOM     28  C   UNL A   1      27.460  29.205  23.002  1.00  0.00     0.028 C 
ATOM     29  C   UNL A   1      28.523  30.737  21.282  1.00  0.00     0.028 C 
ATOM     30  C   UNL A   1      27.927  31.563  23.550  1.00  0.00     0.028 C 
ENDBRANCH  25  27
ENDBRANCH  22  25
ENDBRANCH  18  22
ENDBRANCH  14  17
ENDBRANCH   8  13
ENDBRANCH   4   7
ENDBRANCH   2   3
ENDBRANCH   1   2
BRANCH   1  31
ATOM     31  C   UNL A   1      35.630  23.697  23.880  1.00  0.00     0.002 C 
BRANCH  31  32
ATOM     32  C   UNL A   1      36.741  22.726  23.460  1.00  0.00     0.002 C 
BRANCH  32  33
ATOM     33  C   UNL A   1      36.941  21.471  24.309  1.00  0.00     0.021 C 
BRANCH  33  34
ATOM     34  C   UNL A   1      37.620  21.665  25.658  1.00  0.00     0.116 C 
BRANCH  34  35
ATOM     35  N   UNL A   1      38.665  20.693  25.929  1.00  0.00    -0.352 N 
ATOM     36  C   UNL A   1      39.919  20.878  26.453  1.00  0.00     0.251 C 
ATOM     37  H   UNL A   1      38.438  19.761  25.702  1.00  0.00     0.163 HD
ATOM     38  O   UNL A   1      40.701  19.935  26.533  1.00  0.00    -0.269 OA
BRANCH  36  39
ATOM     39  C   UNL A   1      40.352  22.225  26.885  1.00  0.00     0.039 A 
ATOM     40  C   UNL A   1      41.259  22.324  27.945  1.00  0.00     0.014 A 
ATOM     41  C   UNL A   1      39.888  23.379  26.250  1.00  0.00     0.014 A 
ATOM     42  C   UNL A   1      41.766  23.572  28.310  1.00  0.00     0.010 A 
ATOM     43  C   UNL A   1      40.445  24.616  26.569  1.00  0.00     0.010 A 
ATOM     44  C   UNL A   1      41.400  24.722  27.593  1.00  0.00    -0.014 A 
BRANCH  44  45
ATOM     45  C   UNL A   1      42.046  26.032  27.862  1.00  0.00     0.031 A 
ATOM     46  C   UNL A   1      41.302  27.114  28.590  1.00  0.00     0.074 A 
ATOM     47  C   UNL A   1      43.281  26.268  27.376  1.00  0.00     0.049 A 
ATOM     48  N   UNL A   1      41.669  28.346  28.840  1.00  0.00    -0.248 NA
ATOM     49  C   UNL A   1      39.959  26.776  29.083  1.00  0.00     0.031 C 
ATOM     50  C   UNL A   1      44.084  25.314  26.612  1.00  0.00     0.029 A 
ATOM     51  N   UNL A   1      44.070  27.391  27.436  1.00  0.00    -0.354 N 
ATOM     52  C   UNL A   1      40.601  28.931  29.505  1.00  0.00     0.074 A 
ATOM     53  C   UNL A   1      39.553  27.936  29.582  1.00  0.00     0.031 C 
ATOM     54  C   UNL A   1      45.255  25.884  26.285  1.00  0.00     0.029 A 
ATOM     55  C   UNL A   1      45.267  27.258  26.777  1.00  0.00     0.049 A 
ATOM     56  H   UNL A   1      43.802  28.214  27.907  1.00  0.00     0.167 HD
ATOM     57  C   UNL A   1      40.512  30.182  30.019  1.00  0.00     0.037 A 
ATOM     58  C   UNL A   1      46.257  28.148  26.572  1.00  0.00     0.037 A 
ATOM     59  C   UNL A   1      41.566  31.160  29.958  1.00  0.00     0.049 A 
ATOM     60  C   UNL A   1      46.122  29.537  27.137  1.00  0.00     0.074 A 
ATOM     61  C   UNL A   1      41.601  32.426  30.518  1.00  0.00     0.029 A 
ATOM     62  N   UNL A   1      42.769  30.987  29.288  1.00  0.00    -0.354 N 
ATOM     63  N   UNL A   1      45.139  30.053  27.834  1.00  0.00    -0.248 NA
ATOM     64  C   UNL A   1      47.233  30.465  26.887  1.00  0.00     0.031 C 
ATOM     65  C   UNL A   1      42.799  33.040  30.138  1.00  0.00     0.029 A 
ATOM     66  C   UNL A   1      43.536  32.137  29.389  1.00  0.00     0.049 A 
ATOM     67  H   UNL A   1      43.038  30.168  28.813  1.00  0.00     0.167 HD
ATOM     68  C   UNL A   1      45.520  31.357  28.122  1.00  0.00     0.074 A 
ATOM     69  C   UNL A   1      46.834  31.546  27.542  1.00  0.00     0.031 C 
ATOM     70  C   UNL A   1      44.840  32.312  28.802  1.00  0.00     0.037 A 
BRANCH  57  71
ATOM     71  C   UNL A   1      39.228  30.571  30.693  1.00  0.00     0.064 A 
ATOM     72  C   UNL A   1      38.140  31.083  29.970  1.00  0.00     0.173 A 
ATOM     73  C   UNL A   1      39.062  30.375  32.073  1.00  0.00     0.173 A 
ATOM     74  F   UNL A   1      38.248  31.300  28.650  1.00  0.00    -0.203 F 
ATOM     75  C   UNL A   1      36.944  31.408  30.606  1.00  0.00     0.198 A 
ATOM     76  C   UNL A   1      37.856  30.671  32.701  1.00  0.00     0.198 A 
ATOM     77  F   UNL A   1      40.068  29.881  32.811  1.00  0.00    -0.203 F 
ATOM     78  F   UNL A   1      35.934  31.936  29.901  1.00  0.00    -0.200 F 
ATOM     79  C   UNL A   1      36.800  31.193  31.969  1.00  0.00     0.200 A 
ATOM     80  F   UNL A   1      37.713  30.449  34.015  1.00  0.00    -0.200 F 
ATOM     81  F   UNL A   1      35.645  31.494  32.577  1.00  0.00    -0.200 F 
ENDBRANCH  57  71
BRANCH  58  82
ATOM     82  C   UNL A   1      47.460  27.757  25.792  1.00  0.00     0.064 A 
ATOM     83  C   UNL A   1      47.452  27.784  24.390  1.00  0.00     0.173 A 
ATOM     84  C   UNL A   1      48.638  27.339  26.427  1.00  0.00     0.173 A 
ATOM     85  F   UNL A   1      46.342  28.153  23.735  1.00  0.00    -0.203 F 
ATOM     86  C   UNL A   1      48.568  27.388  23.655  1.00  0.00     0.198 A 
ATOM     87  C   UNL A   1      49.765  26.974  25.693  1.00  0.00     0.198 A 
ATOM     88  F   UNL A   1      48.701  27.297  27.767  1.00  0.00    -0.203 F 
ATOM     89  F   UNL A   1      48.515  27.375  22.317  1.00  0.00    -0.200 F 
ATOM     90  C   UNL A   1      49.725  26.989  24.307  1.00  0.00     0.200 A 
ATOM     91  F   UNL A   1      50.884  26.601  26.327  1.00  0.00    -0.200 F 
ATOM     92  F   UNL A   1      50.798  26.611  23.600  1.00  0.00    -0.200 F 
ENDBRANCH  58  82
BRANCH  70  93
ATOM     93  C   UNL A   1      45.509  33.645  28.969  1.00  0.00     0.064 A 
ATOM     94  C   UNL A   1      45.301  34.689  28.055  1.00  0.00     0.173 A 
ATOM     95  C   UNL A   1      46.331  33.898  30.078  1.00  0.00     0.173 A 
ATOM     96  F   UNL A   1      44.538  34.495  26.970  1.00  0.00    -0.203 F 
ATOM     97  C   UNL A   1      45.907  35.930  28.236  1.00  0.00     0.198 A 
ATOM     98  C   UNL A   1      46.910  35.148  30.272  1.00  0.00     0.198 A 
ATOM     99  F   UNL A   1      46.558  32.935  30.984  1.00  0.00    -0.203 F 
ATOM    100  F   UNL A   1      45.729  36.899  27.327  1.00  0.00    -0.200 F 
ATOM    101  C   UNL A   1      46.703  36.161  29.348  1.00  0.00     0.200 A 
ATOM    102  F   UNL A   1      47.666  35.374  31.354  1.00  0.00    -0.200 F 
ATOM    103  F   UNL A   1      47.276  37.360  29.526  1.00  0.00    -0.200 F 
ENDBRANCH  70  93
ENDBRANCH  44  45
ENDBRANCH  36  39
ENDBRANCH  34  35
ENDBRANCH  33  34
ENDBRANCH  32  33
ENDBRANCH  31  32
ENDBRANCH   1  31
TORSDOF 18
ENDMDL
MODEL 3
REMARK VINA RESULT:     -11.8      3.372      6.908
REMARK SMILES CC(C)(C)NS(=O)(=O)c1csc(C(=O)Nc2ccccc2C(=O)NCCCCCCNC(=O)c2ccc(-c3c4nc(c(-c5c(F)c(F)c(F)c(F)c5F)c5ccc([nH]5)c(-c5c(F)c(F)c(F)c(F)c5F)c5nc(c(-c6c(F)c(F)c(F)c(F)c6F)c6ccc3[nH]6)C=C5)C=C4)cc2)c1
REMARK SMILES IDX 26 1 25 2 24 3 22 4 23 5 21 7 16 8 17 9 18 10 20 11 19 12
REMARK SMILES IDX 15 13 13 14 14 15 12 17 9 18 10 19 97 20 11 21 6 22 7 23
REMARK SMILES IDX 8 24 5 25 2 27 1 28 3 29 4 30 27 31 28 32 29 33 30 34 31 35
REMARK SMILES IDX 32 36 33 38 34 39 35 40 96 41 36 42 95 43 37 44 38 45 39 46
REMARK SMILES IDX 89 47 40 48 94 49 88 50 90 51 41 52 93 53 87 54 86 55 42 57
REMARK SMILES IDX 74 58 54 59 73 60 55 61 58 62 72 63 91 64 56 65 57 66 71 68
REMARK SMILES IDX 92 69 59 70 43 71 44 72 52 73 45 74 46 75 50 76 53 77 47 78
REMARK SMILES IDX 48 79 51 80 49 81 75 82 76 83 84 84 77 85 78 86 82 87 85 88
REMARK SMILES IDX 79 89 80 90 83 91 81 92 60 93 61 94 69 95 62 96 63 97 67 98
REMARK SMILES IDX 70 99 64 100 65 101 68 102 66 103
REMARK H PARENT 24 6 15 16 5 26 31 37 90 56 58 67
REMARK Flexibility Score: inf
ROOT
ATOM      1  C   UNL A   1      35.433  23.183  22.918  1.00  0.00     0.021 C 
ENDROOT
BRANCH   1   2
ATOM      2  C   UNL A   1      34.342  24.207  23.187  1.00  0.00     0.116 C 
BRANCH   2   3
ATOM      3  N   UNL A   1      33.004  23.707  22.991  1.00  0.00    -0.352 N 
ATOM      4  C   UNL A   1      32.184  22.999  23.831  1.00  0.00     0.253 C 
ATOM      5  O   UNL A   1      31.092  22.642  23.386  1.00  0.00    -0.269 OA
ATOM      6  H   UNL A   1      32.614  23.905  22.109  1.00  0.00     0.163 HD
BRANCH   4   7
ATOM      7  C   UNL A   1      32.559  22.600  25.224  1.00  0.00     0.063 A 
ATOM      8  C   UNL A   1      31.939  22.970  26.435  1.00  0.00     0.054 A 
ATOM      9  C   UNL A   1      32.539  22.578  27.650  1.00  0.00     0.027 A 
ATOM     10  C   UNL A   1      33.618  21.694  27.682  1.00  0.00     0.002 A 
ATOM     11  C   UNL A   1      33.635  21.683  25.281  1.00  0.00     0.016 A 
ATOM     12  C   UNL A   1      34.144  21.215  26.493  1.00  0.00     0.001 A 
BRANCH   8  13
ATOM     13  N   UNL A   1      30.712  23.641  26.619  1.00  0.00    -0.321 N 
ATOM     14  C   UNL A   1      30.293  24.947  26.429  1.00  0.00     0.265 C 
ATOM     15  O   UNL A   1      29.169  25.203  26.874  1.00  0.00    -0.268 OA
ATOM     16  H   UNL A   1      29.998  23.052  26.956  1.00  0.00     0.170 HD
BRANCH  14  17
ATOM     17  C   UNL A   1      31.065  25.893  25.642  1.00  0.00     0.094 A 
ATOM     18  C   UNL A   1      31.556  27.594  24.129  1.00  0.00     0.093 A 
ATOM     19  C   UNL A   1      32.584  27.760  25.026  1.00  0.00     0.087 A 
ATOM     20  C   UNL A   1      30.781  26.451  24.419  1.00  0.00     0.047 A 
ATOM     21  S   UNL A   1      32.488  26.606  26.295  1.00  0.00    -0.137 S 
BRANCH  18  22
ATOM     22  S   UNL A   1      31.088  28.659  22.859  1.00  0.00     0.241 S 
ATOM     23  O   UNL A   1      30.279  27.871  21.968  1.00  0.00    -0.207 OA
ATOM     24  O   UNL A   1      32.321  29.285  22.422  1.00  0.00    -0.207 OA
BRANCH  22  25
ATOM     25  N   UNL A   1      30.134  29.888  23.514  1.00  0.00    -0.206 NA
ATOM     26  H   UNL A   1      29.841  29.541  24.426  1.00  0.00     0.141 HD
BRANCH  25  27
ATOM     27  C   UNL A   1      28.897  30.466  22.898  1.00  0.00     0.025 C 
ATOM     28  C   UNL A   1      27.669  29.566  23.116  1.00  0.00     0.028 C 
ATOM     29  C   UNL A   1      29.073  30.826  21.420  1.00  0.00     0.028 C 
ATOM     30  C   UNL A   1      28.623  31.770  23.676  1.00  0.00     0.028 C 
ENDBRANCH  25  27
ENDBRANCH  22  25
ENDBRANCH  18  22
ENDBRANCH  14  17
ENDBRANCH   8  13
ENDBRANCH   4   7
ENDBRANCH   2   3
ENDBRANCH   1   2
BRANCH   1  31
ATOM     31  C   UNL A   1      36.360  22.873  24.102  1.00  0.00     0.002 C 
BRANCH  31  32
ATOM     32  C   UNL A   1      37.427  21.787  23.913  1.00  0.00     0.002 C 
BRANCH  32  33
ATOM     33  C   UNL A   1      37.543  20.713  24.995  1.00  0.00     0.021 C 
BRANCH  33  34
ATOM     34  C   UNL A   1      38.712  20.849  25.962  1.00  0.00     0.116 C 
BRANCH  34  35
ATOM     35  N   UNL A   1      39.628  19.722  25.928  1.00  0.00    -0.352 N 
ATOM     36  C   UNL A   1      40.989  19.694  26.103  1.00  0.00     0.251 C 
ATOM     37  H   UNL A   1      39.210  18.848  25.754  1.00  0.00     0.163 HD
ATOM     38  O   UNL A   1      41.609  18.645  25.956  1.00  0.00    -0.269 OA
BRANCH  36  39
ATOM     39  C   UNL A   1      41.722  20.937  26.427  1.00  0.00     0.039 A 
ATOM     40  C   UNL A   1      42.100  21.779  25.378  1.00  0.00     0.014 A 
ATOM     41  C   UNL A   1      42.022  21.284  27.747  1.00  0.00     0.014 A 
ATOM     42  C   UNL A   1      42.701  23.007  25.655  1.00  0.00     0.010 A 
ATOM     43  C   UNL A   1      42.560  22.539  28.027  1.00  0.00     0.010 A 
ATOM     44  C   UNL A   1      42.891  23.418  26.984  1.00  0.00    -0.014 A 
BRANCH  44  45
ATOM     45  C   UNL A   1      43.383  24.783  27.302  1.00  0.00     0.031 A 
ATOM     46  C   UNL A   1      42.441  25.834  27.817  1.00  0.00     0.074 A 
ATOM     47  C   UNL A   1      44.669  25.094  27.049  1.00  0.00     0.049 A 
ATOM     48  N   UNL A   1      42.669  27.099  28.067  1.00  0.00    -0.248 NA
ATOM     49  C   UNL A   1      41.053  25.414  28.062  1.00  0.00     0.031 C 
ATOM     50  C   UNL A   1      45.668  24.174  26.503  1.00  0.00     0.029 A 
ATOM     51  N   UNL A   1      45.355  26.275  27.198  1.00  0.00    -0.354 N 
ATOM     52  C   UNL A   1      41.455  27.626  28.485  1.00  0.00     0.074 A 
ATOM     53  C   UNL A   1      40.482  26.557  28.413  1.00  0.00     0.031 C 
ATOM     54  C   UNL A   1      46.839  24.819  26.375  1.00  0.00     0.029 A 
ATOM     55  C   UNL A   1      46.663  26.208  26.787  1.00  0.00     0.049 A 
ATOM     56  H   UNL A   1      44.946  27.093  27.565  1.00  0.00     0.167 HD
ATOM     57  C   UNL A   1      41.184  28.886  28.905  1.00  0.00     0.037 A 
ATOM     58  C   UNL A   1      47.612  27.163  26.728  1.00  0.00     0.037 A 
ATOM     59  C   UNL A   1      42.162  29.938  28.994  1.00  0.00     0.049 A 
ATOM     60  C   UNL A   1      47.277  28.557  27.183  1.00  0.00     0.074 A 
ATOM     61  C   UNL A   1      42.002  31.224  29.483  1.00  0.00     0.029 A 
ATOM     62  N   UNL A   1      43.481  29.831  28.576  1.00  0.00    -0.354 N 
ATOM     63  N   UNL A   1      46.145  29.024  27.652  1.00  0.00    -0.248 NA
ATOM     64  C   UNL A   1      48.350  29.558  27.100  1.00  0.00     0.031 C 
ATOM     65  C   UNL A   1      43.208  31.912  29.307  1.00  0.00     0.029 A 
ATOM     66  C   UNL A   1      44.135  31.039  28.761  1.00  0.00     0.049 A 
ATOM     67  H   UNL A   1      43.892  29.017  28.205  1.00  0.00     0.167 HD
ATOM     68  C   UNL A   1      46.375  30.364  27.938  1.00  0.00     0.074 A 
ATOM     69  C   UNL A   1      47.760  30.630  27.610  1.00  0.00     0.031 C 
ATOM     70  C   UNL A   1      45.513  31.290  28.424  1.00  0.00     0.037 A 
BRANCH  57  71
ATOM     71  C   UNL A   1      39.771  29.202  29.301  1.00  0.00     0.064 A 
ATOM     72  C   UNL A   1      39.355  29.169  30.641  1.00  0.00     0.173 A 
ATOM     73  C   UNL A   1      38.834  29.599  28.335  1.00  0.00     0.173 A 
ATOM     74  F   UNL A   1      40.208  28.787  31.604  1.00  0.00    -0.203 F 
ATOM     75  C   UNL A   1      38.049  29.498  30.996  1.00  0.00     0.198 A 
ATOM     76  C   UNL A   1      37.537  29.957  28.696  1.00  0.00     0.198 A 
ATOM     77  F   UNL A   1      39.181  29.655  27.040  1.00  0.00    -0.203 F 
ATOM     78  F   UNL A   1      37.664  29.419  32.277  1.00  0.00    -0.200 F 
ATOM     79  C   UNL A   1      37.144  29.901  30.024  1.00  0.00     0.200 A 
ATOM     80  F   UNL A   1      36.669  30.360  27.757  1.00  0.00    -0.200 F 
ATOM     81  F   UNL A   1      35.892  30.229  30.368  1.00  0.00    -0.200 F 
ENDBRANCH  57  71
BRANCH  58  82
ATOM     82  C   UNL A   1      48.967  26.834  26.213  1.00  0.00     0.064 A 
ATOM     83  C   UNL A   1      49.985  26.410  27.079  1.00  0.00     0.173 A 
ATOM     84  C   UNL A   1      49.277  26.944  24.850  1.00  0.00     0.173 A 
ATOM     85  F   UNL A   1      49.745  26.310  28.395  1.00  0.00    -0.203 F 
ATOM     86  C   UNL A   1      51.265  26.130  26.604  1.00  0.00     0.198 A 
ATOM     87  C   UNL A   1      50.548  26.634  24.371  1.00  0.00     0.198 A 
ATOM     88  F   UNL A   1      48.339  27.344  23.978  1.00  0.00    -0.203 F 
ATOM     89  F   UNL A   1      52.232  25.776  27.461  1.00  0.00    -0.200 F 
ATOM     90  C   UNL A   1      51.544  26.237  25.250  1.00  0.00     0.200 A 
ATOM     91  F   UNL A   1      50.809  26.727  23.061  1.00  0.00    -0.200 F 
ATOM     92  F   UNL A   1      52.774  25.966  24.794  1.00  0.00    -0.200 F 
ENDBRANCH  58  82
BRANCH  70  93
ATOM     93  C   UNL A   1      46.046  32.676  28.645  1.00  0.00     0.064 A 
ATOM     94  C   UNL A   1      45.957  33.661  27.651  1.00  0.00     0.173 A 
ATOM     95  C   UNL A   1      46.609  33.036  29.879  1.00  0.00     0.173 A 
ATOM     96  F   UNL A   1      45.443  33.365  26.449  1.00  0.00    -0.203 F 
ATOM     97  C   UNL A   1      46.432  34.951  27.878  1.00  0.00     0.198 A 
ATOM     98  C   UNL A   1      47.054  34.333  30.113  1.00  0.00     0.198 A 
ATOM     99  F   UNL A   1      46.713  32.131  30.864  1.00  0.00    -0.203 F 
ATOM    100  F   UNL A   1      46.378  35.865  26.899  1.00  0.00    -0.200 F 
ATOM    101  C   UNL A   1      46.972  35.288  29.111  1.00  0.00     0.200 A 
ATOM    102  F   UNL A   1      47.561  34.661  31.309  1.00  0.00    -0.200 F 
ATOM    103  F   UNL A   1      47.417  36.533  29.331  1.00  0.00    -0.200 F 
ENDBRANCH  70  93
ENDBRANCH  44  45
ENDBRANCH  36  39
ENDBRANCH  34  35
ENDBRANCH  33  34
ENDBRANCH  32  33
ENDBRANCH  31  32
ENDBRANCH   1  31
TORSDOF 18
ENDMDL
