MODEL 1
REMARK VINA RESULT:     -10.1      0.000      0.000
REMARK SMILES C=CC[N@@H+](CC(=O)NCCCCCCNC(=O)c1ccc(-c2c3nc(c(-c4c(F)c(F)c(F)c(F)c4F)c4ccc([nH]4)c(-c4c(F)c(F)c(F)c(F)c4F)c4nc(c(-c5c(F)c(F)c(F)c(F)c5F)c5ccc2[nH]5)C=C4)C=C3)cc1)C[C@H]1C[N@@H+](C(C)C)CCO1
REMARK SMILES IDX 10 1 9 2 8 3 6 4 7 5 5 7 4 8 3 10 2 11 1 12 81 13 82 14
REMARK SMILES IDX 83 15 90 16 84 17 89 18 88 19 85 21 86 22 87 23 11 24 12 25
REMARK SMILES IDX 13 26 14 27 15 28 16 29 17 31 18 32 19 33 80 34 20 35 79 36
REMARK SMILES IDX 21 37 22 38 23 39 73 40 24 41 78 42 72 43 74 44 25 45 77 46
REMARK SMILES IDX 71 47 70 48 26 50 58 51 38 52 57 53 39 54 42 55 56 56 75 57
REMARK SMILES IDX 40 58 41 59 55 61 76 62 43 63 27 64 28 65 36 66 29 67 30 68
REMARK SMILES IDX 34 69 37 70 31 71 32 72 35 73 33 74 59 75 60 76 68 77 61 78
REMARK SMILES IDX 62 79 66 80 69 81 63 82 64 83 67 84 65 85 44 86 45 87 53 88
REMARK SMILES IDX 46 89 47 90 51 91 54 92 48 93 49 94 52 95 50 96
REMARK H PARENT 8 6 4 9 84 20 15 30 74 49 42 60
REMARK Flexibility Score: inf
ROOT
ATOM      1  C   UNL A   1      39.345  22.807  26.483  1.00  0.00     0.021 C 
ENDROOT
BRANCH   1   2
ATOM      2  C   UNL A   1      37.973  22.342  25.982  1.00  0.00     0.116 C 
BRANCH   2   3
ATOM      3  N   UNL A   1      37.681  22.904  24.678  1.00  0.00    -0.351 N 
ATOM      4  C   UNL A   1      36.613  22.732  23.847  1.00  0.00     0.275 C 
ATOM      5  O   UNL A   1      36.656  23.303  22.752  1.00  0.00    -0.269 OA
ATOM      6  H   UNL A   1      38.371  23.515  24.333  1.00  0.00     0.163 HD
BRANCH   4   7
ATOM      7  C   UNL A   1      35.387  21.907  24.247  1.00  0.00     0.363 C 
BRANCH   7   8
ATOM      8  N   UNL A   1      34.250  22.642  24.850  1.00  0.00    -0.322 N 
ATOM      9  H   UNL A   1      34.551  23.012  25.752  1.00  0.00     0.348 HD
BRANCH   8  10
ATOM     10  C   UNL A   1      33.181  21.766  25.288  1.00  0.00     0.290 C 
BRANCH  10  11
ATOM     11  C   UNL A   1      32.712  20.699  24.349  1.00  0.00     0.025 C 
ATOM     12  C   UNL A   1      32.522  19.427  24.737  1.00  0.00     0.010 C 
ENDBRANCH  10  11
ENDBRANCH   8  10
BRANCH   8  13
ATOM     13  C   UNL A   1      33.954  23.961  24.248  1.00  0.00     0.301 C 
BRANCH  13  14
ATOM     14  C   UNL A   1      33.085  24.084  22.958  1.00  0.00     0.228 C 
ATOM     15  C   UNL A   1      31.590  24.391  23.157  1.00  0.00     0.300 C 
ATOM     16  O   UNL A   1      33.671  24.947  21.957  1.00  0.00    -0.361 OA
ATOM     17  N   UNL A   1      31.228  25.804  23.349  1.00  0.00    -0.329 N 
ATOM     18  C   UNL A   1      33.300  26.327  22.010  1.00  0.00     0.222 C 
ATOM     19  C   UNL A   1      31.802  26.577  22.247  1.00  0.00     0.291 C 
ATOM     20  H   UNL A   1      30.217  25.918  23.288  1.00  0.00     0.348 HD
BRANCH  17  21
ATOM     21  C   UNL A   1      31.417  26.312  24.714  1.00  0.00     0.177 C 
ATOM     22  C   UNL A   1      31.311  27.818  24.976  1.00  0.00     0.075 C 
ATOM     23  C   UNL A   1      30.417  25.582  25.617  1.00  0.00     0.075 C 
ENDBRANCH  17  21
ENDBRANCH  13  14
ENDBRANCH   8  13
ENDBRANCH   7   8
ENDBRANCH   4   7
ENDBRANCH   2   3
ENDBRANCH   1   2
BRANCH   1  24
ATOM     24  C   UNL A   1      40.222  21.716  27.096  1.00  0.00     0.002 C 
BRANCH  24  25
ATOM     25  C   UNL A   1      41.359  21.222  26.197  1.00  0.00     0.002 C 
BRANCH  25  26
ATOM     26  C   UNL A   1      41.402  19.709  25.958  1.00  0.00     0.021 C 
BRANCH  26  27
ATOM     27  C   UNL A   1      42.677  19.016  26.433  1.00  0.00     0.116 C 
BRANCH  27  28
ATOM     28  N   UNL A   1      43.549  18.667  25.323  1.00  0.00    -0.352 N 
ATOM     29  C   UNL A   1      44.304  19.483  24.518  1.00  0.00     0.251 C 
ATOM     30  H   UNL A   1      43.606  17.705  25.120  1.00  0.00     0.163 HD
ATOM     31  O   UNL A   1      44.786  19.053  23.476  1.00  0.00    -0.269 OA
BRANCH  29  32
ATOM     32  C   UNL A   1      44.535  20.890  24.906  1.00  0.00     0.039 A 
ATOM     33  C   UNL A   1      44.159  21.907  24.026  1.00  0.00     0.014 A 
ATOM     34  C   UNL A   1      45.155  21.202  26.119  1.00  0.00     0.014 A 
ATOM     35  C   UNL A   1      44.357  23.242  24.385  1.00  0.00     0.010 A 
ATOM     36  C   UNL A   1      45.295  22.532  26.504  1.00  0.00     0.010 A 
ATOM     37  C   UNL A   1      44.905  23.566  25.638  1.00  0.00    -0.014 A 
BRANCH  37  38
ATOM     38  C   UNL A   1      45.094  24.978  26.052  1.00  0.00     0.031 A 
ATOM     39  C   UNL A   1      46.451  25.617  25.959  1.00  0.00     0.074 A 
ATOM     40  C   UNL A   1      44.057  25.666  26.570  1.00  0.00     0.049 A 
ATOM     41  N   UNL A   1      46.834  26.810  26.337  1.00  0.00    -0.248 NA
ATOM     42  C   UNL A   1      47.530  24.794  25.390  1.00  0.00     0.031 C 
ATOM     43  C   UNL A   1      42.704  25.143  26.751  1.00  0.00     0.029 A 
ATOM     44  N   UNL A   1      43.986  26.950  27.050  1.00  0.00    -0.354 N 
ATOM     45  C   UNL A   1      48.195  26.875  26.067  1.00  0.00     0.074 A 
ATOM     46  C   UNL A   1      48.582  25.584  25.540  1.00  0.00     0.031 C 
ATOM     47  C   UNL A   1      41.931  26.101  27.288  1.00  0.00     0.029 A 
ATOM     48  C   UNL A   1      42.741  27.293  27.519  1.00  0.00     0.049 A 
ATOM     49  H   UNL A   1      44.753  27.566  27.058  1.00  0.00     0.167 HD
ATOM     50  C   UNL A   1      49.039  27.922  26.224  1.00  0.00     0.037 A 
ATOM     51  C   UNL A   1      42.307  28.438  28.078  1.00  0.00     0.037 A 
ATOM     52  C   UNL A   1      48.644  29.213  26.721  1.00  0.00     0.049 A 
ATOM     53  C   UNL A   1      43.265  29.587  28.240  1.00  0.00     0.074 A 
ATOM     54  C   UNL A   1      49.410  30.358  26.859  1.00  0.00     0.029 A 
ATOM     55  N   UNL A   1      47.368  29.530  27.166  1.00  0.00    -0.354 N 
ATOM     56  N   UNL A   1      44.534  29.658  27.918  1.00  0.00    -0.248 NA
ATOM     57  C   UNL A   1      42.728  30.819  28.834  1.00  0.00     0.031 C 
ATOM     58  C   UNL A   1      48.610  31.354  27.427  1.00  0.00     0.029 A 
ATOM     59  C   UNL A   1      47.332  30.847  27.597  1.00  0.00     0.049 A 
ATOM     60  H   UNL A   1      46.603  28.911  27.173  1.00  0.00     0.167 HD
ATOM     61  C   UNL A   1      44.939  30.945  28.245  1.00  0.00     0.074 A 
ATOM     62  C   UNL A   1      43.777  31.626  28.777  1.00  0.00     0.031 C 
ATOM     63  C   UNL A   1      46.164  31.511  28.116  1.00  0.00     0.037 A 
BRANCH  50  64
ATOM     64  C   UNL A   1      50.477  27.715  25.847  1.00  0.00     0.064 A 
ATOM     65  C   UNL A   1      50.919  27.857  24.523  1.00  0.00     0.173 A 
ATOM     66  C   UNL A   1      51.434  27.407  26.827  1.00  0.00     0.173 A 
ATOM     67  F   UNL A   1      50.044  28.141  23.546  1.00  0.00    -0.203 F 
ATOM     68  C   UNL A   1      52.258  27.669  24.189  1.00  0.00     0.198 A 
ATOM     69  C   UNL A   1      52.776  27.250  26.494  1.00  0.00     0.198 A 
ATOM     70  F   UNL A   1      51.067  27.267  28.109  1.00  0.00    -0.203 F 
ATOM     71  F   UNL A   1      52.647  27.762  22.910  1.00  0.00    -0.200 F 
ATOM     72  C   UNL A   1      53.187  27.372  25.175  1.00  0.00     0.200 A 
ATOM     73  F   UNL A   1      53.675  26.976  27.451  1.00  0.00    -0.200 F 
ATOM     74  F   UNL A   1      54.475  27.198  24.853  1.00  0.00    -0.200 F 
ENDBRANCH  50  64
BRANCH  51  75
ATOM     75  C   UNL A   1      40.889  28.563  28.503  1.00  0.00     0.064 A 
ATOM     76  C   UNL A   1      39.906  29.000  27.604  1.00  0.00     0.173 A 
ATOM     77  C   UNL A   1      40.487  28.253  29.811  1.00  0.00     0.173 A 
ATOM     78  F   UNL A   1      40.245  29.328  26.349  1.00  0.00    -0.203 F 
ATOM     79  C   UNL A   1      38.578  29.140  28.002  1.00  0.00     0.198 A 
ATOM     80  C   UNL A   1      39.154  28.368  30.200  1.00  0.00     0.198 A 
ATOM     81  F   UNL A   1      41.388  27.826  30.707  1.00  0.00    -0.203 F 
ATOM     82  F   UNL A   1      37.666  29.601  27.135  1.00  0.00    -0.200 F 
ATOM     83  C   UNL A   1      38.202  28.819  29.298  1.00  0.00     0.200 A 
ATOM     84  F   UNL A   1      38.793  28.043  31.448  1.00  0.00    -0.200 F 
ATOM     85  F   UNL A   1      36.925  28.950  29.679  1.00  0.00    -0.200 F 
ENDBRANCH  51  75
BRANCH  63  86
ATOM     86  C   UNL A   1      46.303  32.948  28.525  1.00  0.00     0.064 A 
ATOM     87  C   UNL A   1      46.681  33.309  29.827  1.00  0.00     0.173 A 
ATOM     88  C   UNL A   1      46.095  33.975  27.592  1.00  0.00     0.173 A 
ATOM     89  F   UNL A   1      46.876  32.365  30.760  1.00  0.00    -0.203 F 
ATOM     90  C   UNL A   1      46.822  34.647  30.185  1.00  0.00     0.198 A 
ATOM     91  C   UNL A   1      46.266  35.311  27.946  1.00  0.00     0.198 A 
ATOM     92  F   UNL A   1      45.739  33.682  26.332  1.00  0.00    -0.203 F 
ATOM     93  F   UNL A   1      47.140  34.972  31.446  1.00  0.00    -0.200 F 
ATOM     94  C   UNL A   1      46.622  35.646  29.243  1.00  0.00     0.200 A 
ATOM     95  F   UNL A   1      46.084  36.273  27.031  1.00  0.00    -0.200 F 
ATOM     96  F   UNL A   1      46.765  36.933  29.588  1.00  0.00    -0.200 F 
ENDBRANCH  63  86
ENDBRANCH  37  38
ENDBRANCH  29  32
ENDBRANCH  27  28
ENDBRANCH  26  27
ENDBRANCH  25  26
ENDBRANCH  24  25
ENDBRANCH   1  24
TORSDOF 19
ENDMDL
MODEL 2
REMARK VINA RESULT:     -10.1      0.886      2.003
REMARK SMILES C=CC[N@@H+](CC(=O)NCCCCCCNC(=O)c1ccc(-c2c3nc(c(-c4c(F)c(F)c(F)c(F)c4F)c4ccc([nH]4)c(-c4c(F)c(F)c(F)c(F)c4F)c4nc(c(-c5c(F)c(F)c(F)c(F)c5F)c5ccc2[nH]5)C=C4)C=C3)cc1)C[C@H]1C[N@@H+](C(C)C)CCO1
REMARK SMILES IDX 10 1 9 2 8 3 6 4 7 5 5 7 4 8 3 10 2 11 1 12 81 13 82 14
REMARK SMILES IDX 83 15 90 16 84 17 89 18 88 19 85 21 86 22 87 23 11 24 12 25
REMARK SMILES IDX 13 26 14 27 15 28 16 29 17 31 18 32 19 33 80 34 20 35 79 36
REMARK SMILES IDX 21 37 22 38 23 39 73 40 24 41 78 42 72 43 74 44 25 45 77 46
REMARK SMILES IDX 71 47 70 48 26 50 58 51 38 52 57 53 39 54 42 55 56 56 75 57
REMARK SMILES IDX 40 58 41 59 55 61 76 62 43 63 27 64 28 65 36 66 29 67 30 68
REMARK SMILES IDX 34 69 37 70 31 71 32 72 35 73 33 74 59 75 60 76 68 77 61 78
REMARK SMILES IDX 62 79 66 80 69 81 63 82 64 83 67 84 65 85 44 86 45 87 53 88
REMARK SMILES IDX 46 89 47 90 51 91 54 92 48 93 49 94 52 95 50 96
REMARK H PARENT 8 6 4 9 84 20 15 30 74 49 42 60
REMARK Flexibility Score: inf
ROOT
ATOM      1  C   UNL A   1      40.154  22.708  27.129  1.00  0.00     0.021 C 
ENDROOT
BRANCH   1   2
ATOM      2  C   UNL A   1      38.946  22.913  26.208  1.00  0.00     0.116 C 
BRANCH   2   3
ATOM      3  N   UNL A   1      38.423  21.641  25.749  1.00  0.00    -0.351 N 
ATOM      4  C   UNL A   1      37.367  21.347  24.938  1.00  0.00     0.275 C 
ATOM      5  O   UNL A   1      37.114  20.151  24.759  1.00  0.00    -0.269 OA
ATOM      6  H   UNL A   1      38.916  20.855  26.079  1.00  0.00     0.163 HD
BRANCH   4   7
ATOM      7  C   UNL A   1      36.542  22.430  24.239  1.00  0.00     0.363 C 
BRANCH   7   8
ATOM      8  N   UNL A   1      35.182  22.687  24.771  1.00  0.00    -0.322 N 
ATOM      9  H   UNL A   1      34.890  23.616  24.467  1.00  0.00     0.348 HD
BRANCH   8  10
ATOM     10  C   UNL A   1      35.167  22.884  26.207  1.00  0.00     0.290 C 
BRANCH  10  11
ATOM     11  C   UNL A   1      34.380  21.926  27.045  1.00  0.00     0.025 C 
ATOM     12  C   UNL A   1      33.506  22.331  27.981  1.00  0.00     0.010 C 
ENDBRANCH  10  11
ENDBRANCH   8  10
BRANCH   8  13
ATOM     13  C   UNL A   1      34.085  21.963  24.091  1.00  0.00     0.301 C 
BRANCH  13  14
ATOM     14  C   UNL A   1      33.303  22.609  22.907  1.00  0.00     0.228 C 
ATOM     15  C   UNL A   1      31.807  22.891  23.137  1.00  0.00     0.300 C 
ATOM     16  O   UNL A   1      33.974  23.757  22.340  1.00  0.00    -0.361 OA
ATOM     17  N   UNL A   1      31.473  24.141  23.837  1.00  0.00    -0.329 N 
ATOM     18  C   UNL A   1      33.639  25.031  22.899  1.00  0.00     0.222 C 
ATOM     19  C   UNL A   1      32.137  25.245  23.142  1.00  0.00     0.291 C 
ATOM     20  H   UNL A   1      30.472  24.321  23.776  1.00  0.00     0.348 HD
BRANCH  17  21
ATOM     21  C   UNL A   1      31.590  24.083  25.300  1.00  0.00     0.177 C 
ATOM     22  C   UNL A   1      31.146  25.287  26.137  1.00  0.00     0.075 C 
ATOM     23  C   UNL A   1      30.824  22.843  25.771  1.00  0.00     0.075 C 
ENDBRANCH  17  21
ENDBRANCH  13  14
ENDBRANCH   8  13
ENDBRANCH   7   8
ENDBRANCH   4   7
ENDBRANCH   2   3
ENDBRANCH   1   2
BRANCH   1  24
ATOM     24  C   UNL A   1      41.246  21.791  26.582  1.00  0.00     0.002 C 
BRANCH  24  25
ATOM     25  C   UNL A   1      41.924  20.901  27.627  1.00  0.00     0.002 C 
BRANCH  25  26
ATOM     26  C   UNL A   1      42.306  19.496  27.150  1.00  0.00     0.021 C 
BRANCH  26  27
ATOM     27  C   UNL A   1      42.143  19.255  25.650  1.00  0.00     0.116 C 
BRANCH  27  28
ATOM     28  N   UNL A   1      43.381  18.804  25.037  1.00  0.00    -0.352 N 
ATOM     29  C   UNL A   1      44.462  19.536  24.615  1.00  0.00     0.251 C 
ATOM     30  H   UNL A   1      43.455  17.831  24.906  1.00  0.00     0.163 HD
ATOM     31  O   UNL A   1      45.315  19.027  23.896  1.00  0.00    -0.269 OA
BRANCH  29  32
ATOM     32  C   UNL A   1      44.599  20.950  25.024  1.00  0.00     0.039 A 
ATOM     33  C   UNL A   1      45.213  21.247  26.244  1.00  0.00     0.014 A 
ATOM     34  C   UNL A   1      44.088  21.976  24.225  1.00  0.00     0.014 A 
ATOM     35  C   UNL A   1      45.362  22.578  26.638  1.00  0.00     0.010 A 
ATOM     36  C   UNL A   1      44.293  23.304  24.588  1.00  0.00     0.010 A 
ATOM     37  C   UNL A   1      44.924  23.619  25.801  1.00  0.00    -0.014 A 
BRANCH  37  38
ATOM     38  C   UNL A   1      45.103  25.041  26.186  1.00  0.00     0.031 A 
ATOM     39  C   UNL A   1      46.455  25.688  26.074  1.00  0.00     0.074 A 
ATOM     40  C   UNL A   1      44.064  25.731  26.695  1.00  0.00     0.049 A 
ATOM     41  N   UNL A   1      46.831  26.892  26.426  1.00  0.00    -0.248 NA
ATOM     42  C   UNL A   1      47.538  24.862  25.516  1.00  0.00     0.031 C 
ATOM     43  C   UNL A   1      42.716  25.200  26.894  1.00  0.00     0.029 A 
ATOM     44  N   UNL A   1      43.985  27.023  27.149  1.00  0.00    -0.354 N 
ATOM     45  C   UNL A   1      48.189  26.962  26.147  1.00  0.00     0.074 A 
ATOM     46  C   UNL A   1      48.584  25.664  25.644  1.00  0.00     0.031 C 
ATOM     47  C   UNL A   1      41.937  26.163  27.416  1.00  0.00     0.029 A 
ATOM     48  C   UNL A   1      42.739  27.366  27.618  1.00  0.00     0.049 A 
ATOM     49  H   UNL A   1      44.747  27.645  27.141  1.00  0.00     0.167 HD
ATOM     50  C   UNL A   1      49.026  28.019  26.279  1.00  0.00     0.037 A 
ATOM     51  C   UNL A   1      42.299  28.519  28.156  1.00  0.00     0.037 A 
ATOM     52  C   UNL A   1      48.623  29.316  26.752  1.00  0.00     0.049 A 
ATOM     53  C   UNL A   1      43.249  29.678  28.290  1.00  0.00     0.074 A 
ATOM     54  C   UNL A   1      49.380  30.470  26.863  1.00  0.00     0.029 A 
ATOM     55  N   UNL A   1      47.346  29.632  27.196  1.00  0.00    -0.354 N 
ATOM     56  N   UNL A   1      44.515  29.752  27.961  1.00  0.00    -0.248 NA
ATOM     57  C   UNL A   1      42.704  30.918  28.862  1.00  0.00     0.031 C 
ATOM     58  C   UNL A   1      48.575  31.471  27.414  1.00  0.00     0.029 A 
ATOM     59  C   UNL A   1      47.302  30.957  27.601  1.00  0.00     0.049 A 
ATOM     60  H   UNL A   1      46.586  29.007  27.220  1.00  0.00     0.167 HD
ATOM     61  C   UNL A   1      44.912  31.050  28.259  1.00  0.00     0.074 A 
ATOM     62  C   UNL A   1      43.747  31.731  28.783  1.00  0.00     0.031 C 
ATOM     63  C   UNL A   1      46.131  31.622  28.112  1.00  0.00     0.037 A 
BRANCH  50  64
ATOM     64  C   UNL A   1      50.464  27.816  25.899  1.00  0.00     0.064 A 
ATOM     65  C   UNL A   1      50.895  27.916  24.567  1.00  0.00     0.173 A 
ATOM     66  C   UNL A   1      51.430  27.554  26.882  1.00  0.00     0.173 A 
ATOM     67  F   UNL A   1      50.010  28.155  23.588  1.00  0.00    -0.203 F 
ATOM     68  C   UNL A   1      52.233  27.732  24.230  1.00  0.00     0.198 A 
ATOM     69  C   UNL A   1      52.773  27.401  26.545  1.00  0.00     0.198 A 
ATOM     70  F   UNL A   1      51.074  27.455  28.171  1.00  0.00    -0.203 F 
ATOM     71  F   UNL A   1      52.612  27.784  22.946  1.00  0.00    -0.200 F 
ATOM     72  C   UNL A   1      53.172  27.482  25.220  1.00  0.00     0.200 A 
ATOM     73  F   UNL A   1      53.682  27.171  27.504  1.00  0.00    -0.200 F 
ATOM     74  F   UNL A   1      54.461  27.312  24.895  1.00  0.00    -0.200 F 
ENDBRANCH  50  64
BRANCH  51  75
ATOM     75  C   UNL A   1      40.882  28.641  28.586  1.00  0.00     0.064 A 
ATOM     76  C   UNL A   1      40.505  28.356  29.906  1.00  0.00     0.173 A 
ATOM     77  C   UNL A   1      39.878  29.039  27.692  1.00  0.00     0.173 A 
ATOM     78  F   UNL A   1      41.427  27.952  30.793  1.00  0.00    -0.203 F 
ATOM     79  C   UNL A   1      39.175  28.447  30.311  1.00  0.00     0.198 A 
ATOM     80  C   UNL A   1      38.552  29.155  28.104  1.00  0.00     0.198 A 
ATOM     81  F   UNL A   1      40.187  29.326  26.420  1.00  0.00    -0.203 F 
ATOM     82  F   UNL A   1      38.836  28.128  31.567  1.00  0.00    -0.200 F 
ATOM     83  C   UNL A   1      38.200  28.852  29.411  1.00  0.00     0.200 A 
ATOM     84  F   UNL A   1      37.616  29.560  27.236  1.00  0.00    -0.200 F 
ATOM     85  F   UNL A   1      36.922  28.943  29.801  1.00  0.00    -0.200 F 
ENDBRANCH  51  75
BRANCH  63  86
ATOM     86  C   UNL A   1      46.260  33.068  28.492  1.00  0.00     0.064 A 
ATOM     87  C   UNL A   1      45.983  34.097  27.579  1.00  0.00     0.173 A 
ATOM     88  C   UNL A   1      46.626  33.429  29.798  1.00  0.00     0.173 A 
ATOM     89  F   UNL A   1      45.645  33.804  26.315  1.00  0.00    -0.203 F 
ATOM     90  C   UNL A   1      46.092  35.433  27.954  1.00  0.00     0.198 A 
ATOM     91  C   UNL A   1      46.705  34.766  30.177  1.00  0.00     0.198 A 
ATOM     92  F   UNL A   1      46.894  32.482  30.710  1.00  0.00    -0.203 F 
ATOM     93  F   UNL A   1      45.867  36.400  27.054  1.00  0.00    -0.200 F 
ATOM     94  C   UNL A   1      46.445  35.767  29.254  1.00  0.00     0.200 A 
ATOM     95  F   UNL A   1      47.034  35.085  31.437  1.00  0.00    -0.200 F 
ATOM     96  F   UNL A   1      46.542  37.053  29.614  1.00  0.00    -0.200 F 
ENDBRANCH  63  86
ENDBRANCH  37  38
ENDBRANCH  29  32
ENDBRANCH  27  28
ENDBRANCH  26  27
ENDBRANCH  25  26
ENDBRANCH  24  25
ENDBRANCH   1  24
TORSDOF 19
ENDMDL
MODEL 3
REMARK VINA RESULT:     -10.1      1.693      7.646
REMARK SMILES C=CC[N@@H+](CC(=O)NCCCCCCNC(=O)c1ccc(-c2c3nc(c(-c4c(F)c(F)c(F)c(F)c4F)c4ccc([nH]4)c(-c4c(F)c(F)c(F)c(F)c4F)c4nc(c(-c5c(F)c(F)c(F)c(F)c5F)c5ccc2[nH]5)C=C4)C=C3)cc1)C[C@H]1C[N@@H+](C(C)C)CCO1
REMARK SMILES IDX 10 1 9 2 8 3 6 4 7 5 5 7 4 8 3 10 2 11 1 12 81 13 82 14
REMARK SMILES IDX 83 15 90 16 84 17 89 18 88 19 85 21 86 22 87 23 11 24 12 25
REMARK SMILES IDX 13 26 14 27 15 28 16 29 17 31 18 32 19 33 80 34 20 35 79 36
REMARK SMILES IDX 21 37 22 38 23 39 73 40 24 41 78 42 72 43 74 44 25 45 77 46
REMARK SMILES IDX 71 47 70 48 26 50 58 51 38 52 57 53 39 54 42 55 56 56 75 57
REMARK SMILES IDX 40 58 41 59 55 61 76 62 43 63 27 64 28 65 36 66 29 67 30 68
REMARK SMILES IDX 34 69 37 70 31 71 32 72 35 73 33 74 59 75 60 76 68 77 61 78
REMARK SMILES IDX 62 79 66 80 69 81 63 82 64 83 67 84 65 85 44 86 45 87 53 88
REMARK SMILES IDX 46 89 47 90 51 91 54 92 48 93 49 94 52 95 50 96
REMARK H PARENT 8 6 4 9 84 20 15 30 74 49 42 60
REMARK Flexibility Score: inf
ROOT
ATOM      1  C   UNL A   1      37.691  22.784  25.639  1.00  0.00     0.021 C 
ENDROOT
BRANCH   1   2
ATOM      2  C   UNL A   1      36.570  23.739  26.066  1.00  0.00     0.116 C 
BRANCH   2   3
ATOM      3  N   UNL A   1      35.695  23.109  27.035  1.00  0.00    -0.351 N 
ATOM      4  C   UNL A   1      34.480  22.507  26.887  1.00  0.00     0.275 C 
ATOM      5  O   UNL A   1      33.927  22.100  27.914  1.00  0.00    -0.269 OA
ATOM      6  H   UNL A   1      36.036  23.119  27.959  1.00  0.00     0.163 HD
BRANCH   4   7
ATOM      7  C   UNL A   1      33.831  22.296  25.517  1.00  0.00     0.363 C 
BRANCH   7   8
ATOM      8  N   UNL A   1      33.214  23.483  24.877  1.00  0.00    -0.322 N 
ATOM      9  H   UNL A   1      32.242  23.261  24.662  1.00  0.00     0.348 HD
BRANCH   8  10
ATOM     10  C   UNL A   1      33.712  23.722  23.537  1.00  0.00     0.290 C 
BRANCH  10  11
ATOM     11  C   UNL A   1      33.247  22.821  22.437  1.00  0.00     0.025 C 
ATOM     12  C   UNL A   1      32.122  22.092  22.525  1.00  0.00     0.010 C 
ENDBRANCH  10  11
ENDBRANCH   8  10
BRANCH   8  13
ATOM     13  C   UNL A   1      32.906  24.608  25.787  1.00  0.00     0.301 C 
BRANCH  13  14
ATOM     14  C   UNL A   1      31.441  25.104  25.991  1.00  0.00     0.228 C 
ATOM     15  C   UNL A   1      31.253  26.596  26.317  1.00  0.00     0.300 C 
ATOM     16  O   UNL A   1      30.544  24.678  24.941  1.00  0.00    -0.361 OA
ATOM     17  N   UNL A   1      31.243  27.523  25.175  1.00  0.00    -0.329 N 
ATOM     18  C   UNL A   1      30.398  25.565  23.828  1.00  0.00     0.222 C 
ATOM     19  C   UNL A   1      30.252  27.047  24.209  1.00  0.00     0.291 C 
ATOM     20  H   UNL A   1      30.934  28.447  25.475  1.00  0.00     0.348 HD
BRANCH  17  21
ATOM     21  C   UNL A   1      32.570  27.897  24.668  1.00  0.00     0.177 C 
ATOM     22  C   UNL A   1      32.678  28.914  23.527  1.00  0.00     0.075 C 
ATOM     23  C   UNL A   1      33.389  28.403  25.860  1.00  0.00     0.075 C 
ENDBRANCH  17  21
ENDBRANCH  13  14
ENDBRANCH   8  13
ENDBRANCH   7   8
ENDBRANCH   4   7
ENDBRANCH   2   3
ENDBRANCH   1   2
BRANCH   1  24
ATOM     24  C   UNL A   1      37.336  21.826  24.504  1.00  0.00     0.002 C 
BRANCH  24  25
ATOM     25  C   UNL A   1      37.143  20.368  24.930  1.00  0.00     0.002 C 
BRANCH  25  26
ATOM     26  C   UNL A   1      38.408  19.503  24.919  1.00  0.00     0.021 C 
BRANCH  26  27
ATOM     27  C   UNL A   1      39.423  19.829  26.014  1.00  0.00     0.116 C 
BRANCH  27  28
ATOM     28  N   UNL A   1      40.532  18.890  26.020  1.00  0.00    -0.352 N 
ATOM     29  C   UNL A   1      41.882  19.136  26.032  1.00  0.00     0.251 C 
ATOM     30  H   UNL A   1      40.278  17.939  26.014  1.00  0.00     0.163 HD
ATOM     31  O   UNL A   1      42.679  18.239  25.786  1.00  0.00    -0.269 OA
BRANCH  29  32
ATOM     32  C   UNL A   1      42.379  20.494  26.341  1.00  0.00     0.039 A 
ATOM     33  C   UNL A   1      42.802  21.316  25.294  1.00  0.00     0.014 A 
ATOM     34  C   UNL A   1      42.463  20.938  27.663  1.00  0.00     0.014 A 
ATOM     35  C   UNL A   1      43.261  22.606  25.568  1.00  0.00     0.010 A 
ATOM     36  C   UNL A   1      42.861  22.245  27.931  1.00  0.00     0.010 A 
ATOM     37  C   UNL A   1      43.272  23.089  26.887  1.00  0.00    -0.014 A 
BRANCH  37  38
ATOM     38  C   UNL A   1      43.724  24.468  27.197  1.00  0.00     0.031 A 
ATOM     39  C   UNL A   1      42.739  25.494  27.684  1.00  0.00     0.074 A 
ATOM     40  C   UNL A   1      45.008  24.814  26.980  1.00  0.00     0.049 A 
ATOM     41  N   UNL A   1      42.922  26.765  27.938  1.00  0.00    -0.248 NA
ATOM     42  C   UNL A   1      41.355  25.036  27.886  1.00  0.00     0.031 C 
ATOM     43  C   UNL A   1      46.047  23.922  26.469  1.00  0.00     0.029 A 
ATOM     44  N   UNL A   1      45.652  26.014  27.151  1.00  0.00    -0.354 N 
ATOM     45  C   UNL A   1      41.679  27.259  28.314  1.00  0.00     0.074 A 
ATOM     46  C   UNL A   1      40.740  26.164  28.206  1.00  0.00     0.031 C 
ATOM     47  C   UNL A   1      47.204  24.599  26.382  1.00  0.00     0.029 A 
ATOM     48  C   UNL A   1      46.980  25.980  26.799  1.00  0.00     0.049 A 
ATOM     49  H   UNL A   1      45.206  26.822  27.492  1.00  0.00     0.167 HD
ATOM     50  C   UNL A   1      41.356  28.506  28.732  1.00  0.00     0.037 A 
ATOM     51  C   UNL A   1      47.908  26.955  26.807  1.00  0.00     0.037 A 
ATOM     52  C   UNL A   1      42.300  29.585  28.865  1.00  0.00     0.049 A 
ATOM     53  C   UNL A   1      47.523  28.332  27.277  1.00  0.00     0.074 A 
ATOM     54  C   UNL A   1      42.085  30.868  29.338  1.00  0.00     0.029 A 
ATOM     55  N   UNL A   1      43.642  29.506  28.521  1.00  0.00    -0.354 N 
ATOM     56  N   UNL A   1      46.360  28.769  27.693  1.00  0.00    -0.248 NA
ATOM     57  C   UNL A   1      48.585  29.349  27.286  1.00  0.00     0.031 C 
ATOM     58  C   UNL A   1      43.286  31.577  29.241  1.00  0.00     0.029 A 
ATOM     59  C   UNL A   1      44.261  30.724  28.753  1.00  0.00     0.049 A 
ATOM     60  H   UNL A   1      44.087  28.703  28.164  1.00  0.00     0.167 HD
ATOM     61  C   UNL A   1      46.554  30.101  28.039  1.00  0.00     0.074 A 
ATOM     62  C   UNL A   1      47.951  30.395  27.796  1.00  0.00     0.031 C 
ATOM     63  C   UNL A   1      45.655  30.997  28.514  1.00  0.00     0.037 A 
BRANCH  50  64
ATOM     64  C   UNL A   1      39.921  28.771  29.081  1.00  0.00     0.064 A 
ATOM     65  C   UNL A   1      39.427  28.558  30.377  1.00  0.00     0.173 A 
ATOM     66  C   UNL A   1      39.035  29.278  28.118  1.00  0.00     0.173 A 
ATOM     67  F   UNL A   1      40.229  28.064  31.332  1.00  0.00    -0.203 F 
ATOM     68  C   UNL A   1      38.094  28.813  30.688  1.00  0.00     0.198 A 
ATOM     69  C   UNL A   1      37.711  29.561  28.441  1.00  0.00     0.198 A 
ATOM     70  F   UNL A   1      39.457  29.507  26.865  1.00  0.00    -0.203 F 
ATOM     71  F   UNL A   1      37.634  28.555  31.920  1.00  0.00    -0.200 F 
ATOM     72  C   UNL A   1      37.239  29.321  29.722  1.00  0.00     0.200 A 
ATOM     73  F   UNL A   1      36.888  30.065  27.509  1.00  0.00    -0.200 F 
ATOM     74  F   UNL A   1      35.958  29.573  30.025  1.00  0.00    -0.200 F 
ENDBRANCH  50  64
BRANCH  51  75
ATOM     75  C   UNL A   1      49.299  26.657  26.379  1.00  0.00     0.064 A 
ATOM     76  C   UNL A   1      50.251  26.198  27.300  1.00  0.00     0.173 A 
ATOM     77  C   UNL A   1      49.707  26.826  25.048  1.00  0.00     0.173 A 
ATOM     78  F   UNL A   1      49.913  26.040  28.588  1.00  0.00    -0.203 F 
ATOM     79  C   UNL A   1      51.563  25.937  26.910  1.00  0.00     0.198 A 
ATOM     80  C   UNL A   1      51.012  26.539  24.653  1.00  0.00     0.198 A 
ATOM     81  F   UNL A   1      48.833  27.258  24.128  1.00  0.00    -0.203 F 
ATOM     82  F   UNL A   1      52.464  25.540  27.819  1.00  0.00    -0.200 F 
ATOM     83  C   UNL A   1      51.941  26.102  25.586  1.00  0.00     0.200 A 
ATOM     84  F   UNL A   1      51.369  26.686  23.371  1.00  0.00    -0.200 F 
ATOM     85  F   UNL A   1      53.201  25.848  25.210  1.00  0.00    -0.200 F 
ENDBRANCH  51  75
BRANCH  63  86
ATOM     86  C   UNL A   1      46.162  32.372  28.835  1.00  0.00     0.064 A 
ATOM     87  C   UNL A   1      46.690  32.687  30.096  1.00  0.00     0.173 A 
ATOM     88  C   UNL A   1      46.156  33.377  27.855  1.00  0.00     0.173 A 
ATOM     89  F   UNL A   1      46.703  31.766  31.071  1.00  0.00    -0.203 F 
ATOM     90  C   UNL A   1      47.171  33.964  30.371  1.00  0.00     0.198 A 
ATOM     91  C   UNL A   1      46.666  34.644  28.124  1.00  0.00     0.198 A 
ATOM     92  F   UNL A   1      45.669  33.124  26.631  1.00  0.00    -0.203 F 
ATOM     93  F   UNL A   1      47.629  34.256  31.596  1.00  0.00    -0.200 F 
ATOM     94  C   UNL A   1      47.166  34.939  29.383  1.00  0.00     0.200 A 
ATOM     95  F   UNL A   1      46.671  35.580  27.165  1.00  0.00    -0.200 F 
ATOM     96  F   UNL A   1      47.636  36.165  29.648  1.00  0.00    -0.200 F 
ENDBRANCH  63  86
ENDBRANCH  37  38
ENDBRANCH  29  32
ENDBRANCH  27  28
ENDBRANCH  26  27
ENDBRANCH  25  26
ENDBRANCH  24  25
ENDBRANCH   1  24
TORSDOF 19
ENDMDL
