MODEL 1
REMARK VINA RESULT:     -11.7      0.000      0.000
REMARK SMILES O=C(NC[C@@H]1CC[C@H](C(=O)NCCCCCCNC(=O)c2ccc(-c3c4nc(c(-c5c(F)c(F)c(F)c(F)c5F)c5ccc([nH]5)c(-c5c(F)c(F)c(F)c(F)c5F)c5nc(c(-c6c(F)c(F)c(F)c(F)c6F)c6ccc3[nH]6)C=C5)C=C4)cc2)O1)Nc1ncccn1
REMARK SMILES IDX 14 1 13 2 12 3 11 4 9 5 10 6 8 8 5 9 6 10 84 11 7 12 4 13
REMARK SMILES IDX 3 14 1 15 2 16 85 17 86 20 87 21 91 22 88 23 90 24 89 25
REMARK SMILES IDX 15 26 16 27 17 28 18 29 19 30 20 32 21 33 22 34 83 35 23 36
REMARK SMILES IDX 82 37 24 38 25 39 26 40 76 41 27 42 81 43 75 44 77 45 28 46
REMARK SMILES IDX 80 47 74 48 73 49 29 51 61 52 41 53 60 54 42 55 45 56 59 57
REMARK SMILES IDX 78 58 43 59 44 60 58 62 79 63 46 64 30 65 31 66 39 67 32 68
REMARK SMILES IDX 33 69 37 70 40 71 34 72 35 73 38 74 36 75 62 76 63 77 71 78
REMARK SMILES IDX 64 79 65 80 69 81 72 82 66 83 67 84 70 85 68 86 47 87 48 88
REMARK SMILES IDX 56 89 49 90 50 91 54 92 57 93 51 94 52 95 55 96 53 97
REMARK H PARENT 11 7 3 18 85 19 18 31 77 50 45 61
REMARK Flexibility Score: inf
ROOT
ATOM      1  C   UNL A   1      35.363  33.729  28.533  1.00  0.00     0.002 C 
ENDROOT
BRANCH   1   2
ATOM      2  C   UNL A   1      34.763  32.508  29.244  1.00  0.00     0.021 C 
BRANCH   2   3
ATOM      3  C   UNL A   1      34.490  31.319  28.322  1.00  0.00     0.116 C 
BRANCH   3   4
ATOM      4  N   UNL A   1      33.268  31.504  27.564  1.00  0.00    -0.354 N 
ATOM      5  C   UNL A   1      32.501  30.598  26.893  1.00  0.00     0.249 C 
ATOM      6  O   UNL A   1      31.515  31.028  26.287  1.00  0.00    -0.272 OA
ATOM      7  H   UNL A   1      32.941  32.431  27.528  1.00  0.00     0.163 HD
BRANCH   5   8
ATOM      8  C   UNL A   1      32.852  29.097  26.848  1.00  0.00     0.207 C 
ATOM      9  C   UNL A   1      32.548  27.237  25.490  1.00  0.00     0.138 C 
ATOM     10  C   UNL A   1      31.385  27.231  26.470  1.00  0.00     0.037 C 
ATOM     11  O   UNL A   1      33.076  28.572  25.536  1.00  0.00    -0.363 OA
ATOM     12  C   UNL A   1      31.829  28.203  27.539  1.00  0.00     0.045 C 
BRANCH   9  13
ATOM     13  C   UNL A   1      32.186  26.900  24.040  1.00  0.00     0.149 C 
BRANCH  13  14
ATOM     14  N   UNL A   1      30.763  26.690  23.851  1.00  0.00    -0.335 N 
ATOM     15  O   UNL A   1      28.634  27.258  23.649  1.00  0.00    -0.248 OA
ATOM     16  C   UNL A   1      29.805  27.586  23.478  1.00  0.00     0.321 C 
ATOM     17  N   UNL A   1      30.255  28.740  22.928  1.00  0.00    -0.276 N 
ATOM     18  H   UNL A   1      30.444  25.774  24.013  1.00  0.00     0.165 HD
ATOM     19  H   UNL A   1      31.222  28.814  22.763  1.00  0.00     0.175 HD
BRANCH  17  20
ATOM     20  C   UNL A   1      29.468  29.821  22.579  1.00  0.00     0.230 A 
ATOM     21  N   UNL A   1      29.268  30.695  23.580  1.00  0.00    -0.221 NA
ATOM     22  N   UNL A   1      28.962  29.948  21.348  1.00  0.00    -0.221 NA
ATOM     23  C   UNL A   1      28.601  31.818  23.265  1.00  0.00     0.117 A 
ATOM     24  C   UNL A   1      28.297  31.079  21.080  1.00  0.00     0.117 A 
ATOM     25  C   UNL A   1      28.105  32.065  22.012  1.00  0.00     0.040 A 
ENDBRANCH  17  20
ENDBRANCH  13  14
ENDBRANCH   9  13
ENDBRANCH   5   8
ENDBRANCH   3   4
ENDBRANCH   2   3
ENDBRANCH   1   2
BRANCH   1  26
ATOM     26  C   UNL A   1      34.350  34.731  27.960  1.00  0.00     0.002 C 
BRANCH  26  27
ATOM     27  C   UNL A   1      33.180  35.095  28.881  1.00  0.00     0.021 C 
BRANCH  27  28
ATOM     28  C   UNL A   1      33.306  36.445  29.587  1.00  0.00     0.116 C 
BRANCH  28  29
ATOM     29  N   UNL A   1      32.508  36.495  30.804  1.00  0.00    -0.352 N 
ATOM     30  C   UNL A   1      32.620  35.802  31.984  1.00  0.00     0.251 C 
ATOM     31  H   UNL A   1      31.761  37.136  30.777  1.00  0.00     0.163 HD
ATOM     32  O   UNL A   1      31.703  35.852  32.799  1.00  0.00    -0.269 OA
BRANCH  30  33
ATOM     33  C   UNL A   1      33.815  34.980  32.302  1.00  0.00     0.039 A 
ATOM     34  C   UNL A   1      35.084  35.524  32.064  1.00  0.00     0.014 A 
ATOM     35  C   UNL A   1      33.714  33.661  32.748  1.00  0.00     0.014 A 
ATOM     36  C   UNL A   1      36.242  34.780  32.328  1.00  0.00     0.010 A 
ATOM     37  C   UNL A   1      34.871  32.935  33.059  1.00  0.00     0.010 A 
ATOM     38  C   UNL A   1      36.152  33.488  32.866  1.00  0.00    -0.014 A 
BRANCH  38  39
ATOM     39  C   UNL A   1      37.368  32.713  33.261  1.00  0.00     0.031 A 
ATOM     40  C   UNL A   1      38.116  33.057  34.524  1.00  0.00     0.074 A 
ATOM     41  C   UNL A   1      37.874  31.760  32.447  1.00  0.00     0.049 A 
ATOM     42  N   UNL A   1      39.252  32.579  34.974  1.00  0.00    -0.248 NA
ATOM     43  C   UNL A   1      37.518  34.088  35.387  1.00  0.00     0.031 C 
ATOM     44  C   UNL A   1      37.292  31.322  31.178  1.00  0.00     0.029 A 
ATOM     45  N   UNL A   1      39.024  31.011  32.551  1.00  0.00    -0.354 N 
ATOM     46  C   UNL A   1      39.511  33.262  36.155  1.00  0.00     0.074 A 
ATOM     47  C   UNL A   1      38.444  34.227  36.324  1.00  0.00     0.031 C 
ATOM     48  C   UNL A   1      38.103  30.419  30.604  1.00  0.00     0.029 A 
ATOM     49  C   UNL A   1      39.260  30.201  31.466  1.00  0.00     0.049 A 
ATOM     50  H   UNL A   1      39.622  31.052  33.332  1.00  0.00     0.167 HD
ATOM     51  C   UNL A   1      40.521  33.083  37.040  1.00  0.00     0.037 A 
ATOM     52  C   UNL A   1      40.284  29.372  31.188  1.00  0.00     0.037 A 
ATOM     53  C   UNL A   1      41.555  32.090  36.920  1.00  0.00     0.049 A 
ATOM     54  C   UNL A   1      41.389  29.182  32.188  1.00  0.00     0.074 A 
ATOM     55  C   UNL A   1      42.554  31.771  37.823  1.00  0.00     0.029 A 
ATOM     56  N   UNL A   1      41.724  31.253  35.828  1.00  0.00    -0.354 N 
ATOM     57  N   UNL A   1      41.562  29.765  33.348  1.00  0.00    -0.248 NA
ATOM     58  C   UNL A   1      42.426  28.195  31.852  1.00  0.00     0.031 C 
ATOM     59  C   UNL A   1      43.347  30.761  37.267  1.00  0.00     0.029 A 
ATOM     60  C   UNL A   1      42.821  30.430  36.031  1.00  0.00     0.049 A 
ATOM     61  H   UNL A   1      41.151  31.246  35.028  1.00  0.00     0.167 HD
ATOM     62  C   UNL A   1      42.699  29.187  33.897  1.00  0.00     0.074 A 
ATOM     63  C   UNL A   1      43.178  28.209  32.944  1.00  0.00     0.031 C 
ATOM     64  C   UNL A   1      43.283  29.441  35.092  1.00  0.00     0.037 A 
BRANCH  51  65
ATOM     65  C   UNL A   1      40.541  33.970  38.249  1.00  0.00     0.064 A 
ATOM     66  C   UNL A   1      41.273  35.166  38.265  1.00  0.00     0.173 A 
ATOM     67  C   UNL A   1      39.791  33.641  39.388  1.00  0.00     0.173 A 
ATOM     68  F   UNL A   1      42.012  35.519  37.203  1.00  0.00    -0.203 F 
ATOM     69  C   UNL A   1      41.279  35.986  39.390  1.00  0.00     0.198 A 
ATOM     70  C   UNL A   1      39.779  34.477  40.501  1.00  0.00     0.198 A 
ATOM     71  F   UNL A   1      39.067  32.512  39.418  1.00  0.00    -0.203 F 
ATOM     72  F   UNL A   1      42.024  37.100  39.400  1.00  0.00    -0.200 F 
ATOM     73  C   UNL A   1      40.529  35.644  40.505  1.00  0.00     0.200 A 
ATOM     74  F   UNL A   1      39.044  34.152  41.574  1.00  0.00    -0.200 F 
ATOM     75  F   UNL A   1      40.533  36.436  41.585  1.00  0.00    -0.200 F 
ENDBRANCH  51  65
BRANCH  52  76
ATOM     76  C   UNL A   1      40.293  28.609  29.915  1.00  0.00     0.064 A 
ATOM     77  C   UNL A   1      40.948  29.113  28.783  1.00  0.00     0.173 A 
ATOM     78  C   UNL A   1      39.635  27.378  29.799  1.00  0.00     0.173 A 
ATOM     79  F   UNL A   1      41.573  30.297  28.844  1.00  0.00    -0.203 F 
ATOM     80  C   UNL A   1      40.928  28.421  27.574  1.00  0.00     0.198 A 
ATOM     81  C   UNL A   1      39.630  26.678  28.595  1.00  0.00     0.198 A 
ATOM     82  F   UNL A   1      38.999  26.856  30.858  1.00  0.00    -0.203 F 
ATOM     83  F   UNL A   1      41.528  28.942  26.496  1.00  0.00    -0.200 F 
ATOM     84  C   UNL A   1      40.270  27.203  27.482  1.00  0.00     0.200 A 
ATOM     85  F   UNL A   1      39.002  25.497  28.510  1.00  0.00    -0.200 F 
ATOM     86  F   UNL A   1      40.248  26.539  26.317  1.00  0.00    -0.200 F 
ENDBRANCH  52  76
BRANCH  64  87
ATOM     87  C   UNL A   1      44.476  28.615  35.470  1.00  0.00     0.064 A 
ATOM     88  C   UNL A   1      45.782  29.022  35.161  1.00  0.00     0.173 A 
ATOM     89  C   UNL A   1      44.311  27.420  36.188  1.00  0.00     0.173 A 
ATOM     90  F   UNL A   1      45.989  30.147  34.460  1.00  0.00    -0.203 F 
ATOM     91  C   UNL A   1      46.879  28.253  35.542  1.00  0.00     0.198 A 
ATOM     92  C   UNL A   1      45.411  26.667  36.588  1.00  0.00     0.198 A 
ATOM     93  F   UNL A   1      43.081  26.990  36.510  1.00  0.00    -0.203 F 
ATOM     94  F   UNL A   1      48.116  28.641  35.204  1.00  0.00    -0.200 F 
ATOM     95  C   UNL A   1      46.693  27.081  36.261  1.00  0.00     0.200 A 
ATOM     96  F   UNL A   1      45.229  25.540  37.289  1.00  0.00    -0.200 F 
ATOM     97  F   UNL A   1      47.750  26.347  36.633  1.00  0.00    -0.200 F 
ENDBRANCH  64  87
ENDBRANCH  38  39
ENDBRANCH  30  33
ENDBRANCH  28  29
ENDBRANCH  27  28
ENDBRANCH  26  27
ENDBRANCH   1  26
TORSDOF 16
ENDMDL
MODEL 2
REMARK VINA RESULT:     -11.6      7.672     13.148
REMARK SMILES O=C(NC[C@@H]1CC[C@H](C(=O)NCCCCCCNC(=O)c2ccc(-c3c4nc(c(-c5c(F)c(F)c(F)c(F)c5F)c5ccc([nH]5)c(-c5c(F)c(F)c(F)c(F)c5F)c5nc(c(-c6c(F)c(F)c(F)c(F)c6F)c6ccc3[nH]6)C=C5)C=C4)cc2)O1)Nc1ncccn1
REMARK SMILES IDX 14 1 13 2 12 3 11 4 9 5 10 6 8 8 5 9 6 10 84 11 7 12 4 13
REMARK SMILES IDX 3 14 1 15 2 16 85 17 86 20 87 21 91 22 88 23 90 24 89 25
REMARK SMILES IDX 15 26 16 27 17 28 18 29 19 30 20 32 21 33 22 34 83 35 23 36
REMARK SMILES IDX 82 37 24 38 25 39 26 40 76 41 27 42 81 43 75 44 77 45 28 46
REMARK SMILES IDX 80 47 74 48 73 49 29 51 61 52 41 53 60 54 42 55 45 56 59 57
REMARK SMILES IDX 78 58 43 59 44 60 58 62 79 63 46 64 30 65 31 66 39 67 32 68
REMARK SMILES IDX 33 69 37 70 40 71 34 72 35 73 38 74 36 75 62 76 63 77 71 78
REMARK SMILES IDX 64 79 65 80 69 81 72 82 66 83 67 84 70 85 68 86 47 87 48 88
REMARK SMILES IDX 56 89 49 90 50 91 54 92 57 93 51 94 52 95 55 96 53 97
REMARK H PARENT 11 7 3 18 85 19 18 31 77 50 45 61
REMARK Flexibility Score: inf
ROOT
ATOM      1  C   UNL A   1      41.994  21.588  27.323  1.00  0.00     0.002 C 
ENDROOT
BRANCH   1   2
ATOM      2  C   UNL A   1      41.176  22.142  26.149  1.00  0.00     0.021 C 
BRANCH   2   3
ATOM      3  C   UNL A   1      39.673  22.234  26.423  1.00  0.00     0.116 C 
BRANCH   3   4
ATOM      4  N   UNL A   1      38.946  21.178  25.747  1.00  0.00    -0.354 N 
ATOM      5  C   UNL A   1      37.755  21.213  25.083  1.00  0.00     0.249 C 
ATOM      6  O   UNL A   1      37.330  20.148  24.623  1.00  0.00    -0.272 OA
ATOM      7  H   UNL A   1      39.381  20.296  25.772  1.00  0.00     0.163 HD
BRANCH   5   8
ATOM      8  C   UNL A   1      36.936  22.511  24.933  1.00  0.00     0.207 C 
ATOM      9  C   UNL A   1      34.727  23.227  24.893  1.00  0.00     0.138 C 
ATOM     10  C   UNL A   1      35.101  22.955  23.444  1.00  0.00     0.037 C 
ATOM     11  O   UNL A   1      35.714  22.538  25.677  1.00  0.00    -0.363 OA
ATOM     12  C   UNL A   1      36.610  22.871  23.488  1.00  0.00     0.045 C 
BRANCH   9  13
ATOM     13  C   UNL A   1      33.336  22.740  25.314  1.00  0.00     0.149 C 
BRANCH  13  14
ATOM     14  N   UNL A   1      32.655  22.009  24.262  1.00  0.00    -0.335 N 
ATOM     15  O   UNL A   1      32.212  20.290  22.941  1.00  0.00    -0.248 OA
ATOM     16  C   UNL A   1      32.615  20.664  24.039  1.00  0.00     0.321 C 
ATOM     17  N   UNL A   1      33.001  19.880  25.075  1.00  0.00    -0.276 N 
ATOM     18  H   UNL A   1      32.152  22.558  23.620  1.00  0.00     0.165 HD
ATOM     19  H   UNL A   1      33.201  20.326  25.929  1.00  0.00     0.175 HD
BRANCH  17  20
ATOM     20  C   UNL A   1      33.136  18.505  25.031  1.00  0.00     0.230 A 
ATOM     21  N   UNL A   1      34.160  18.082  24.271  1.00  0.00    -0.221 NA
ATOM     22  N   UNL A   1      32.300  17.700  25.695  1.00  0.00    -0.221 NA
ATOM     23  C   UNL A   1      34.403  16.761  24.281  1.00  0.00     0.117 A 
ATOM     24  C   UNL A   1      32.575  16.390  25.672  1.00  0.00     0.117 A 
ATOM     25  C   UNL A   1      33.641  15.867  24.986  1.00  0.00     0.040 A 
ENDBRANCH  17  20
ENDBRANCH  13  14
ENDBRANCH   9  13
ENDBRANCH   5   8
ENDBRANCH   3   4
ENDBRANCH   2   3
ENDBRANCH   1   2
BRANCH   1  26
ATOM     26  C   UNL A   1      41.910  20.069  27.536  1.00  0.00     0.002 C 
BRANCH  26  27
ATOM     27  C   UNL A   1      42.214  19.207  26.305  1.00  0.00     0.021 C 
BRANCH  27  28
ATOM     28  C   UNL A   1      43.598  18.555  26.295  1.00  0.00     0.116 C 
BRANCH  28  29
ATOM     29  N   UNL A   1      44.135  18.447  24.947  1.00  0.00    -0.352 N 
ATOM     30  C   UNL A   1      44.594  19.408  24.080  1.00  0.00     0.251 C 
ATOM     31  H   UNL A   1      44.176  17.528  24.596  1.00  0.00     0.163 HD
ATOM     32  O   UNL A   1      44.803  19.108  22.907  1.00  0.00    -0.269 OA
BRANCH  30  33
ATOM     33  C   UNL A   1      44.837  20.807  24.514  1.00  0.00     0.039 A 
ATOM     34  C   UNL A   1      44.542  21.845  23.619  1.00  0.00     0.014 A 
ATOM     35  C   UNL A   1      45.422  21.115  25.742  1.00  0.00     0.014 A 
ATOM     36  C   UNL A   1      44.773  23.181  23.975  1.00  0.00     0.010 A 
ATOM     37  C   UNL A   1      45.606  22.451  26.117  1.00  0.00     0.010 A 
ATOM     38  C   UNL A   1      45.272  23.506  25.244  1.00  0.00    -0.014 A 
BRANCH  38  39
ATOM     39  C   UNL A   1      45.424  24.924  25.691  1.00  0.00     0.031 A 
ATOM     40  C   UNL A   1      46.782  25.580  25.704  1.00  0.00     0.074 A 
ATOM     41  C   UNL A   1      44.368  25.610  26.183  1.00  0.00     0.049 A 
ATOM     42  N   UNL A   1      47.133  26.757  26.164  1.00  0.00    -0.248 NA
ATOM     43  C   UNL A   1      47.897  24.801  25.144  1.00  0.00     0.031 C 
ATOM     44  C   UNL A   1      42.992  25.119  26.267  1.00  0.00     0.029 A 
ATOM     45  N   UNL A   1      44.298  26.865  26.744  1.00  0.00    -0.354 N 
ATOM     46  C   UNL A   1      48.503  26.850  25.967  1.00  0.00     0.074 A 
ATOM     47  C   UNL A   1      48.932  25.588  25.397  1.00  0.00     0.031 C 
ATOM     48  C   UNL A   1      42.228  26.036  26.880  1.00  0.00     0.029 A 
ATOM     49  C   UNL A   1      43.052  27.189  27.225  1.00  0.00     0.049 A 
ATOM     50  H   UNL A   1      45.070  27.473  26.796  1.00  0.00     0.167 HD
ATOM     51  C   UNL A   1      49.330  27.897  26.201  1.00  0.00     0.037 A 
ATOM     52  C   UNL A   1      42.612  28.287  27.869  1.00  0.00     0.037 A 
ATOM     53  C   UNL A   1      48.914  29.177  26.710  1.00  0.00     0.049 A 
ATOM     54  C   UNL A   1      43.544  29.441  28.110  1.00  0.00     0.074 A 
ATOM     55  C   UNL A   1      49.669  30.326  26.876  1.00  0.00     0.029 A 
ATOM     56  N   UNL A   1      47.630  29.479  27.133  1.00  0.00    -0.354 N 
ATOM     57  N   UNL A   1      44.817  29.548  27.823  1.00  0.00    -0.248 NA
ATOM     58  C   UNL A   1      42.968  30.639  28.740  1.00  0.00     0.031 C 
ATOM     59  C   UNL A   1      48.848  31.316  27.429  1.00  0.00     0.029 A 
ATOM     60  C   UNL A   1      47.576  30.792  27.576  1.00  0.00     0.049 A 
ATOM     61  H   UNL A   1      46.870  28.855  27.123  1.00  0.00     0.167 HD
ATOM     62  C   UNL A   1      45.183  30.834  28.195  1.00  0.00     0.074 A 
ATOM     63  C   UNL A   1      44.000  31.472  28.732  1.00  0.00     0.031 C 
ATOM     64  C   UNL A   1      46.393  31.433  28.088  1.00  0.00     0.037 A 
BRANCH  51  65
ATOM     65  C   UNL A   1      50.783  27.713  25.877  1.00  0.00     0.064 A 
ATOM     66  C   UNL A   1      51.713  27.357  26.865  1.00  0.00     0.173 A 
ATOM     67  C   UNL A   1      51.244  27.856  24.559  1.00  0.00     0.173 A 
ATOM     68  F   UNL A   1      51.321  27.218  28.140  1.00  0.00    -0.203 F 
ATOM     69  C   UNL A   1      53.057  27.181  26.552  1.00  0.00     0.198 A 
ATOM     70  C   UNL A   1      52.585  27.653  24.246  1.00  0.00     0.198 A 
ATOM     71  F   UNL A   1      50.392  28.186  23.577  1.00  0.00    -0.203 F 
ATOM     72  F   UNL A   1      53.935  26.888  27.520  1.00  0.00    -0.200 F 
ATOM     73  C   UNL A   1      53.491  27.324  25.243  1.00  0.00     0.200 A 
ATOM     74  F   UNL A   1      53.002  27.780  22.978  1.00  0.00    -0.200 F 
ATOM     75  F   UNL A   1      54.786  27.151  24.943  1.00  0.00    -0.200 F 
ENDBRANCH  51  65
BRANCH  52  76
ATOM     76  C   UNL A   1      41.192  28.375  28.294  1.00  0.00     0.064 A 
ATOM     77  C   UNL A   1      40.218  28.898  27.432  1.00  0.00     0.173 A 
ATOM     78  C   UNL A   1      40.787  27.958  29.568  1.00  0.00     0.173 A 
ATOM     79  F   UNL A   1      40.567  29.327  26.211  1.00  0.00    -0.203 F 
ATOM     80  C   UNL A   1      38.892  29.021  27.839  1.00  0.00     0.198 A 
ATOM     81  C   UNL A   1      39.456  28.064  29.967  1.00  0.00     0.198 A 
ATOM     82  F   UNL A   1      41.684  27.448  30.424  1.00  0.00    -0.203 F 
ATOM     83  F   UNL A   1      37.987  29.560  27.011  1.00  0.00    -0.200 F 
ATOM     84  C   UNL A   1      38.511  28.601  29.105  1.00  0.00     0.200 A 
ATOM     85  F   UNL A   1      39.089  27.652  31.188  1.00  0.00    -0.200 F 
ATOM     86  F   UNL A   1      37.235  28.723  29.497  1.00  0.00    -0.200 F 
ENDBRANCH  52  76
BRANCH  64  87
ATOM     87  C   UNL A   1      46.496  32.868  28.509  1.00  0.00     0.064 A 
ATOM     88  C   UNL A   1      46.248  33.918  27.615  1.00  0.00     0.173 A 
ATOM     89  C   UNL A   1      46.807  33.194  29.839  1.00  0.00     0.173 A 
ATOM     90  F   UNL A   1      45.965  33.657  26.330  1.00  0.00    -0.203 F 
ATOM     91  C   UNL A   1      46.324  35.245  28.032  1.00  0.00     0.198 A 
ATOM     92  C   UNL A   1      46.859  34.520  30.257  1.00  0.00     0.198 A 
ATOM     93  F   UNL A   1      47.050  32.224  30.733  1.00  0.00    -0.203 F 
ATOM     94  F   UNL A   1      46.120  36.235  27.152  1.00  0.00    -0.200 F 
ATOM     95  C   UNL A   1      46.622  35.545  29.354  1.00  0.00     0.200 A 
ATOM     96  F   UNL A   1      47.139  34.807  31.536  1.00  0.00    -0.200 F 
ATOM     97  F   UNL A   1      46.688  36.822  29.754  1.00  0.00    -0.200 F 
ENDBRANCH  64  87
ENDBRANCH  38  39
ENDBRANCH  30  33
ENDBRANCH  28  29
ENDBRANCH  27  28
ENDBRANCH  26  27
ENDBRANCH   1  26
TORSDOF 16
ENDMDL
MODEL 3
REMARK VINA RESULT:     -11.3      0.686      2.065
REMARK SMILES O=C(NC[C@@H]1CC[C@H](C(=O)NCCCCCCNC(=O)c2ccc(-c3c4nc(c(-c5c(F)c(F)c(F)c(F)c5F)c5ccc([nH]5)c(-c5c(F)c(F)c(F)c(F)c5F)c5nc(c(-c6c(F)c(F)c(F)c(F)c6F)c6ccc3[nH]6)C=C5)C=C4)cc2)O1)Nc1ncccn1
REMARK SMILES IDX 14 1 13 2 12 3 11 4 9 5 10 6 8 8 5 9 6 10 84 11 7 12 4 13
REMARK SMILES IDX 3 14 1 15 2 16 85 17 86 20 87 21 91 22 88 23 90 24 89 25
REMARK SMILES IDX 15 26 16 27 17 28 18 29 19 30 20 32 21 33 22 34 83 35 23 36
REMARK SMILES IDX 82 37 24 38 25 39 26 40 76 41 27 42 81 43 75 44 77 45 28 46
REMARK SMILES IDX 80 47 74 48 73 49 29 51 61 52 41 53 60 54 42 55 45 56 59 57
REMARK SMILES IDX 78 58 43 59 44 60 58 62 79 63 46 64 30 65 31 66 39 67 32 68
REMARK SMILES IDX 33 69 37 70 40 71 34 72 35 73 38 74 36 75 62 76 63 77 71 78
REMARK SMILES IDX 64 79 65 80 69 81 72 82 66 83 67 84 70 85 68 86 47 87 48 88
REMARK SMILES IDX 56 89 49 90 50 91 54 92 57 93 51 94 52 95 55 96 53 97
REMARK H PARENT 11 7 3 18 85 19 18 31 77 50 45 61
REMARK Flexibility Score: inf
ROOT
ATOM      1  C   UNL A   1      35.442  33.729  28.654  1.00  0.00     0.002 C 
ENDROOT
BRANCH   1   2
ATOM      2  C   UNL A   1      34.679  32.565  29.302  1.00  0.00     0.021 C 
BRANCH   2   3
ATOM      3  C   UNL A   1      34.531  31.336  28.402  1.00  0.00     0.116 C 
BRANCH   3   4
ATOM      4  N   UNL A   1      33.345  31.424  27.575  1.00  0.00    -0.354 N 
ATOM      5  C   UNL A   1      32.597  30.441  26.998  1.00  0.00     0.249 C 
ATOM      6  O   UNL A   1      31.642  30.791  26.297  1.00  0.00    -0.272 OA
ATOM      7  H   UNL A   1      33.030  32.340  27.402  1.00  0.00     0.163 HD
BRANCH   5   8
ATOM      8  C   UNL A   1      32.934  28.945  27.169  1.00  0.00     0.207 C 
ATOM      9  C   UNL A   1      32.891  26.962  25.961  1.00  0.00     0.138 C 
ATOM     10  C   UNL A   1      31.553  27.039  26.681  1.00  0.00     0.037 C 
ATOM     11  O   UNL A   1      33.413  28.300  25.985  1.00  0.00    -0.363 OA
ATOM     12  C   UNL A   1      31.782  28.113  27.720  1.00  0.00     0.045 C 
BRANCH   9  13
ATOM     13  C   UNL A   1      32.827  26.485  24.506  1.00  0.00     0.149 C 
BRANCH  13  14
ATOM     14  N   UNL A   1      32.957  27.570  23.553  1.00  0.00    -0.335 N 
ATOM     15  O   UNL A   1      32.273  29.092  22.100  1.00  0.00    -0.248 OA
ATOM     16  C   UNL A   1      32.005  28.437  23.104  1.00  0.00     0.321 C 
ATOM     17  N   UNL A   1      30.869  28.502  23.838  1.00  0.00    -0.276 N 
ATOM     18  H   UNL A   1      33.858  27.700  23.178  1.00  0.00     0.165 HD
ATOM     19  H   UNL A   1      30.844  27.988  24.677  1.00  0.00     0.175 HD
BRANCH  17  20
ATOM     20  C   UNL A   1      29.742  29.230  23.507  1.00  0.00     0.230 A 
ATOM     21  N   UNL A   1      29.799  30.521  23.878  1.00  0.00    -0.221 NA
ATOM     22  N   UNL A   1      28.705  28.665  22.880  1.00  0.00    -0.221 NA
ATOM     23  C   UNL A   1      28.776  31.298  23.484  1.00  0.00     0.117 A 
ATOM     24  C   UNL A   1      27.704  29.476  22.513  1.00  0.00     0.117 A 
ATOM     25  C   UNL A   1      27.703  30.820  22.778  1.00  0.00     0.040 A 
ENDBRANCH  17  20
ENDBRANCH  13  14
ENDBRANCH   9  13
ENDBRANCH   5   8
ENDBRANCH   3   4
ENDBRANCH   2   3
ENDBRANCH   1   2
BRANCH   1  26
ATOM     26  C   UNL A   1      34.576  34.892  28.148  1.00  0.00     0.002 C 
BRANCH  26  27
ATOM     27  C   UNL A   1      33.295  35.164  28.944  1.00  0.00     0.021 C 
BRANCH  27  28
ATOM     28  C   UNL A   1      33.272  36.492  29.703  1.00  0.00     0.116 C 
BRANCH  28  29
ATOM     29  N   UNL A   1      32.429  36.423  30.887  1.00  0.00    -0.352 N 
ATOM     30  C   UNL A   1      32.519  35.641  32.013  1.00  0.00     0.251 C 
ATOM     31  H   UNL A   1      31.665  37.043  30.881  1.00  0.00     0.163 HD
ATOM     32  O   UNL A   1      31.570  35.602  32.793  1.00  0.00    -0.269 OA
BRANCH  30  33
ATOM     33  C   UNL A   1      33.725  34.828  32.311  1.00  0.00     0.039 A 
ATOM     34  C   UNL A   1      34.985  35.383  32.054  1.00  0.00     0.014 A 
ATOM     35  C   UNL A   1      33.641  33.508  32.757  1.00  0.00     0.014 A 
ATOM     36  C   UNL A   1      36.153  34.647  32.300  1.00  0.00     0.010 A 
ATOM     37  C   UNL A   1      34.808  32.791  33.050  1.00  0.00     0.010 A 
ATOM     38  C   UNL A   1      36.082  33.354  32.838  1.00  0.00    -0.014 A 
BRANCH  38  39
ATOM     39  C   UNL A   1      37.310  32.589  33.212  1.00  0.00     0.031 A 
ATOM     40  C   UNL A   1      38.070  32.932  34.469  1.00  0.00     0.074 A 
ATOM     41  C   UNL A   1      37.815  31.647  32.386  1.00  0.00     0.049 A 
ATOM     42  N   UNL A   1      39.215  32.463  34.902  1.00  0.00    -0.248 NA
ATOM     43  C   UNL A   1      37.473  33.952  35.345  1.00  0.00     0.031 C 
ATOM     44  C   UNL A   1      37.222  31.210  31.121  1.00  0.00     0.029 A 
ATOM     45  N   UNL A   1      38.973  30.908  32.472  1.00  0.00    -0.354 N 
ATOM     46  C   UNL A   1      39.483  33.140  36.084  1.00  0.00     0.074 A 
ATOM     47  C   UNL A   1      38.409  34.094  36.272  1.00  0.00     0.031 C 
ATOM     48  C   UNL A   1      38.035  30.319  30.532  1.00  0.00     0.029 A 
ATOM     49  C   UNL A   1      39.204  30.107  31.379  1.00  0.00     0.049 A 
ATOM     50  H   UNL A   1      39.581  30.949  33.246  1.00  0.00     0.167 HD
ATOM     51  C   UNL A   1      40.505  32.966  36.956  1.00  0.00     0.037 A 
ATOM     52  C   UNL A   1      40.232  29.290  31.083  1.00  0.00     0.037 A 
ATOM     53  C   UNL A   1      41.547  31.984  36.816  1.00  0.00     0.049 A 
ATOM     54  C   UNL A   1      41.352  29.104  32.069  1.00  0.00     0.074 A 
ATOM     55  C   UNL A   1      42.560  31.669  37.706  1.00  0.00     0.029 A 
ATOM     56  N   UNL A   1      41.711  31.156  35.717  1.00  0.00    -0.354 N 
ATOM     57  N   UNL A   1      41.534  29.682  33.230  1.00  0.00    -0.248 NA
ATOM     58  C   UNL A   1      42.394  28.130  31.713  1.00  0.00     0.031 C 
ATOM     59  C   UNL A   1      43.356  30.671  37.133  1.00  0.00     0.029 A 
ATOM     60  C   UNL A   1      42.818  30.342  35.901  1.00  0.00     0.049 A 
ATOM     61  H   UNL A   1      41.129  31.148  34.924  1.00  0.00     0.167 HD
ATOM     62  C   UNL A   1      42.682  29.112  33.761  1.00  0.00     0.074 A 
ATOM     63  C   UNL A   1      43.159  28.144  32.796  1.00  0.00     0.031 C 
ATOM     64  C   UNL A   1      43.278  29.363  34.951  1.00  0.00     0.037 A 
BRANCH  51  65
ATOM     65  C   UNL A   1      40.532  33.845  38.170  1.00  0.00     0.064 A 
ATOM     66  C   UNL A   1      39.792  33.528  39.319  1.00  0.00     0.173 A 
ATOM     67  C   UNL A   1      41.334  34.996  38.200  1.00  0.00     0.173 A 
ATOM     68  F   UNL A   1      39.003  32.443  39.334  1.00  0.00    -0.203 F 
ATOM     69  C   UNL A   1      39.829  34.347  40.442  1.00  0.00     0.198 A 
ATOM     70  C   UNL A   1      41.389  35.798  39.337  1.00  0.00     0.198 A 
ATOM     71  F   UNL A   1      42.068  35.336  37.130  1.00  0.00    -0.203 F 
ATOM     72  F   UNL A   1      39.077  34.050  41.511  1.00  0.00    -0.200 F 
ATOM     73  C   UNL A   1      40.631  35.478  40.453  1.00  0.00     0.200 A 
ATOM     74  F   UNL A   1      42.174  36.885  39.350  1.00  0.00    -0.200 F 
ATOM     75  F   UNL A   1      40.669  36.264  41.538  1.00  0.00    -0.200 F 
ENDBRANCH  51  65
BRANCH  52  76
ATOM     76  C   UNL A   1      40.233  28.535  29.805  1.00  0.00     0.064 A 
ATOM     77  C   UNL A   1      39.543  27.321  29.689  1.00  0.00     0.173 A 
ATOM     78  C   UNL A   1      40.935  29.001  28.685  1.00  0.00     0.173 A 
ATOM     79  F   UNL A   1      38.875  26.830  30.743  1.00  0.00    -0.203 F 
ATOM     80  C   UNL A   1      39.572  26.588  28.506  1.00  0.00     0.198 A 
ATOM     81  C   UNL A   1      40.949  28.276  27.495  1.00  0.00     0.198 A 
ATOM     82  F   UNL A   1      41.606  30.160  28.749  1.00  0.00    -0.203 F 
ATOM     83  F   UNL A   1      38.937  25.412  28.433  1.00  0.00    -0.200 F 
ATOM     84  C   UNL A   1      40.273  27.068  27.408  1.00  0.00     0.200 A 
ATOM     85  F   UNL A   1      41.620  28.744  26.434  1.00  0.00    -0.200 F 
ATOM     86  F   UNL A   1      40.304  26.360  26.270  1.00  0.00    -0.200 F 
ENDBRANCH  52  76
BRANCH  64  87
ATOM     87  C   UNL A   1      44.484  28.547  35.309  1.00  0.00     0.064 A 
ATOM     88  C   UNL A   1      44.373  27.327  35.990  1.00  0.00     0.173 A 
ATOM     89  C   UNL A   1      45.766  28.974  34.925  1.00  0.00     0.173 A 
ATOM     90  F   UNL A   1      43.172  26.887  36.393  1.00  0.00    -0.203 F 
ATOM     91  C   UNL A   1      45.504  26.572  36.291  1.00  0.00     0.198 A 
ATOM     92  C   UNL A   1      46.891  28.204  35.207  1.00  0.00     0.198 A 
ATOM     93  F   UNL A   1      45.924  30.133  34.269  1.00  0.00    -0.203 F 
ATOM     94  F   UNL A   1      45.379  25.427  36.977  1.00  0.00    -0.200 F 
ATOM     95  C   UNL A   1      46.760  27.007  35.894  1.00  0.00     0.200 A 
ATOM     96  F   UNL A   1      48.102  28.622  34.815  1.00  0.00    -0.200 F 
ATOM     97  F   UNL A   1      47.845  26.274  36.178  1.00  0.00    -0.200 F 
ENDBRANCH  64  87
ENDBRANCH  38  39
ENDBRANCH  30  33
ENDBRANCH  28  29
ENDBRANCH  27  28
ENDBRANCH  26  27
ENDBRANCH   1  26
TORSDOF 16
ENDMDL
