MODEL 1
REMARK VINA RESULT:      -9.6      0.000      0.000
REMARK SMILES CNC(=O)c1cccc(-c2cnc(O)c(C(=O)NCCCCCCNC(=O)c3ccc(-c4c5nc(c(-c6c(F)c(F)c(F)c(F)c6F)c6ccc([nH]6)c(-c6c(F)c(F)c(F)c(F)c6F)c6nc(c(-c7c(F)c(F)c(F)c(F)c7F)c7ccc4[nH]7)C=C6)C=C5)cc3)c2)c1
REMARK SMILES IDX 21 1 20 2 19 3 18 4 16 5 17 6 15 8 10 9 11 10 91 11 12 12
REMARK SMILES IDX 13 13 9 14 5 15 6 16 92 17 7 18 8 19 3 20 1 21 2 22 4 24
REMARK SMILES IDX 14 25 22 27 23 28 24 29 25 30 26 31 27 33 28 34 29 35 90 36
REMARK SMILES IDX 30 37 89 38 31 39 32 40 33 41 83 42 34 43 88 44 82 45 84 46
REMARK SMILES IDX 35 47 87 48 81 49 80 50 36 52 68 53 48 54 67 55 49 56 52 57
REMARK SMILES IDX 66 58 85 59 50 60 51 61 65 63 86 64 53 65 37 66 38 67 46 68
REMARK SMILES IDX 39 69 40 70 44 71 47 72 41 73 42 74 45 75 43 76 69 77 70 78
REMARK SMILES IDX 78 79 71 80 72 81 76 82 79 83 73 84 74 85 77 86 75 87 54 88
REMARK SMILES IDX 55 89 63 90 56 91 57 92 61 93 64 94 58 95 59 96 62 97 60 98
REMARK H PARENT 18 7 2 23 14 26 25 32 84 51 52 62
REMARK Flexibility Score: inf
ROOT
ATOM      1  C   UNL A   1      36.963  32.998  29.708  1.00  0.00     0.002 C 
ENDROOT
BRANCH   1   2
ATOM      2  C   UNL A   1      38.062  34.049  29.492  1.00  0.00     0.021 C 
BRANCH   2   3
ATOM      3  C   UNL A   1      38.680  34.537  30.805  1.00  0.00     0.116 C 
BRANCH   3   4
ATOM      4  N   UNL A   1      37.632  34.943  31.726  1.00  0.00    -0.352 N 
ATOM      5  C   UNL A   1      37.306  34.579  33.008  1.00  0.00     0.256 C 
ATOM      6  O   UNL A   1      36.326  35.123  33.525  1.00  0.00    -0.269 OA
ATOM      7  H   UNL A   1      37.028  35.624  31.352  1.00  0.00     0.163 HD
BRANCH   5   8
ATOM      8  C   UNL A   1      38.099  33.646  33.843  1.00  0.00     0.102 A 
ATOM      9  C   UNL A   1      39.042  31.461  34.323  1.00  0.00     0.001 A 
ATOM     10  C   UNL A   1      39.876  32.080  35.243  1.00  0.00     0.124 A 
ATOM     11  C   UNL A   1      38.078  32.262  33.698  1.00  0.00     0.029 A 
ATOM     12  N   UNL A   1      39.841  33.404  35.517  1.00  0.00    -0.221 NA
ATOM     13  C   UNL A   1      38.979  34.160  34.799  1.00  0.00     0.223 A 
BRANCH   9  14
ATOM     14  C   UNL A   1      39.250  30.091  33.854  1.00  0.00    -0.016 A 
ATOM     15  C   UNL A   1      40.792  28.211  33.603  1.00  0.00     0.040 A 
ATOM     16  C   UNL A   1      39.819  27.519  32.879  1.00  0.00     0.014 A 
ATOM     17  C   UNL A   1      40.511  29.497  34.067  1.00  0.00     0.022 A 
ATOM     18  C   UNL A   1      38.563  28.093  32.666  1.00  0.00     0.001 A 
ATOM     19  C   UNL A   1      38.275  29.370  33.159  1.00  0.00     0.009 A 
BRANCH  15  20
ATOM     20  C   UNL A   1      42.141  27.615  33.751  1.00  0.00     0.251 C 
ATOM     21  C   UNL A   1      41.910  27.025  36.226  1.00  0.00     0.143 C 
ATOM     22  N   UNL A   1      42.603  27.184  34.968  1.00  0.00    -0.355 N 
ATOM     23  H   UNL A   1      43.559  26.947  34.988  1.00  0.00     0.163 HD
ATOM     24  O   UNL A   1      42.861  27.520  32.761  1.00  0.00    -0.269 OA
ENDBRANCH  15  20
ENDBRANCH   9  14
BRANCH  13  25
ATOM     25  O   UNL A   1      39.075  35.494  35.083  1.00  0.00    -0.493 OA
ATOM     26  H   UNL A   1      38.522  35.876  35.735  1.00  0.00     0.295 HD
ENDBRANCH  13  25
ENDBRANCH   5   8
ENDBRANCH   3   4
ENDBRANCH   2   3
ENDBRANCH   1   2
BRANCH   1  27
ATOM     27  C   UNL A   1      35.563  33.579  29.947  1.00  0.00     0.002 C 
BRANCH  27  28
ATOM     28  C   UNL A   1      34.406  32.686  29.488  1.00  0.00     0.021 C 
BRANCH  28  29
ATOM     29  C   UNL A   1      34.402  32.389  27.991  1.00  0.00     0.116 C 
BRANCH  29  30
ATOM     30  N   UNL A   1      33.848  31.073  27.707  1.00  0.00    -0.352 N 
ATOM     31  C   UNL A   1      34.484  29.861  27.605  1.00  0.00     0.251 C 
ATOM     32  H   UNL A   1      32.873  31.049  27.568  1.00  0.00     0.163 HD
ATOM     33  O   UNL A   1      33.906  28.897  27.116  1.00  0.00    -0.269 OA
BRANCH  31  34
ATOM     34  C   UNL A   1      35.878  29.726  28.071  1.00  0.00     0.039 A 
ATOM     35  C   UNL A   1      36.117  29.329  29.389  1.00  0.00     0.014 A 
ATOM     36  C   UNL A   1      36.946  29.988  27.208  1.00  0.00     0.014 A 
ATOM     37  C   UNL A   1      37.429  29.113  29.818  1.00  0.00     0.010 A 
ATOM     38  C   UNL A   1      38.247  29.709  27.615  1.00  0.00     0.010 A 
ATOM     39  C   UNL A   1      38.499  29.255  28.919  1.00  0.00    -0.014 A 
BRANCH  39  40
ATOM     40  C   UNL A   1      39.880  28.875  29.304  1.00  0.00     0.031 A 
ATOM     41  C   UNL A   1      40.740  29.814  30.098  1.00  0.00     0.074 A 
ATOM     42  C   UNL A   1      40.384  27.706  28.861  1.00  0.00     0.049 A 
ATOM     43  N   UNL A   1      41.994  29.689  30.453  1.00  0.00    -0.248 NA
ATOM     44  C   UNL A   1      40.116  31.072  30.533  1.00  0.00     0.031 C 
ATOM     45  C   UNL A   1      39.659  26.732  28.043  1.00  0.00     0.029 A 
ATOM     46  N   UNL A   1      41.626  27.146  29.020  1.00  0.00    -0.354 N 
ATOM     47  C   UNL A   1      42.310  30.850  31.145  1.00  0.00     0.074 A 
ATOM     48  C   UNL A   1      41.132  31.690  31.119  1.00  0.00     0.031 C 
ATOM     49  C   UNL A   1      40.463  25.690  27.784  1.00  0.00     0.029 A 
ATOM     50  C   UNL A   1      41.772  25.941  28.378  1.00  0.00     0.049 A 
ATOM     51  H   UNL A   1      42.346  27.567  29.544  1.00  0.00     0.167 HD
ATOM     52  C   UNL A   1      43.472  31.173  31.761  1.00  0.00     0.037 A 
ATOM     53  C   UNL A   1      42.846  25.137  28.261  1.00  0.00     0.037 A 
ATOM     54  C   UNL A   1      44.639  30.327  31.787  1.00  0.00     0.049 A 
ATOM     55  C   UNL A   1      44.137  25.541  28.922  1.00  0.00     0.074 A 
ATOM     56  C   UNL A   1      45.841  30.536  32.438  1.00  0.00     0.029 A 
ATOM     57  N   UNL A   1      44.750  29.114  31.121  1.00  0.00    -0.354 N 
ATOM     58  N   UNL A   1      44.400  26.603  29.642  1.00  0.00    -0.248 NA
ATOM     59  C   UNL A   1      45.278  24.632  28.752  1.00  0.00     0.031 C 
ATOM     60  C   UNL A   1      46.702  29.481  32.119  1.00  0.00     0.029 A 
ATOM     61  C   UNL A   1      46.017  28.584  31.315  1.00  0.00     0.049 A 
ATOM     62  H   UNL A   1      44.037  28.693  30.590  1.00  0.00     0.167 HD
ATOM     63  C   UNL A   1      45.729  26.484  30.025  1.00  0.00     0.074 A 
ATOM     64  C   UNL A   1      46.210  25.232  29.478  1.00  0.00     0.031 C 
ATOM     65  C   UNL A   1      46.484  27.338  30.759  1.00  0.00     0.037 A 
BRANCH  52  66
ATOM     66  C   UNL A   1      43.546  32.501  32.456  1.00  0.00     0.064 A 
ATOM     67  C   UNL A   1      43.798  33.689  31.751  1.00  0.00     0.173 A 
ATOM     68  C   UNL A   1      43.314  32.598  33.837  1.00  0.00     0.173 A 
ATOM     69  F   UNL A   1      44.037  33.652  30.431  1.00  0.00    -0.203 F 
ATOM     70  C   UNL A   1      43.843  34.918  32.406  1.00  0.00     0.198 A 
ATOM     71  C   UNL A   1      43.327  33.831  34.483  1.00  0.00     0.198 A 
ATOM     72  F   UNL A   1      43.059  31.496  34.559  1.00  0.00    -0.203 F 
ATOM     73  F   UNL A   1      44.132  36.031  31.718  1.00  0.00    -0.200 F 
ATOM     74  C   UNL A   1      43.598  34.989  33.769  1.00  0.00     0.200 A 
ATOM     75  F   UNL A   1      43.076  33.900  35.798  1.00  0.00    -0.200 F 
ATOM     76  F   UNL A   1      43.631  36.173  34.395  1.00  0.00    -0.200 F 
ENDBRANCH  52  66
BRANCH  53  77
ATOM     77  C   UNL A   1      42.746  23.868  27.493  1.00  0.00     0.064 A 
ATOM     78  C   UNL A   1      42.267  22.699  28.096  1.00  0.00     0.173 A 
ATOM     79  C   UNL A   1      43.128  23.798  26.145  1.00  0.00     0.173 A 
ATOM     80  F   UNL A   1      41.909  22.709  29.389  1.00  0.00    -0.203 F 
ATOM     81  C   UNL A   1      42.191  21.501  27.387  1.00  0.00     0.198 A 
ATOM     82  C   UNL A   1      43.022  22.609  25.428  1.00  0.00     0.198 A 
ATOM     83  F   UNL A   1      43.592  24.890  25.521  1.00  0.00    -0.203 F 
ATOM     84  F   UNL A   1      41.774  20.386  28.001  1.00  0.00    -0.200 F 
ATOM     85  C   UNL A   1      42.561  21.459  26.052  1.00  0.00     0.200 A 
ATOM     86  F   UNL A   1      43.367  22.575  24.133  1.00  0.00    -0.200 F 
ATOM     87  F   UNL A   1      42.484  20.309  25.368  1.00  0.00    -0.200 F 
ENDBRANCH  53  77
BRANCH  65  88
ATOM     88  C   UNL A   1      47.907  26.940  31.025  1.00  0.00     0.064 A 
ATOM     89  C   UNL A   1      48.242  26.072  32.075  1.00  0.00     0.173 A 
ATOM     90  C   UNL A   1      48.943  27.405  30.200  1.00  0.00     0.173 A 
ATOM     91  F   UNL A   1      47.291  25.614  32.903  1.00  0.00    -0.203 F 
ATOM     92  C   UNL A   1      49.565  25.701  32.302  1.00  0.00     0.198 A 
ATOM     93  C   UNL A   1      50.260  27.005  30.412  1.00  0.00     0.198 A 
ATOM     94  F   UNL A   1      48.677  28.233  29.180  1.00  0.00    -0.203 F 
ATOM     95  F   UNL A   1      49.867  24.908  33.341  1.00  0.00    -0.200 F 
ATOM     96  C   UNL A   1      50.571  26.161  31.465  1.00  0.00     0.200 A 
ATOM     97  F   UNL A   1      51.229  27.439  29.593  1.00  0.00    -0.200 F 
ATOM     98  F   UNL A   1      51.842  25.795  31.681  1.00  0.00    -0.200 F 
ENDBRANCH  65  88
ENDBRANCH  39  40
ENDBRANCH  31  34
ENDBRANCH  29  30
ENDBRANCH  28  29
ENDBRANCH  27  28
ENDBRANCH   1  27
TORSDOF 16
ENDMDL
MODEL 2
REMARK VINA RESULT:      -9.5      4.867     10.158
REMARK SMILES CNC(=O)c1cccc(-c2cnc(O)c(C(=O)NCCCCCCNC(=O)c3ccc(-c4c5nc(c(-c6c(F)c(F)c(F)c(F)c6F)c6ccc([nH]6)c(-c6c(F)c(F)c(F)c(F)c6F)c6nc(c(-c7c(F)c(F)c(F)c(F)c7F)c7ccc4[nH]7)C=C6)C=C5)cc3)c2)c1
REMARK SMILES IDX 21 1 20 2 19 3 18 4 16 5 17 6 15 8 10 9 11 10 91 11 12 12
REMARK SMILES IDX 13 13 9 14 5 15 6 16 92 17 7 18 8 19 3 20 1 21 2 22 4 24
REMARK SMILES IDX 14 25 22 27 23 28 24 29 25 30 26 31 27 33 28 34 29 35 90 36
REMARK SMILES IDX 30 37 89 38 31 39 32 40 33 41 83 42 34 43 88 44 82 45 84 46
REMARK SMILES IDX 35 47 87 48 81 49 80 50 36 52 68 53 48 54 67 55 49 56 52 57
REMARK SMILES IDX 66 58 85 59 50 60 51 61 65 63 86 64 53 65 37 66 38 67 46 68
REMARK SMILES IDX 39 69 40 70 44 71 47 72 41 73 42 74 45 75 43 76 69 77 70 78
REMARK SMILES IDX 78 79 71 80 72 81 76 82 79 83 73 84 74 85 77 86 75 87 54 88
REMARK SMILES IDX 55 89 63 90 56 91 57 92 61 93 64 94 58 95 59 96 62 97 60 98
REMARK H PARENT 18 7 2 23 14 26 25 32 84 51 52 62
REMARK Flexibility Score: inf
ROOT
ATOM      1  C   UNL A   1      37.540  22.268  24.949  1.00  0.00     0.002 C 
ENDROOT
BRANCH   1   2
ATOM      2  C   UNL A   1      36.527  23.370  24.610  1.00  0.00     0.021 C 
BRANCH   2   3
ATOM      3  C   UNL A   1      35.827  23.931  25.851  1.00  0.00     0.116 C 
BRANCH   3   4
ATOM      4  N   UNL A   1      35.319  22.842  26.669  1.00  0.00    -0.352 N 
ATOM      5  C   UNL A   1      34.064  22.476  27.084  1.00  0.00     0.256 C 
ATOM      6  O   UNL A   1      33.966  21.474  27.796  1.00  0.00    -0.269 OA
ATOM      7  H   UNL A   1      36.026  22.240  26.996  1.00  0.00     0.163 HD
BRANCH   5   8
ATOM      8  C   UNL A   1      32.811  23.149  26.663  1.00  0.00     0.102 A 
ATOM      9  C   UNL A   1      31.496  25.128  26.167  1.00  0.00     0.001 A 
ATOM     10  C   UNL A   1      30.583  24.299  25.530  1.00  0.00     0.124 A 
ATOM     11  C   UNL A   1      32.568  24.510  26.823  1.00  0.00     0.029 A 
ATOM     12  N   UNL A   1      30.709  22.955  25.465  1.00  0.00    -0.221 NA
ATOM     13  C   UNL A   1      31.824  22.412  26.005  1.00  0.00     0.223 A 
BRANCH   9  14
ATOM     14  C   UNL A   1      31.487  26.584  26.022  1.00  0.00    -0.016 A 
ATOM     15  C   UNL A   1      31.311  28.503  24.518  1.00  0.00     0.040 A 
ATOM     16  C   UNL A   1      31.586  29.358  25.588  1.00  0.00     0.014 A 
ATOM     17  C   UNL A   1      31.284  27.125  24.735  1.00  0.00     0.022 A 
ATOM     18  C   UNL A   1      31.782  28.836  26.870  1.00  0.00     0.001 A 
ATOM     19  C   UNL A   1      31.724  27.455  27.088  1.00  0.00     0.009 A 
BRANCH  15  20
ATOM     20  C   UNL A   1      31.182  29.072  23.156  1.00  0.00     0.251 C 
ATOM     21  C   UNL A   1      33.612  28.684  22.465  1.00  0.00     0.143 C 
ATOM     22  N   UNL A   1      32.268  29.199  22.327  1.00  0.00    -0.355 N 
ATOM     23  H   UNL A   1      32.106  29.723  21.510  1.00  0.00     0.163 HD
ATOM     24  O   UNL A   1      30.079  29.450  22.771  1.00  0.00    -0.269 OA
ENDBRANCH  15  20
ENDBRANCH   9  14
BRANCH  13  25
ATOM     25  O   UNL A   1      31.906  21.060  25.815  1.00  0.00    -0.493 OA
ATOM     26  H   UNL A   1      32.283  20.720  25.029  1.00  0.00     0.295 HD
ENDBRANCH  13  25
ENDBRANCH   5   8
ENDBRANCH   3   4
ENDBRANCH   2   3
ENDBRANCH   1   2
BRANCH   1  27
ATOM     27  C   UNL A   1      37.013  20.838  24.767  1.00  0.00     0.002 C 
BRANCH  27  28
ATOM     28  C   UNL A   1      38.050  19.733  24.997  1.00  0.00     0.021 C 
BRANCH  28  29
ATOM     29  C   UNL A   1      39.293  20.191  25.753  1.00  0.00     0.116 C 
BRANCH  29  30
ATOM     30  N   UNL A   1      40.247  19.104  25.926  1.00  0.00    -0.352 N 
ATOM     31  C   UNL A   1      41.605  19.156  26.120  1.00  0.00     0.251 C 
ATOM     32  H   UNL A   1      39.861  18.199  25.902  1.00  0.00     0.163 HD
ATOM     33  O   UNL A   1      42.288  18.146  25.998  1.00  0.00    -0.269 OA
BRANCH  31  34
ATOM     34  C   UNL A   1      42.246  20.442  26.458  1.00  0.00     0.039 A 
ATOM     35  C   UNL A   1      42.840  21.193  25.441  1.00  0.00     0.014 A 
ATOM     36  C   UNL A   1      42.259  20.906  27.777  1.00  0.00     0.014 A 
ATOM     37  C   UNL A   1      43.373  22.450  25.733  1.00  0.00     0.010 A 
ATOM     38  C   UNL A   1      42.730  22.185  28.055  1.00  0.00     0.010 A 
ATOM     39  C   UNL A   1      43.277  22.975  27.032  1.00  0.00    -0.014 A 
BRANCH  39  40
ATOM     40  C   UNL A   1      43.688  24.370  27.329  1.00  0.00     0.031 A 
ATOM     41  C   UNL A   1      42.686  25.376  27.815  1.00  0.00     0.074 A 
ATOM     42  C   UNL A   1      44.957  24.746  27.076  1.00  0.00     0.049 A 
ATOM     43  N   UNL A   1      42.843  26.655  28.044  1.00  0.00    -0.248 NA
ATOM     44  C   UNL A   1      41.321  24.885  28.056  1.00  0.00     0.031 C 
ATOM     45  C   UNL A   1      46.008  23.868  26.557  1.00  0.00     0.029 A 
ATOM     46  N   UNL A   1      45.575  25.964  27.203  1.00  0.00    -0.354 N 
ATOM     47  C   UNL A   1      41.600  27.123  28.448  1.00  0.00     0.074 A 
ATOM     48  C   UNL A   1      40.687  26.001  28.387  1.00  0.00     0.031 C 
ATOM     49  C   UNL A   1      47.143  24.571  26.424  1.00  0.00     0.029 A 
ATOM     50  C   UNL A   1      46.889  25.958  26.804  1.00  0.00     0.049 A 
ATOM     51  H   UNL A   1      45.121  26.766  27.547  1.00  0.00     0.167 HD
ATOM     52  C   UNL A   1      41.260  28.370  28.852  1.00  0.00     0.037 A 
ATOM     53  C   UNL A   1      47.785  26.960  26.732  1.00  0.00     0.037 A 
ATOM     54  C   UNL A   1      42.177  29.480  28.916  1.00  0.00     0.049 A 
ATOM     55  C   UNL A   1      47.369  28.345  27.148  1.00  0.00     0.074 A 
ATOM     56  C   UNL A   1      41.945  30.765  29.373  1.00  0.00     0.029 A 
ATOM     57  N   UNL A   1      43.501  29.436  28.501  1.00  0.00    -0.354 N 
ATOM     58  N   UNL A   1      46.212  28.758  27.605  1.00  0.00    -0.248 NA
ATOM     59  C   UNL A   1      48.383  29.401  27.037  1.00  0.00     0.031 C 
ATOM     60  C   UNL A   1      43.108  31.516  29.178  1.00  0.00     0.029 A 
ATOM     61  C   UNL A   1      44.085  30.685  28.653  1.00  0.00     0.049 A 
ATOM     62  H   UNL A   1      43.956  28.639  28.149  1.00  0.00     0.167 HD
ATOM     63  C   UNL A   1      46.363  30.115  27.853  1.00  0.00     0.074 A 
ATOM     64  C   UNL A   1      47.732  30.451  27.518  1.00  0.00     0.031 C 
ATOM     65  C   UNL A   1      45.448  31.006  28.310  1.00  0.00     0.037 A 
BRANCH  52  66
ATOM     66  C   UNL A   1      39.833  28.608  29.253  1.00  0.00     0.064 A 
ATOM     67  C   UNL A   1      39.391  28.391  30.568  1.00  0.00     0.173 A 
ATOM     68  C   UNL A   1      38.904  29.104  28.326  1.00  0.00     0.173 A 
ATOM     69  F   UNL A   1      40.235  27.909  31.493  1.00  0.00    -0.203 F 
ATOM     70  C   UNL A   1      38.069  28.637  30.932  1.00  0.00     0.198 A 
ATOM     71  C   UNL A   1      37.591  29.378  28.699  1.00  0.00     0.198 A 
ATOM     72  F   UNL A   1      39.273  29.337  27.057  1.00  0.00    -0.203 F 
ATOM     73  F   UNL A   1      37.660  28.378  32.181  1.00  0.00    -0.200 F 
ATOM     74  C   UNL A   1      37.173  29.138  30.000  1.00  0.00     0.200 A 
ATOM     75  F   UNL A   1      36.730  29.876  27.801  1.00  0.00    -0.200 F 
ATOM     76  F   UNL A   1      35.904  29.383  30.354  1.00  0.00    -0.200 F 
ENDBRANCH  52  66
BRANCH  53  77
ATOM     77  C   UNL A   1      49.166  26.690  26.250  1.00  0.00     0.064 A 
ATOM     78  C   UNL A   1      50.153  26.220  27.126  1.00  0.00     0.173 A 
ATOM     79  C   UNL A   1      49.527  26.899  24.911  1.00  0.00     0.173 A 
ATOM     80  F   UNL A   1      49.864  26.026  28.421  1.00  0.00    -0.203 F 
ATOM     81  C   UNL A   1      51.454  25.986  26.685  1.00  0.00     0.198 A 
ATOM     82  C   UNL A   1      50.819  26.635  24.464  1.00  0.00     0.198 A 
ATOM     83  F   UNL A   1      48.618  27.346  24.033  1.00  0.00    -0.203 F 
ATOM     84  F   UNL A   1      52.392  25.583  27.553  1.00  0.00    -0.200 F 
ATOM     85  C   UNL A   1      51.784  26.187  25.354  1.00  0.00     0.200 A 
ATOM     86  F   UNL A   1      51.131  26.815  23.173  1.00  0.00    -0.200 F 
ATOM     87  F   UNL A   1      53.034  25.957  24.929  1.00  0.00    -0.200 F 
ENDBRANCH  53  77
BRANCH  65  88
ATOM     88  C   UNL A   1      45.901  32.425  28.489  1.00  0.00     0.064 A 
ATOM     89  C   UNL A   1      46.497  32.860  29.682  1.00  0.00     0.173 A 
ATOM     90  C   UNL A   1      45.772  33.352  27.443  1.00  0.00     0.173 A 
ATOM     91  F   UNL A   1      46.628  32.018  30.719  1.00  0.00    -0.203 F 
ATOM     92  C   UNL A   1      46.925  34.178  29.830  1.00  0.00     0.198 A 
ATOM     93  C   UNL A   1      46.231  34.659  27.584  1.00  0.00     0.198 A 
ATOM     94  F   UNL A   1      45.214  32.987  26.280  1.00  0.00    -0.203 F 
ATOM     95  F   UNL A   1      47.447  34.583  30.996  1.00  0.00    -0.200 F 
ATOM     96  C   UNL A   1      46.799  35.073  28.778  1.00  0.00     0.200 A 
ATOM     97  F   UNL A   1      46.122  35.519  26.561  1.00  0.00    -0.200 F 
ATOM     98  F   UNL A   1      47.220  36.337  28.919  1.00  0.00    -0.200 F 
ENDBRANCH  65  88
ENDBRANCH  39  40
ENDBRANCH  31  34
ENDBRANCH  29  30
ENDBRANCH  28  29
ENDBRANCH  27  28
ENDBRANCH   1  27
TORSDOF 16
ENDMDL
MODEL 3
REMARK VINA RESULT:      -9.4      4.762     11.009
REMARK SMILES CNC(=O)c1cccc(-c2cnc(O)c(C(=O)NCCCCCCNC(=O)c3ccc(-c4c5nc(c(-c6c(F)c(F)c(F)c(F)c6F)c6ccc([nH]6)c(-c6c(F)c(F)c(F)c(F)c6F)c6nc(c(-c7c(F)c(F)c(F)c(F)c7F)c7ccc4[nH]7)C=C6)C=C5)cc3)c2)c1
REMARK SMILES IDX 21 1 20 2 19 3 18 4 16 5 17 6 15 8 10 9 11 10 91 11 12 12
REMARK SMILES IDX 13 13 9 14 5 15 6 16 92 17 7 18 8 19 3 20 1 21 2 22 4 24
REMARK SMILES IDX 14 25 22 27 23 28 24 29 25 30 26 31 27 33 28 34 29 35 90 36
REMARK SMILES IDX 30 37 89 38 31 39 32 40 33 41 83 42 34 43 88 44 82 45 84 46
REMARK SMILES IDX 35 47 87 48 81 49 80 50 36 52 68 53 48 54 67 55 49 56 52 57
REMARK SMILES IDX 66 58 85 59 50 60 51 61 65 63 86 64 53 65 37 66 38 67 46 68
REMARK SMILES IDX 39 69 40 70 44 71 47 72 41 73 42 74 45 75 43 76 69 77 70 78
REMARK SMILES IDX 78 79 71 80 72 81 76 82 79 83 73 84 74 85 77 86 75 87 54 88
REMARK SMILES IDX 55 89 63 90 56 91 57 92 61 93 64 94 58 95 59 96 62 97 60 98
REMARK H PARENT 18 7 2 23 14 26 25 32 84 51 52 62
REMARK Flexibility Score: inf
ROOT
ATOM      1  C   UNL A   1      32.938  29.953  26.011  1.00  0.00     0.002 C 
ENDROOT
BRANCH   1   2
ATOM      2  C   UNL A   1      33.516  28.746  26.764  1.00  0.00     0.021 C 
BRANCH   2   3
ATOM      3  C   UNL A   1      33.572  27.483  25.901  1.00  0.00     0.116 C 
BRANCH   3   4
ATOM      4  N   UNL A   1      33.665  27.845  24.496  1.00  0.00    -0.352 N 
ATOM      5  C   UNL A   1      33.340  27.200  23.330  1.00  0.00     0.256 C 
ATOM      6  O   UNL A   1      33.552  27.794  22.270  1.00  0.00    -0.269 OA
ATOM      7  H   UNL A   1      34.041  28.743  24.350  1.00  0.00     0.163 HD
BRANCH   5   8
ATOM      8  C   UNL A   1      32.673  25.878  23.259  1.00  0.00     0.102 A 
ATOM      9  C   UNL A   1      32.655  23.463  23.503  1.00  0.00     0.001 A 
ATOM     10  C   UNL A   1      31.269  23.520  23.455  1.00  0.00     0.124 A 
ATOM     11  C   UNL A   1      33.348  24.662  23.299  1.00  0.00     0.029 A 
ATOM     12  N   UNL A   1      30.571  24.664  23.282  1.00  0.00    -0.221 NA
ATOM     13  C   UNL A   1      31.278  25.816  23.215  1.00  0.00     0.223 A 
BRANCH   9  14
ATOM     14  C   UNL A   1      33.389  22.274  23.934  1.00  0.00    -0.016 A 
ATOM     15  C   UNL A   1      33.320  19.888  24.462  1.00  0.00     0.040 A 
ATOM     16  C   UNL A   1      34.652  19.949  24.879  1.00  0.00     0.014 A 
ATOM     17  C   UNL A   1      32.692  21.051  24.013  1.00  0.00     0.022 A 
ATOM     18  C   UNL A   1      35.357  21.152  24.799  1.00  0.00     0.001 A 
ATOM     19  C   UNL A   1      34.732  22.309  24.320  1.00  0.00     0.009 A 
BRANCH  15  20
ATOM     20  C   UNL A   1      32.570  18.621  24.627  1.00  0.00     0.251 C 
ATOM     21  C   UNL A   1      32.411  18.069  22.137  1.00  0.00     0.143 C 
ATOM     22  N   UNL A   1      32.124  17.907  23.545  1.00  0.00    -0.355 N 
ATOM     23  H   UNL A   1      31.511  17.167  23.760  1.00  0.00     0.163 HD
ATOM     24  O   UNL A   1      32.333  18.212  25.761  1.00  0.00    -0.269 OA
ENDBRANCH  15  20
ENDBRANCH   9  14
BRANCH  13  25
ATOM     25  O   UNL A   1      30.484  26.925  23.128  1.00  0.00    -0.493 OA
ATOM     26  H   UNL A   1      30.825  27.718  22.763  1.00  0.00     0.295 HD
ENDBRANCH  13  25
ENDBRANCH   5   8
ENDBRANCH   3   4
ENDBRANCH   2   3
ENDBRANCH   1   2
BRANCH   1  27
ATOM     27  C   UNL A   1      31.656  30.534  26.623  1.00  0.00     0.002 C 
BRANCH  27  28
ATOM     28  C   UNL A   1      31.579  32.063  26.632  1.00  0.00     0.021 C 
BRANCH  28  29
ATOM     29  C   UNL A   1      32.756  32.743  27.326  1.00  0.00     0.116 C 
BRANCH  29  30
ATOM     30  N   UNL A   1      32.467  34.138  27.630  1.00  0.00    -0.352 N 
ATOM     31  C   UNL A   1      32.986  34.943  28.614  1.00  0.00     0.251 C 
ATOM     32  H   UNL A   1      31.803  34.566  27.044  1.00  0.00     0.163 HD
ATOM     33  O   UNL A   1      32.453  36.013  28.884  1.00  0.00    -0.269 OA
BRANCH  31  34
ATOM     34  C   UNL A   1      34.183  34.506  29.360  1.00  0.00     0.039 A 
ATOM     35  C   UNL A   1      34.026  33.979  30.644  1.00  0.00     0.014 A 
ATOM     36  C   UNL A   1      35.455  34.616  28.792  1.00  0.00     0.014 A 
ATOM     37  C   UNL A   1      35.139  33.483  31.327  1.00  0.00     0.010 A 
ATOM     38  C   UNL A   1      36.552  34.061  29.444  1.00  0.00     0.010 A 
ATOM     39  C   UNL A   1      36.401  33.476  30.710  1.00  0.00    -0.014 A 
BRANCH  39  40
ATOM     40  C   UNL A   1      37.563  32.807  31.348  1.00  0.00     0.031 A 
ATOM     41  C   UNL A   1      38.237  31.644  30.682  1.00  0.00     0.074 A 
ATOM     42  C   UNL A   1      37.954  33.206  32.574  1.00  0.00     0.049 A 
ATOM     43  N   UNL A   1      39.207  30.885  31.126  1.00  0.00    -0.248 NA
ATOM     44  C   UNL A   1      37.741  31.268  29.350  1.00  0.00     0.031 C 
ATOM     45  C   UNL A   1      37.344  34.295  33.341  1.00  0.00     0.029 A 
ATOM     46  N   UNL A   1      38.942  32.732  33.400  1.00  0.00    -0.354 N 
ATOM     47  C   UNL A   1      39.433  29.941  30.134  1.00  0.00     0.074 A 
ATOM     48  C   UNL A   1      38.468  30.191  29.085  1.00  0.00     0.031 C 
ATOM     49  C   UNL A   1      37.981  34.415  34.516  1.00  0.00     0.029 A 
ATOM     50  C   UNL A   1      39.011  33.385  34.606  1.00  0.00     0.049 A 
ATOM     51  H   UNL A   1      39.545  31.994  33.151  1.00  0.00     0.167 HD
ATOM     52  C   UNL A   1      40.375  28.968  30.096  1.00  0.00     0.037 A 
ATOM     53  C   UNL A   1      39.801  33.166  35.674  1.00  0.00     0.037 A 
ATOM     54  C   UNL A   1      41.337  28.731  31.142  1.00  0.00     0.049 A 
ATOM     55  C   UNL A   1      40.811  32.052  35.621  1.00  0.00     0.074 A 
ATOM     56  C   UNL A   1      42.372  27.813  31.169  1.00  0.00     0.029 A 
ATOM     57  N   UNL A   1      41.374  29.411  32.352  1.00  0.00    -0.354 N 
ATOM     58  N   UNL A   1      41.071  31.218  34.645  1.00  0.00    -0.248 NA
ATOM     59  C   UNL A   1      41.637  31.851  36.819  1.00  0.00     0.031 C 
ATOM     60  C   UNL A   1      42.997  27.895  32.417  1.00  0.00     0.029 A 
ATOM     61  C   UNL A   1      42.390  28.903  33.148  1.00  0.00     0.049 A 
ATOM     62  H   UNL A   1      40.769  30.143  32.606  1.00  0.00     0.167 HD
ATOM     63  C   UNL A   1      42.099  30.405  35.101  1.00  0.00     0.074 A 
ATOM     64  C   UNL A   1      42.433  30.864  36.434  1.00  0.00     0.031 C 
ATOM     65  C   UNL A   1      42.708  29.367  34.476  1.00  0.00     0.037 A 
BRANCH  52  66
ATOM     66  C   UNL A   1      40.411  28.081  28.886  1.00  0.00     0.064 A 
ATOM     67  C   UNL A   1      41.164  28.416  27.749  1.00  0.00     0.173 A 
ATOM     68  C   UNL A   1      39.727  26.855  28.879  1.00  0.00     0.173 A 
ATOM     69  F   UNL A   1      41.830  29.579  27.699  1.00  0.00    -0.203 F 
ATOM     70  C   UNL A   1      41.205  27.572  26.641  1.00  0.00     0.198 A 
ATOM     71  C   UNL A   1      39.796  26.000  27.783  1.00  0.00     0.198 A 
ATOM     72  F   UNL A   1      38.999  26.481  29.942  1.00  0.00    -0.203 F 
ATOM     73  F   UNL A   1      41.892  27.936  25.549  1.00  0.00    -0.200 F 
ATOM     74  C   UNL A   1      40.529  26.362  26.663  1.00  0.00     0.200 A 
ATOM     75  F   UNL A   1      39.154  24.824  27.811  1.00  0.00    -0.200 F 
ATOM     76  F   UNL A   1      40.579  25.546  25.600  1.00  0.00    -0.200 F 
ENDBRANCH  52  66
BRANCH  53  77
ATOM     77  C   UNL A   1      39.672  34.023  36.883  1.00  0.00     0.064 A 
ATOM     78  C   UNL A   1      38.883  33.619  37.968  1.00  0.00     0.173 A 
ATOM     79  C   UNL A   1      40.328  35.259  36.976  1.00  0.00     0.173 A 
ATOM     80  F   UNL A   1      38.217  32.456  37.918  1.00  0.00    -0.203 F 
ATOM     81  C   UNL A   1      38.741  34.427  39.094  1.00  0.00     0.198 A 
ATOM     82  C   UNL A   1      40.211  36.052  38.115  1.00  0.00     0.198 A 
ATOM     83  F   UNL A   1      41.096  35.689  35.965  1.00  0.00    -0.203 F 
ATOM     84  F   UNL A   1      37.943  34.041  40.098  1.00  0.00    -0.200 F 
ATOM     85  C   UNL A   1      39.411  35.639  39.170  1.00  0.00     0.200 A 
ATOM     86  F   UNL A   1      40.872  37.215  38.192  1.00  0.00    -0.200 F 
ATOM     87  F   UNL A   1      39.278  36.414  40.255  1.00  0.00    -0.200 F 
ENDBRANCH  53  77
BRANCH  65  88
ATOM     88  C   UNL A   1      43.807  28.666  35.220  1.00  0.00     0.064 A 
ATOM     89  C   UNL A   1      43.546  27.560  36.042  1.00  0.00     0.173 A 
ATOM     90  C   UNL A   1      45.140  29.083  35.081  1.00  0.00     0.173 A 
ATOM     91  F   UNL A   1      42.287  27.133  36.221  1.00  0.00    -0.203 F 
ATOM     92  C   UNL A   1      44.578  26.911  36.716  1.00  0.00     0.198 A 
ATOM     93  C   UNL A   1      46.171  28.411  35.732  1.00  0.00     0.198 A 
ATOM     94  F   UNL A   1      45.444  30.132  34.304  1.00  0.00    -0.203 F 
ATOM     95  F   UNL A   1      44.299  25.886  37.535  1.00  0.00    -0.200 F 
ATOM     96  C   UNL A   1      45.889  27.331  36.554  1.00  0.00     0.200 A 
ATOM     97  F   UNL A   1      47.440  28.809  35.562  1.00  0.00    -0.200 F 
ATOM     98  F   UNL A   1      46.880  26.699  37.197  1.00  0.00    -0.200 F 
ENDBRANCH  65  88
ENDBRANCH  39  40
ENDBRANCH  31  34
ENDBRANCH  29  30
ENDBRANCH  28  29
ENDBRANCH  27  28
ENDBRANCH   1  27
TORSDOF 16
ENDMDL
