MODEL 1
REMARK VINA RESULT:     -12.0      0.000      0.000
REMARK SMILES CC(C)c1ccc(NC(=O)C(=O)N/N=C/c2ccccc2C(=O)NCCCCCCNC(=O)c2ccc(-c3c4nc(c(-c5c(F)c(F)c(F)c(F)c5F)c5ccc([nH]5)c(-c5c(F)c(F)c(F)c(F)c5F)c5nc(c(-c6c(F)c(F)c(F)c(F)c6F)c6ccc3[nH]6)C=C5)C=C4)cc2)cc1
REMARK SMILES IDX 26 1 25 2 24 3 22 4 23 5 21 7 16 8 17 9 18 10 20 11 19 12
REMARK SMILES IDX 15 13 14 14 13 15 11 16 12 17 9 19 8 20 10 22 7 23 4 24 5 25
REMARK SMILES IDX 98 26 6 27 97 28 2 29 1 30 3 31 27 32 28 33 29 34 30 35
REMARK SMILES IDX 31 36 32 37 33 39 34 40 35 41 96 42 36 43 95 44 37 45 38 46
REMARK SMILES IDX 39 47 89 48 40 49 94 50 88 51 90 52 41 53 93 54 87 55 86 56
REMARK SMILES IDX 42 58 74 59 54 60 73 61 55 62 58 63 72 64 91 65 56 66 57 67
REMARK SMILES IDX 71 69 92 70 59 71 43 72 44 73 52 74 45 75 46 76 50 77 53 78
REMARK SMILES IDX 47 79 48 80 51 81 49 82 75 83 76 84 84 85 77 86 78 87 82 88
REMARK SMILES IDX 85 89 79 90 80 91 83 92 81 93 60 94 61 95 69 96 62 97 63 98
REMARK SMILES IDX 67 99 70 100 64 101 65 102 68 103 66 104
REMARK H PARENT 24 6 13 18 8 21 31 38 90 57 58 68
REMARK Flexibility Score: inf
ROOT
ATOM      1  C   UNL A   1      34.522  31.359  27.607  1.00  0.00     0.021 C 
ENDROOT
BRANCH   1   2
ATOM      2  C   UNL A   1      34.806  29.861  27.647  1.00  0.00     0.116 C 
BRANCH   2   3
ATOM      3  N   UNL A   1      33.667  28.993  27.745  1.00  0.00    -0.352 N 
ATOM      4  C   UNL A   1      33.071  28.128  26.861  1.00  0.00     0.251 C 
ATOM      5  O   UNL A   1      32.136  27.477  27.347  1.00  0.00    -0.269 OA
ATOM      6  H   UNL A   1      33.223  29.024  28.624  1.00  0.00     0.163 HD
BRANCH   4   7
ATOM      7  C   UNL A   1      33.378  27.904  25.399  1.00  0.00     0.048 A 
ATOM      8  C   UNL A   1      33.812  26.766  24.700  1.00  0.00     0.007 A 
ATOM      9  C   UNL A   1      33.913  26.764  23.289  1.00  0.00     0.010 A 
ATOM     10  C   UNL A   1      33.611  27.896  22.542  1.00  0.00     0.001 A 
ATOM     11  C   UNL A   1      33.095  29.044  24.597  1.00  0.00     0.014 A 
ATOM     12  C   UNL A   1      33.215  29.048  23.201  1.00  0.00     0.001 A 
BRANCH   8  13
ATOM     13  C   UNL A   1      34.314  25.514  25.266  1.00  0.00     0.142 C 
ATOM     14  N   UNL A   1      33.627  24.819  26.107  1.00  0.00    -0.180 NA
BRANCH  14  15
ATOM     15  N   UNL A   1      34.139  23.625  26.583  1.00  0.00    -0.239 N 
ATOM     16  C   UNL A   1      34.252  22.428  25.881  1.00  0.00     0.329 C 
ATOM     17  O   UNL A   1      35.348  22.036  25.517  1.00  0.00    -0.262 OA
ATOM     18  H   UNL A   1      34.457  23.622  27.514  1.00  0.00     0.194 HD
BRANCH  16  19
ATOM     19  C   UNL A   1      32.987  21.541  25.802  1.00  0.00     0.315 C 
ATOM     20  N   UNL A   1      31.793  21.998  25.267  1.00  0.00    -0.318 N 
ATOM     21  H   UNL A   1      31.207  21.261  24.981  1.00  0.00     0.170 HD
ATOM     22  O   UNL A   1      33.077  20.346  26.087  1.00  0.00    -0.263 OA
BRANCH  20  23
ATOM     23  C   UNL A   1      31.215  23.261  25.032  1.00  0.00     0.041 A 
ATOM     24  C   UNL A   1      30.047  25.771  24.329  1.00  0.00    -0.045 A 
ATOM     25  C   UNL A   1      30.006  25.289  25.642  1.00  0.00     0.006 A 
ATOM     26  C   UNL A   1      30.644  24.956  23.359  1.00  0.00     0.006 A 
ATOM     27  C   UNL A   1      30.568  24.043  25.981  1.00  0.00     0.026 A 
ATOM     28  C   UNL A   1      31.208  23.718  23.706  1.00  0.00     0.026 A 
BRANCH  24  29
ATOM     29  C   UNL A   1      29.439  27.110  23.939  1.00  0.00     0.013 C 
ATOM     30  C   UNL A   1      30.064  27.664  22.658  1.00  0.00     0.012 C 
ATOM     31  C   UNL A   1      27.920  27.056  23.772  1.00  0.00     0.012 C 
ENDBRANCH  24  29
ENDBRANCH  20  23
ENDBRANCH  16  19
ENDBRANCH  14  15
ENDBRANCH   8  13
ENDBRANCH   4   7
ENDBRANCH   2   3
ENDBRANCH   1   2
BRANCH   1  32
ATOM     32  C   UNL A   1      34.422  32.187  28.892  1.00  0.00     0.002 C 
BRANCH  32  33
ATOM     33  C   UNL A   1      34.404  33.717  28.868  1.00  0.00     0.002 C 
BRANCH  33  34
ATOM     34  C   UNL A   1      33.084  34.489  28.834  1.00  0.00     0.021 C 
BRANCH  34  35
ATOM     35  C   UNL A   1      33.063  35.964  29.249  1.00  0.00     0.116 C 
BRANCH  35  36
ATOM     36  N   UNL A   1      32.419  36.224  30.520  1.00  0.00    -0.352 N 
ATOM     37  C   UNL A   1      32.694  35.836  31.812  1.00  0.00     0.251 C 
ATOM     38  H   UNL A   1      31.621  36.795  30.445  1.00  0.00     0.163 HD
ATOM     39  O   UNL A   1      31.906  36.243  32.673  1.00  0.00    -0.269 OA
BRANCH  37  40
ATOM     40  C   UNL A   1      33.848  34.983  32.268  1.00  0.00     0.039 A 
ATOM     41  C   UNL A   1      35.145  35.455  31.962  1.00  0.00     0.014 A 
ATOM     42  C   UNL A   1      33.762  33.738  32.892  1.00  0.00     0.014 A 
ATOM     43  C   UNL A   1      36.302  34.714  32.265  1.00  0.00     0.010 A 
ATOM     44  C   UNL A   1      34.917  32.995  33.209  1.00  0.00     0.010 A 
ATOM     45  C   UNL A   1      36.197  33.468  32.890  1.00  0.00    -0.014 A 
BRANCH  45  46
ATOM     46  C   UNL A   1      37.401  32.710  33.321  1.00  0.00     0.031 A 
ATOM     47  C   UNL A   1      38.152  33.036  34.581  1.00  0.00     0.074 A 
ATOM     48  C   UNL A   1      37.867  31.753  32.498  1.00  0.00     0.049 A 
ATOM     49  N   UNL A   1      39.269  32.524  35.043  1.00  0.00    -0.248 NA
ATOM     50  C   UNL A   1      37.589  34.089  35.430  1.00  0.00     0.031 C 
ATOM     51  C   UNL A   1      37.244  31.368  31.234  1.00  0.00     0.029 A 
ATOM     52  N   UNL A   1      38.981  30.959  32.585  1.00  0.00    -0.354 N 
ATOM     53  C   UNL A   1      39.545  33.203  36.226  1.00  0.00     0.074 A 
ATOM     54  C   UNL A   1      38.496  34.186  36.395  1.00  0.00     0.031 C 
ATOM     55  C   UNL A   1      38.005  30.436  30.641  1.00  0.00     0.029 A 
ATOM     56  C   UNL A   1      39.164  30.161  31.486  1.00  0.00     0.049 A 
ATOM     57  H   UNL A   1      39.589  30.963  33.360  1.00  0.00     0.167 HD
ATOM     58  C   UNL A   1      40.570  33.009  37.094  1.00  0.00     0.037 A 
ATOM     59  C   UNL A   1      40.156  29.301  31.187  1.00  0.00     0.037 A 
ATOM     60  C   UNL A   1      41.586  31.996  36.938  1.00  0.00     0.049 A 
ATOM     61  C   UNL A   1      41.250  29.061  32.185  1.00  0.00     0.074 A 
ATOM     62  C   UNL A   1      42.610  31.656  37.806  1.00  0.00     0.029 A 
ATOM     63  N   UNL A   1      41.704  31.157  35.839  1.00  0.00    -0.354 N 
ATOM     64  N   UNL A   1      41.465  29.662  33.330  1.00  0.00    -0.248 NA
ATOM     65  C   UNL A   1      42.216  28.003  31.868  1.00  0.00     0.031 C 
ATOM     66  C   UNL A   1      43.367  30.635  37.219  1.00  0.00     0.029 A 
ATOM     67  C   UNL A   1      42.789  30.310  36.002  1.00  0.00     0.049 A 
ATOM     68  H   UNL A   1      41.105  31.163  35.057  1.00  0.00     0.167 HD
ATOM     69  C   UNL A   1      42.574  29.040  33.883  1.00  0.00     0.074 A 
ATOM     70  C   UNL A   1      42.982  28.009  32.950  1.00  0.00     0.031 C 
ATOM     71  C   UNL A   1      43.192  29.296  35.062  1.00  0.00     0.037 A 
BRANCH  58  72
ATOM     72  C   UNL A   1      40.652  33.892  38.310  1.00  0.00     0.064 A 
ATOM     73  C   UNL A   1      41.403  35.076  38.311  1.00  0.00     0.173 A 
ATOM     74  C   UNL A   1      39.895  33.598  39.456  1.00  0.00     0.173 A 
ATOM     75  F   UNL A   1      42.145  35.406  37.245  1.00  0.00    -0.203 F 
ATOM     76  C   UNL A   1      41.410  35.922  39.420  1.00  0.00     0.198 A 
ATOM     77  C   UNL A   1      39.883  34.458  40.551  1.00  0.00     0.198 A 
ATOM     78  F   UNL A   1      39.148  32.484  39.506  1.00  0.00    -0.203 F 
ATOM     79  F   UNL A   1      42.162  37.032  39.409  1.00  0.00    -0.200 F 
ATOM     80  C   UNL A   1      40.643  35.617  40.535  1.00  0.00     0.200 A 
ATOM     81  F   UNL A   1      39.128  34.170  41.621  1.00  0.00    -0.200 F 
ATOM     82  F   UNL A   1      40.638  36.440  41.592  1.00  0.00    -0.200 F 
ENDBRANCH  58  72
BRANCH  59  83
ATOM     83  C   UNL A   1      40.097  28.569  29.900  1.00  0.00     0.064 A 
ATOM     84  C   UNL A   1      40.770  29.051  28.772  1.00  0.00     0.173 A 
ATOM     85  C   UNL A   1      39.449  27.328  29.802  1.00  0.00     0.173 A 
ATOM     86  F   UNL A   1      41.392  30.238  28.821  1.00  0.00    -0.203 F 
ATOM     87  C   UNL A   1      40.803  28.316  27.590  1.00  0.00     0.198 A 
ATOM     88  C   UNL A   1      39.500  26.585  28.626  1.00  0.00     0.198 A 
ATOM     89  F   UNL A   1      38.803  26.822  30.863  1.00  0.00    -0.203 F 
ATOM     90  F   UNL A   1      41.448  28.802  26.521  1.00  0.00    -0.200 F 
ATOM     91  C   UNL A   1      40.178  27.080  27.521  1.00  0.00     0.200 A 
ATOM     92  F   UNL A   1      38.910  25.384  28.568  1.00  0.00    -0.200 F 
ATOM     93  F   UNL A   1      40.234  26.362  26.391  1.00  0.00    -0.200 F 
ENDBRANCH  59  83
BRANCH  71  94
ATOM     94  C   UNL A   1      44.366  28.435  35.416  1.00  0.00     0.064 A 
ATOM     95  C   UNL A   1      45.672  28.795  35.056  1.00  0.00     0.173 A 
ATOM     96  C   UNL A   1      44.184  27.246  36.138  1.00  0.00     0.173 A 
ATOM     97  F   UNL A   1      45.893  29.917  34.354  1.00  0.00    -0.203 F 
ATOM     98  C   UNL A   1      46.753  27.983  35.385  1.00  0.00     0.198 A 
ATOM     99  C   UNL A   1      45.270  26.447  36.485  1.00  0.00     0.198 A 
ATOM    100  F   UNL A   1      42.954  26.861  36.510  1.00  0.00    -0.203 F 
ATOM    101  F   UNL A   1      47.989  28.324  34.994  1.00  0.00    -0.200 F 
ATOM    102  C   UNL A   1      46.553  26.812  36.101  1.00  0.00     0.200 A 
ATOM    103  F   UNL A   1      45.076  25.320  37.183  1.00  0.00    -0.200 F 
ATOM    104  F   UNL A   1      47.595  26.030  36.414  1.00  0.00    -0.200 F 
ENDBRANCH  71  94
ENDBRANCH  45  46
ENDBRANCH  37  40
ENDBRANCH  35  36
ENDBRANCH  34  35
ENDBRANCH  33  34
ENDBRANCH  32  33
ENDBRANCH   1  32
TORSDOF 18
ENDMDL
MODEL 2
REMARK VINA RESULT:     -11.9      3.922      6.651
REMARK SMILES CC(C)c1ccc(NC(=O)C(=O)N/N=C/c2ccccc2C(=O)NCCCCCCNC(=O)c2ccc(-c3c4nc(c(-c5c(F)c(F)c(F)c(F)c5F)c5ccc([nH]5)c(-c5c(F)c(F)c(F)c(F)c5F)c5nc(c(-c6c(F)c(F)c(F)c(F)c6F)c6ccc3[nH]6)C=C5)C=C4)cc2)cc1
REMARK SMILES IDX 26 1 25 2 24 3 22 4 23 5 21 7 16 8 17 9 18 10 20 11 19 12
REMARK SMILES IDX 15 13 14 14 13 15 11 16 12 17 9 19 8 20 10 22 7 23 4 24 5 25
REMARK SMILES IDX 98 26 6 27 97 28 2 29 1 30 3 31 27 32 28 33 29 34 30 35
REMARK SMILES IDX 31 36 32 37 33 39 34 40 35 41 96 42 36 43 95 44 37 45 38 46
REMARK SMILES IDX 39 47 89 48 40 49 94 50 88 51 90 52 41 53 93 54 87 55 86 56
REMARK SMILES IDX 42 58 74 59 54 60 73 61 55 62 58 63 72 64 91 65 56 66 57 67
REMARK SMILES IDX 71 69 92 70 59 71 43 72 44 73 52 74 45 75 46 76 50 77 53 78
REMARK SMILES IDX 47 79 48 80 51 81 49 82 75 83 76 84 84 85 77 86 78 87 82 88
REMARK SMILES IDX 85 89 79 90 80 91 83 92 81 93 60 94 61 95 69 96 62 97 63 98
REMARK SMILES IDX 67 99 70 100 64 101 65 102 68 103 66 104
REMARK H PARENT 24 6 13 18 8 21 31 38 90 57 58 68
REMARK Flexibility Score: inf
ROOT
ATOM      1  C   UNL A   1      31.546  24.728  25.838  1.00  0.00     0.021 C 
ENDROOT
BRANCH   1   2
ATOM      2  C   UNL A   1      31.189  23.381  26.459  1.00  0.00     0.116 C 
BRANCH   2   3
ATOM      3  N   UNL A   1      32.272  22.627  27.024  1.00  0.00    -0.352 N 
ATOM      4  C   UNL A   1      32.961  21.518  26.599  1.00  0.00     0.251 C 
ATOM      5  O   UNL A   1      33.906  21.201  27.334  1.00  0.00    -0.269 OA
ATOM      6  H   UNL A   1      32.583  22.975  27.892  1.00  0.00     0.163 HD
BRANCH   4   7
ATOM      7  C   UNL A   1      32.696  20.637  25.401  1.00  0.00     0.048 A 
ATOM      8  C   UNL A   1      32.395  20.945  24.064  1.00  0.00     0.007 A 
ATOM      9  C   UNL A   1      32.310  19.935  23.078  1.00  0.00     0.010 A 
ATOM     10  C   UNL A   1      32.496  18.596  23.399  1.00  0.00     0.001 A 
ATOM     11  C   UNL A   1      32.863  19.254  25.687  1.00  0.00     0.014 A 
ATOM     12  C   UNL A   1      32.758  18.252  24.714  1.00  0.00     0.001 A 
BRANCH   8  13
ATOM     13  C   UNL A   1      32.025  22.250  23.515  1.00  0.00     0.142 C 
ATOM     14  N   UNL A   1      32.579  22.728  22.453  1.00  0.00    -0.180 NA
BRANCH  14  15
ATOM     15  N   UNL A   1      32.164  23.951  21.960  1.00  0.00    -0.239 N 
ATOM     16  C   UNL A   1      32.947  25.090  21.786  1.00  0.00     0.329 C 
ATOM     17  O   UNL A   1      33.266  25.445  20.664  1.00  0.00    -0.262 OA
ATOM     18  H   UNL A   1      31.217  24.025  21.703  1.00  0.00     0.194 HD
BRANCH  16  19
ATOM     19  C   UNL A   1      33.178  25.977  23.033  1.00  0.00     0.315 C 
ATOM     20  N   UNL A   1      34.211  25.743  23.927  1.00  0.00    -0.318 N 
ATOM     21  H   UNL A   1      34.435  26.544  24.454  1.00  0.00     0.170 HD
ATOM     22  O   UNL A   1      32.519  27.009  23.162  1.00  0.00    -0.263 OA
BRANCH  20  23
ATOM     23  C   UNL A   1      35.017  24.638  24.267  1.00  0.00     0.041 A 
ATOM     24  C   UNL A   1      36.591  22.435  25.174  1.00  0.00    -0.045 A 
ATOM     25  C   UNL A   1      36.268  22.593  23.821  1.00  0.00     0.006 A 
ATOM     26  C   UNL A   1      36.075  23.373  26.076  1.00  0.00     0.006 A 
ATOM     27  C   UNL A   1      35.477  23.671  23.380  1.00  0.00     0.026 A 
ATOM     28  C   UNL A   1      35.294  24.451  25.628  1.00  0.00     0.026 A 
BRANCH  24  29
ATOM     29  C   UNL A   1      37.436  21.272  25.674  1.00  0.00     0.013 C 
ATOM     30  C   UNL A   1      37.294  20.042  24.776  1.00  0.00     0.012 C 
ATOM     31  C   UNL A   1      38.918  21.622  25.813  1.00  0.00     0.012 C 
ENDBRANCH  24  29
ENDBRANCH  20  23
ENDBRANCH  16  19
ENDBRANCH  14  15
ENDBRANCH   8  13
ENDBRANCH   4   7
ENDBRANCH   2   3
ENDBRANCH   1   2
BRANCH   1  32
ATOM     32  C   UNL A   1      30.763  25.999  26.182  1.00  0.00     0.002 C 
BRANCH  32  33
ATOM     33  C   UNL A   1      31.467  27.289  26.610  1.00  0.00     0.002 C 
BRANCH  33  34
ATOM     34  C   UNL A   1      32.984  27.334  26.801  1.00  0.00     0.021 C 
BRANCH  34  35
ATOM     35  C   UNL A   1      33.785  28.492  26.197  1.00  0.00     0.116 C 
BRANCH  35  36
ATOM     36  N   UNL A   1      33.613  29.762  26.873  1.00  0.00    -0.352 N 
ATOM     37  C   UNL A   1      34.392  30.470  27.760  1.00  0.00     0.251 C 
ATOM     38  H   UNL A   1      32.764  30.210  26.654  1.00  0.00     0.163 HD
ATOM     39  O   UNL A   1      33.917  31.540  28.154  1.00  0.00    -0.269 OA
BRANCH  37  40
ATOM     40  C   UNL A   1      35.749  30.074  28.279  1.00  0.00     0.039 A 
ATOM     41  C   UNL A   1      36.820  30.124  27.358  1.00  0.00     0.014 A 
ATOM     42  C   UNL A   1      36.038  29.590  29.555  1.00  0.00     0.014 A 
ATOM     43  C   UNL A   1      38.120  29.705  27.698  1.00  0.00     0.010 A 
ATOM     44  C   UNL A   1      37.340  29.180  29.907  1.00  0.00     0.010 A 
ATOM     45  C   UNL A   1      38.392  29.223  28.980  1.00  0.00    -0.014 A 
BRANCH  45  46
ATOM     46  C   UNL A   1      39.773  28.876  29.405  1.00  0.00     0.031 A 
ATOM     47  C   UNL A   1      40.629  29.812  30.211  1.00  0.00     0.074 A 
ATOM     48  C   UNL A   1      40.288  27.711  28.973  1.00  0.00     0.049 A 
ATOM     49  N   UNL A   1      41.883  29.688  30.580  1.00  0.00    -0.248 NA
ATOM     50  C   UNL A   1      40.006  31.064  30.648  1.00  0.00     0.031 C 
ATOM     51  C   UNL A   1      39.568  26.734  28.159  1.00  0.00     0.029 A 
ATOM     52  N   UNL A   1      41.537  27.168  29.129  1.00  0.00    -0.354 N 
ATOM     53  C   UNL A   1      42.197  30.850  31.278  1.00  0.00     0.074 A 
ATOM     54  C   UNL A   1      41.012  31.682  31.254  1.00  0.00     0.031 C 
ATOM     55  C   UNL A   1      40.398  25.726  27.853  1.00  0.00     0.029 A 
ATOM     56  C   UNL A   1      41.704  25.988  28.451  1.00  0.00     0.049 A 
ATOM     57  H   UNL A   1      42.244  27.585  29.674  1.00  0.00     0.167 HD
ATOM     58  C   UNL A   1      43.361  31.180  31.893  1.00  0.00     0.037 A 
ATOM     59  C   UNL A   1      42.789  25.202  28.323  1.00  0.00     0.037 A 
ATOM     60  C   UNL A   1      44.521  30.324  31.948  1.00  0.00     0.049 A 
ATOM     61  C   UNL A   1      44.048  25.557  29.056  1.00  0.00     0.074 A 
ATOM     62  C   UNL A   1      45.714  30.524  32.624  1.00  0.00     0.029 A 
ATOM     63  N   UNL A   1      44.633  29.101  31.302  1.00  0.00    -0.354 N 
ATOM     64  N   UNL A   1      44.313  26.626  29.767  1.00  0.00    -0.248 NA
ATOM     65  C   UNL A   1      45.145  24.582  28.999  1.00  0.00     0.031 C 
ATOM     66  C   UNL A   1      46.559  29.439  32.361  1.00  0.00     0.029 A 
ATOM     67  C   UNL A   1      45.877  28.542  31.554  1.00  0.00     0.049 A 
ATOM     68  H   UNL A   1      43.933  28.690  30.745  1.00  0.00     0.167 HD
ATOM     69  C   UNL A   1      45.595  26.444  30.263  1.00  0.00     0.074 A 
ATOM     70  C   UNL A   1      46.051  25.156  29.778  1.00  0.00     0.031 C 
ATOM     71  C   UNL A   1      46.323  27.266  31.056  1.00  0.00     0.037 A 
BRANCH  58  72
ATOM     72  C   UNL A   1      43.451  32.516  32.579  1.00  0.00     0.064 A 
ATOM     73  C   UNL A   1      43.145  32.668  33.939  1.00  0.00     0.173 A 
ATOM     74  C   UNL A   1      43.939  33.639  31.891  1.00  0.00     0.173 A 
ATOM     75  F   UNL A   1      42.674  31.630  34.645  1.00  0.00    -0.203 F 
ATOM     76  C   UNL A   1      43.305  33.896  34.579  1.00  0.00     0.198 A 
ATOM     77  C   UNL A   1      44.123  34.858  32.539  1.00  0.00     0.198 A 
ATOM     78  F   UNL A   1      44.259  33.549  30.590  1.00  0.00    -0.203 F 
ATOM     79  F   UNL A   1      42.974  34.024  35.872  1.00  0.00    -0.200 F 
ATOM     80  C   UNL A   1      43.802  34.987  33.881  1.00  0.00     0.200 A 
ATOM     81  F   UNL A   1      44.619  35.906  31.867  1.00  0.00    -0.200 F 
ATOM     82  F   UNL A   1      43.971  36.162  34.503  1.00  0.00    -0.200 F 
ENDBRANCH  58  72
BRANCH  59  83
ATOM     83  C   UNL A   1      42.679  23.970  27.506  1.00  0.00     0.064 A 
ATOM     84  C   UNL A   1      42.997  23.985  26.144  1.00  0.00     0.173 A 
ATOM     85  C   UNL A   1      42.350  22.739  28.094  1.00  0.00     0.173 A 
ATOM     86  F   UNL A   1      43.306  25.143  25.542  1.00  0.00    -0.203 F 
ATOM     87  C   UNL A   1      42.995  22.811  25.395  1.00  0.00     0.198 A 
ATOM     88  C   UNL A   1      42.368  21.563  27.349  1.00  0.00     0.198 A 
ATOM     89  F   UNL A   1      42.051  22.676  29.400  1.00  0.00    -0.203 F 
ATOM     90  F   UNL A   1      43.296  22.852  24.090  1.00  0.00    -0.200 F 
ATOM     91  C   UNL A   1      42.691  21.600  26.000  1.00  0.00     0.200 A 
ATOM     92  F   UNL A   1      42.091  20.393  27.940  1.00  0.00    -0.200 F 
ATOM     93  F   UNL A   1      42.717  20.468  25.284  1.00  0.00    -0.200 F 
ENDBRANCH  59  83
BRANCH  71  94
ATOM     94  C   UNL A   1      47.685  26.790  31.463  1.00  0.00     0.064 A 
ATOM     95  C   UNL A   1      48.830  27.146  30.737  1.00  0.00     0.173 A 
ATOM     96  C   UNL A   1      47.847  25.986  32.600  1.00  0.00     0.173 A 
ATOM     97  F   UNL A   1      48.722  27.903  29.634  1.00  0.00    -0.203 F 
ATOM     98  C   UNL A   1      50.088  26.691  31.120  1.00  0.00     0.198 A 
ATOM     99  C   UNL A   1      49.110  25.551  32.994  1.00  0.00     0.198 A 
ATOM    100  F   UNL A   1      46.782  25.623  33.331  1.00  0.00    -0.203 F 
ATOM    101  F   UNL A   1      51.165  27.007  30.387  1.00  0.00    -0.200 F 
ATOM    102  C   UNL A   1      50.228  25.898  32.249  1.00  0.00     0.200 A 
ATOM    103  F   UNL A   1      49.245  24.791  34.089  1.00  0.00    -0.200 F 
ATOM    104  F   UNL A   1      51.440  25.459  32.616  1.00  0.00    -0.200 F 
ENDBRANCH  71  94
ENDBRANCH  45  46
ENDBRANCH  37  40
ENDBRANCH  35  36
ENDBRANCH  34  35
ENDBRANCH  33  34
ENDBRANCH  32  33
ENDBRANCH   1  32
TORSDOF 18
ENDMDL
MODEL 3
REMARK VINA RESULT:     -11.9      4.079      6.437
REMARK SMILES CC(C)c1ccc(NC(=O)C(=O)N/N=C/c2ccccc2C(=O)NCCCCCCNC(=O)c2ccc(-c3c4nc(c(-c5c(F)c(F)c(F)c(F)c5F)c5ccc([nH]5)c(-c5c(F)c(F)c(F)c(F)c5F)c5nc(c(-c6c(F)c(F)c(F)c(F)c6F)c6ccc3[nH]6)C=C5)C=C4)cc2)cc1
REMARK SMILES IDX 26 1 25 2 24 3 22 4 23 5 21 7 16 8 17 9 18 10 20 11 19 12
REMARK SMILES IDX 15 13 14 14 13 15 11 16 12 17 9 19 8 20 10 22 7 23 4 24 5 25
REMARK SMILES IDX 98 26 6 27 97 28 2 29 1 30 3 31 27 32 28 33 29 34 30 35
REMARK SMILES IDX 31 36 32 37 33 39 34 40 35 41 96 42 36 43 95 44 37 45 38 46
REMARK SMILES IDX 39 47 89 48 40 49 94 50 88 51 90 52 41 53 93 54 87 55 86 56
REMARK SMILES IDX 42 58 74 59 54 60 73 61 55 62 58 63 72 64 91 65 56 66 57 67
REMARK SMILES IDX 71 69 92 70 59 71 43 72 44 73 52 74 45 75 46 76 50 77 53 78
REMARK SMILES IDX 47 79 48 80 51 81 49 82 75 83 76 84 84 85 77 86 78 87 82 88
REMARK SMILES IDX 85 89 79 90 80 91 83 92 81 93 60 94 61 95 69 96 62 97 63 98
REMARK SMILES IDX 67 99 70 100 64 101 65 102 68 103 66 104
REMARK H PARENT 24 6 13 18 8 21 31 38 90 57 58 68
REMARK Flexibility Score: inf
ROOT
ATOM      1  C   UNL A   1      32.785  23.733  26.672  1.00  0.00     0.021 C 
ENDROOT
BRANCH   1   2
ATOM      2  C   UNL A   1      31.719  22.728  26.248  1.00  0.00     0.116 C 
BRANCH   2   3
ATOM      3  N   UNL A   1      32.164  21.388  25.992  1.00  0.00    -0.352 N 
ATOM      4  C   UNL A   1      33.264  20.873  25.351  1.00  0.00     0.251 C 
ATOM      5  O   UNL A   1      33.347  19.639  25.406  1.00  0.00    -0.269 OA
ATOM      6  H   UNL A   1      31.559  20.697  26.349  1.00  0.00     0.163 HD
BRANCH   4   7
ATOM      7  C   UNL A   1      34.336  21.601  24.573  1.00  0.00     0.048 A 
ATOM      8  C   UNL A   1      34.268  22.674  23.671  1.00  0.00     0.007 A 
ATOM      9  C   UNL A   1      35.439  23.277  23.155  1.00  0.00     0.010 A 
ATOM     10  C   UNL A   1      36.702  22.813  23.502  1.00  0.00     0.001 A 
ATOM     11  C   UNL A   1      35.647  21.149  24.889  1.00  0.00     0.014 A 
ATOM     12  C   UNL A   1      36.806  21.733  24.361  1.00  0.00     0.001 A 
BRANCH   8  13
ATOM     13  C   UNL A   1      33.069  23.241  23.054  1.00  0.00     0.142 C 
ATOM     14  N   UNL A   1      33.044  24.441  22.582  1.00  0.00    -0.180 NA
BRANCH  14  15
ATOM     15  N   UNL A   1      31.892  24.912  21.978  1.00  0.00    -0.239 N 
ATOM     16  C   UNL A   1      31.166  26.045  22.337  1.00  0.00     0.329 C 
ATOM     17  O   UNL A   1      31.200  27.039  21.631  1.00  0.00    -0.262 OA
ATOM     18  H   UNL A   1      31.550  24.394  21.215  1.00  0.00     0.194 HD
BRANCH  16  19
ATOM     19  C   UNL A   1      30.166  25.893  23.508  1.00  0.00     0.315 C 
ATOM     20  N   UNL A   1      29.200  26.848  23.786  1.00  0.00    -0.318 N 
ATOM     21  H   UNL A   1      28.454  26.480  24.313  1.00  0.00     0.170 HD
ATOM     22  O   UNL A   1      30.126  24.828  24.124  1.00  0.00    -0.263 OA
BRANCH  20  23
ATOM     23  C   UNL A   1      29.026  28.216  23.499  1.00  0.00     0.041 A 
ATOM     24  C   UNL A   1      28.448  30.943  22.876  1.00  0.00    -0.045 A 
ATOM     25  C   UNL A   1      29.628  30.578  23.535  1.00  0.00     0.006 A 
ATOM     26  C   UNL A   1      27.537  29.925  22.572  1.00  0.00     0.006 A 
ATOM     27  C   UNL A   1      29.901  29.235  23.856  1.00  0.00     0.026 A 
ATOM     28  C   UNL A   1      27.819  28.585  22.888  1.00  0.00     0.026 A 
BRANCH  24  29
ATOM     29  C   UNL A   1      28.129  32.389  22.528  1.00  0.00     0.013 C 
ATOM     30  C   UNL A   1      29.152  33.355  23.127  1.00  0.00     0.012 C 
ATOM     31  C   UNL A   1      28.028  32.638  21.022  1.00  0.00     0.012 C 
ENDBRANCH  24  29
ENDBRANCH  20  23
ENDBRANCH  16  19
ENDBRANCH  14  15
ENDBRANCH   8  13
ENDBRANCH   4   7
ENDBRANCH   2   3
ENDBRANCH   1   2
BRANCH   1  32
ATOM     32  C   UNL A   1      32.617  25.233  26.415  1.00  0.00     0.002 C 
BRANCH  32  33
ATOM     33  C   UNL A   1      33.708  26.064  25.736  1.00  0.00     0.002 C 
BRANCH  33  34
ATOM     34  C   UNL A   1      33.775  27.581  25.923  1.00  0.00     0.021 C 
BRANCH  34  35
ATOM     35  C   UNL A   1      33.323  28.197  27.251  1.00  0.00     0.116 C 
BRANCH  35  36
ATOM     36  N   UNL A   1      33.436  29.640  27.317  1.00  0.00    -0.352 N 
ATOM     37  C   UNL A   1      34.444  30.489  27.713  1.00  0.00     0.251 C 
ATOM     38  H   UNL A   1      32.624  30.109  27.017  1.00  0.00     0.163 HD
ATOM     39  O   UNL A   1      34.185  31.695  27.648  1.00  0.00    -0.269 OA
BRANCH  37  40
ATOM     40  C   UNL A   1      35.812  30.093  28.201  1.00  0.00     0.039 A 
ATOM     41  C   UNL A   1      36.858  30.123  27.251  1.00  0.00     0.014 A 
ATOM     42  C   UNL A   1      36.133  29.626  29.476  1.00  0.00     0.014 A 
ATOM     43  C   UNL A   1      38.164  29.703  27.562  1.00  0.00     0.010 A 
ATOM     44  C   UNL A   1      37.441  29.214  29.799  1.00  0.00     0.010 A 
ATOM     45  C   UNL A   1      38.468  29.238  28.845  1.00  0.00    -0.014 A 
BRANCH  45  46
ATOM     46  C   UNL A   1      39.859  28.890  29.238  1.00  0.00     0.031 A 
ATOM     47  C   UNL A   1      40.751  29.844  29.980  1.00  0.00     0.074 A 
ATOM     48  C   UNL A   1      40.345  27.702  28.833  1.00  0.00     0.049 A 
ATOM     49  N   UNL A   1      42.015  29.717  30.313  1.00  0.00    -0.248 NA
ATOM     50  C   UNL A   1      40.156  31.119  30.389  1.00  0.00     0.031 C 
ATOM     51  C   UNL A   1      39.588  26.705  28.080  1.00  0.00     0.029 A 
ATOM     52  N   UNL A   1      41.593  27.150  28.970  1.00  0.00    -0.354 N 
ATOM     53  C   UNL A   1      42.365  30.901  30.956  1.00  0.00     0.074 A 
ATOM     54  C   UNL A   1      41.189  31.746  30.939  1.00  0.00     0.031 C 
ATOM     55  C   UNL A   1      40.396  25.676  27.786  1.00  0.00     0.029 A 
ATOM     56  C   UNL A   1      41.724  25.944  28.331  1.00  0.00     0.049 A 
ATOM     57  H   UNL A   1      42.322  27.578  29.475  1.00  0.00     0.167 HD
ATOM     58  C   UNL A   1      43.551  31.238  31.521  1.00  0.00     0.037 A 
ATOM     59  C   UNL A   1      42.796  25.139  28.198  1.00  0.00     0.037 A 
ATOM     60  C   UNL A   1      44.703  30.370  31.571  1.00  0.00     0.049 A 
ATOM     61  C   UNL A   1      44.082  25.505  28.876  1.00  0.00     0.074 A 
ATOM     62  C   UNL A   1      45.919  30.580  32.201  1.00  0.00     0.029 A 
ATOM     63  N   UNL A   1      44.780  29.123  30.968  1.00  0.00    -0.354 N 
ATOM     64  N   UNL A   1      44.382  26.597  29.538  1.00  0.00    -0.248 NA
ATOM     65  C   UNL A   1      45.165  24.516  28.821  1.00  0.00     0.031 C 
ATOM     66  C   UNL A   1      46.742  29.476  31.952  1.00  0.00     0.029 A 
ATOM     67  C   UNL A   1      46.024  28.558  31.201  1.00  0.00     0.049 A 
ATOM     68  H   UNL A   1      44.057  28.701  30.449  1.00  0.00     0.167 HD
ATOM     69  C   UNL A   1      45.677  26.417  29.999  1.00  0.00     0.074 A 
ATOM     70  C   UNL A   1      46.103  25.107  29.548  1.00  0.00     0.031 C 
ATOM     71  C   UNL A   1      46.440  27.259  30.737  1.00  0.00     0.037 A 
BRANCH  58  72
ATOM     72  C   UNL A   1      43.679  32.598  32.153  1.00  0.00     0.064 A 
ATOM     73  C   UNL A   1      44.095  33.717  31.417  1.00  0.00     0.173 A 
ATOM     74  C   UNL A   1      43.294  32.802  33.487  1.00  0.00     0.173 A 
ATOM     75  F   UNL A   1      44.477  33.580  30.138  1.00  0.00    -0.203 F 
ATOM     76  C   UNL A   1      44.138  34.984  31.996  1.00  0.00     0.198 A 
ATOM     77  C   UNL A   1      43.312  34.074  34.056  1.00  0.00     0.198 A 
ATOM     78  F   UNL A   1      42.876  31.770  34.237  1.00  0.00    -0.203 F 
ATOM     79  F   UNL A   1      44.570  36.032  31.280  1.00  0.00    -0.200 F 
ATOM     80  C   UNL A   1      43.738  35.163  33.312  1.00  0.00     0.200 A 
ATOM     81  F   UNL A   1      42.909  34.247  35.323  1.00  0.00    -0.200 F 
ATOM     82  F   UNL A   1      43.764  36.384  33.862  1.00  0.00    -0.200 F 
ENDBRANCH  58  72
BRANCH  59  83
ATOM     83  C   UNL A   1      42.645  23.880  27.432  1.00  0.00     0.064 A 
ATOM     84  C   UNL A   1      43.003  23.817  26.081  1.00  0.00     0.173 A 
ATOM     85  C   UNL A   1      42.234  22.695  28.061  1.00  0.00     0.173 A 
ATOM     86  F   UNL A   1      43.390  24.930  25.440  1.00  0.00    -0.203 F 
ATOM     87  C   UNL A   1      42.962  22.612  25.384  1.00  0.00     0.198 A 
ATOM     88  C   UNL A   1      42.212  21.488  27.368  1.00  0.00     0.198 A 
ATOM     89  F   UNL A   1      41.894  22.706  29.359  1.00  0.00    -0.203 F 
ATOM     90  F   UNL A   1      43.302  22.580  24.089  1.00  0.00    -0.200 F 
ATOM     91  C   UNL A   1      42.576  21.448  26.031  1.00  0.00     0.200 A 
ATOM     92  F   UNL A   1      41.857  20.361  28.001  1.00  0.00    -0.200 F 
ATOM     93  F   UNL A   1      42.564  20.284  25.365  1.00  0.00    -0.200 F 
ENDBRANCH  59  83
BRANCH  71  94
ATOM     94  C   UNL A   1      47.809  26.782  31.117  1.00  0.00     0.064 A 
ATOM     95  C   UNL A   1      48.933  27.091  30.339  1.00  0.00     0.173 A 
ATOM     96  C   UNL A   1      48.000  26.023  32.281  1.00  0.00     0.173 A 
ATOM     97  F   UNL A   1      48.797  27.803  29.210  1.00  0.00    -0.203 F 
ATOM     98  C   UNL A   1      50.197  26.635  30.699  1.00  0.00     0.198 A 
ATOM     99  C   UNL A   1      49.270  25.587  32.651  1.00  0.00     0.198 A 
ATOM    100  F   UNL A   1      46.956  25.706  33.062  1.00  0.00    -0.203 F 
ATOM    101  F   UNL A   1      51.253  26.904  29.918  1.00  0.00    -0.200 F 
ATOM    102  C   UNL A   1      50.366  25.887  31.855  1.00  0.00     0.200 A 
ATOM    103  F   UNL A   1      49.432  24.871  33.771  1.00  0.00    -0.200 F 
ATOM    104  F   UNL A   1      51.584  25.446  32.199  1.00  0.00    -0.200 F 
ENDBRANCH  71  94
ENDBRANCH  45  46
ENDBRANCH  37  40
ENDBRANCH  35  36
ENDBRANCH  34  35
ENDBRANCH  33  34
ENDBRANCH  32  33
ENDBRANCH   1  32
TORSDOF 18
ENDMDL
