MODEL 1
REMARK VINA RESULT:     -13.7      0.000      0.000
REMARK SMILES Cc1c(CC(=O)NCCCCCCNC(=O)c2ccc(-c3c4nc(c(-c5c(F)c(F)c(F)c(F)c5F)c5ccc([nH]5)c(-c5c(F)c(F)c(F)c(F)c5F)c5nc(c(-c6c(F)c(F)c(F)c(F)c6F)c6ccc3[nH]6)C=C5)C=C4)cc2)cccc1-c1ccn(C(F)F)c(=O)c1
REMARK SMILES IDX 10 1 9 2 8 3 7 4 5 5 6 6 4 8 3 9 1 10 2 11 83 12 80 13 82 14
REMARK SMILES IDX 81 15 84 16 85 17 93 18 86 19 91 20 87 21 92 22 88 23 89 24
REMARK SMILES IDX 90 25 11 26 12 27 13 28 14 29 15 30 16 32 17 33 18 34 79 35
REMARK SMILES IDX 19 36 78 37 20 38 21 39 22 40 72 41 23 42 77 43 71 44 73 45
REMARK SMILES IDX 24 46 76 47 70 48 69 49 25 51 57 52 37 53 56 54 38 55 41 56
REMARK SMILES IDX 55 57 74 58 39 59 40 60 54 62 75 63 42 64 26 65 27 66 35 67
REMARK SMILES IDX 28 68 29 69 33 70 36 71 30 72 31 73 34 74 32 75 58 76 59 77
REMARK SMILES IDX 67 78 60 79 61 80 65 81 68 82 62 83 63 84 66 85 64 86 43 87
REMARK SMILES IDX 44 88 52 89 45 90 46 91 50 92 53 93 47 94 48 95 51 96 49 97
REMARK H PARENT 7 7 14 31 73 50 41 61
REMARK Flexibility Score: inf
ROOT
ATOM      1  C   UNL A   1      32.045  29.489  25.050  1.00  0.00     0.002 C 
ENDROOT
BRANCH   1   2
ATOM      2  C   UNL A   1      30.745  29.663  24.254  1.00  0.00     0.021 C 
BRANCH   2   3
ATOM      3  C   UNL A   1      30.759  29.054  22.851  1.00  0.00     0.116 C 
BRANCH   3   4
ATOM      4  N   UNL A   1      32.063  28.552  22.475  1.00  0.00    -0.356 N 
ATOM      5  C   UNL A   1      32.494  27.260  22.369  1.00  0.00     0.224 C 
ATOM      6  O   UNL A   1      33.656  27.060  22.010  1.00  0.00    -0.275 OA
ATOM      7  H   UNL A   1      32.737  29.241  22.265  1.00  0.00     0.163 HD
BRANCH   5   8
ATOM      8  C   UNL A   1      31.545  26.099  22.641  1.00  0.00     0.135 C 
BRANCH   8   9
ATOM      9  C   UNL A   1      31.899  25.275  23.868  1.00  0.00    -0.035 A 
ATOM     10  C   UNL A   1      33.018  23.463  22.468  1.00  0.00     0.045 C 
ATOM     11  C   UNL A   1      32.533  24.006  23.796  1.00  0.00    -0.040 A 
ATOM     12  C   UNL A   1      32.745  23.278  24.996  1.00  0.00    -0.015 A 
ATOM     13  C   UNL A   1      31.567  25.812  25.126  1.00  0.00     0.004 A 
ATOM     14  C   UNL A   1      32.387  23.842  26.232  1.00  0.00     0.009 A 
ATOM     15  C   UNL A   1      31.813  25.106  26.297  1.00  0.00     0.001 A 
BRANCH  12  16
ATOM     16  C   UNL A   1      33.272  21.895  24.996  1.00  0.00    -0.011 A 
ATOM     17  C   UNL A   1      34.685  21.571  25.008  1.00  0.00     0.027 A 
ATOM     18  C   UNL A   1      32.373  20.899  24.902  1.00  0.00     0.080 A 
ATOM     19  C   UNL A   1      35.089  20.306  24.842  1.00  0.00     0.095 A 
ATOM     20  C   UNL A   1      32.807  19.484  24.766  1.00  0.00     0.255 A 
ATOM     21  N   UNL A   1      34.175  19.277  24.700  1.00  0.00    -0.258 N 
ATOM     22  O   UNL A   1      31.942  18.615  24.690  1.00  0.00    -0.269 OA
BRANCH  21  23
ATOM     23  C   UNL A   1      34.622  17.925  24.481  1.00  0.00     0.451 C 
ATOM     24  F   UNL A   1      34.403  17.542  23.201  1.00  0.00    -0.185 F 
ATOM     25  F   UNL A   1      35.950  17.811  24.732  1.00  0.00    -0.185 F 
ENDBRANCH  21  23
ENDBRANCH  12  16
ENDBRANCH   8   9
ENDBRANCH   5   8
ENDBRANCH   3   4
ENDBRANCH   2   3
ENDBRANCH   1   2
BRANCH   1  26
ATOM     26  C   UNL A   1      31.944  29.641  26.577  1.00  0.00     0.002 C 
BRANCH  26  27
ATOM     27  C   UNL A   1      32.741  30.790  27.203  1.00  0.00     0.021 C 
BRANCH  27  28
ATOM     28  C   UNL A   1      34.175  30.431  27.565  1.00  0.00     0.116 C 
BRANCH  28  29
ATOM     29  N   UNL A   1      34.752  31.280  28.602  1.00  0.00    -0.352 N 
ATOM     30  C   UNL A   1      35.866  31.061  29.393  1.00  0.00     0.251 C 
ATOM     31  H   UNL A   1      34.281  32.129  28.760  1.00  0.00     0.163 HD
ATOM     32  O   UNL A   1      36.184  31.869  30.251  1.00  0.00    -0.269 OA
BRANCH  30  33
ATOM     33  C   UNL A   1      36.745  29.905  29.095  1.00  0.00     0.039 A 
ATOM     34  C   UNL A   1      37.103  29.070  30.159  1.00  0.00     0.014 A 
ATOM     35  C   UNL A   1      37.361  29.767  27.854  1.00  0.00     0.014 A 
ATOM     36  C   UNL A   1      38.240  28.274  30.048  1.00  0.00     0.010 A 
ATOM     37  C   UNL A   1      38.535  29.047  27.767  1.00  0.00     0.010 A 
ATOM     38  C   UNL A   1      39.010  28.359  28.886  1.00  0.00    -0.014 A 
BRANCH  38  39
ATOM     39  C   UNL A   1      40.379  27.865  28.818  1.00  0.00     0.031 A 
ATOM     40  C   UNL A   1      40.660  26.475  28.416  1.00  0.00     0.074 A 
ATOM     41  C   UNL A   1      41.396  28.710  29.095  1.00  0.00     0.049 A 
ATOM     42  N   UNL A   1      41.683  25.797  28.819  1.00  0.00    -0.248 NA
ATOM     43  C   UNL A   1      39.773  25.722  27.539  1.00  0.00     0.031 C 
ATOM     44  C   UNL A   1      42.822  28.482  28.881  1.00  0.00     0.029 A 
ATOM     45  N   UNL A   1      41.337  29.907  29.829  1.00  0.00    -0.354 N 
ATOM     46  C   UNL A   1      41.732  24.637  28.080  1.00  0.00     0.074 A 
ATOM     47  C   UNL A   1      40.489  24.610  27.342  1.00  0.00     0.031 C 
ATOM     48  C   UNL A   1      43.515  29.303  29.688  1.00  0.00     0.029 A 
ATOM     49  C   UNL A   1      42.554  29.978  30.543  1.00  0.00     0.049 A 
ATOM     50  H   UNL A   1      40.602  30.561  29.844  1.00  0.00     0.167 HD
ATOM     51  C   UNL A   1      42.878  23.895  28.063  1.00  0.00     0.037 A 
ATOM     52  C   UNL A   1      42.581  29.971  31.907  1.00  0.00     0.037 A 
ATOM     53  C   UNL A   1      43.909  24.490  28.909  1.00  0.00     0.049 A 
ATOM     54  C   UNL A   1      43.378  28.833  32.496  1.00  0.00     0.074 A 
ATOM     55  C   UNL A   1      44.963  25.340  28.616  1.00  0.00     0.029 A 
ATOM     56  N   UNL A   1      43.756  24.509  30.292  1.00  0.00    -0.354 N 
ATOM     57  N   UNL A   1      43.657  27.735  31.852  1.00  0.00    -0.248 NA
ATOM     58  C   UNL A   1      43.876  28.824  33.869  1.00  0.00     0.031 C 
ATOM     59  C   UNL A   1      45.416  25.912  29.827  1.00  0.00     0.029 A 
ATOM     60  C   UNL A   1      44.652  25.396  30.859  1.00  0.00     0.049 A 
ATOM     61  H   UNL A   1      43.105  23.968  30.793  1.00  0.00     0.167 HD
ATOM     62  C   UNL A   1      44.318  26.876  32.691  1.00  0.00     0.074 A 
ATOM     63  C   UNL A   1      44.450  27.610  33.934  1.00  0.00     0.031 C 
ATOM     64  C   UNL A   1      44.687  25.624  32.293  1.00  0.00     0.037 A 
BRANCH  51  65
ATOM     65  C   UNL A   1      43.163  22.832  27.023  1.00  0.00     0.064 A 
ATOM     66  C   UNL A   1      42.546  21.564  27.089  1.00  0.00     0.173 A 
ATOM     67  C   UNL A   1      44.085  22.984  25.971  1.00  0.00     0.173 A 
ATOM     68  F   UNL A   1      41.551  21.310  27.949  1.00  0.00    -0.203 F 
ATOM     69  C   UNL A   1      42.930  20.498  26.271  1.00  0.00     0.198 A 
ATOM     70  C   UNL A   1      44.511  21.904  25.189  1.00  0.00     0.198 A 
ATOM     71  F   UNL A   1      44.563  24.191  25.640  1.00  0.00    -0.203 F 
ATOM     72  F   UNL A   1      42.320  19.311  26.396  1.00  0.00    -0.200 F 
ATOM     73  C   UNL A   1      43.946  20.656  25.353  1.00  0.00     0.200 A 
ATOM     74  F   UNL A   1      45.478  22.083  24.277  1.00  0.00    -0.200 F 
ATOM     75  F   UNL A   1      44.357  19.618  24.610  1.00  0.00    -0.200 F 
ENDBRANCH  51  65
BRANCH  52  76
ATOM     76  C   UNL A   1      41.364  30.551  32.531  1.00  0.00     0.064 A 
ATOM     77  C   UNL A   1      41.183  31.947  32.487  1.00  0.00     0.173 A 
ATOM     78  C   UNL A   1      40.247  29.763  32.836  1.00  0.00     0.173 A 
ATOM     79  F   UNL A   1      42.223  32.747  32.199  1.00  0.00    -0.203 F 
ATOM     80  C   UNL A   1      39.923  32.519  32.629  1.00  0.00     0.198 A 
ATOM     81  C   UNL A   1      38.987  30.343  32.991  1.00  0.00     0.198 A 
ATOM     82  F   UNL A   1      40.351  28.428  32.879  1.00  0.00    -0.203 F 
ATOM     83  F   UNL A   1      39.768  33.842  32.476  1.00  0.00    -0.200 F 
ATOM     84  C   UNL A   1      38.820  31.713  32.856  1.00  0.00     0.200 A 
ATOM     85  F   UNL A   1      37.915  29.560  33.188  1.00  0.00    -0.200 F 
ATOM     86  F   UNL A   1      37.594  32.252  32.907  1.00  0.00    -0.200 F 
ENDBRANCH  52  76
BRANCH  64  87
ATOM     87  C   UNL A   1      45.219  24.545  33.197  1.00  0.00     0.064 A 
ATOM     88  C   UNL A   1      44.505  23.380  33.516  1.00  0.00     0.173 A 
ATOM     89  C   UNL A   1      46.553  24.596  33.665  1.00  0.00     0.173 A 
ATOM     90  F   UNL A   1      43.273  23.165  33.033  1.00  0.00    -0.203 F 
ATOM     91  C   UNL A   1      45.059  22.368  34.304  1.00  0.00     0.198 A 
ATOM     92  C   UNL A   1      47.121  23.561  34.405  1.00  0.00     0.198 A 
ATOM     93  F   UNL A   1      47.348  25.643  33.397  1.00  0.00    -0.203 F 
ATOM     94  F   UNL A   1      44.323  21.293  34.619  1.00  0.00    -0.200 F 
ATOM     95  C   UNL A   1      46.369  22.454  34.740  1.00  0.00     0.200 A 
ATOM     96  F   UNL A   1      48.407  23.636  34.778  1.00  0.00    -0.200 F 
ATOM     97  F   UNL A   1      46.910  21.464  35.461  1.00  0.00    -0.200 F 
ENDBRANCH  64  87
ENDBRANCH  38  39
ENDBRANCH  30  33
ENDBRANCH  28  29
ENDBRANCH  27  28
ENDBRANCH  26  27
ENDBRANCH   1  26
TORSDOF 16
ENDMDL
MODEL 2
REMARK VINA RESULT:     -13.5      2.023      2.759
REMARK SMILES Cc1c(CC(=O)NCCCCCCNC(=O)c2ccc(-c3c4nc(c(-c5c(F)c(F)c(F)c(F)c5F)c5ccc([nH]5)c(-c5c(F)c(F)c(F)c(F)c5F)c5nc(c(-c6c(F)c(F)c(F)c(F)c6F)c6ccc3[nH]6)C=C5)C=C4)cc2)cccc1-c1ccn(C(F)F)c(=O)c1
REMARK SMILES IDX 10 1 9 2 8 3 7 4 5 5 6 6 4 8 3 9 1 10 2 11 83 12 80 13 82 14
REMARK SMILES IDX 81 15 84 16 85 17 93 18 86 19 91 20 87 21 92 22 88 23 89 24
REMARK SMILES IDX 90 25 11 26 12 27 13 28 14 29 15 30 16 32 17 33 18 34 79 35
REMARK SMILES IDX 19 36 78 37 20 38 21 39 22 40 72 41 23 42 77 43 71 44 73 45
REMARK SMILES IDX 24 46 76 47 70 48 69 49 25 51 57 52 37 53 56 54 38 55 41 56
REMARK SMILES IDX 55 57 74 58 39 59 40 60 54 62 75 63 42 64 26 65 27 66 35 67
REMARK SMILES IDX 28 68 29 69 33 70 36 71 30 72 31 73 34 74 32 75 58 76 59 77
REMARK SMILES IDX 67 78 60 79 61 80 65 81 68 82 62 83 63 84 66 85 64 86 43 87
REMARK SMILES IDX 44 88 52 89 45 90 46 91 50 92 53 93 47 94 48 95 51 96 49 97
REMARK H PARENT 7 7 14 31 73 50 41 61
REMARK Flexibility Score: inf
ROOT
ATOM      1  C   UNL A   1      31.776  27.799  26.865  1.00  0.00     0.002 C 
ENDROOT
BRANCH   1   2
ATOM      2  C   UNL A   1      31.186  27.153  25.604  1.00  0.00     0.021 C 
BRANCH   2   3
ATOM      3  C   UNL A   1      31.578  25.691  25.383  1.00  0.00     0.116 C 
BRANCH   3   4
ATOM      4  N   UNL A   1      31.245  24.848  26.511  1.00  0.00    -0.356 N 
ATOM      5  C   UNL A   1      30.958  23.513  26.536  1.00  0.00     0.224 C 
ATOM      6  O   UNL A   1      30.717  22.988  27.626  1.00  0.00    -0.275 OA
ATOM      7  H   UNL A   1      31.221  25.302  27.386  1.00  0.00     0.163 HD
BRANCH   5   8
ATOM      8  C   UNL A   1      30.986  22.686  25.256  1.00  0.00     0.135 C 
BRANCH   8   9
ATOM      9  C   UNL A   1      32.261  22.835  24.442  1.00  0.00    -0.035 A 
ATOM     10  C   UNL A   1      33.682  21.757  26.262  1.00  0.00     0.045 C 
ATOM     11  C   UNL A   1      33.542  22.462  24.929  1.00  0.00    -0.040 A 
ATOM     12  C   UNL A   1      34.682  22.721  24.124  1.00  0.00    -0.015 A 
ATOM     13  C   UNL A   1      32.144  23.379  23.149  1.00  0.00     0.004 A 
ATOM     14  C   UNL A   1      34.526  23.278  22.844  1.00  0.00     0.009 A 
ATOM     15  C   UNL A   1      33.264  23.594  22.355  1.00  0.00     0.001 A 
BRANCH  12  16
ATOM     16  C   UNL A   1      36.060  22.490  24.612  1.00  0.00    -0.011 A 
ATOM     17  C   UNL A   1      36.770  21.235  24.458  1.00  0.00     0.027 A 
ATOM     18  C   UNL A   1      36.639  23.489  25.302  1.00  0.00     0.080 A 
ATOM     19  C   UNL A   1      37.947  21.046  25.067  1.00  0.00     0.095 A 
ATOM     20  C   UNL A   1      37.969  23.309  25.942  1.00  0.00     0.255 A 
ATOM     21  N   UNL A   1      38.533  22.050  25.816  1.00  0.00    -0.258 N 
ATOM     22  O   UNL A   1      38.453  24.258  26.554  1.00  0.00    -0.269 OA
BRANCH  21  23
ATOM     23  C   UNL A   1      39.781  21.822  26.499  1.00  0.00     0.451 C 
ATOM     24  F   UNL A   1      40.022  20.497  26.641  1.00  0.00    -0.185 F 
ATOM     25  F   UNL A   1      40.814  22.364  25.808  1.00  0.00    -0.185 F 
ENDBRANCH  21  23
ENDBRANCH  12  16
ENDBRANCH   8   9
ENDBRANCH   5   8
ENDBRANCH   3   4
ENDBRANCH   2   3
ENDBRANCH   1   2
BRANCH   1  26
ATOM     26  C   UNL A   1      31.777  29.336  26.915  1.00  0.00     0.002 C 
BRANCH  26  27
ATOM     27  C   UNL A   1      33.114  30.027  26.624  1.00  0.00     0.021 C 
BRANCH  27  28
ATOM     28  C   UNL A   1      34.238  29.636  27.573  1.00  0.00     0.116 C 
BRANCH  28  29
ATOM     29  N   UNL A   1      34.748  30.744  28.372  1.00  0.00    -0.352 N 
ATOM     30  C   UNL A   1      35.964  30.869  29.021  1.00  0.00     0.251 C 
ATOM     31  H   UNL A   1      34.140  31.513  28.462  1.00  0.00     0.163 HD
ATOM     32  O   UNL A   1      36.210  31.861  29.688  1.00  0.00    -0.269 OA
BRANCH  30  33
ATOM     33  C   UNL A   1      37.015  29.850  28.784  1.00  0.00     0.039 A 
ATOM     34  C   UNL A   1      37.293  28.952  29.821  1.00  0.00     0.014 A 
ATOM     35  C   UNL A   1      37.836  29.907  27.662  1.00  0.00     0.014 A 
ATOM     36  C   UNL A   1      38.521  28.297  29.843  1.00  0.00     0.010 A 
ATOM     37  C   UNL A   1      39.088  29.328  27.720  1.00  0.00     0.010 A 
ATOM     38  C   UNL A   1      39.454  28.583  28.844  1.00  0.00    -0.014 A 
BRANCH  38  39
ATOM     39  C   UNL A   1      40.866  28.247  28.973  1.00  0.00     0.031 A 
ATOM     40  C   UNL A   1      41.408  27.017  28.366  1.00  0.00     0.074 A 
ATOM     41  C   UNL A   1      41.686  29.097  29.630  1.00  0.00     0.049 A 
ATOM     42  N   UNL A   1      42.419  26.363  28.835  1.00  0.00    -0.248 NA
ATOM     43  C   UNL A   1      40.816  26.404  27.185  1.00  0.00     0.031 C 
ATOM     44  C   UNL A   1      43.144  29.057  29.687  1.00  0.00     0.029 A 
ATOM     45  N   UNL A   1      41.324  30.084  30.562  1.00  0.00    -0.354 N 
ATOM     46  C   UNL A   1      42.767  25.411  27.903  1.00  0.00     0.074 A 
ATOM     47  C   UNL A   1      41.703  25.438  26.924  1.00  0.00     0.031 C 
ATOM     48  C   UNL A   1      43.551  29.733  30.774  1.00  0.00     0.029 A 
ATOM     49  C   UNL A   1      42.361  30.104  31.521  1.00  0.00     0.049 A 
ATOM     50  H   UNL A   1      40.516  30.647  30.550  1.00  0.00     0.167 HD
ATOM     51  C   UNL A   1      43.987  24.803  27.982  1.00  0.00     0.037 A 
ATOM     52  C   UNL A   1      42.129  29.788  32.828  1.00  0.00     0.037 A 
ATOM     53  C   UNL A   1      44.745  25.281  29.135  1.00  0.00     0.049 A 
ATOM     54  C   UNL A   1      42.948  28.625  33.330  1.00  0.00     0.074 A 
ATOM     55  C   UNL A   1      45.708  26.270  29.256  1.00  0.00     0.029 A 
ATOM     56  N   UNL A   1      44.331  24.971  30.425  1.00  0.00    -0.354 N 
ATOM     57  N   UNL A   1      43.493  27.733  32.552  1.00  0.00    -0.248 NA
ATOM     58  C   UNL A   1      43.171  28.350  34.747  1.00  0.00     0.031 C 
ATOM     59  C   UNL A   1      45.839  26.591  30.626  1.00  0.00     0.029 A 
ATOM     60  C   UNL A   1      44.971  25.785  31.341  1.00  0.00     0.049 A 
ATOM     61  H   UNL A   1      43.677  24.272  30.653  1.00  0.00     0.167 HD
ATOM     62  C   UNL A   1      44.094  26.771  33.320  1.00  0.00     0.074 A 
ATOM     63  C   UNL A   1      43.884  27.211  34.686  1.00  0.00     0.031 C 
ATOM     64  C   UNL A   1      44.701  25.682  32.765  1.00  0.00     0.037 A 
BRANCH  51  65
ATOM     65  C   UNL A   1      44.608  24.036  26.834  1.00  0.00     0.064 A 
ATOM     66  C   UNL A   1      44.298  22.676  26.613  1.00  0.00     0.173 A 
ATOM     67  C   UNL A   1      45.566  24.571  25.954  1.00  0.00     0.173 A 
ATOM     68  F   UNL A   1      43.311  22.063  27.280  1.00  0.00    -0.203 F 
ATOM     69  C   UNL A   1      44.994  21.886  25.695  1.00  0.00     0.198 A 
ATOM     70  C   UNL A   1      46.303  23.770  25.075  1.00  0.00     0.198 A 
ATOM     71  F   UNL A   1      45.781  25.892  25.888  1.00  0.00    -0.203 F 
ATOM     72  F   UNL A   1      44.666  20.595  25.545  1.00  0.00    -0.200 F 
ATOM     73  C   UNL A   1      46.029  22.422  24.959  1.00  0.00     0.200 A 
ATOM     74  F   UNL A   1      47.285  24.316  24.341  1.00  0.00    -0.200 F 
ATOM     75  F   UNL A   1      46.738  21.652  24.122  1.00  0.00    -0.200 F 
ENDBRANCH  51  65
BRANCH  52  76
ATOM     76  C   UNL A   1      40.747  30.095  33.279  1.00  0.00     0.064 A 
ATOM     77  C   UNL A   1      40.375  31.443  33.441  1.00  0.00     0.173 A 
ATOM     78  C   UNL A   1      39.721  29.145  33.207  1.00  0.00     0.173 A 
ATOM     79  F   UNL A   1      41.320  32.394  33.516  1.00  0.00    -0.203 F 
ATOM     80  C   UNL A   1      39.039  31.834  33.418  1.00  0.00     0.198 A 
ATOM     81  C   UNL A   1      38.382  29.539  33.198  1.00  0.00     0.198 A 
ATOM     82  F   UNL A   1      40.010  27.847  33.039  1.00  0.00    -0.203 F 
ATOM     83  F   UNL A   1      38.722  33.136  33.468  1.00  0.00    -0.200 F 
ATOM     84  C   UNL A   1      38.043  30.882  33.270  1.00  0.00     0.200 A 
ATOM     85  F   UNL A   1      37.420  28.620  33.032  1.00  0.00    -0.200 F 
ATOM     86  F   UNL A   1      36.763  31.262  33.161  1.00  0.00    -0.200 F 
ENDBRANCH  52  76
BRANCH  64  87
ATOM     87  C   UNL A   1      45.195  24.480  33.523  1.00  0.00     0.064 A 
ATOM     88  C   UNL A   1      44.424  23.326  33.733  1.00  0.00     0.173 A 
ATOM     89  C   UNL A   1      46.542  24.405  33.948  1.00  0.00     0.173 A 
ATOM     90  F   UNL A   1      43.169  23.234  33.271  1.00  0.00    -0.203 F 
ATOM     91  C   UNL A   1      44.941  22.202  34.383  1.00  0.00     0.198 A 
ATOM     92  C   UNL A   1      47.070  23.263  34.547  1.00  0.00     0.198 A 
ATOM     93  F   UNL A   1      47.388  25.431  33.773  1.00  0.00    -0.203 F 
ATOM     94  F   UNL A   1      44.153  21.139  34.600  1.00  0.00    -0.200 F 
ATOM     95  C   UNL A   1      46.265  22.167  34.781  1.00  0.00     0.200 A 
ATOM     96  F   UNL A   1      48.368  23.225  34.882  1.00  0.00    -0.200 F 
ATOM     97  F   UNL A   1      46.768  21.073  35.367  1.00  0.00    -0.200 F 
ENDBRANCH  64  87
ENDBRANCH  38  39
ENDBRANCH  30  33
ENDBRANCH  28  29
ENDBRANCH  27  28
ENDBRANCH  26  27
ENDBRANCH   1  26
TORSDOF 16
ENDMDL
MODEL 3
REMARK VINA RESULT:     -13.4      1.364      2.295
REMARK SMILES Cc1c(CC(=O)NCCCCCCNC(=O)c2ccc(-c3c4nc(c(-c5c(F)c(F)c(F)c(F)c5F)c5ccc([nH]5)c(-c5c(F)c(F)c(F)c(F)c5F)c5nc(c(-c6c(F)c(F)c(F)c(F)c6F)c6ccc3[nH]6)C=C5)C=C4)cc2)cccc1-c1ccn(C(F)F)c(=O)c1
REMARK SMILES IDX 10 1 9 2 8 3 7 4 5 5 6 6 4 8 3 9 1 10 2 11 83 12 80 13 82 14
REMARK SMILES IDX 81 15 84 16 85 17 93 18 86 19 91 20 87 21 92 22 88 23 89 24
REMARK SMILES IDX 90 25 11 26 12 27 13 28 14 29 15 30 16 32 17 33 18 34 79 35
REMARK SMILES IDX 19 36 78 37 20 38 21 39 22 40 72 41 23 42 77 43 71 44 73 45
REMARK SMILES IDX 24 46 76 47 70 48 69 49 25 51 57 52 37 53 56 54 38 55 41 56
REMARK SMILES IDX 55 57 74 58 39 59 40 60 54 62 75 63 42 64 26 65 27 66 35 67
REMARK SMILES IDX 28 68 29 69 33 70 36 71 30 72 31 73 34 74 32 75 58 76 59 77
REMARK SMILES IDX 67 78 60 79 61 80 65 81 68 82 62 83 63 84 66 85 64 86 43 87
REMARK SMILES IDX 44 88 52 89 45 90 46 91 50 92 53 93 47 94 48 95 51 96 49 97
REMARK H PARENT 7 7 14 31 73 50 41 61
REMARK Flexibility Score: inf
ROOT
ATOM      1  C   UNL A   1      32.129  28.655  25.629  1.00  0.00     0.002 C 
ENDROOT
BRANCH   1   2
ATOM      2  C   UNL A   1      32.873  28.508  24.294  1.00  0.00     0.021 C 
BRANCH   2   3
ATOM      3  C   UNL A   1      33.581  27.167  24.094  1.00  0.00     0.116 C 
BRANCH   3   4
ATOM      4  N   UNL A   1      33.392  26.265  25.210  1.00  0.00    -0.356 N 
ATOM      5  C   UNL A   1      33.524  24.906  25.254  1.00  0.00     0.224 C 
ATOM      6  O   UNL A   1      33.330  24.335  26.330  1.00  0.00    -0.275 OA
ATOM      7  H   UNL A   1      33.132  26.691  26.060  1.00  0.00     0.163 HD
BRANCH   5   8
ATOM      8  C   UNL A   1      33.947  24.124  24.015  1.00  0.00     0.135 C 
BRANCH   8   9
ATOM      9  C   UNL A   1      34.621  22.795  24.314  1.00  0.00    -0.035 A 
ATOM     10  C   UNL A   1      32.521  21.472  23.736  1.00  0.00     0.045 C 
ATOM     11  C   UNL A   1      33.943  21.548  24.250  1.00  0.00    -0.040 A 
ATOM     12  C   UNL A   1      34.639  20.371  24.631  1.00  0.00    -0.015 A 
ATOM     13  C   UNL A   1      35.980  22.826  24.679  1.00  0.00     0.004 A 
ATOM     14  C   UNL A   1      35.992  20.444  25.003  1.00  0.00     0.009 A 
ATOM     15  C   UNL A   1      36.661  21.662  25.016  1.00  0.00     0.001 A 
BRANCH  12  16
ATOM     16  C   UNL A   1      33.969  19.055  24.724  1.00  0.00    -0.011 A 
ATOM     17  C   UNL A   1      32.970  18.728  25.722  1.00  0.00     0.027 A 
ATOM     18  C   UNL A   1      34.381  18.098  23.872  1.00  0.00     0.080 A 
ATOM     19  C   UNL A   1      32.528  17.471  25.849  1.00  0.00     0.095 A 
ATOM     20  C   UNL A   1      33.862  16.708  23.970  1.00  0.00     0.255 A 
ATOM     21  N   UNL A   1      32.976  16.468  25.008  1.00  0.00    -0.258 N 
ATOM     22  O   UNL A   1      34.268  15.878  23.162  1.00  0.00    -0.269 OA
BRANCH  21  23
ATOM     23  C   UNL A   1      32.524  15.111  25.180  1.00  0.00     0.451 C 
ATOM     24  F   UNL A   1      33.485  14.346  25.750  1.00  0.00    -0.185 F 
ATOM     25  F   UNL A   1      31.426  15.067  25.975  1.00  0.00    -0.185 F 
ENDBRANCH  21  23
ENDBRANCH  12  16
ENDBRANCH   8   9
ENDBRANCH   5   8
ENDBRANCH   3   4
ENDBRANCH   2   3
ENDBRANCH   1   2
BRANCH   1  26
ATOM     26  C   UNL A   1      32.008  30.080  26.195  1.00  0.00     0.002 C 
BRANCH  26  27
ATOM     27  C   UNL A   1      33.315  30.762  26.613  1.00  0.00     0.021 C 
BRANCH  27  28
ATOM     28  C   UNL A   1      34.020  30.095  27.787  1.00  0.00     0.116 C 
BRANCH  28  29
ATOM     29  N   UNL A   1      34.627  31.036  28.721  1.00  0.00    -0.352 N 
ATOM     30  C   UNL A   1      35.830  30.945  29.398  1.00  0.00     0.251 C 
ATOM     31  H   UNL A   1      34.106  31.853  28.894  1.00  0.00     0.163 HD
ATOM     32  O   UNL A   1      36.166  31.816  30.184  1.00  0.00    -0.269 OA
BRANCH  30  33
ATOM     33  C   UNL A   1      36.767  29.848  29.055  1.00  0.00     0.039 A 
ATOM     34  C   UNL A   1      37.122  28.956  30.073  1.00  0.00     0.014 A 
ATOM     35  C   UNL A   1      37.431  29.822  27.832  1.00  0.00     0.014 A 
ATOM     36  C   UNL A   1      38.295  28.215  29.951  1.00  0.00     0.010 A 
ATOM     37  C   UNL A   1      38.637  29.156  27.741  1.00  0.00     0.010 A 
ATOM     38  C   UNL A   1      39.101  28.411  28.828  1.00  0.00    -0.014 A 
BRANCH  38  39
ATOM     39  C   UNL A   1      40.491  27.978  28.778  1.00  0.00     0.031 A 
ATOM     40  C   UNL A   1      40.847  26.643  28.263  1.00  0.00     0.074 A 
ATOM     41  C   UNL A   1      41.459  28.831  29.179  1.00  0.00     0.049 A 
ATOM     42  N   UNL A   1      41.880  25.969  28.650  1.00  0.00    -0.248 NA
ATOM     43  C   UNL A   1      40.031  25.942  27.281  1.00  0.00     0.031 C 
ATOM     44  C   UNL A   1      42.902  28.678  29.011  1.00  0.00     0.029 A 
ATOM     45  N   UNL A   1      41.319  29.951  30.016  1.00  0.00    -0.354 N 
ATOM     46  C   UNL A   1      42.009  24.886  27.811  1.00  0.00     0.074 A 
ATOM     47  C   UNL A   1      40.800  24.881  27.016  1.00  0.00     0.031 C 
ATOM     48  C   UNL A   1      43.525  29.445  29.921  1.00  0.00     0.029 A 
ATOM     49  C   UNL A   1      42.500  30.001  30.789  1.00  0.00     0.049 A 
ATOM     50  H   UNL A   1      40.557  30.572  30.056  1.00  0.00     0.167 HD
ATOM     51  C   UNL A   1      43.185  24.193  27.778  1.00  0.00     0.037 A 
ATOM     52  C   UNL A   1      42.469  29.867  32.146  1.00  0.00     0.037 A 
ATOM     53  C   UNL A   1      44.152  24.744  28.723  1.00  0.00     0.049 A 
ATOM     54  C   UNL A   1      43.287  28.709  32.664  1.00  0.00     0.074 A 
ATOM     55  C   UNL A   1      45.181  25.657  28.559  1.00  0.00     0.029 A 
ATOM     56  N   UNL A   1      43.940  24.628  30.093  1.00  0.00    -0.354 N 
ATOM     57  N   UNL A   1      43.639  27.688  31.936  1.00  0.00    -0.248 NA
ATOM     58  C   UNL A   1      43.726  28.591  34.052  1.00  0.00     0.031 C 
ATOM     59  C   UNL A   1      45.558  26.130  29.837  1.00  0.00     0.029 A 
ATOM     60  C   UNL A   1      44.772  25.491  30.780  1.00  0.00     0.049 A 
ATOM     61  H   UNL A   1      43.291  24.019  30.512  1.00  0.00     0.167 HD
ATOM     62  C   UNL A   1      44.299  26.780  32.722  1.00  0.00     0.074 A 
ATOM     63  C   UNL A   1      44.347  27.399  34.033  1.00  0.00     0.031 C 
ATOM     64  C   UNL A   1      44.737  25.586  32.229  1.00  0.00     0.037 A 
BRANCH  51  65
ATOM     65  C   UNL A   1      43.558  23.243  26.660  1.00  0.00     0.064 A 
ATOM     66  C   UNL A   1      43.096  21.909  26.651  1.00  0.00     0.173 A 
ATOM     67  C   UNL A   1      44.421  23.573  25.599  1.00  0.00     0.173 A 
ATOM     68  F   UNL A   1      42.165  21.482  27.515  1.00  0.00    -0.203 F 
ATOM     69  C   UNL A   1      43.575  20.954  25.752  1.00  0.00     0.198 A 
ATOM     70  C   UNL A   1      44.945  22.607  24.733  1.00  0.00     0.198 A 
ATOM     71  F   UNL A   1      44.744  24.848  25.343  1.00  0.00    -0.203 F 
ATOM     72  F   UNL A   1      43.111  19.697  25.806  1.00  0.00    -0.200 F 
ATOM     73  C   UNL A   1      44.535  21.292  24.822  1.00  0.00     0.200 A 
ATOM     74  F   UNL A   1      45.854  22.960  23.813  1.00  0.00    -0.200 F 
ATOM     75  F   UNL A   1      45.040  20.363  23.998  1.00  0.00    -0.200 F 
ENDBRANCH  51  65
BRANCH  52  76
ATOM     76  C   UNL A   1      41.204  30.339  32.763  1.00  0.00     0.064 A 
ATOM     77  C   UNL A   1      40.940  31.723  32.787  1.00  0.00     0.173 A 
ATOM     78  C   UNL A   1      40.129  29.472  32.994  1.00  0.00     0.173 A 
ATOM     79  F   UNL A   1      41.937  32.597  32.573  1.00  0.00    -0.203 F 
ATOM     80  C   UNL A   1      39.644  32.211  32.922  1.00  0.00     0.198 A 
ATOM     81  C   UNL A   1      38.832  29.967  33.142  1.00  0.00     0.198 A 
ATOM     82  F   UNL A   1      40.311  28.145  32.970  1.00  0.00    -0.203 F 
ATOM     83  F   UNL A   1      39.414  33.530  32.834  1.00  0.00    -0.200 F 
ATOM     84  C   UNL A   1      38.586  31.331  33.074  1.00  0.00     0.200 A 
ATOM     85  F   UNL A   1      37.805  29.114  33.266  1.00  0.00    -0.200 F 
ATOM     86  F   UNL A   1      37.329  31.793  33.117  1.00  0.00    -0.200 F 
ENDBRANCH  52  76
BRANCH  64  87
ATOM     87  C   UNL A   1      45.275  24.447  33.054  1.00  0.00     0.064 A 
ATOM     88  C   UNL A   1      46.556  24.444  33.628  1.00  0.00     0.173 A 
ATOM     89  C   UNL A   1      44.439  23.363  33.409  1.00  0.00     0.173 A 
ATOM     90  F   UNL A   1      47.397  25.474  33.459  1.00  0.00    -0.203 F 
ATOM     91  C   UNL A   1      46.995  23.398  34.444  1.00  0.00     0.198 A 
ATOM     92  C   UNL A   1      44.861  22.349  34.266  1.00  0.00     0.198 A 
ATOM     93  F   UNL A   1      43.182  23.270  32.950  1.00  0.00    -0.203 F 
ATOM     94  F   UNL A   1      48.242  23.418  34.935  1.00  0.00    -0.200 F 
ATOM     95  C   UNL A   1      46.145  22.357  34.771  1.00  0.00     0.200 A 
ATOM     96  F   UNL A   1      44.010  21.373  34.614  1.00  0.00    -0.200 F 
ATOM     97  F   UNL A   1      46.556  21.377  35.586  1.00  0.00    -0.200 F 
ENDBRANCH  64  87
ENDBRANCH  38  39
ENDBRANCH  30  33
ENDBRANCH  28  29
ENDBRANCH  27  28
ENDBRANCH  26  27
ENDBRANCH   1  26
TORSDOF 16
ENDMDL
