MODEL 1
REMARK VINA RESULT:     -11.5      0.000      0.000
REMARK SMILES C[C@@H](CC(=O)NCCCCCCNC(=O)c1ccc(-c2c3nc(c(-c4c(F)c(F)c(F)c(F)c4F)c4ccc([nH]4)c(-c4c(F)c(F)c(F)c(F)c4F)c4nc(c(-c5c(F)c(F)c(F)c(F)c5F)c5ccc2[nH]5)C=C4)C=C3)cc1)NC(=O)/C=C/c1cccnc1
REMARK SMILES IDX 8 1 7 2 6 3 4 4 5 5 3 7 2 8 1 9 79 10 80 11 81 13 82 14
REMARK SMILES IDX 83 15 84 16 85 17 89 18 86 19 88 20 87 21 9 22 10 23 11 24
REMARK SMILES IDX 12 25 13 26 14 27 15 29 16 30 17 31 78 32 18 33 77 34 19 35
REMARK SMILES IDX 20 36 21 37 71 38 22 39 76 40 70 41 72 42 23 43 75 44 69 45
REMARK SMILES IDX 68 46 24 48 56 49 36 50 55 51 37 52 40 53 54 54 73 55 38 56
REMARK SMILES IDX 39 57 53 59 74 60 41 61 25 62 26 63 34 64 27 65 28 66 32 67
REMARK SMILES IDX 35 68 29 69 30 70 33 71 31 72 57 73 58 74 66 75 59 76 60 77
REMARK SMILES IDX 64 78 67 79 61 80 62 81 65 82 63 83 42 84 43 85 51 86 44 87
REMARK SMILES IDX 45 88 49 89 52 90 46 91 47 92 50 93 48 94
REMARK H PARENT 6 6 79 12 13 28 72 47 40 58
REMARK Flexibility Score: inf
ROOT
ATOM      1  C   UNL A   1      32.162  28.728  27.337  1.00  0.00     0.021 C 
ENDROOT
BRANCH   1   2
ATOM      2  C   UNL A   1      31.797  27.709  26.253  1.00  0.00     0.116 C 
BRANCH   2   3
ATOM      3  N   UNL A   1      31.348  26.478  26.872  1.00  0.00    -0.356 N 
ATOM      4  C   UNL A   1      31.703  25.192  26.609  1.00  0.00     0.222 C 
ATOM      5  O   UNL A   1      30.991  24.290  27.051  1.00  0.00    -0.275 OA
ATOM      6  H   UNL A   1      30.686  26.591  27.592  1.00  0.00     0.163 HD
BRANCH   4   7
ATOM      7  C   UNL A   1      32.965  24.879  25.836  1.00  0.00     0.124 C 
BRANCH   7   8
ATOM      8  C   UNL A   1      32.788  24.351  24.405  1.00  0.00     0.088 C 
ATOM      9  C   UNL A   1      33.165  22.880  24.253  1.00  0.00     0.031 C 
BRANCH   8  10
ATOM     10  N   UNL A   1      33.496  25.130  23.395  1.00  0.00    -0.350 N 
ATOM     11  C   UNL A   1      33.061  26.110  22.553  1.00  0.00     0.244 C 
ATOM     12  H   UNL A   1      34.452  24.911  23.307  1.00  0.00     0.164 HD
ATOM     13  O   UNL A   1      33.819  26.551  21.692  1.00  0.00    -0.270 OA
BRANCH  11  14
ATOM     14  C   UNL A   1      31.726  26.741  22.719  1.00  0.00     0.072 C 
ATOM     15  C   UNL A   1      31.387  27.979  22.339  1.00  0.00     0.015 C 
BRANCH  15  16
ATOM     16  C   UNL A   1      30.048  28.543  22.459  1.00  0.00    -0.007 A 
ATOM     17  C   UNL A   1      29.022  27.850  23.096  1.00  0.00     0.011 A 
ATOM     18  C   UNL A   1      29.793  29.846  22.039  1.00  0.00     0.119 A 
ATOM     19  C   UNL A   1      27.801  28.485  23.305  1.00  0.00     0.021 A 
ATOM     20  N   UNL A   1      28.618  30.487  22.228  1.00  0.00    -0.264 NA
ATOM     21  C   UNL A   1      27.650  29.792  22.864  1.00  0.00     0.111 A 
ENDBRANCH  15  16
ENDBRANCH  11  14
ENDBRANCH   8  10
ENDBRANCH   7   8
ENDBRANCH   4   7
ENDBRANCH   2   3
ENDBRANCH   1   2
BRANCH   1  22
ATOM     22  C   UNL A   1      32.500  30.115  26.792  1.00  0.00     0.002 C 
BRANCH  22  23
ATOM     23  C   UNL A   1      31.305  30.882  26.222  1.00  0.00     0.002 C 
BRANCH  23  24
ATOM     24  C   UNL A   1      31.281  32.380  26.543  1.00  0.00     0.021 C 
BRANCH  24  25
ATOM     25  C   UNL A   1      32.564  32.928  27.162  1.00  0.00     0.116 C 
BRANCH  25  26
ATOM     26  N   UNL A   1      32.408  34.299  27.617  1.00  0.00    -0.352 N 
ATOM     27  C   UNL A   1      33.015  34.956  28.656  1.00  0.00     0.251 C 
ATOM     28  H   UNL A   1      31.767  34.838  27.101  1.00  0.00     0.163 HD
ATOM     29  O   UNL A   1      32.596  36.049  29.019  1.00  0.00    -0.269 OA
BRANCH  27  30
ATOM     30  C   UNL A   1      34.168  34.346  29.350  1.00  0.00     0.039 A 
ATOM     31  C   UNL A   1      33.938  33.643  30.535  1.00  0.00     0.014 A 
ATOM     32  C   UNL A   1      35.471  34.499  28.864  1.00  0.00     0.014 A 
ATOM     33  C   UNL A   1      35.009  33.056  31.210  1.00  0.00     0.010 A 
ATOM     34  C   UNL A   1      36.530  33.858  29.503  1.00  0.00     0.010 A 
ATOM     35  C   UNL A   1      36.311  33.139  30.687  1.00  0.00    -0.014 A 
BRANCH  35  36
ATOM     36  C   UNL A   1      37.441  32.471  31.376  1.00  0.00     0.031 A 
ATOM     37  C   UNL A   1      38.167  31.329  30.725  1.00  0.00     0.074 A 
ATOM     38  C   UNL A   1      37.789  32.876  32.612  1.00  0.00     0.049 A 
ATOM     39  N   UNL A   1      39.186  30.637  31.168  1.00  0.00    -0.248 NA
ATOM     40  C   UNL A   1      37.667  30.888  29.413  1.00  0.00     0.031 C 
ATOM     41  C   UNL A   1      37.116  33.928  33.375  1.00  0.00     0.029 A 
ATOM     42  N   UNL A   1      38.793  32.451  33.445  1.00  0.00    -0.354 N 
ATOM     43  C   UNL A   1      39.441  29.676  30.199  1.00  0.00     0.074 A 
ATOM     44  C   UNL A   1      38.440  29.840  29.167  1.00  0.00     0.031 C 
ATOM     45  C   UNL A   1      37.742  34.085  34.552  1.00  0.00     0.029 A 
ATOM     46  C   UNL A   1      38.845  33.133  34.635  1.00  0.00     0.049 A 
ATOM     47  H   UNL A   1      39.416  31.725  33.211  1.00  0.00     0.167 HD
ATOM     48  C   UNL A   1      40.437  28.758  30.161  1.00  0.00     0.037 A 
ATOM     49  C   UNL A   1      39.694  33.009  35.672  1.00  0.00     0.037 A 
ATOM     50  C   UNL A   1      41.448  28.617  31.176  1.00  0.00     0.049 A 
ATOM     51  C   UNL A   1      40.811  32.007  35.590  1.00  0.00     0.074 A 
ATOM     52  C   UNL A   1      42.542  27.770  31.195  1.00  0.00     0.029 A 
ATOM     53  N   UNL A   1      41.486  29.344  32.357  1.00  0.00    -0.354 N 
ATOM     54  N   UNL A   1      41.096  31.163  34.628  1.00  0.00    -0.248 NA
ATOM     55  C   UNL A   1      41.733  31.952  36.731  1.00  0.00     0.031 C 
ATOM     56  C   UNL A   1      43.219  27.954  32.406  1.00  0.00     0.029 A 
ATOM     57  C   UNL A   1      42.572  28.948  33.123  1.00  0.00     0.049 A 
ATOM     58  H   UNL A   1      40.837  30.037  32.615  1.00  0.00     0.167 HD
ATOM     59  C   UNL A   1      42.238  30.489  35.038  1.00  0.00     0.074 A 
ATOM     60  C   UNL A   1      42.606  31.040  36.326  1.00  0.00     0.031 C 
ATOM     61  C   UNL A   1      42.918  29.500  34.407  1.00  0.00     0.037 A 
BRANCH  48  62
ATOM     62  C   UNL A   1      40.483  27.834  28.979  1.00  0.00     0.064 A 
ATOM     63  C   UNL A   1      41.271  28.119  27.853  1.00  0.00     0.173 A 
ATOM     64  C   UNL A   1      39.755  26.634  28.982  1.00  0.00     0.173 A 
ATOM     65  F   UNL A   1      41.977  29.259  27.794  1.00  0.00    -0.203 F 
ATOM     66  C   UNL A   1      41.307  27.252  26.763  1.00  0.00     0.198 A 
ATOM     67  C   UNL A   1      39.815  25.756  27.903  1.00  0.00     0.198 A 
ATOM     68  F   UNL A   1      38.990  26.311  30.035  1.00  0.00    -0.203 F 
ATOM     69  F   UNL A   1      42.028  27.569  25.680  1.00  0.00    -0.200 F 
ATOM     70  C   UNL A   1      40.584  26.069  26.792  1.00  0.00     0.200 A 
ATOM     71  F   UNL A   1      39.125  24.608  27.937  1.00  0.00    -0.200 F 
ATOM     72  F   UNL A   1      40.622  25.233  25.745  1.00  0.00    -0.200 F 
ENDBRANCH  48  62
BRANCH  49  73
ATOM     73  C   UNL A   1      39.540  33.889  36.858  1.00  0.00     0.064 A 
ATOM     74  C   UNL A   1      38.792  33.475  37.969  1.00  0.00     0.173 A 
ATOM     75  C   UNL A   1      40.144  35.153  36.910  1.00  0.00     0.173 A 
ATOM     76  F   UNL A   1      38.181  32.280  37.957  1.00  0.00    -0.203 F 
ATOM     77  C   UNL A   1      38.640  34.298  39.082  1.00  0.00     0.198 A 
ATOM     78  C   UNL A   1      40.013  35.966  38.034  1.00  0.00     0.198 A 
ATOM     79  F   UNL A   1      40.876  35.591  35.876  1.00  0.00    -0.203 F 
ATOM     80  F   UNL A   1      37.889  33.894  40.115  1.00  0.00    -0.200 F 
ATOM     81  C   UNL A   1      39.256  35.541  39.117  1.00  0.00     0.200 A 
ATOM     82  F   UNL A   1      40.622  37.159  38.071  1.00  0.00    -0.200 F 
ATOM     83  F   UNL A   1      39.116  36.331  40.190  1.00  0.00    -0.200 F 
ENDBRANCH  49  73
BRANCH  61  84
ATOM     84  C   UNL A   1      44.133  28.961  35.103  1.00  0.00     0.064 A 
ATOM     85  C   UNL A   1      44.053  27.866  35.976  1.00  0.00     0.173 A 
ATOM     86  C   UNL A   1      45.394  29.535  34.881  1.00  0.00     0.173 A 
ATOM     87  F   UNL A   1      42.867  27.293  36.231  1.00  0.00    -0.203 F 
ATOM     88  C   UNL A   1      45.185  27.386  36.626  1.00  0.00     0.198 A 
ATOM     89  C   UNL A   1      46.529  29.034  35.512  1.00  0.00     0.198 A 
ATOM     90  F   UNL A   1      45.525  30.580  34.051  1.00  0.00    -0.203 F 
ATOM     91  F   UNL A   1      45.076  26.373  37.497  1.00  0.00    -0.200 F 
ATOM     92  C   UNL A   1      46.423  27.966  36.391  1.00  0.00     0.200 A 
ATOM     93  F   UNL A   1      47.725  29.589  35.275  1.00  0.00    -0.200 F 
ATOM     94  F   UNL A   1      47.512  27.503  37.019  1.00  0.00    -0.200 F 
ENDBRANCH  61  84
ENDBRANCH  35  36
ENDBRANCH  27  30
ENDBRANCH  25  26
ENDBRANCH  24  25
ENDBRANCH  23  24
ENDBRANCH  22  23
ENDBRANCH   1  22
TORSDOF 17
ENDMDL
MODEL 2
REMARK VINA RESULT:     -11.2      2.475      8.479
REMARK SMILES C[C@@H](CC(=O)NCCCCCCNC(=O)c1ccc(-c2c3nc(c(-c4c(F)c(F)c(F)c(F)c4F)c4ccc([nH]4)c(-c4c(F)c(F)c(F)c(F)c4F)c4nc(c(-c5c(F)c(F)c(F)c(F)c5F)c5ccc2[nH]5)C=C4)C=C3)cc1)NC(=O)/C=C/c1cccnc1
REMARK SMILES IDX 8 1 7 2 6 3 4 4 5 5 3 7 2 8 1 9 79 10 80 11 81 13 82 14
REMARK SMILES IDX 83 15 84 16 85 17 89 18 86 19 88 20 87 21 9 22 10 23 11 24
REMARK SMILES IDX 12 25 13 26 14 27 15 29 16 30 17 31 78 32 18 33 77 34 19 35
REMARK SMILES IDX 20 36 21 37 71 38 22 39 76 40 70 41 72 42 23 43 75 44 69 45
REMARK SMILES IDX 68 46 24 48 56 49 36 50 55 51 37 52 40 53 54 54 73 55 38 56
REMARK SMILES IDX 39 57 53 59 74 60 41 61 25 62 26 63 34 64 27 65 28 66 32 67
REMARK SMILES IDX 35 68 29 69 30 70 33 71 31 72 57 73 58 74 66 75 59 76 60 77
REMARK SMILES IDX 64 78 67 79 61 80 62 81 65 82 63 83 42 84 43 85 51 86 44 87
REMARK SMILES IDX 45 88 49 89 52 90 46 91 47 92 50 93 48 94
REMARK H PARENT 6 6 79 12 13 28 72 47 40 58
REMARK Flexibility Score: inf
ROOT
ATOM      1  C   UNL A   1      30.662  26.500  24.651  1.00  0.00     0.021 C 
ENDROOT
BRANCH   1   2
ATOM      2  C   UNL A   1      29.856  25.722  25.697  1.00  0.00     0.116 C 
BRANCH   2   3
ATOM      3  N   UNL A   1      30.761  25.047  26.605  1.00  0.00    -0.356 N 
ATOM      4  C   UNL A   1      31.196  23.758  26.603  1.00  0.00     0.222 C 
ATOM      5  O   UNL A   1      31.727  23.321  27.624  1.00  0.00    -0.275 OA
ATOM      6  H   UNL A   1      31.115  25.606  27.334  1.00  0.00     0.163 HD
BRANCH   4   7
ATOM      7  C   UNL A   1      31.072  22.901  25.363  1.00  0.00     0.124 C 
BRANCH   7   8
ATOM      8  C   UNL A   1      32.378  22.525  24.647  1.00  0.00     0.088 C 
ATOM      9  C   UNL A   1      32.520  23.172  23.272  1.00  0.00     0.031 C 
BRANCH   8  10
ATOM     10  N   UNL A   1      32.591  21.087  24.521  1.00  0.00    -0.350 N 
ATOM     11  C   UNL A   1      33.719  20.334  24.659  1.00  0.00     0.244 C 
ATOM     12  H   UNL A   1      31.781  20.573  24.300  1.00  0.00     0.164 HD
ATOM     13  O   UNL A   1      33.685  19.135  24.389  1.00  0.00    -0.270 OA
BRANCH  11  14
ATOM     14  C   UNL A   1      34.967  20.901  25.234  1.00  0.00     0.072 C 
ATOM     15  C   UNL A   1      35.845  21.682  24.594  1.00  0.00     0.015 C 
BRANCH  15  16
ATOM     16  C   UNL A   1      37.026  22.274  25.209  1.00  0.00    -0.007 A 
ATOM     17  C   UNL A   1      37.026  23.589  25.664  1.00  0.00     0.011 A 
ATOM     18  C   UNL A   1      38.153  21.496  25.463  1.00  0.00     0.119 A 
ATOM     19  C   UNL A   1      38.130  24.066  26.366  1.00  0.00     0.021 A 
ATOM     20  N   UNL A   1      39.239  21.932  26.140  1.00  0.00    -0.264 NA
ATOM     21  C   UNL A   1      39.198  23.207  26.583  1.00  0.00     0.111 A 
ENDBRANCH  15  16
ENDBRANCH  11  14
ENDBRANCH   8  10
ENDBRANCH   7   8
ENDBRANCH   4   7
ENDBRANCH   2   3
ENDBRANCH   1   2
BRANCH   1  22
ATOM     22  C   UNL A   1      30.736  28.002  24.922  1.00  0.00     0.002 C 
BRANCH  22  23
ATOM     23  C   UNL A   1      31.405  28.377  26.246  1.00  0.00     0.002 C 
BRANCH  23  24
ATOM     24  C   UNL A   1      32.927  28.199  26.278  1.00  0.00     0.021 C 
BRANCH  24  25
ATOM     25  C   UNL A   1      33.723  29.337  25.644  1.00  0.00     0.116 C 
BRANCH  25  26
ATOM     26  N   UNL A   1      33.314  30.636  26.151  1.00  0.00    -0.352 N 
ATOM     27  C   UNL A   1      33.771  31.341  27.233  1.00  0.00     0.251 C 
ATOM     28  H   UNL A   1      32.599  31.077  25.638  1.00  0.00     0.163 HD
ATOM     29  O   UNL A   1      33.156  32.326  27.629  1.00  0.00    -0.269 OA
BRANCH  27  30
ATOM     30  C   UNL A   1      34.998  30.914  27.937  1.00  0.00     0.039 A 
ATOM     31  C   UNL A   1      36.109  31.759  27.915  1.00  0.00     0.014 A 
ATOM     32  C   UNL A   1      35.071  29.672  28.578  1.00  0.00     0.014 A 
ATOM     33  C   UNL A   1      37.280  31.381  28.572  1.00  0.00     0.010 A 
ATOM     34  C   UNL A   1      36.218  29.324  29.289  1.00  0.00     0.010 A 
ATOM     35  C   UNL A   1      37.336  30.170  29.284  1.00  0.00    -0.014 A 
BRANCH  35  36
ATOM     36  C   UNL A   1      38.563  29.791  30.026  1.00  0.00     0.031 A 
ATOM     37  C   UNL A   1      38.829  30.345  31.397  1.00  0.00     0.074 A 
ATOM     38  C   UNL A   1      39.458  28.972  29.443  1.00  0.00     0.049 A 
ATOM     39  N   UNL A   1      39.837  30.114  32.200  1.00  0.00    -0.248 NA
ATOM     40  C   UNL A   1      37.848  31.305  31.926  1.00  0.00     0.031 C 
ATOM     41  C   UNL A   1      39.343  28.425  28.090  1.00  0.00     0.029 A 
ATOM     42  N   UNL A   1      40.640  28.457  29.912  1.00  0.00    -0.354 N 
ATOM     43  C   UNL A   1      39.617  30.905  33.321  1.00  0.00     0.074 A 
ATOM     44  C   UNL A   1      38.408  31.660  33.074  1.00  0.00     0.031 C 
ATOM     45  C   UNL A   1      40.397  27.630  27.848  1.00  0.00     0.029 A 
ATOM     46  C   UNL A   1      41.270  27.628  29.018  1.00  0.00     0.049 A 
ATOM     47  H   UNL A   1      41.002  28.664  30.803  1.00  0.00     0.167 HD
ATOM     48  C   UNL A   1      40.344  30.974  34.461  1.00  0.00     0.037 A 
ATOM     49  C   UNL A   1      42.419  26.937  29.133  1.00  0.00     0.037 A 
ATOM     50  C   UNL A   1      41.531  30.199  34.715  1.00  0.00     0.049 A 
ATOM     51  C   UNL A   1      43.188  27.003  30.423  1.00  0.00     0.074 A 
ATOM     52  C   UNL A   1      42.296  30.140  35.866  1.00  0.00     0.029 A 
ATOM     53  N   UNL A   1      42.127  29.348  33.795  1.00  0.00    -0.354 N 
ATOM     54  N   UNL A   1      42.923  27.686  31.510  1.00  0.00    -0.248 NA
ATOM     55  C   UNL A   1      44.408  26.189  30.507  1.00  0.00     0.031 C 
ATOM     56  C   UNL A   1      43.378  29.285  35.630  1.00  0.00     0.029 A 
ATOM     57  C   UNL A   1      43.264  28.777  34.346  1.00  0.00     0.049 A 
ATOM     58  H   UNL A   1      41.793  29.175  32.886  1.00  0.00     0.167 HD
ATOM     59  C   UNL A   1      43.930  27.374  32.412  1.00  0.00     0.074 A 
ATOM     60  C   UNL A   1      44.798  26.420  31.752  1.00  0.00     0.031 C 
ATOM     61  C   UNL A   1      44.121  27.837  33.672  1.00  0.00     0.037 A 
BRANCH  48  62
ATOM     62  C   UNL A   1      39.872  31.920  35.527  1.00  0.00     0.064 A 
ATOM     63  C   UNL A   1      40.414  33.208  35.659  1.00  0.00     0.173 A 
ATOM     64  C   UNL A   1      38.846  31.548  36.408  1.00  0.00     0.173 A 
ATOM     65  F   UNL A   1      41.406  33.609  34.850  1.00  0.00    -0.203 F 
ATOM     66  C   UNL A   1      39.967  34.077  36.651  1.00  0.00     0.198 A 
ATOM     67  C   UNL A   1      38.381  32.430  37.381  1.00  0.00     0.198 A 
ATOM     68  F   UNL A   1      38.289  30.331  36.322  1.00  0.00    -0.203 F 
ATOM     69  F   UNL A   1      40.533  35.283  36.788  1.00  0.00    -0.200 F 
ATOM     70  C   UNL A   1      38.946  33.690  37.507  1.00  0.00     0.200 A 
ATOM     71  F   UNL A   1      37.387  32.058  38.199  1.00  0.00    -0.200 F 
ATOM     72  F   UNL A   1      38.513  34.528  38.458  1.00  0.00    -0.200 F 
ENDBRANCH  48  62
BRANCH  49  73
ATOM     73  C   UNL A   1      42.885  26.090  28.006  1.00  0.00     0.064 A 
ATOM     74  C   UNL A   1      43.785  26.591  27.054  1.00  0.00     0.173 A 
ATOM     75  C   UNL A   1      42.452  24.765  27.863  1.00  0.00     0.173 A 
ATOM     76  F   UNL A   1      44.212  27.859  27.141  1.00  0.00    -0.203 F 
ATOM     77  C   UNL A   1      44.221  25.802  25.992  1.00  0.00     0.198 A 
ATOM     78  C   UNL A   1      42.909  23.969  26.815  1.00  0.00     0.198 A 
ATOM     79  F   UNL A   1      41.598  24.238  28.753  1.00  0.00    -0.203 F 
ATOM     80  F   UNL A   1      45.051  26.316  25.075  1.00  0.00    -0.200 F 
ATOM     81  C   UNL A   1      43.787  24.489  25.877  1.00  0.00     0.200 A 
ATOM     82  F   UNL A   1      42.500  22.696  26.716  1.00  0.00    -0.200 F 
ATOM     83  F   UNL A   1      44.213  23.728  24.859  1.00  0.00    -0.200 F 
ENDBRANCH  49  73
BRANCH  61  84
ATOM     84  C   UNL A   1      45.312  27.308  34.417  1.00  0.00     0.064 A 
ATOM     85  C   UNL A   1      45.235  26.139  35.188  1.00  0.00     0.173 A 
ATOM     86  C   UNL A   1      46.547  27.970  34.346  1.00  0.00     0.173 A 
ATOM     87  F   UNL A   1      44.072  25.481  35.299  1.00  0.00    -0.203 F 
ATOM     88  C   UNL A   1      46.343  25.669  35.886  1.00  0.00     0.198 A 
ATOM     89  C   UNL A   1      47.660  27.481  35.023  1.00  0.00     0.198 A 
ATOM     90  F   UNL A   1      46.675  29.089  33.617  1.00  0.00    -0.203 F 
ATOM     91  F   UNL A   1      46.232  24.580  36.660  1.00  0.00    -0.200 F 
ATOM     92  C   UNL A   1      47.556  26.337  35.800  1.00  0.00     0.200 A 
ATOM     93  F   UNL A   1      48.834  28.121  34.930  1.00  0.00    -0.200 F 
ATOM     94  F   UNL A   1      48.621  25.883  36.475  1.00  0.00    -0.200 F 
ENDBRANCH  61  84
ENDBRANCH  35  36
ENDBRANCH  27  30
ENDBRANCH  25  26
ENDBRANCH  24  25
ENDBRANCH  23  24
ENDBRANCH  22  23
ENDBRANCH   1  22
TORSDOF 17
ENDMDL
MODEL 3
REMARK VINA RESULT:     -11.2      0.963      2.277
REMARK SMILES C[C@@H](CC(=O)NCCCCCCNC(=O)c1ccc(-c2c3nc(c(-c4c(F)c(F)c(F)c(F)c4F)c4ccc([nH]4)c(-c4c(F)c(F)c(F)c(F)c4F)c4nc(c(-c5c(F)c(F)c(F)c(F)c5F)c5ccc2[nH]5)C=C4)C=C3)cc1)NC(=O)/C=C/c1cccnc1
REMARK SMILES IDX 8 1 7 2 6 3 4 4 5 5 3 7 2 8 1 9 79 10 80 11 81 13 82 14
REMARK SMILES IDX 83 15 84 16 85 17 89 18 86 19 88 20 87 21 9 22 10 23 11 24
REMARK SMILES IDX 12 25 13 26 14 27 15 29 16 30 17 31 78 32 18 33 77 34 19 35
REMARK SMILES IDX 20 36 21 37 71 38 22 39 76 40 70 41 72 42 23 43 75 44 69 45
REMARK SMILES IDX 68 46 24 48 56 49 36 50 55 51 37 52 40 53 54 54 73 55 38 56
REMARK SMILES IDX 39 57 53 59 74 60 41 61 25 62 26 63 34 64 27 65 28 66 32 67
REMARK SMILES IDX 35 68 29 69 30 70 33 71 31 72 57 73 58 74 66 75 59 76 60 77
REMARK SMILES IDX 64 78 67 79 61 80 62 81 65 82 63 83 42 84 43 85 51 86 44 87
REMARK SMILES IDX 45 88 49 89 52 90 46 91 47 92 50 93 48 94
REMARK H PARENT 6 6 79 12 13 28 72 47 40 58
REMARK Flexibility Score: inf
ROOT
ATOM      1  C   UNL A   1      32.610  29.207  27.027  1.00  0.00     0.021 C 
ENDROOT
BRANCH   1   2
ATOM      2  C   UNL A   1      31.923  27.869  26.741  1.00  0.00     0.116 C 
BRANCH   2   3
ATOM      3  N   UNL A   1      32.908  26.805  26.741  1.00  0.00    -0.356 N 
ATOM      4  C   UNL A   1      33.608  26.266  25.708  1.00  0.00     0.222 C 
ATOM      5  O   UNL A   1      34.173  25.187  25.887  1.00  0.00    -0.275 OA
ATOM      6  H   UNL A   1      33.099  26.415  27.624  1.00  0.00     0.163 HD
BRANCH   4   7
ATOM      7  C   UNL A   1      33.729  26.998  24.389  1.00  0.00     0.124 C 
BRANCH   7   8
ATOM      8  C   UNL A   1      33.549  26.162  23.114  1.00  0.00     0.088 C 
ATOM      9  C   UNL A   1      33.427  27.009  21.849  1.00  0.00     0.031 C 
BRANCH   8  10
ATOM     10  N   UNL A   1      32.428  25.230  23.171  1.00  0.00    -0.350 N 
ATOM     11  C   UNL A   1      31.121  25.421  23.510  1.00  0.00     0.244 C 
ATOM     12  H   UNL A   1      32.654  24.305  22.923  1.00  0.00     0.164 HD
ATOM     13  O   UNL A   1      30.369  24.453  23.601  1.00  0.00    -0.270 OA
BRANCH  11  14
ATOM     14  C   UNL A   1      30.550  26.785  23.664  1.00  0.00     0.072 C 
ATOM     15  C   UNL A   1      29.515  27.287  22.979  1.00  0.00     0.015 C 
BRANCH  15  16
ATOM     16  C   UNL A   1      28.940  28.608  23.202  1.00  0.00    -0.007 A 
ATOM     17  C   UNL A   1      29.743  29.732  23.372  1.00  0.00     0.011 A 
ATOM     18  C   UNL A   1      27.561  28.796  23.135  1.00  0.00     0.119 A 
ATOM     19  C   UNL A   1      29.148  30.988  23.445  1.00  0.00     0.021 A 
ATOM     20  N   UNL A   1      26.956  30.003  23.204  1.00  0.00    -0.264 NA
ATOM     21  C   UNL A   1      27.767  31.073  23.351  1.00  0.00     0.111 A 
ENDBRANCH  15  16
ENDBRANCH  11  14
ENDBRANCH   8  10
ENDBRANCH   7   8
ENDBRANCH   4   7
ENDBRANCH   2   3
ENDBRANCH   1   2
BRANCH   1  22
ATOM     22  C   UNL A   1      32.243  30.313  26.038  1.00  0.00     0.002 C 
BRANCH  22  23
ATOM     23  C   UNL A   1      31.120  31.239  26.508  1.00  0.00     0.002 C 
BRANCH  23  24
ATOM     24  C   UNL A   1      31.459  32.734  26.486  1.00  0.00     0.021 C 
BRANCH  24  25
ATOM     25  C   UNL A   1      32.631  33.143  27.373  1.00  0.00     0.116 C 
BRANCH  25  26
ATOM     26  N   UNL A   1      32.539  34.531  27.792  1.00  0.00    -0.352 N 
ATOM     27  C   UNL A   1      33.181  35.187  28.810  1.00  0.00     0.251 C 
ATOM     28  H   UNL A   1      31.920  35.085  27.265  1.00  0.00     0.163 HD
ATOM     29  O   UNL A   1      32.815  36.308  29.146  1.00  0.00    -0.269 OA
BRANCH  27  30
ATOM     30  C   UNL A   1      34.310  34.545  29.515  1.00  0.00     0.039 A 
ATOM     31  C   UNL A   1      34.059  33.899  30.727  1.00  0.00     0.014 A 
ATOM     32  C   UNL A   1      35.613  34.613  29.010  1.00  0.00     0.014 A 
ATOM     33  C   UNL A   1      35.106  33.282  31.412  1.00  0.00     0.010 A 
ATOM     34  C   UNL A   1      36.646  33.942  29.662  1.00  0.00     0.010 A 
ATOM     35  C   UNL A   1      36.404  33.279  30.874  1.00  0.00    -0.014 A 
BRANCH  35  36
ATOM     36  C   UNL A   1      37.507  32.579  31.576  1.00  0.00     0.031 A 
ATOM     37  C   UNL A   1      38.214  31.423  30.929  1.00  0.00     0.074 A 
ATOM     38  C   UNL A   1      37.847  32.969  32.819  1.00  0.00     0.049 A 
ATOM     39  N   UNL A   1      39.209  30.703  31.383  1.00  0.00    -0.248 NA
ATOM     40  C   UNL A   1      37.722  31.001  29.608  1.00  0.00     0.031 C 
ATOM     41  C   UNL A   1      37.189  34.034  33.578  1.00  0.00     0.029 A 
ATOM     42  N   UNL A   1      38.828  32.515  33.664  1.00  0.00    -0.354 N 
ATOM     43  C   UNL A   1      39.454  29.741  30.412  1.00  0.00     0.074 A 
ATOM     44  C   UNL A   1      38.473  29.935  29.368  1.00  0.00     0.031 C 
ATOM     45  C   UNL A   1      37.802  34.169  34.764  1.00  0.00     0.029 A 
ATOM     46  C   UNL A   1      38.879  33.189  34.858  1.00  0.00     0.049 A 
ATOM     47  H   UNL A   1      39.436  31.775  33.435  1.00  0.00     0.167 HD
ATOM     48  C   UNL A   1      40.426  28.798  30.384  1.00  0.00     0.037 A 
ATOM     49  C   UNL A   1      39.709  33.038  35.907  1.00  0.00     0.037 A 
ATOM     50  C   UNL A   1      41.419  28.626  31.414  1.00  0.00     0.049 A 
ATOM     51  C   UNL A   1      40.802  32.009  35.836  1.00  0.00     0.074 A 
ATOM     52  C   UNL A   1      42.491  27.752  31.444  1.00  0.00     0.029 A 
ATOM     53  N   UNL A   1      41.457  29.346  32.599  1.00  0.00    -0.354 N 
ATOM     54  N   UNL A   1      41.080  31.164  34.873  1.00  0.00    -0.248 NA
ATOM     55  C   UNL A   1      41.706  31.925  36.990  1.00  0.00     0.031 C 
ATOM     56  C   UNL A   1      43.154  27.913  32.666  1.00  0.00     0.029 A 
ATOM     57  C   UNL A   1      42.522  28.919  33.379  1.00  0.00     0.049 A 
ATOM     58  H   UNL A   1      40.822  30.054  32.851  1.00  0.00     0.167 HD
ATOM     59  C   UNL A   1      42.198  30.459  35.297  1.00  0.00     0.074 A 
ATOM     60  C   UNL A   1      42.561  30.994  36.593  1.00  0.00     0.031 C 
ATOM     61  C   UNL A   1      42.863  29.456  34.670  1.00  0.00     0.037 A 
BRANCH  48  62
ATOM     62  C   UNL A   1      40.466  27.879  29.198  1.00  0.00     0.064 A 
ATOM     63  C   UNL A   1      39.682  26.716  29.142  1.00  0.00     0.173 A 
ATOM     64  C   UNL A   1      41.274  28.178  28.091  1.00  0.00     0.173 A 
ATOM     65  F   UNL A   1      38.901  26.378  30.180  1.00  0.00    -0.203 F 
ATOM     66  C   UNL A   1      39.727  25.872  28.036  1.00  0.00     0.198 A 
ATOM     67  C   UNL A   1      41.295  27.347  26.973  1.00  0.00     0.198 A 
ATOM     68  F   UNL A   1      42.039  29.279  28.090  1.00  0.00    -0.203 F 
ATOM     69  F   UNL A   1      39.006  24.743  28.026  1.00  0.00    -0.200 F 
ATOM     70  C   UNL A   1      40.528  26.192  26.950  1.00  0.00     0.200 A 
ATOM     71  F   UNL A   1      42.061  27.663  25.920  1.00  0.00    -0.200 F 
ATOM     72  F   UNL A   1      40.567  25.382  25.882  1.00  0.00    -0.200 F 
ENDBRANCH  48  62
BRANCH  49  73
ATOM     73  C   UNL A   1      39.560  33.916  37.095  1.00  0.00     0.064 A 
ATOM     74  C   UNL A   1      40.149  35.188  37.129  1.00  0.00     0.173 A 
ATOM     75  C   UNL A   1      38.818  33.509  38.213  1.00  0.00     0.173 A 
ATOM     76  F   UNL A   1      40.883  35.612  36.090  1.00  0.00    -0.203 F 
ATOM     77  C   UNL A   1      40.017  36.012  38.243  1.00  0.00     0.198 A 
ATOM     78  C   UNL A   1      38.664  34.345  39.317  1.00  0.00     0.198 A 
ATOM     79  F   UNL A   1      38.228  32.305  38.225  1.00  0.00    -0.203 F 
ATOM     80  F   UNL A   1      40.622  37.207  38.266  1.00  0.00    -0.200 F 
ATOM     81  C   UNL A   1      39.269  35.594  39.334  1.00  0.00     0.200 A 
ATOM     82  F   UNL A   1      37.928  33.944  40.362  1.00  0.00    -0.200 F 
ATOM     83  F   UNL A   1      39.135  36.390  40.403  1.00  0.00    -0.200 F 
ENDBRANCH  49  73
BRANCH  61  84
ATOM     84  C   UNL A   1      44.054  28.883  35.381  1.00  0.00     0.064 A 
ATOM     85  C   UNL A   1      45.344  29.396  35.179  1.00  0.00     0.173 A 
ATOM     86  C   UNL A   1      43.901  27.820  36.283  1.00  0.00     0.173 A 
ATOM     87  F   UNL A   1      45.542  30.401  34.315  1.00  0.00    -0.203 F 
ATOM     88  C   UNL A   1      46.442  28.844  35.833  1.00  0.00     0.198 A 
ATOM     89  C   UNL A   1      44.998  27.289  36.956  1.00  0.00     0.198 A 
ATOM     90  F   UNL A   1      42.688  27.298  36.514  1.00  0.00    -0.203 F 
ATOM     91  F   UNL A   1      47.672  29.315  35.585  1.00  0.00    -0.200 F 
ATOM     92  C   UNL A   1      46.268  27.795  36.724  1.00  0.00     0.200 A 
ATOM     93  F   UNL A   1      44.827  26.283  37.824  1.00  0.00    -0.200 F 
ATOM     94  F   UNL A   1      47.327  27.265  37.350  1.00  0.00    -0.200 F 
ENDBRANCH  61  84
ENDBRANCH  35  36
ENDBRANCH  27  30
ENDBRANCH  25  26
ENDBRANCH  24  25
ENDBRANCH  23  24
ENDBRANCH  22  23
ENDBRANCH   1  22
TORSDOF 17
ENDMDL
