MODEL 1
REMARK VINA RESULT:     -12.0      0.000      0.000
REMARK SMILES CCC[C@@]1(C(=O)NCCCCCCNC(=O)c2ccc(-c3c4nc(c(-c5c(F)c(F)c(F)c(F)c5F)c5ccc([nH]5)c(-c5c(F)c(F)c(F)c(F)c5F)c5nc(c(-c6c(F)c(F)c(F)c(F)c6F)c6ccc3[nH]6)C=C5)C=C4)cc2)CCN(C(=O)NC[C@]2(C)CCCO2)C1
REMARK SMILES IDX 10 1 9 2 8 3 7 4 5 5 6 6 4 8 80 9 93 10 81 11 82 12 3 13
REMARK SMILES IDX 2 14 1 15 83 16 84 17 85 18 86 20 87 21 89 22 92 23 88 24
REMARK SMILES IDX 90 25 91 26 11 27 12 28 13 29 14 30 15 31 16 33 17 34 18 35
REMARK SMILES IDX 79 36 19 37 78 38 20 39 21 40 22 41 72 42 23 43 77 44 71 45
REMARK SMILES IDX 73 46 24 47 76 48 70 49 69 50 25 52 57 53 37 54 56 55 38 56
REMARK SMILES IDX 41 57 55 58 74 59 39 60 40 61 54 63 75 64 42 65 26 66 27 67
REMARK SMILES IDX 35 68 28 69 29 70 33 71 36 72 30 73 31 74 34 75 32 76 58 77
REMARK SMILES IDX 59 78 67 79 60 80 61 81 65 82 68 83 62 84 63 85 66 86 64 87
REMARK SMILES IDX 43 88 44 89 52 90 45 91 46 92 50 93 53 94 47 95 48 96 51 97
REMARK SMILES IDX 49 98
REMARK H PARENT 7 7 85 19 14 32 73 51 41 62
REMARK Flexibility Score: inf
ROOT
ATOM      1  C   UNL A   1      32.868  29.765  27.248  1.00  0.00     0.002 C 
ENDROOT
BRANCH   1   2
ATOM      2  C   UNL A   1      34.090  29.198  26.514  1.00  0.00     0.021 C 
BRANCH   2   3
ATOM      3  C   UNL A   1      33.879  27.837  25.859  1.00  0.00     0.116 C 
BRANCH   3   4
ATOM      4  N   UNL A   1      32.836  27.065  26.498  1.00  0.00    -0.356 N 
ATOM      5  C   UNL A   1      31.756  26.373  26.058  1.00  0.00     0.228 C 
ATOM      6  O   UNL A   1      31.240  25.687  26.944  1.00  0.00    -0.274 OA
ATOM      7  H   UNL A   1      32.933  27.035  27.477  1.00  0.00     0.163 HD
BRANCH   5   8
ATOM      8  C   UNL A   1      31.241  26.376  24.592  1.00  0.00     0.068 C 
ATOM      9  C   UNL A   1      30.174  25.264  24.431  1.00  0.00     0.040 C 
ATOM     10  C   UNL A   1      32.366  25.961  23.618  1.00  0.00     0.138 C 
ATOM     11  C   UNL A   1      30.695  24.258  23.419  1.00  0.00     0.122 C 
ATOM     12  N   UNL A   1      32.058  24.625  23.110  1.00  0.00    -0.324 N 
BRANCH   8  13
ATOM     13  C   UNL A   1      30.592  27.741  24.117  1.00  0.00     0.018 C 
BRANCH  13  14
ATOM     14  C   UNL A   1      31.336  28.731  23.211  1.00  0.00    -0.002 C 
ATOM     15  C   UNL A   1      30.464  29.492  22.230  1.00  0.00     0.004 C 
ENDBRANCH  13  14
ENDBRANCH   8  13
BRANCH  12  16
ATOM     16  C   UNL A   1      32.993  23.977  22.364  1.00  0.00     0.317 C 
ATOM     17  O   UNL A   1      33.292  24.373  21.231  1.00  0.00    -0.249 OA
ATOM     18  N   UNL A   1      33.682  22.905  22.795  1.00  0.00    -0.335 N 
ATOM     19  H   UNL A   1      34.258  22.531  22.089  1.00  0.00     0.165 HD
BRANCH  18  20
ATOM     20  C   UNL A   1      33.795  22.155  24.039  1.00  0.00     0.152 C 
BRANCH  20  21
ATOM     21  C   UNL A   1      34.895  22.639  25.026  1.00  0.00     0.083 C 
ATOM     22  C   UNL A   1      36.106  23.253  24.320  1.00  0.00     0.039 C 
ATOM     23  O   UNL A   1      35.419  21.524  25.773  1.00  0.00    -0.373 OA
ATOM     24  C   UNL A   1      34.285  23.632  26.031  1.00  0.00     0.044 C 
ATOM     25  C   UNL A   1      37.010  22.072  24.079  1.00  0.00     0.031 C 
ATOM     26  C   UNL A   1      36.723  21.187  25.272  1.00  0.00     0.161 C 
ENDBRANCH  20  21
ENDBRANCH  18  20
ENDBRANCH  12  16
ENDBRANCH   5   8
ENDBRANCH   3   4
ENDBRANCH   2   3
ENDBRANCH   1   2
BRANCH   1  27
ATOM     27  C   UNL A   1      31.830  30.481  26.379  1.00  0.00     0.002 C 
BRANCH  27  28
ATOM     28  C   UNL A   1      31.516  31.926  26.771  1.00  0.00     0.021 C 
BRANCH  28  29
ATOM     29  C   UNL A   1      32.673  32.690  27.397  1.00  0.00     0.116 C 
BRANCH  29  30
ATOM     30  N   UNL A   1      32.364  34.091  27.619  1.00  0.00    -0.352 N 
ATOM     31  C   UNL A   1      32.953  34.966  28.504  1.00  0.00     0.251 C 
ATOM     32  H   UNL A   1      31.639  34.464  27.067  1.00  0.00     0.163 HD
ATOM     33  O   UNL A   1      32.498  36.084  28.685  1.00  0.00    -0.269 OA
BRANCH  31  34
ATOM     34  C   UNL A   1      34.138  34.515  29.263  1.00  0.00     0.039 A 
ATOM     35  C   UNL A   1      33.959  33.929  30.520  1.00  0.00     0.014 A 
ATOM     36  C   UNL A   1      35.416  34.632  28.711  1.00  0.00     0.014 A 
ATOM     37  C   UNL A   1      35.060  33.394  31.195  1.00  0.00     0.010 A 
ATOM     38  C   UNL A   1      36.498  34.042  29.353  1.00  0.00     0.010 A 
ATOM     39  C   UNL A   1      36.331  33.417  30.600  1.00  0.00    -0.014 A 
BRANCH  39  40
ATOM     40  C   UNL A   1      37.517  32.813  31.254  1.00  0.00     0.031 A 
ATOM     41  C   UNL A   1      38.224  31.670  30.585  1.00  0.00     0.074 A 
ATOM     42  C   UNL A   1      37.891  33.216  32.484  1.00  0.00     0.049 A 
ATOM     43  N   UNL A   1      39.148  30.872  31.058  1.00  0.00    -0.248 NA
ATOM     44  C   UNL A   1      37.809  31.362  29.207  1.00  0.00     0.031 C 
ATOM     45  C   UNL A   1      37.273  34.302  33.245  1.00  0.00     0.029 A 
ATOM     46  N   UNL A   1      38.869  32.738  33.320  1.00  0.00    -0.354 N 
ATOM     47  C   UNL A   1      39.399  29.951  30.050  1.00  0.00     0.074 A 
ATOM     48  C   UNL A   1      38.507  30.265  28.955  1.00  0.00     0.031 C 
ATOM     49  C   UNL A   1      37.889  34.411  34.434  1.00  0.00     0.029 A 
ATOM     50  C   UNL A   1      38.911  33.374  34.537  1.00  0.00     0.049 A 
ATOM     51  H   UNL A   1      39.480  32.008  33.072  1.00  0.00     0.167 HD
ATOM     52  C   UNL A   1      40.304  28.945  30.035  1.00  0.00     0.037 A 
ATOM     53  C   UNL A   1      39.675  33.132  35.620  1.00  0.00     0.037 A 
ATOM     54  C   UNL A   1      41.214  28.661  31.112  1.00  0.00     0.049 A 
ATOM     55  C   UNL A   1      40.671  32.003  35.581  1.00  0.00     0.074 A 
ATOM     56  C   UNL A   1      42.200  27.694  31.177  1.00  0.00     0.029 A 
ATOM     57  N   UNL A   1      41.251  29.354  32.314  1.00  0.00    -0.354 N 
ATOM     58  N   UNL A   1      40.921  31.156  34.614  1.00  0.00    -0.248 NA
ATOM     59  C   UNL A   1      41.488  31.796  36.786  1.00  0.00     0.031 C 
ATOM     60  C   UNL A   1      42.814  27.779  32.431  1.00  0.00     0.029 A 
ATOM     61  C   UNL A   1      42.238  28.827  33.131  1.00  0.00     0.049 A 
ATOM     62  H   UNL A   1      40.664  30.108  32.550  1.00  0.00     0.167 HD
ATOM     63  C   UNL A   1      41.946  30.341  35.076  1.00  0.00     0.074 A 
ATOM     64  C   UNL A   1      42.271  30.794  36.412  1.00  0.00     0.031 C 
ATOM     65  C   UNL A   1      42.562  29.310  34.448  1.00  0.00     0.037 A 
BRANCH  52  66
ATOM     66  C   UNL A   1      40.350  28.074  28.814  1.00  0.00     0.064 A 
ATOM     67  C   UNL A   1      41.085  28.440  27.677  1.00  0.00     0.173 A 
ATOM     68  C   UNL A   1      39.672  26.846  28.792  1.00  0.00     0.173 A 
ATOM     69  F   UNL A   1      41.740  29.610  27.645  1.00  0.00    -0.203 F 
ATOM     70  C   UNL A   1      41.114  27.623  26.550  1.00  0.00     0.198 A 
ATOM     71  C   UNL A   1      39.728  26.018  27.673  1.00  0.00     0.198 A 
ATOM     72  F   UNL A   1      38.958  26.447  29.854  1.00  0.00    -0.203 F 
ATOM     73  F   UNL A   1      41.782  28.018  25.457  1.00  0.00    -0.200 F 
ATOM     74  C   UNL A   1      40.442  26.411  26.552  1.00  0.00     0.200 A 
ATOM     75  F   UNL A   1      39.087  24.840  27.680  1.00  0.00    -0.200 F 
ATOM     76  F   UNL A   1      40.475  25.623  25.468  1.00  0.00    -0.200 F 
ENDBRANCH  52  66
BRANCH  53  77
ATOM     77  C   UNL A   1      39.538  33.983  36.830  1.00  0.00     0.064 A 
ATOM     78  C   UNL A   1      40.209  35.212  36.920  1.00  0.00     0.173 A 
ATOM     79  C   UNL A   1      38.742  33.593  37.915  1.00  0.00     0.173 A 
ATOM     80  F   UNL A   1      41.001  35.616  35.916  1.00  0.00    -0.203 F 
ATOM     81  C   UNL A   1      40.102  36.009  38.058  1.00  0.00     0.198 A 
ATOM     82  C   UNL A   1      38.614  34.403  39.042  1.00  0.00     0.198 A 
ATOM     83  F   UNL A   1      38.077  32.429  37.877  1.00  0.00    -0.203 F 
ATOM     84  F   UNL A   1      40.786  37.157  38.135  1.00  0.00    -0.200 F 
ATOM     85  C   UNL A   1      39.299  35.606  39.115  1.00  0.00     0.200 A 
ATOM     86  F   UNL A   1      37.829  34.017  40.057  1.00  0.00    -0.200 F 
ATOM     87  F   UNL A   1      39.193  36.374  40.208  1.00  0.00    -0.200 F 
ENDBRANCH  53  77
BRANCH  65  88
ATOM     88  C   UNL A   1      43.688  28.634  35.170  1.00  0.00     0.064 A 
ATOM     89  C   UNL A   1      45.015  29.067  35.033  1.00  0.00     0.173 A 
ATOM     90  C   UNL A   1      43.424  27.585  36.063  1.00  0.00     0.173 A 
ATOM     91  F   UNL A   1      45.318  30.056  34.180  1.00  0.00    -0.203 F 
ATOM     92  C   UNL A   1      46.039  28.463  35.758  1.00  0.00     0.198 A 
ATOM     93  C   UNL A   1      44.447  27.001  36.804  1.00  0.00     0.198 A 
ATOM     94  F   UNL A   1      42.170  27.140  36.231  1.00  0.00    -0.203 F 
ATOM     95  F   UNL A   1      47.305  28.871  35.591  1.00  0.00    -0.200 F 
ATOM     96  C   UNL A   1      45.754  27.438  36.649  1.00  0.00     0.200 A 
ATOM     97  F   UNL A   1      44.168  26.019  37.672  1.00  0.00    -0.200 F 
ATOM     98  F   UNL A   1      46.740  26.870  37.356  1.00  0.00    -0.200 F 
ENDBRANCH  65  88
ENDBRANCH  39  40
ENDBRANCH  31  34
ENDBRANCH  29  30
ENDBRANCH  28  29
ENDBRANCH  27  28
ENDBRANCH   1  27
TORSDOF 18
ENDMDL
MODEL 2
REMARK VINA RESULT:     -11.7      5.199     10.579
REMARK SMILES CCC[C@@]1(C(=O)NCCCCCCNC(=O)c2ccc(-c3c4nc(c(-c5c(F)c(F)c(F)c(F)c5F)c5ccc([nH]5)c(-c5c(F)c(F)c(F)c(F)c5F)c5nc(c(-c6c(F)c(F)c(F)c(F)c6F)c6ccc3[nH]6)C=C5)C=C4)cc2)CCN(C(=O)NC[C@]2(C)CCCO2)C1
REMARK SMILES IDX 10 1 9 2 8 3 7 4 5 5 6 6 4 8 80 9 93 10 81 11 82 12 3 13
REMARK SMILES IDX 2 14 1 15 83 16 84 17 85 18 86 20 87 21 89 22 92 23 88 24
REMARK SMILES IDX 90 25 91 26 11 27 12 28 13 29 14 30 15 31 16 33 17 34 18 35
REMARK SMILES IDX 79 36 19 37 78 38 20 39 21 40 22 41 72 42 23 43 77 44 71 45
REMARK SMILES IDX 73 46 24 47 76 48 70 49 69 50 25 52 57 53 37 54 56 55 38 56
REMARK SMILES IDX 41 57 55 58 74 59 39 60 40 61 54 63 75 64 42 65 26 66 27 67
REMARK SMILES IDX 35 68 28 69 29 70 33 71 36 72 30 73 31 74 34 75 32 76 58 77
REMARK SMILES IDX 59 78 67 79 60 80 61 81 65 82 68 83 62 84 63 85 66 86 64 87
REMARK SMILES IDX 43 88 44 89 52 90 45 91 46 92 50 93 53 94 47 95 48 96 51 97
REMARK SMILES IDX 49 98
REMARK H PARENT 7 7 85 19 14 32 73 51 41 62
REMARK Flexibility Score: inf
ROOT
ATOM      1  C   UNL A   1      38.417  22.362  25.887  1.00  0.00     0.002 C 
ENDROOT
BRANCH   1   2
ATOM      2  C   UNL A   1      37.743  23.736  25.793  1.00  0.00     0.021 C 
BRANCH   2   3
ATOM      3  C   UNL A   1      36.220  23.708  25.719  1.00  0.00     0.116 C 
BRANCH   3   4
ATOM      4  N   UNL A   1      35.720  23.980  24.389  1.00  0.00    -0.356 N 
ATOM      5  C   UNL A   1      34.584  23.672  23.716  1.00  0.00     0.228 C 
ATOM      6  O   UNL A   1      34.484  24.285  22.650  1.00  0.00    -0.274 OA
ATOM      7  H   UNL A   1      36.349  24.511  23.850  1.00  0.00     0.163 HD
BRANCH   5   8
ATOM      8  C   UNL A   1      33.484  22.706  24.234  1.00  0.00     0.068 C 
ATOM      9  C   UNL A   1      32.300  22.707  23.232  1.00  0.00     0.040 C 
ATOM     10  C   UNL A   1      32.865  23.235  25.546  1.00  0.00     0.138 C 
ATOM     11  C   UNL A   1      31.074  23.237  23.958  1.00  0.00     0.122 C 
ATOM     12  N   UNL A   1      31.508  23.696  25.257  1.00  0.00    -0.324 N 
BRANCH   8  13
ATOM     13  C   UNL A   1      33.951  21.204  24.425  1.00  0.00     0.018 C 
BRANCH  13  14
ATOM     14  C   UNL A   1      32.958  20.060  24.665  1.00  0.00    -0.002 C 
ATOM     15  C   UNL A   1      32.472  19.351  23.414  1.00  0.00     0.004 C 
ENDBRANCH  13  14
ENDBRANCH   8  13
BRANCH  12  16
ATOM     16  C   UNL A   1      30.823  24.363  26.225  1.00  0.00     0.317 C 
ATOM     17  O   UNL A   1      30.492  23.800  27.275  1.00  0.00    -0.249 OA
ATOM     18  N   UNL A   1      30.492  25.665  26.144  1.00  0.00    -0.335 N 
ATOM     19  H   UNL A   1      29.935  25.949  26.905  1.00  0.00     0.165 HD
BRANCH  18  20
ATOM     20  C   UNL A   1      30.745  26.762  25.219  1.00  0.00     0.152 C 
BRANCH  20  21
ATOM     21  C   UNL A   1      32.070  27.545  25.442  1.00  0.00     0.083 C 
ATOM     22  C   UNL A   1      32.450  27.673  26.919  1.00  0.00     0.039 C 
ATOM     23  O   UNL A   1      31.932  28.899  24.970  1.00  0.00    -0.373 OA
ATOM     24  C   UNL A   1      33.202  26.881  24.640  1.00  0.00     0.044 C 
ATOM     25  C   UNL A   1      31.765  28.943  27.351  1.00  0.00     0.031 C 
ATOM     26  C   UNL A   1      31.806  29.785  26.094  1.00  0.00     0.161 C 
ENDBRANCH  20  21
ENDBRANCH  18  20
ENDBRANCH  12  16
ENDBRANCH   5   8
ENDBRANCH   3   4
ENDBRANCH   2   3
ENDBRANCH   1   2
BRANCH   1  27
ATOM     27  C   UNL A   1      37.805  21.250  25.028  1.00  0.00     0.002 C 
BRANCH  27  28
ATOM     28  C   UNL A   1      38.592  19.940  24.975  1.00  0.00     0.021 C 
BRANCH  28  29
ATOM     29  C   UNL A   1      39.451  19.654  26.197  1.00  0.00     0.116 C 
BRANCH  29  30
ATOM     30  N   UNL A   1      40.659  18.915  25.873  1.00  0.00    -0.352 N 
ATOM     31  C   UNL A   1      41.960  19.364  25.869  1.00  0.00     0.251 C 
ATOM     32  H   UNL A   1      40.530  17.972  25.623  1.00  0.00     0.163 HD
ATOM     33  O   UNL A   1      42.867  18.670  25.440  1.00  0.00    -0.269 OA
BRANCH  31  34
ATOM     34  C   UNL A   1      42.241  20.727  26.369  1.00  0.00     0.039 A 
ATOM     35  C   UNL A   1      42.269  20.954  27.748  1.00  0.00     0.014 A 
ATOM     36  C   UNL A   1      42.519  21.763  25.474  1.00  0.00     0.014 A 
ATOM     37  C   UNL A   1      42.647  22.209  28.233  1.00  0.00     0.010 A 
ATOM     38  C   UNL A   1      42.957  22.990  25.958  1.00  0.00     0.010 A 
ATOM     39  C   UNL A   1      43.027  23.224  27.341  1.00  0.00    -0.014 A 
BRANCH  39  40
ATOM     40  C   UNL A   1      43.488  24.553  27.812  1.00  0.00     0.031 A 
ATOM     41  C   UNL A   1      42.473  25.605  28.154  1.00  0.00     0.074 A 
ATOM     42  C   UNL A   1      44.803  24.846  27.831  1.00  0.00     0.049 A 
ATOM     43  N   UNL A   1      42.645  26.880  28.394  1.00  0.00    -0.248 NA
ATOM     44  C   UNL A   1      41.068  25.168  28.197  1.00  0.00     0.031 C 
ATOM     45  C   UNL A   1      45.884  23.917  27.502  1.00  0.00     0.029 A 
ATOM     46  N   UNL A   1      45.450  26.023  28.116  1.00  0.00    -0.354 N 
ATOM     47  C   UNL A   1      41.373  27.401  28.584  1.00  0.00     0.074 A 
ATOM     48  C   UNL A   1      40.435  26.315  28.396  1.00  0.00     0.031 C 
ATOM     49  C   UNL A   1      47.060  24.557  27.609  1.00  0.00     0.029 A 
ATOM     50  C   UNL A   1      46.813  25.951  27.967  1.00  0.00     0.049 A 
ATOM     51  H   UNL A   1      44.982  26.841  28.398  1.00  0.00     0.167 HD
ATOM     52  C   UNL A   1      41.020  28.668  28.902  1.00  0.00     0.037 A 
ATOM     53  C   UNL A   1      47.754  26.908  28.084  1.00  0.00     0.037 A 
ATOM     54  C   UNL A   1      41.958  29.736  29.124  1.00  0.00     0.049 A 
ATOM     55  C   UNL A   1      47.337  28.311  28.434  1.00  0.00     0.074 A 
ATOM     56  C   UNL A   1      41.705  31.044  29.496  1.00  0.00     0.029 A 
ATOM     57  N   UNL A   1      43.335  29.612  29.001  1.00  0.00    -0.354 N 
ATOM     58  N   UNL A   1      46.134  28.788  28.639  1.00  0.00    -0.248 NA
ATOM     59  C   UNL A   1      48.408  29.310  28.564  1.00  0.00     0.031 C 
ATOM     60  C   UNL A   1      42.927  31.722  29.567  1.00  0.00     0.029 A 
ATOM     61  C   UNL A   1      43.943  30.824  29.280  1.00  0.00     0.049 A 
ATOM     62  H   UNL A   1      43.808  28.785  28.753  1.00  0.00     0.167 HD
ATOM     63  C   UNL A   1      46.304  30.129  28.959  1.00  0.00     0.074 A 
ATOM     64  C   UNL A   1      47.727  30.391  28.918  1.00  0.00     0.031 C 
ATOM     65  C   UNL A   1      45.364  31.057  29.259  1.00  0.00     0.037 A 
BRANCH  52  66
ATOM     66  C   UNL A   1      39.556  28.969  29.025  1.00  0.00     0.064 A 
ATOM     67  C   UNL A   1      38.790  29.366  27.918  1.00  0.00     0.173 A 
ATOM     68  C   UNL A   1      38.903  28.832  30.260  1.00  0.00     0.173 A 
ATOM     69  F   UNL A   1      39.370  29.523  26.719  1.00  0.00    -0.203 F 
ATOM     70  C   UNL A   1      37.433  29.646  28.050  1.00  0.00     0.198 A 
ATOM     71  C   UNL A   1      37.539  29.084  30.381  1.00  0.00     0.198 A 
ATOM     72  F   UNL A   1      39.588  28.452  31.349  1.00  0.00    -0.203 F 
ATOM     73  F   UNL A   1      36.734  30.073  26.989  1.00  0.00    -0.200 F 
ATOM     74  C   UNL A   1      36.808  29.498  29.278  1.00  0.00     0.200 A 
ATOM     75  F   UNL A   1      36.933  28.931  31.567  1.00  0.00    -0.200 F 
ATOM     76  F   UNL A   1      35.500  29.763  29.402  1.00  0.00    -0.200 F 
ENDBRANCH  52  66
BRANCH  53  77
ATOM     77  C   UNL A   1      49.187  26.569  27.883  1.00  0.00     0.064 A 
ATOM     78  C   UNL A   1      49.715  26.431  26.591  1.00  0.00     0.173 A 
ATOM     79  C   UNL A   1      50.054  26.377  28.967  1.00  0.00     0.173 A 
ATOM     80  F   UNL A   1      48.918  26.583  25.524  1.00  0.00    -0.203 F 
ATOM     81  C   UNL A   1      51.053  26.095  26.392  1.00  0.00     0.198 A 
ATOM     82  C   UNL A   1      51.398  26.067  28.767  1.00  0.00     0.198 A 
ATOM     83  F   UNL A   1      49.599  26.501  30.222  1.00  0.00    -0.203 F 
ATOM     84  F   UNL A   1      51.521  25.928  25.149  1.00  0.00    -0.200 F 
ATOM     85  C   UNL A   1      51.894  25.919  27.481  1.00  0.00     0.200 A 
ATOM     86  F   UNL A   1      52.211  25.909  29.821  1.00  0.00    -0.200 F 
ATOM     87  F   UNL A   1      53.181  25.600  27.290  1.00  0.00    -0.200 F 
ENDBRANCH  53  77
BRANCH  65  88
ATOM     88  C   UNL A   1      45.841  32.431  29.624  1.00  0.00     0.064 A 
ATOM     89  C   UNL A   1      45.963  33.447  28.666  1.00  0.00     0.173 A 
ATOM     90  C   UNL A   1      46.112  32.750  30.963  1.00  0.00     0.173 A 
ATOM     91  F   UNL A   1      45.729  33.185  27.371  1.00  0.00    -0.203 F 
ATOM     92  C   UNL A   1      46.351  34.732  29.035  1.00  0.00     0.198 A 
ATOM     93  C   UNL A   1      46.476  34.041  31.332  1.00  0.00     0.198 A 
ATOM     94  F   UNL A   1      46.005  31.812  31.917  1.00  0.00    -0.203 F 
ATOM     95  F   UNL A   1      46.491  35.682  28.100  1.00  0.00    -0.200 F 
ATOM     96  C   UNL A   1      46.598  35.031  30.368  1.00  0.00     0.200 A 
ATOM     97  F   UNL A   1      46.703  34.331  32.621  1.00  0.00    -0.200 F 
ATOM     98  F   UNL A   1      46.957  36.272  30.722  1.00  0.00    -0.200 F 
ENDBRANCH  65  88
ENDBRANCH  39  40
ENDBRANCH  31  34
ENDBRANCH  29  30
ENDBRANCH  28  29
ENDBRANCH  27  28
ENDBRANCH   1  27
TORSDOF 18
ENDMDL
MODEL 3
REMARK VINA RESULT:     -11.7      0.867      7.325
REMARK SMILES CCC[C@@]1(C(=O)NCCCCCCNC(=O)c2ccc(-c3c4nc(c(-c5c(F)c(F)c(F)c(F)c5F)c5ccc([nH]5)c(-c5c(F)c(F)c(F)c(F)c5F)c5nc(c(-c6c(F)c(F)c(F)c(F)c6F)c6ccc3[nH]6)C=C5)C=C4)cc2)CCN(C(=O)NC[C@]2(C)CCCO2)C1
REMARK SMILES IDX 10 1 9 2 8 3 7 4 5 5 6 6 4 8 80 9 93 10 81 11 82 12 3 13
REMARK SMILES IDX 2 14 1 15 83 16 84 17 85 18 86 20 87 21 89 22 92 23 88 24
REMARK SMILES IDX 90 25 91 26 11 27 12 28 13 29 14 30 15 31 16 33 17 34 18 35
REMARK SMILES IDX 79 36 19 37 78 38 20 39 21 40 22 41 72 42 23 43 77 44 71 45
REMARK SMILES IDX 73 46 24 47 76 48 70 49 69 50 25 52 57 53 37 54 56 55 38 56
REMARK SMILES IDX 41 57 55 58 74 59 39 60 40 61 54 63 75 64 42 65 26 66 27 67
REMARK SMILES IDX 35 68 28 69 29 70 33 71 36 72 30 73 31 74 34 75 32 76 58 77
REMARK SMILES IDX 59 78 67 79 60 80 61 81 65 82 68 83 62 84 63 85 66 86 64 87
REMARK SMILES IDX 43 88 44 89 52 90 45 91 46 92 50 93 53 94 47 95 48 96 51 97
REMARK SMILES IDX 49 98
REMARK H PARENT 7 7 85 19 14 32 73 51 41 62
REMARK Flexibility Score: inf
ROOT
ATOM      1  C   UNL A   1      32.506  29.994  26.919  1.00  0.00     0.002 C 
ENDROOT
BRANCH   1   2
ATOM      2  C   UNL A   1      33.609  29.378  26.049  1.00  0.00     0.021 C 
BRANCH   2   3
ATOM      3  C   UNL A   1      33.801  27.874  26.215  1.00  0.00     0.116 C 
BRANCH   3   4
ATOM      4  N   UNL A   1      32.609  27.207  26.690  1.00  0.00    -0.356 N 
ATOM      5  C   UNL A   1      31.538  26.629  26.093  1.00  0.00     0.228 C 
ATOM      6  O   UNL A   1      30.838  25.994  26.887  1.00  0.00    -0.274 OA
ATOM      7  H   UNL A   1      32.566  27.163  27.673  1.00  0.00     0.163 HD
BRANCH   5   8
ATOM      8  C   UNL A   1      31.234  26.690  24.571  1.00  0.00     0.068 C 
ATOM      9  C   UNL A   1      30.151  25.635  24.230  1.00  0.00     0.040 C 
ATOM     10  C   UNL A   1      32.464  26.243  23.750  1.00  0.00     0.138 C 
ATOM     11  C   UNL A   1      30.764  24.627  23.272  1.00  0.00     0.122 C 
ATOM     12  N   UNL A   1      32.171  24.935  23.165  1.00  0.00    -0.324 N 
BRANCH   8  13
ATOM     13  C   UNL A   1      30.720  28.095  24.050  1.00  0.00     0.018 C 
BRANCH  13  14
ATOM     14  C   UNL A   1      29.463  28.237  23.181  1.00  0.00    -0.002 C 
ATOM     15  C   UNL A   1      29.380  29.515  22.366  1.00  0.00     0.004 C 
ENDBRANCH  13  14
ENDBRANCH   8  13
BRANCH  12  16
ATOM     16  C   UNL A   1      33.171  24.259  22.538  1.00  0.00     0.317 C 
ATOM     17  O   UNL A   1      33.341  24.361  21.318  1.00  0.00    -0.249 OA
ATOM     18  N   UNL A   1      34.061  23.478  23.177  1.00  0.00    -0.335 N 
ATOM     19  H   UNL A   1      34.661  23.016  22.547  1.00  0.00     0.165 HD
BRANCH  18  20
ATOM     20  C   UNL A   1      34.365  23.140  24.561  1.00  0.00     0.152 C 
BRANCH  20  21
ATOM     21  C   UNL A   1      33.476  22.034  25.200  1.00  0.00     0.083 C 
ATOM     22  C   UNL A   1      32.340  22.600  26.056  1.00  0.00     0.039 C 
ATOM     23  O   UNL A   1      34.260  21.226  26.100  1.00  0.00    -0.373 OA
ATOM     24  C   UNL A   1      32.926  21.113  24.098  1.00  0.00     0.044 C 
ATOM     25  C   UNL A   1      32.959  22.727  27.424  1.00  0.00     0.031 C 
ATOM     26  C   UNL A   1      33.933  21.570  27.455  1.00  0.00     0.161 C 
ENDBRANCH  20  21
ENDBRANCH  18  20
ENDBRANCH  12  16
ENDBRANCH   5   8
ENDBRANCH   3   4
ENDBRANCH   2   3
ENDBRANCH   1   2
BRANCH   1  27
ATOM     27  C   UNL A   1      31.469  30.852  26.186  1.00  0.00     0.002 C 
BRANCH  27  28
ATOM     28  C   UNL A   1      31.319  32.289  26.688  1.00  0.00     0.021 C 
BRANCH  28  29
ATOM     29  C   UNL A   1      32.585  32.907  27.262  1.00  0.00     0.116 C 
BRANCH  29  30
ATOM     30  N   UNL A   1      32.411  34.300  27.631  1.00  0.00    -0.352 N 
ATOM     31  C   UNL A   1      33.056  35.009  28.619  1.00  0.00     0.251 C 
ATOM     32  H   UNL A   1      31.744  34.803  27.109  1.00  0.00     0.163 HD
ATOM     33  O   UNL A   1      32.711  36.142  28.913  1.00  0.00    -0.269 OA
BRANCH  31  34
ATOM     34  C   UNL A   1      34.166  34.359  29.348  1.00  0.00     0.039 A 
ATOM     35  C   UNL A   1      33.880  33.591  30.479  1.00  0.00     0.014 A 
ATOM     36  C   UNL A   1      35.479  34.476  28.883  1.00  0.00     0.014 A 
ATOM     37  C   UNL A   1      34.905  32.878  31.107  1.00  0.00     0.010 A 
ATOM     38  C   UNL A   1      36.484  33.717  29.469  1.00  0.00     0.010 A 
ATOM     39  C   UNL A   1      36.207  32.910  30.584  1.00  0.00    -0.014 A 
BRANCH  39  40
ATOM     40  C   UNL A   1      37.315  32.127  31.185  1.00  0.00     0.031 A 
ATOM     41  C   UNL A   1      37.835  32.508  32.541  1.00  0.00     0.074 A 
ATOM     42  C   UNL A   1      37.918  31.153  30.476  1.00  0.00     0.049 A 
ATOM     43  N   UNL A   1      38.908  32.096  33.166  1.00  0.00    -0.248 NA
ATOM     44  C   UNL A   1      37.057  33.516  33.279  1.00  0.00     0.031 C 
ATOM     45  C   UNL A   1      37.519  30.704  29.142  1.00  0.00     0.029 A 
ATOM     46  N   UNL A   1      39.015  30.382  30.772  1.00  0.00    -0.354 N 
ATOM     47  C   UNL A   1      38.951  32.816  34.352  1.00  0.00     0.074 A 
ATOM     48  C   UNL A   1      37.818  33.716  34.344  1.00  0.00     0.031 C 
ATOM     49  C   UNL A   1      38.355  29.734  28.737  1.00  0.00     0.029 A 
ATOM     50  C   UNL A   1      39.374  29.525  29.761  1.00  0.00     0.049 A 
ATOM     51  H   UNL A   1      39.497  30.439  31.628  1.00  0.00     0.167 HD
ATOM     52  C   UNL A   1      39.846  32.723  35.362  1.00  0.00     0.037 A 
ATOM     53  C   UNL A   1      40.422  28.684  29.663  1.00  0.00     0.037 A 
ATOM     54  C   UNL A   1      40.950  31.800  35.381  1.00  0.00     0.049 A 
ATOM     55  C   UNL A   1      41.408  28.602  30.798  1.00  0.00     0.074 A 
ATOM     56  C   UNL A   1      41.887  31.594  36.377  1.00  0.00     0.029 A 
ATOM     57  N   UNL A   1      41.257  30.921  34.352  1.00  0.00    -0.354 N 
ATOM     58  N   UNL A   1      41.425  29.266  31.927  1.00  0.00    -0.248 NA
ATOM     59  C   UNL A   1      42.522  27.655  30.643  1.00  0.00     0.031 C 
ATOM     60  C   UNL A   1      42.783  30.613  35.939  1.00  0.00     0.029 A 
ATOM     61  C   UNL A   1      42.378  30.178  34.687  1.00  0.00     0.049 A 
ATOM     62  H   UNL A   1      40.754  30.837  33.510  1.00  0.00     0.167 HD
ATOM     63  C   UNL A   1      42.524  28.794  32.632  1.00  0.00     0.074 A 
ATOM     64  C   UNL A   1      43.152  27.787  31.802  1.00  0.00     0.031 C 
ATOM     65  C   UNL A   1      42.971  29.162  33.857  1.00  0.00     0.037 A 
BRANCH  52  66
ATOM     66  C   UNL A   1      39.670  33.647  36.530  1.00  0.00     0.064 A 
ATOM     67  C   UNL A   1      40.314  34.892  36.587  1.00  0.00     0.173 A 
ATOM     68  C   UNL A   1      38.827  33.294  37.595  1.00  0.00     0.173 A 
ATOM     69  F   UNL A   1      41.141  35.269  35.600  1.00  0.00    -0.203 F 
ATOM     70  C   UNL A   1      40.144  35.737  37.680  1.00  0.00     0.198 A 
ATOM     71  C   UNL A   1      38.636  34.156  38.672  1.00  0.00     0.198 A 
ATOM     72  F   UNL A   1      38.185  32.117  37.589  1.00  0.00    -0.203 F 
ATOM     73  F   UNL A   1      40.809  36.900  37.735  1.00  0.00    -0.200 F 
ATOM     74  C   UNL A   1      39.301  35.371  38.717  1.00  0.00     0.200 A 
ATOM     75  F   UNL A   1      37.812  33.806  39.670  1.00  0.00    -0.200 F 
ATOM     76  F   UNL A   1      39.134  36.188  39.767  1.00  0.00    -0.200 F 
ENDBRANCH  52  66
BRANCH  53  77
ATOM     77  C   UNL A   1      40.587  27.841  28.451  1.00  0.00     0.064 A 
ATOM     78  C   UNL A   1      40.013  26.563  28.385  1.00  0.00     0.173 A 
ATOM     79  C   UNL A   1      41.314  28.288  27.340  1.00  0.00     0.173 A 
ATOM     80  F   UNL A   1      39.327  26.083  29.433  1.00  0.00    -0.203 F 
ATOM     81  C   UNL A   1      40.177  25.757  27.260  1.00  0.00     0.198 A 
ATOM     82  C   UNL A   1      41.456  27.492  26.205  1.00  0.00     0.198 A 
ATOM     83  F   UNL A   1      41.880  29.504  27.352  1.00  0.00    -0.203 F 
ATOM     84  F   UNL A   1      39.654  24.524  27.240  1.00  0.00    -0.200 F 
ATOM     85  C   UNL A   1      40.893  26.225  26.169  1.00  0.00     0.200 A 
ATOM     86  F   UNL A   1      42.139  27.951  25.147  1.00  0.00    -0.200 F 
ATOM     87  F   UNL A   1      41.048  25.452  25.086  1.00  0.00    -0.200 F 
ENDBRANCH  53  77
BRANCH  65  88
ATOM     88  C   UNL A   1      44.164  28.437  34.404  1.00  0.00     0.064 A 
ATOM     89  C   UNL A   1      44.032  27.235  35.114  1.00  0.00     0.173 A 
ATOM     90  C   UNL A   1      45.457  28.919  34.154  1.00  0.00     0.173 A 
ATOM     91  F   UNL A   1      42.815  26.744  35.390  1.00  0.00    -0.203 F 
ATOM     92  C   UNL A   1      45.156  26.546  35.563  1.00  0.00     0.198 A 
ATOM     93  C   UNL A   1      46.579  28.215  34.583  1.00  0.00     0.198 A 
ATOM     94  F   UNL A   1      45.634  30.062  33.475  1.00  0.00    -0.203 F 
ATOM     95  F   UNL A   1      45.009  25.414  36.265  1.00  0.00    -0.200 F 
ATOM     96  C   UNL A   1      46.428  27.031  35.289  1.00  0.00     0.200 A 
ATOM     97  F   UNL A   1      47.806  28.679  34.307  1.00  0.00    -0.200 F 
ATOM     98  F   UNL A   1      47.507  26.358  35.710  1.00  0.00    -0.200 F 
ENDBRANCH  65  88
ENDBRANCH  39  40
ENDBRANCH  31  34
ENDBRANCH  29  30
ENDBRANCH  28  29
ENDBRANCH  27  28
ENDBRANCH   1  27
TORSDOF 18
ENDMDL
