MODEL 1
REMARK VINA RESULT:     -11.3      0.000      0.000
REMARK SMILES C[N@@H+]1CCC[C@@H](NC(=O)N(CC(=O)NCCCCCCNC(=O)c2ccc(-c3c4nc(c(-c5c(F)c(F)c(F)c(F)c5F)c5ccc([nH]5)c(-c5c(F)c(F)c(F)c(F)c5F)c5nc(c(-c6c(F)c(F)c(F)c(F)c6F)c6ccc3[nH]6)C=C5)C=C4)cc2)C(C)(C)C)C1
REMARK SMILES IDX 17 1 16 2 15 3 14 4 12 5 13 6 11 8 10 9 8 10 7 11 9 13 6 14
REMARK SMILES IDX 1 15 2 16 3 17 91 18 4 20 5 21 87 22 88 23 89 24 90 25 18 26
REMARK SMILES IDX 19 27 20 28 21 29 22 30 23 32 24 33 25 34 86 35 26 36 85 37
REMARK SMILES IDX 27 38 28 39 29 40 79 41 30 42 84 43 78 44 80 45 31 46 83 47
REMARK SMILES IDX 77 48 76 49 32 51 64 52 44 53 63 54 45 55 48 56 62 57 81 58
REMARK SMILES IDX 46 59 47 60 61 62 82 63 49 64 33 65 34 66 42 67 35 68 36 69
REMARK SMILES IDX 40 70 43 71 37 72 38 73 41 74 39 75 65 76 66 77 74 78 67 79
REMARK SMILES IDX 68 80 72 81 75 82 69 83 70 84 73 85 71 86 50 87 51 88 59 89
REMARK SMILES IDX 52 90 53 91 57 92 60 93 54 94 55 95 58 96 56 97
REMARK H PARENT 14 7 7 12 2 19 21 31 80 50 48 61
REMARK Flexibility Score: inf
ROOT
ATOM      1  C   UNL A   1      41.577  21.517  26.605  1.00  0.00     0.002 C 
ENDROOT
BRANCH   1   2
ATOM      2  C   UNL A   1      40.561  22.354  27.378  1.00  0.00     0.021 C 
BRANCH   2   3
ATOM      3  C   UNL A   1      39.487  23.014  26.525  1.00  0.00     0.116 C 
BRANCH   3   4
ATOM      4  N   UNL A   1      38.772  22.107  25.656  1.00  0.00    -0.355 N 
ATOM      5  C   UNL A   1      37.461  22.063  25.296  1.00  0.00     0.239 C 
ATOM      6  O   UNL A   1      37.202  21.411  24.276  1.00  0.00    -0.273 OA
ATOM      7  H   UNL A   1      39.330  21.401  25.254  1.00  0.00     0.163 HD
BRANCH   5   8
ATOM      8  C   UNL A   1      36.330  22.862  25.981  1.00  0.00     0.221 C 
BRANCH   8   9
ATOM      9  N   UNL A   1      34.938  22.432  25.827  1.00  0.00    -0.311 N 
BRANCH   9  10
ATOM     10  C   UNL A   1      34.381  21.325  26.437  1.00  0.00     0.318 C 
ATOM     11  N   UNL A   1      34.117  20.150  25.830  1.00  0.00    -0.330 N 
ATOM     12  H   UNL A   1      33.748  19.520  26.490  1.00  0.00     0.165 HD
ATOM     13  O   UNL A   1      34.039  21.339  27.625  1.00  0.00    -0.249 OA
BRANCH  11  14
ATOM     14  C   UNL A   1      34.192  19.490  24.514  1.00  0.00     0.139 C 
ATOM     15  C   UNL A   1      35.337  15.957  25.379  1.00  0.00     0.332 C 
ATOM     16  N   UNL A   1      34.430  17.102  25.277  1.00  0.00    -0.336 N 
ATOM     17  C   UNL A   1      33.211  16.715  24.557  1.00  0.00     0.262 C 
ATOM     18  C   UNL A   1      35.097  18.235  24.601  1.00  0.00     0.287 C 
ATOM     19  H   UNL A   1      34.174  17.401  26.217  1.00  0.00     0.347 HD
ATOM     20  C   UNL A   1      32.210  17.862  24.587  1.00  0.00     0.064 C 
ATOM     21  C   UNL A   1      32.794  19.129  23.978  1.00  0.00     0.037 C 
ENDBRANCH  11  14
ENDBRANCH   9  10
BRANCH   9  22
ATOM     22  C   UNL A   1      34.038  23.332  24.978  1.00  0.00     0.037 C 
ATOM     23  C   UNL A   1      34.374  24.823  25.187  1.00  0.00     0.034 C 
ATOM     24  C   UNL A   1      34.159  22.978  23.478  1.00  0.00     0.034 C 
ATOM     25  C   UNL A   1      32.518  23.216  25.300  1.00  0.00     0.034 C 
ENDBRANCH   9  22
ENDBRANCH   8   9
ENDBRANCH   5   8
ENDBRANCH   3   4
ENDBRANCH   2   3
ENDBRANCH   1   2
BRANCH   1  26
ATOM     26  C   UNL A   1      41.909  20.160  27.230  1.00  0.00     0.002 C 
BRANCH  26  27
ATOM     27  C   UNL A   1      42.197  19.027  26.240  1.00  0.00     0.021 C 
BRANCH  27  28
ATOM     28  C   UNL A   1      43.669  18.648  26.085  1.00  0.00     0.116 C 
BRANCH  28  29
ATOM     29  N   UNL A   1      44.103  18.664  24.699  1.00  0.00    -0.352 N 
ATOM     30  C   UNL A   1      44.545  19.702  23.922  1.00  0.00     0.251 C 
ATOM     31  H   UNL A   1      44.074  17.791  24.247  1.00  0.00     0.163 HD
ATOM     32  O   UNL A   1      44.706  19.533  22.717  1.00  0.00    -0.269 OA
BRANCH  30  33
ATOM     33  C   UNL A   1      44.815  21.031  24.514  1.00  0.00     0.039 A 
ATOM     34  C   UNL A   1      44.499  22.166  23.761  1.00  0.00     0.014 A 
ATOM     35  C   UNL A   1      45.414  21.171  25.769  1.00  0.00     0.014 A 
ATOM     36  C   UNL A   1      44.745  23.436  24.283  1.00  0.00     0.010 A 
ATOM     37  C   UNL A   1      45.597  22.440  26.319  1.00  0.00     0.010 A 
ATOM     38  C   UNL A   1      45.273  23.585  25.576  1.00  0.00    -0.014 A 
BRANCH  38  39
ATOM     39  C   UNL A   1      45.476  24.940  26.145  1.00  0.00     0.031 A 
ATOM     40  C   UNL A   1      46.822  25.604  26.096  1.00  0.00     0.074 A 
ATOM     41  C   UNL A   1      44.435  25.573  26.719  1.00  0.00     0.049 A 
ATOM     42  N   UNL A   1      47.162  26.815  26.466  1.00  0.00    -0.248 NA
ATOM     43  C   UNL A   1      47.941  24.798  25.588  1.00  0.00     0.031 C 
ATOM     44  C   UNL A   1      43.095  25.008  26.885  1.00  0.00     0.029 A 
ATOM     45  N   UNL A   1      44.336  26.832  27.255  1.00  0.00    -0.354 N 
ATOM     46  C   UNL A   1      48.527  26.913  26.234  1.00  0.00     0.074 A 
ATOM     47  C   UNL A   1      48.965  25.620  25.753  1.00  0.00     0.031 C 
ATOM     48  C   UNL A   1      42.294  25.935  27.432  1.00  0.00     0.029 A 
ATOM     49  C   UNL A   1      43.069  27.148  27.677  1.00  0.00     0.049 A 
ATOM     50  H   UNL A   1      45.099  27.449  27.330  1.00  0.00     0.167 HD
ATOM     51  C   UNL A   1      49.336  27.990  26.382  1.00  0.00     0.037 A 
ATOM     52  C   UNL A   1      42.580  28.296  28.182  1.00  0.00     0.037 A 
ATOM     53  C   UNL A   1      48.894  29.277  26.855  1.00  0.00     0.049 A 
ATOM     54  C   UNL A   1      43.493  29.481  28.326  1.00  0.00     0.074 A 
ATOM     55  C   UNL A   1      49.622  30.447  26.995  1.00  0.00     0.029 A 
ATOM     56  N   UNL A   1      47.603  29.560  27.278  1.00  0.00    -0.354 N 
ATOM     57  N   UNL A   1      44.763  29.591  28.022  1.00  0.00    -0.248 NA
ATOM     58  C   UNL A   1      42.896  30.708  28.868  1.00  0.00     0.031 C 
ATOM     59  C   UNL A   1      48.782  31.424  27.544  1.00  0.00     0.029 A 
ATOM     60  C   UNL A   1      47.518  30.879  27.697  1.00  0.00     0.049 A 
ATOM     61  H   UNL A   1      46.856  28.918  27.279  1.00  0.00     0.167 HD
ATOM     62  C   UNL A   1      45.113  30.903  28.311  1.00  0.00     0.074 A 
ATOM     63  C   UNL A   1      43.912  31.556  28.796  1.00  0.00     0.031 C 
ATOM     64  C   UNL A   1      46.317  31.513  28.184  1.00  0.00     0.037 A 
BRANCH  51  65
ATOM     65  C   UNL A   1      50.785  27.813  26.024  1.00  0.00     0.064 A 
ATOM     66  C   UNL A   1      51.241  27.955  24.703  1.00  0.00     0.173 A 
ATOM     67  C   UNL A   1      51.733  27.502  27.012  1.00  0.00     0.173 A 
ATOM     68  F   UNL A   1      50.375  28.242  23.719  1.00  0.00    -0.203 F 
ATOM     69  C   UNL A   1      52.579  27.748  24.378  1.00  0.00     0.198 A 
ATOM     70  C   UNL A   1      53.076  27.328  26.688  1.00  0.00     0.198 A 
ATOM     71  F   UNL A   1      51.356  27.362  28.291  1.00  0.00    -0.203 F 
ATOM     72  F   UNL A   1      52.976  27.825  23.100  1.00  0.00    -0.200 F 
ATOM     73  C   UNL A   1      53.497  27.440  25.370  1.00  0.00     0.200 A 
ATOM     74  F   UNL A   1      53.965  27.043  27.649  1.00  0.00    -0.200 F 
ATOM     75  F   UNL A   1      54.783  27.239  25.056  1.00  0.00    -0.200 F 
ENDBRANCH  51  65
BRANCH  52  76
ATOM     76  C   UNL A   1      41.137  28.395  28.515  1.00  0.00     0.064 A 
ATOM     77  C   UNL A   1      40.663  27.979  29.768  1.00  0.00     0.173 A 
ATOM     78  C   UNL A   1      40.209  28.926  27.609  1.00  0.00     0.173 A 
ATOM     79  F   UNL A   1      41.511  27.449  30.661  1.00  0.00    -0.203 F 
ATOM     80  C   UNL A   1      39.313  28.081  30.096  1.00  0.00     0.198 A 
ATOM     81  C   UNL A   1      38.864  29.050  27.947  1.00  0.00     0.198 A 
ATOM     82  F   UNL A   1      40.614  29.344  26.400  1.00  0.00    -0.203 F 
ATOM     83  F   UNL A   1      38.881  27.646  31.288  1.00  0.00    -0.200 F 
ATOM     84  C   UNL A   1      38.415  28.623  29.189  1.00  0.00     0.200 A 
ATOM     85  F   UNL A   1      38.001  29.589  27.075  1.00  0.00    -0.200 F 
ATOM     86  F   UNL A   1      37.120  28.730  29.509  1.00  0.00    -0.200 F 
ENDBRANCH  52  76
BRANCH  64  87
ATOM     87  C   UNL A   1      46.385  32.968  28.552  1.00  0.00     0.064 A 
ATOM     88  C   UNL A   1      46.138  33.980  27.611  1.00  0.00     0.173 A 
ATOM     89  C   UNL A   1      46.700  33.354  29.863  1.00  0.00     0.173 A 
ATOM     90  F   UNL A   1      45.849  33.663  26.339  1.00  0.00    -0.203 F 
ATOM     91  C   UNL A   1      46.243  35.324  27.961  1.00  0.00     0.198 A 
ATOM     92  C   UNL A   1      46.773  34.699  30.217  1.00  0.00     0.198 A 
ATOM     93  F   UNL A   1      46.939  32.427  30.803  1.00  0.00    -0.203 F 
ATOM     94  F   UNL A   1      46.067  36.272  27.030  1.00  0.00    -0.200 F 
ATOM     95  C   UNL A   1      46.557  35.682  29.264  1.00  0.00     0.200 A 
ATOM     96  F   UNL A   1      47.064  35.043  31.479  1.00  0.00    -0.200 F 
ATOM     97  F   UNL A   1      46.662  36.975  29.596  1.00  0.00    -0.200 F 
ENDBRANCH  64  87
ENDBRANCH  38  39
ENDBRANCH  30  33
ENDBRANCH  28  29
ENDBRANCH  27  28
ENDBRANCH  26  27
ENDBRANCH   1  26
TORSDOF 17
ENDMDL
MODEL 2
REMARK VINA RESULT:     -11.1      5.264     10.586
REMARK SMILES C[N@@H+]1CCC[C@@H](NC(=O)N(CC(=O)NCCCCCCNC(=O)c2ccc(-c3c4nc(c(-c5c(F)c(F)c(F)c(F)c5F)c5ccc([nH]5)c(-c5c(F)c(F)c(F)c(F)c5F)c5nc(c(-c6c(F)c(F)c(F)c(F)c6F)c6ccc3[nH]6)C=C5)C=C4)cc2)C(C)(C)C)C1
REMARK SMILES IDX 17 1 16 2 15 3 14 4 12 5 13 6 11 8 10 9 8 10 7 11 9 13 6 14
REMARK SMILES IDX 1 15 2 16 3 17 91 18 4 20 5 21 87 22 88 23 89 24 90 25 18 26
REMARK SMILES IDX 19 27 20 28 21 29 22 30 23 32 24 33 25 34 86 35 26 36 85 37
REMARK SMILES IDX 27 38 28 39 29 40 79 41 30 42 84 43 78 44 80 45 31 46 83 47
REMARK SMILES IDX 77 48 76 49 32 51 64 52 44 53 63 54 45 55 48 56 62 57 81 58
REMARK SMILES IDX 46 59 47 60 61 62 82 63 49 64 33 65 34 66 42 67 35 68 36 69
REMARK SMILES IDX 40 70 43 71 37 72 38 73 41 74 39 75 65 76 66 77 74 78 67 79
REMARK SMILES IDX 68 80 72 81 75 82 69 83 70 84 73 85 71 86 50 87 51 88 59 89
REMARK SMILES IDX 52 90 53 91 57 92 60 93 54 94 55 95 58 96 56 97
REMARK H PARENT 14 7 7 12 2 19 21 31 80 50 48 61
REMARK Flexibility Score: inf
ROOT
ATOM      1  C   UNL A   1      30.978  27.380  23.678  1.00  0.00     0.002 C 
ENDROOT
BRANCH   1   2
ATOM      2  C   UNL A   1      30.667  26.781  25.047  1.00  0.00     0.021 C 
BRANCH   2   3
ATOM      3  C   UNL A   1      30.051  25.388  25.016  1.00  0.00     0.116 C 
BRANCH   3   4
ATOM      4  N   UNL A   1      30.294  24.600  26.203  1.00  0.00    -0.355 N 
ATOM      5  C   UNL A   1      31.166  23.582  26.435  1.00  0.00     0.239 C 
ATOM      6  O   UNL A   1      31.406  23.337  27.625  1.00  0.00    -0.273 OA
ATOM      7  H   UNL A   1      29.732  24.842  26.975  1.00  0.00     0.163 HD
BRANCH   5   8
ATOM      8  C   UNL A   1      31.955  22.828  25.342  1.00  0.00     0.221 C 
BRANCH   8   9
ATOM      9  N   UNL A   1      33.366  22.501  25.556  1.00  0.00    -0.311 N 
BRANCH   9  10
ATOM     10  C   UNL A   1      33.826  21.407  26.262  1.00  0.00     0.318 C 
ATOM     11  N   UNL A   1      34.064  20.186  25.742  1.00  0.00    -0.330 N 
ATOM     12  H   UNL A   1      34.411  19.595  26.448  1.00  0.00     0.165 HD
ATOM     13  O   UNL A   1      34.032  21.458  27.480  1.00  0.00    -0.249 OA
BRANCH  11  14
ATOM     14  C   UNL A   1      33.981  19.437  24.475  1.00  0.00     0.139 C 
ATOM     15  C   UNL A   1      35.479  16.047  25.375  1.00  0.00     0.332 C 
ATOM     16  N   UNL A   1      34.492  17.128  25.343  1.00  0.00    -0.336 N 
ATOM     17  C   UNL A   1      33.206  16.621  24.849  1.00  0.00     0.262 C 
ATOM     18  C   UNL A   1      34.971  18.244  24.499  1.00  0.00     0.287 C 
ATOM     19  H   UNL A   1      34.363  17.481  26.290  1.00  0.00     0.347 HD
ATOM     20  C   UNL A   1      32.147  17.710  24.963  1.00  0.00     0.064 C 
ATOM     21  C   UNL A   1      32.545  18.959  24.190  1.00  0.00     0.037 C 
ENDBRANCH  11  14
ENDBRANCH   9  10
BRANCH   9  22
ATOM     22  C   UNL A   1      34.387  23.418  24.878  1.00  0.00     0.037 C 
ATOM     23  C   UNL A   1      34.560  23.064  23.386  1.00  0.00     0.034 C 
ATOM     24  C   UNL A   1      33.973  24.902  25.015  1.00  0.00     0.034 C 
ATOM     25  C   UNL A   1      35.824  23.342  25.476  1.00  0.00     0.034 C 
ENDBRANCH   9  22
ENDBRANCH   8   9
ENDBRANCH   5   8
ENDBRANCH   3   4
ENDBRANCH   2   3
ENDBRANCH   1   2
BRANCH   1  26
ATOM     26  C   UNL A   1      31.641  28.759  23.708  1.00  0.00     0.002 C 
BRANCH  26  27
ATOM     27  C   UNL A   1      33.158  28.761  23.928  1.00  0.00     0.021 C 
BRANCH  27  28
ATOM     28  C   UNL A   1      33.615  29.094  25.347  1.00  0.00     0.116 C 
BRANCH  28  29
ATOM     29  N   UNL A   1      33.038  30.332  25.839  1.00  0.00    -0.352 N 
ATOM     30  C   UNL A   1      33.400  31.117  26.902  1.00  0.00     0.251 C 
ATOM     31  H   UNL A   1      32.263  30.660  25.328  1.00  0.00     0.163 HD
ATOM     32  O   UNL A   1      32.673  32.041  27.251  1.00  0.00    -0.269 OA
BRANCH  30  33
ATOM     33  C   UNL A   1      34.650  30.852  27.649  1.00  0.00     0.039 A 
ATOM     34  C   UNL A   1      34.782  29.623  28.301  1.00  0.00     0.014 A 
ATOM     35  C   UNL A   1      35.663  31.810  27.753  1.00  0.00     0.014 A 
ATOM     36  C   UNL A   1      35.943  29.339  29.021  1.00  0.00     0.010 A 
ATOM     37  C   UNL A   1      36.852  31.500  28.414  1.00  0.00     0.010 A 
ATOM     38  C   UNL A   1      36.999  30.266  29.063  1.00  0.00    -0.014 A 
BRANCH  38  39
ATOM     39  C   UNL A   1      38.253  29.931  29.782  1.00  0.00     0.031 A 
ATOM     40  C   UNL A   1      38.507  30.444  31.171  1.00  0.00     0.074 A 
ATOM     41  C   UNL A   1      39.174  29.163  29.171  1.00  0.00     0.049 A 
ATOM     42  N   UNL A   1      39.505  30.183  31.979  1.00  0.00    -0.248 NA
ATOM     43  C   UNL A   1      37.527  31.393  31.716  1.00  0.00     0.031 C 
ATOM     44  C   UNL A   1      39.072  28.657  27.801  1.00  0.00     0.029 A 
ATOM     45  N   UNL A   1      40.368  28.662  29.623  1.00  0.00    -0.354 N 
ATOM     46  C   UNL A   1      39.271  30.933  33.124  1.00  0.00     0.074 A 
ATOM     47  C   UNL A   1      38.073  31.708  32.881  1.00  0.00     0.031 C 
ATOM     48  C   UNL A   1      40.131  27.874  27.543  1.00  0.00     0.029 A 
ATOM     49  C   UNL A   1      40.996  27.843  28.719  1.00  0.00     0.049 A 
ATOM     50  H   UNL A   1      40.739  28.871  30.511  1.00  0.00     0.167 HD
ATOM     51  C   UNL A   1      39.974  30.953  34.282  1.00  0.00     0.037 A 
ATOM     52  C   UNL A   1      42.130  27.127  28.833  1.00  0.00     0.037 A 
ATOM     53  C   UNL A   1      41.164  30.176  34.522  1.00  0.00     0.049 A 
ATOM     54  C   UNL A   1      42.888  27.154  30.131  1.00  0.00     0.074 A 
ATOM     55  C   UNL A   1      41.924  30.086  35.676  1.00  0.00     0.029 A 
ATOM     56  N   UNL A   1      41.774  29.359  33.580  1.00  0.00    -0.354 N 
ATOM     57  N   UNL A   1      42.611  27.798  31.238  1.00  0.00    -0.248 NA
ATOM     58  C   UNL A   1      44.108  26.340  30.197  1.00  0.00     0.031 C 
ATOM     59  C   UNL A   1      43.017  29.250  35.418  1.00  0.00     0.029 A 
ATOM     60  C   UNL A   1      42.911  28.777  34.120  1.00  0.00     0.049 A 
ATOM     61  H   UNL A   1      41.447  29.213  32.663  1.00  0.00     0.167 HD
ATOM     62  C   UNL A   1      43.605  27.449  32.142  1.00  0.00     0.074 A 
ATOM     63  C   UNL A   1      44.481  26.518  31.456  1.00  0.00     0.031 C 
ATOM     64  C   UNL A   1      43.777  27.858  33.423  1.00  0.00     0.037 A 
BRANCH  51  65
ATOM     65  C   UNL A   1      39.467  31.850  35.377  1.00  0.00     0.064 A 
ATOM     66  C   UNL A   1      39.871  33.191  35.475  1.00  0.00     0.173 A 
ATOM     67  C   UNL A   1      38.565  31.367  36.338  1.00  0.00     0.173 A 
ATOM     68  F   UNL A   1      40.740  33.701  34.589  1.00  0.00    -0.203 F 
ATOM     69  C   UNL A   1      39.426  34.001  36.517  1.00  0.00     0.198 A 
ATOM     70  C   UNL A   1      38.097  32.189  37.359  1.00  0.00     0.198 A 
ATOM     71  F   UNL A   1      38.140  30.096  36.288  1.00  0.00    -0.203 F 
ATOM     72  F   UNL A   1      39.877  35.259  36.625  1.00  0.00    -0.200 F 
ATOM     73  C   UNL A   1      38.536  33.501  37.456  1.00  0.00     0.200 A 
ATOM     74  F   UNL A   1      37.227  31.709  38.259  1.00  0.00    -0.200 F 
ATOM     75  F   UNL A   1      38.111  34.281  38.459  1.00  0.00    -0.200 F 
ENDBRANCH  51  65
BRANCH  52  76
ATOM     76  C   UNL A   1      42.570  26.265  27.707  1.00  0.00     0.064 A 
ATOM     77  C   UNL A   1      43.530  26.722  26.792  1.00  0.00     0.173 A 
ATOM     78  C   UNL A   1      42.067  24.968  27.534  1.00  0.00     0.173 A 
ATOM     79  F   UNL A   1      44.027  27.962  26.907  1.00  0.00    -0.203 F 
ATOM     80  C   UNL A   1      43.959  25.916  25.740  1.00  0.00     0.198 A 
ATOM     81  C   UNL A   1      42.516  24.155  26.497  1.00  0.00     0.198 A 
ATOM     82  F   UNL A   1      41.152  24.484  28.388  1.00  0.00    -0.203 F 
ATOM     83  F   UNL A   1      44.854  26.389  24.860  1.00  0.00    -0.200 F 
ATOM     84  C   UNL A   1      43.459  24.631  25.597  1.00  0.00     0.200 A 
ATOM     85  F   UNL A   1      42.042  22.909  26.371  1.00  0.00    -0.200 F 
ATOM     86  F   UNL A   1      43.881  23.854  24.592  1.00  0.00    -0.200 F 
ENDBRANCH  52  76
BRANCH  64  87
ATOM     87  C   UNL A   1      44.943  27.278  34.172  1.00  0.00     0.064 A 
ATOM     88  C   UNL A   1      46.183  27.934  34.230  1.00  0.00     0.173 A 
ATOM     89  C   UNL A   1      44.819  26.051  34.840  1.00  0.00     0.173 A 
ATOM     90  F   UNL A   1      46.358  29.103  33.594  1.00  0.00    -0.203 F 
ATOM     91  C   UNL A   1      47.264  27.364  34.897  1.00  0.00     0.198 A 
ATOM     92  C   UNL A   1      45.893  25.498  35.532  1.00  0.00     0.198 A 
ATOM     93  F   UNL A   1      43.654  25.385  34.821  1.00  0.00    -0.203 F 
ATOM     94  F   UNL A   1      48.455  27.978  34.884  1.00  0.00    -0.200 F 
ATOM     95  C   UNL A   1      47.117  26.149  35.550  1.00  0.00     0.200 A 
ATOM     96  F   UNL A   1      45.746  24.331  36.173  1.00  0.00    -0.200 F 
ATOM     97  F   UNL A   1      48.160  25.600  36.186  1.00  0.00    -0.200 F 
ENDBRANCH  64  87
ENDBRANCH  38  39
ENDBRANCH  30  33
ENDBRANCH  28  29
ENDBRANCH  27  28
ENDBRANCH  26  27
ENDBRANCH   1  26
TORSDOF 17
ENDMDL
MODEL 3
REMARK VINA RESULT:     -10.8      5.086     10.744
REMARK SMILES C[N@@H+]1CCC[C@@H](NC(=O)N(CC(=O)NCCCCCCNC(=O)c2ccc(-c3c4nc(c(-c5c(F)c(F)c(F)c(F)c5F)c5ccc([nH]5)c(-c5c(F)c(F)c(F)c(F)c5F)c5nc(c(-c6c(F)c(F)c(F)c(F)c6F)c6ccc3[nH]6)C=C5)C=C4)cc2)C(C)(C)C)C1
REMARK SMILES IDX 17 1 16 2 15 3 14 4 12 5 13 6 11 8 10 9 8 10 7 11 9 13 6 14
REMARK SMILES IDX 1 15 2 16 3 17 91 18 4 20 5 21 87 22 88 23 89 24 90 25 18 26
REMARK SMILES IDX 19 27 20 28 21 29 22 30 23 32 24 33 25 34 86 35 26 36 85 37
REMARK SMILES IDX 27 38 28 39 29 40 79 41 30 42 84 43 78 44 80 45 31 46 83 47
REMARK SMILES IDX 77 48 76 49 32 51 64 52 44 53 63 54 45 55 48 56 62 57 81 58
REMARK SMILES IDX 46 59 47 60 61 62 82 63 49 64 33 65 34 66 42 67 35 68 36 69
REMARK SMILES IDX 40 70 43 71 37 72 38 73 41 74 39 75 65 76 66 77 74 78 67 79
REMARK SMILES IDX 68 80 72 81 75 82 69 83 70 84 73 85 71 86 50 87 51 88 59 89
REMARK SMILES IDX 52 90 53 91 57 92 60 93 54 94 55 95 58 96 56 97
REMARK H PARENT 14 7 7 12 2 19 21 31 80 50 48 61
REMARK Flexibility Score: inf
ROOT
ATOM      1  C   UNL A   1      30.557  27.446  23.834  1.00  0.00     0.002 C 
ENDROOT
BRANCH   1   2
ATOM      2  C   UNL A   1      30.063  26.268  24.670  1.00  0.00     0.021 C 
BRANCH   2   3
ATOM      3  C   UNL A   1      30.607  26.213  26.091  1.00  0.00     0.116 C 
BRANCH   3   4
ATOM      4  N   UNL A   1      30.597  24.896  26.685  1.00  0.00    -0.355 N 
ATOM      5  C   UNL A   1      31.595  23.987  26.856  1.00  0.00     0.239 C 
ATOM      6  O   UNL A   1      31.385  23.108  27.703  1.00  0.00    -0.273 OA
ATOM      7  H   UNL A   1      29.718  24.608  27.026  1.00  0.00     0.163 HD
BRANCH   5   8
ATOM      8  C   UNL A   1      32.982  24.060  26.181  1.00  0.00     0.221 C 
BRANCH   8   9
ATOM      9  N   UNL A   1      33.641  22.831  25.735  1.00  0.00    -0.311 N 
BRANCH   9  10
ATOM     10  C   UNL A   1      34.542  22.100  26.484  1.00  0.00     0.318 C 
ATOM     11  N   UNL A   1      35.865  22.011  26.244  1.00  0.00    -0.330 N 
ATOM     12  H   UNL A   1      36.284  21.452  26.938  1.00  0.00     0.165 HD
ATOM     13  O   UNL A   1      34.183  21.419  27.452  1.00  0.00    -0.249 OA
BRANCH  11  14
ATOM     14  C   UNL A   1      36.898  22.464  25.295  1.00  0.00     0.139 C 
ATOM     15  C   UNL A   1      38.985  24.885  27.375  1.00  0.00     0.332 C 
ATOM     16  N   UNL A   1      38.459  23.599  26.913  1.00  0.00    -0.336 N 
ATOM     17  C   UNL A   1      39.563  22.715  26.520  1.00  0.00     0.262 C 
ATOM     18  C   UNL A   1      37.522  23.795  25.786  1.00  0.00     0.287 C 
ATOM     19  H   UNL A   1      37.946  23.162  27.678  1.00  0.00     0.347 HD
ATOM     20  C   UNL A   1      39.021  21.332  26.188  1.00  0.00     0.064 C 
ATOM     21  C   UNL A   1      37.981  21.392  25.077  1.00  0.00     0.037 C 
ENDBRANCH  11  14
ENDBRANCH   9  10
BRANCH   9  22
ATOM     22  C   UNL A   1      33.231  22.301  24.359  1.00  0.00     0.037 C 
ATOM     23  C   UNL A   1      31.765  22.650  24.034  1.00  0.00     0.034 C 
ATOM     24  C   UNL A   1      34.156  22.861  23.253  1.00  0.00     0.034 C 
ATOM     25  C   UNL A   1      33.315  20.751  24.210  1.00  0.00     0.034 C 
ENDBRANCH   9  22
ENDBRANCH   8   9
ENDBRANCH   5   8
ENDBRANCH   3   4
ENDBRANCH   2   3
ENDBRANCH   1   2
BRANCH   1  26
ATOM     26  C   UNL A   1      31.389  28.479  24.598  1.00  0.00     0.002 C 
BRANCH  26  27
ATOM     27  C   UNL A   1      32.907  28.373  24.417  1.00  0.00     0.021 C 
BRANCH  27  28
ATOM     28  C   UNL A   1      33.746  29.075  25.484  1.00  0.00     0.116 C 
BRANCH  28  29
ATOM     29  N   UNL A   1      33.138  30.311  25.943  1.00  0.00    -0.352 N 
ATOM     30  C   UNL A   1      33.484  31.136  26.980  1.00  0.00     0.251 C 
ATOM     31  H   UNL A   1      32.352  30.602  25.428  1.00  0.00     0.163 HD
ATOM     32  O   UNL A   1      32.733  32.050  27.306  1.00  0.00    -0.269 OA
BRANCH  30  33
ATOM     33  C   UNL A   1      34.745  30.927  27.727  1.00  0.00     0.039 A 
ATOM     34  C   UNL A   1      34.991  29.661  28.267  1.00  0.00     0.014 A 
ATOM     35  C   UNL A   1      35.656  31.966  27.942  1.00  0.00     0.014 A 
ATOM     36  C   UNL A   1      36.165  29.428  28.983  1.00  0.00     0.010 A 
ATOM     37  C   UNL A   1      36.860  31.715  28.597  1.00  0.00     0.010 A 
ATOM     38  C   UNL A   1      37.122  30.446  29.133  1.00  0.00    -0.014 A 
BRANCH  38  39
ATOM     39  C   UNL A   1      38.394  30.171  29.846  1.00  0.00     0.031 A 
ATOM     40  C   UNL A   1      38.621  30.675  31.242  1.00  0.00     0.074 A 
ATOM     41  C   UNL A   1      39.357  29.466  29.222  1.00  0.00     0.049 A 
ATOM     42  N   UNL A   1      39.634  30.458  32.046  1.00  0.00    -0.248 NA
ATOM     43  C   UNL A   1      37.590  31.558  31.804  1.00  0.00     0.031 C 
ATOM     44  C   UNL A   1      39.281  28.977  27.844  1.00  0.00     0.029 A 
ATOM     45  N   UNL A   1      40.577  29.026  29.666  1.00  0.00    -0.354 N 
ATOM     46  C   UNL A   1      39.359  31.175  33.203  1.00  0.00     0.074 A 
ATOM     47  C   UNL A   1      38.119  31.885  32.973  1.00  0.00     0.031 C 
ATOM     48  C   UNL A   1      40.382  28.259  27.573  1.00  0.00     0.029 A 
ATOM     49  C   UNL A   1      41.249  28.258  28.747  1.00  0.00     0.049 A 
ATOM     50  H   UNL A   1      40.937  29.241  30.556  1.00  0.00     0.167 HD
ATOM     51  C   UNL A   1      40.062  31.216  34.361  1.00  0.00     0.037 A 
ATOM     52  C   UNL A   1      42.422  27.605  28.850  1.00  0.00     0.037 A 
ATOM     53  C   UNL A   1      41.294  30.503  34.587  1.00  0.00     0.049 A 
ATOM     54  C   UNL A   1      43.179  27.655  30.147  1.00  0.00     0.074 A 
ATOM     55  C   UNL A   1      42.059  30.438  35.739  1.00  0.00     0.029 A 
ATOM     56  N   UNL A   1      41.948  29.738  33.632  1.00  0.00    -0.354 N 
ATOM     57  N   UNL A   1      42.868  28.265  31.265  1.00  0.00    -0.248 NA
ATOM     58  C   UNL A   1      44.443  26.910  30.199  1.00  0.00     0.031 C 
ATOM     59  C   UNL A   1      43.198  29.669  35.467  1.00  0.00     0.029 A 
ATOM     60  C   UNL A   1      43.116  29.212  34.162  1.00  0.00     0.049 A 
ATOM     61  H   UNL A   1      41.628  29.588  32.713  1.00  0.00     0.167 HD
ATOM     62  C   UNL A   1      43.882  27.957  32.162  1.00  0.00     0.074 A 
ATOM     63  C   UNL A   1      44.807  27.089  31.461  1.00  0.00     0.031 C 
ATOM     64  C   UNL A   1      44.032  28.354  33.450  1.00  0.00     0.037 A 
BRANCH  51  65
ATOM     65  C   UNL A   1      39.507  32.065  35.470  1.00  0.00     0.064 A 
ATOM     66  C   UNL A   1      39.846  33.422  35.599  1.00  0.00     0.173 A 
ATOM     67  C   UNL A   1      38.623  31.520  36.415  1.00  0.00     0.173 A 
ATOM     68  F   UNL A   1      40.695  33.991  34.729  1.00  0.00    -0.203 F 
ATOM     69  C   UNL A   1      39.358  34.188  36.654  1.00  0.00     0.198 A 
ATOM     70  C   UNL A   1      38.110  32.299  37.450  1.00  0.00     0.198 A 
ATOM     71  F   UNL A   1      38.259  30.232  36.336  1.00  0.00    -0.203 F 
ATOM     72  F   UNL A   1      39.747  35.463  36.791  1.00  0.00    -0.200 F 
ATOM     73  C   UNL A   1      38.487  33.628  37.576  1.00  0.00     0.200 A 
ATOM     74  F   UNL A   1      37.259  31.760  38.333  1.00  0.00    -0.200 F 
ATOM     75  F   UNL A   1      38.019  34.366  38.592  1.00  0.00    -0.200 F 
ENDBRANCH  51  65
BRANCH  52  76
ATOM     76  C   UNL A   1      42.908  26.788  27.709  1.00  0.00     0.064 A 
ATOM     77  C   UNL A   1      43.684  27.369  26.695  1.00  0.00     0.173 A 
ATOM     78  C   UNL A   1      42.634  25.417  27.620  1.00  0.00     0.173 A 
ATOM     79  F   UNL A   1      43.957  28.681  26.730  1.00  0.00    -0.203 F 
ATOM     80  C   UNL A   1      44.156  26.608  25.628  1.00  0.00     0.198 A 
ATOM     81  C   UNL A   1      43.128  24.653  26.566  1.00  0.00     0.198 A 
ATOM     82  F   UNL A   1      41.903  24.815  28.569  1.00  0.00    -0.203 F 
ATOM     83  F   UNL A   1      44.868  27.194  24.655  1.00  0.00    -0.200 F 
ATOM     84  C   UNL A   1      43.886  25.250  25.568  1.00  0.00     0.200 A 
ATOM     85  F   UNL A   1      42.879  23.337  26.518  1.00  0.00    -0.200 F 
ATOM     86  F   UNL A   1      44.350  24.517  24.547  1.00  0.00    -0.200 F 
ENDBRANCH  52  76
BRANCH  64  87
ATOM     87  C   UNL A   1      45.229  27.830  34.188  1.00  0.00     0.064 A 
ATOM     88  C   UNL A   1      46.454  28.517  34.194  1.00  0.00     0.173 A 
ATOM     89  C   UNL A   1      45.152  26.623  34.901  1.00  0.00     0.173 A 
ATOM     90  F   UNL A   1      46.584  29.667  33.514  1.00  0.00    -0.203 F 
ATOM     91  C   UNL A   1      47.564  27.996  34.852  1.00  0.00     0.198 A 
ATOM     92  C   UNL A   1      46.256  26.122  35.584  1.00  0.00     0.198 A 
ATOM     93  F   UNL A   1      44.004  25.929  34.934  1.00  0.00    -0.203 F 
ATOM     94  F   UNL A   1      48.740  28.638  34.788  1.00  0.00    -0.200 F 
ATOM     95  C   UNL A   1      47.464  26.802  35.549  1.00  0.00     0.200 A 
ATOM     96  F   UNL A   1      46.154  24.974  36.268  1.00  0.00    -0.200 F 
ATOM     97  F   UNL A   1      48.536  26.301  36.178  1.00  0.00    -0.200 F 
ENDBRANCH  64  87
ENDBRANCH  38  39
ENDBRANCH  30  33
ENDBRANCH  28  29
ENDBRANCH  27  28
ENDBRANCH  26  27
ENDBRANCH   1  26
TORSDOF 17
ENDMDL
