MODEL 1
REMARK VINA RESULT:      -9.1      0.000      0.000
REMARK SMILES C[C@@H](C(=O)NCCCCCCNC(=O)c1ccc(-c2c3nc(c(-c4c(F)c(F)c(F)c(F)c4F)c4ccc([nH]4)c(-c4c(F)c(F)c(F)c(F)c4F)c4nc(c(-c5c(F)c(F)c(F)c(F)c5F)c5ccc2[nH]5)C=C4)C=C3)cc1)c1ccc(C[C@@H]2CCC[C@@H]2O)cc1F
REMARK SMILES IDX 7 1 6 2 5 3 3 4 4 5 2 7 1 8 78 9 79 10 90 11 80 12 89 13
REMARK SMILES IDX 91 14 81 15 82 16 83 17 84 18 87 19 85 20 86 21 88 22 8 24
REMARK SMILES IDX 9 25 10 26 11 27 12 28 13 29 14 31 15 32 16 33 77 34 17 35
REMARK SMILES IDX 76 36 18 37 19 38 20 39 70 40 21 41 75 42 69 43 71 44 22 45
REMARK SMILES IDX 74 46 68 47 67 48 23 50 55 51 35 52 54 53 36 54 39 55 53 56
REMARK SMILES IDX 72 57 37 58 38 59 52 61 73 62 40 63 24 64 25 65 33 66 26 67
REMARK SMILES IDX 27 68 31 69 34 70 28 71 29 72 32 73 30 74 56 75 57 76 65 77
REMARK SMILES IDX 58 78 59 79 63 80 66 81 60 82 61 83 64 84 62 85 41 86 42 87
REMARK SMILES IDX 50 88 43 89 44 90 48 91 51 92 45 93 46 94 49 95 47 96
REMARK H PARENT 5 6 88 23 12 30 71 49 39 60
REMARK Flexibility Score: inf
ROOT
ATOM      1  C   UNL A   1      44.651  23.558  28.494  1.00  0.00     0.021 C 
ENDROOT
BRANCH   1   2
ATOM      2  C   UNL A   1      45.497  23.487  27.222  1.00  0.00     0.116 C 
BRANCH   2   3
ATOM      3  N   UNL A   1      46.794  24.088  27.449  1.00  0.00    -0.356 N 
ATOM      4  C   UNL A   1      47.542  24.890  26.639  1.00  0.00     0.227 C 
ATOM      5  O   UNL A   1      48.696  25.122  27.000  1.00  0.00    -0.274 OA
ATOM      6  H   UNL A   1      47.197  23.886  28.323  1.00  0.00     0.163 HD
BRANCH   4   7
ATOM      7  C   UNL A   1      46.908  25.515  25.388  1.00  0.00     0.108 C 
ATOM      8  C   UNL A   1      47.894  25.664  24.224  1.00  0.00     0.023 C 
BRANCH   7   9
ATOM      9  C   UNL A   1      46.215  26.826  25.730  1.00  0.00    -0.000 A 
ATOM     10  C   UNL A   1      46.981  27.989  25.899  1.00  0.00     0.008 A 
ATOM     11  C   UNL A   1      44.826  26.934  25.840  1.00  0.00     0.127 A 
ATOM     12  C   UNL A   1      46.373  29.195  26.257  1.00  0.00     0.004 A 
ATOM     13  C   UNL A   1      44.220  28.128  26.216  1.00  0.00     0.043 A 
ATOM     14  F   UNL A   1      44.038  25.872  25.621  1.00  0.00    -0.207 F 
ATOM     15  C   UNL A   1      44.995  29.261  26.484  1.00  0.00    -0.045 A 
BRANCH  15  16
ATOM     16  C   UNL A   1      44.347  30.510  27.024  1.00  0.00     0.041 C 
BRANCH  16  17
ATOM     17  C   UNL A   1      45.239  31.762  27.200  1.00  0.00     0.022 C 
ATOM     18  C   UNL A   1      45.225  32.378  28.605  1.00  0.00     0.007 C 
ATOM     19  C   UNL A   1      44.961  32.974  26.303  1.00  0.00     0.117 C 
ATOM     20  C   UNL A   1      44.316  33.610  28.543  1.00  0.00     0.003 C 
ATOM     21  C   UNL A   1      43.957  33.820  27.076  1.00  0.00     0.032 C 
BRANCH  19  22
ATOM     22  O   UNL A   1      44.530  32.637  25.001  1.00  0.00    -0.393 OA
ATOM     23  H   UNL A   1      45.259  32.216  24.518  1.00  0.00     0.210 HD
ENDBRANCH  19  22
ENDBRANCH  16  17
ENDBRANCH  15  16
ENDBRANCH   7   9
ENDBRANCH   4   7
ENDBRANCH   2   3
ENDBRANCH   1   2
BRANCH   1  24
ATOM     24  C   UNL A   1      43.148  23.727  28.229  1.00  0.00     0.002 C 
BRANCH  24  25
ATOM     25  C   UNL A   1      42.270  22.571  28.718  1.00  0.00     0.002 C 
BRANCH  25  26
ATOM     26  C   UNL A   1      41.859  21.573  27.633  1.00  0.00     0.021 C 
BRANCH  26  27
ATOM     27  C   UNL A   1      41.698  22.181  26.244  1.00  0.00     0.116 C 
BRANCH  27  28
ATOM     28  N   UNL A   1      40.311  22.182  25.806  1.00  0.00    -0.352 N 
ATOM     29  C   UNL A   1      39.314  23.079  26.089  1.00  0.00     0.251 C 
ATOM     30  H   UNL A   1      40.052  21.433  25.223  1.00  0.00     0.163 HD
ATOM     31  O   UNL A   1      38.149  22.826  25.789  1.00  0.00    -0.269 OA
BRANCH  29  32
ATOM     32  C   UNL A   1      39.635  24.348  26.774  1.00  0.00     0.039 A 
ATOM     33  C   UNL A   1      39.208  24.530  28.093  1.00  0.00     0.014 A 
ATOM     34  C   UNL A   1      40.336  25.363  26.116  1.00  0.00     0.014 A 
ATOM     35  C   UNL A   1      39.531  25.708  28.769  1.00  0.00     0.010 A 
ATOM     36  C   UNL A   1      40.713  26.509  26.812  1.00  0.00     0.010 A 
ATOM     37  C   UNL A   1      40.309  26.695  28.143  1.00  0.00    -0.014 A 
BRANCH  37  38
ATOM     38  C   UNL A   1      40.701  27.932  28.862  1.00  0.00     0.031 A 
ATOM     39  C   UNL A   1      42.092  28.079  29.412  1.00  0.00     0.074 A 
ATOM     40  C   UNL A   1      39.786  28.899  29.071  1.00  0.00     0.049 A 
ATOM     41  N   UNL A   1      42.604  29.052  30.122  1.00  0.00    -0.248 NA
ATOM     42  C   UNL A   1      43.023  26.970  29.154  1.00  0.00     0.031 C 
ATOM     43  C   UNL A   1      38.392  28.853  28.628  1.00  0.00     0.029 A 
ATOM     44  N   UNL A   1      39.890  30.105  29.719  1.00  0.00    -0.354 N 
ATOM     45  C   UNL A   1      43.908  28.667  30.405  1.00  0.00     0.074 A 
ATOM     46  C   UNL A   1      44.093  27.350  29.836  1.00  0.00     0.031 C 
ATOM     47  C   UNL A   1      37.775  29.986  29.000  1.00  0.00     0.029 A 
ATOM     48  C   UNL A   1      38.720  30.822  29.736  1.00  0.00     0.049 A 
ATOM     49  H   UNL A   1      40.724  30.424  30.133  1.00  0.00     0.167 HD
ATOM     50  C   UNL A   1      44.869  29.360  31.063  1.00  0.00     0.037 A 
ATOM     51  C   UNL A   1      38.439  32.019  30.286  1.00  0.00     0.037 A 
ATOM     52  C   UNL A   1      44.689  30.682  31.601  1.00  0.00     0.049 A 
ATOM     53  C   UNL A   1      39.528  32.771  31.003  1.00  0.00     0.074 A 
ATOM     54  C   UNL A   1      45.620  31.491  32.230  1.00  0.00     0.029 A 
ATOM     55  N   UNL A   1      43.496  31.389  31.575  1.00  0.00    -0.354 N 
ATOM     56  N   UNL A   1      40.775  32.426  31.208  1.00  0.00    -0.248 NA
ATOM     57  C   UNL A   1      39.170  34.084  31.558  1.00  0.00     0.031 C 
ATOM     58  C   UNL A   1      44.978  32.673  32.621  1.00  0.00     0.029 A 
ATOM     59  C   UNL A   1      43.662  32.618  32.194  1.00  0.00     0.049 A 
ATOM     60  H   UNL A   1      42.656  31.065  31.178  1.00  0.00     0.167 HD
ATOM     61  C   UNL A   1      41.359  33.486  31.888  1.00  0.00     0.074 A 
ATOM     62  C   UNL A   1      40.331  34.494  32.049  1.00  0.00     0.031 C 
ATOM     63  C   UNL A   1      42.630  33.614  32.339  1.00  0.00     0.037 A 
BRANCH  50  64
ATOM     64  C   UNL A   1      46.206  28.700  31.231  1.00  0.00     0.064 A 
ATOM     65  C   UNL A   1      46.480  27.858  32.320  1.00  0.00     0.173 A 
ATOM     66  C   UNL A   1      47.214  28.877  30.271  1.00  0.00     0.173 A 
ATOM     67  F   UNL A   1      45.554  27.664  33.271  1.00  0.00    -0.203 F 
ATOM     68  C   UNL A   1      47.721  27.244  32.458  1.00  0.00     0.198 A 
ATOM     69  C   UNL A   1      48.444  28.238  30.396  1.00  0.00     0.198 A 
ATOM     70  F   UNL A   1      47.004  29.667  29.207  1.00  0.00    -0.203 F 
ATOM     71  F   UNL A   1      47.975  26.483  33.532  1.00  0.00    -0.200 F 
ATOM     72  C   UNL A   1      48.700  27.428  31.493  1.00  0.00     0.200 A 
ATOM     73  F   UNL A   1      49.386  28.407  29.456  1.00  0.00    -0.200 F 
ATOM     74  F   UNL A   1      49.892  26.830  31.624  1.00  0.00    -0.200 F 
ENDBRANCH  50  64
BRANCH  51  75
ATOM     75  C   UNL A   1      37.075  32.593  30.157  1.00  0.00     0.064 A 
ATOM     76  C   UNL A   1      36.694  33.286  29.000  1.00  0.00     0.173 A 
ATOM     77  C   UNL A   1      36.128  32.463  31.183  1.00  0.00     0.173 A 
ATOM     78  F   UNL A   1      37.573  33.454  28.001  1.00  0.00    -0.203 F 
ATOM     79  C   UNL A   1      35.423  33.845  28.881  1.00  0.00     0.198 A 
ATOM     80  C   UNL A   1      34.848  32.998  31.052  1.00  0.00     0.198 A 
ATOM     81  F   UNL A   1      36.441  31.803  32.308  1.00  0.00    -0.203 F 
ATOM     82  F   UNL A   1      35.100  34.541  27.783  1.00  0.00    -0.200 F 
ATOM     83  C   UNL A   1      34.500  33.696  29.905  1.00  0.00     0.200 A 
ATOM     84  F   UNL A   1      33.954  32.841  32.037  1.00  0.00    -0.200 F 
ATOM     85  F   UNL A   1      33.277  34.231  29.789  1.00  0.00    -0.200 F 
ENDBRANCH  51  75
BRANCH  63  86
ATOM     86  C   UNL A   1      42.993  34.901  33.019  1.00  0.00     0.064 A 
ATOM     87  C   UNL A   1      43.460  36.008  32.298  1.00  0.00     0.173 A 
ATOM     88  C   UNL A   1      42.836  35.038  34.407  1.00  0.00     0.173 A 
ATOM     89  F   UNL A   1      43.641  35.922  30.971  1.00  0.00    -0.203 F 
ATOM     90  C   UNL A   1      43.780  37.199  32.943  1.00  0.00     0.198 A 
ATOM     91  C   UNL A   1      43.129  36.238  35.046  1.00  0.00     0.198 A 
ATOM     92  F   UNL A   1      42.387  34.009  35.142  1.00  0.00    -0.203 F 
ATOM     93  F   UNL A   1      44.269  38.230  32.241  1.00  0.00    -0.200 F 
ATOM     94  C   UNL A   1      43.608  37.316  34.316  1.00  0.00     0.200 A 
ATOM     95  F   UNL A   1      42.951  36.353  36.369  1.00  0.00    -0.200 F 
ATOM     96  F   UNL A   1      43.912  38.465  34.935  1.00  0.00    -0.200 F 
ENDBRANCH  63  86
ENDBRANCH  37  38
ENDBRANCH  29  32
ENDBRANCH  27  28
ENDBRANCH  26  27
ENDBRANCH  25  26
ENDBRANCH  24  25
ENDBRANCH   1  24
TORSDOF 17
ENDMDL
MODEL 2
REMARK VINA RESULT:      -9.0      5.199     11.275
REMARK SMILES C[C@@H](C(=O)NCCCCCCNC(=O)c1ccc(-c2c3nc(c(-c4c(F)c(F)c(F)c(F)c4F)c4ccc([nH]4)c(-c4c(F)c(F)c(F)c(F)c4F)c4nc(c(-c5c(F)c(F)c(F)c(F)c5F)c5ccc2[nH]5)C=C4)C=C3)cc1)c1ccc(C[C@@H]2CCC[C@@H]2O)cc1F
REMARK SMILES IDX 7 1 6 2 5 3 3 4 4 5 2 7 1 8 78 9 79 10 90 11 80 12 89 13
REMARK SMILES IDX 91 14 81 15 82 16 83 17 84 18 87 19 85 20 86 21 88 22 8 24
REMARK SMILES IDX 9 25 10 26 11 27 12 28 13 29 14 31 15 32 16 33 77 34 17 35
REMARK SMILES IDX 76 36 18 37 19 38 20 39 70 40 21 41 75 42 69 43 71 44 22 45
REMARK SMILES IDX 74 46 68 47 67 48 23 50 55 51 35 52 54 53 36 54 39 55 53 56
REMARK SMILES IDX 72 57 37 58 38 59 52 61 73 62 40 63 24 64 25 65 33 66 26 67
REMARK SMILES IDX 27 68 31 69 34 70 28 71 29 72 32 73 30 74 56 75 57 76 65 77
REMARK SMILES IDX 58 78 59 79 63 80 66 81 60 82 61 83 64 84 62 85 41 86 42 87
REMARK SMILES IDX 50 88 43 89 44 90 48 91 51 92 45 93 46 94 49 95 47 96
REMARK H PARENT 5 6 88 23 12 30 71 49 39 60
REMARK Flexibility Score: inf
ROOT
ATOM      1  C   UNL A   1      34.611  30.949  28.188  1.00  0.00     0.021 C 
ENDROOT
BRANCH   1   2
ATOM      2  C   UNL A   1      34.100  29.866  27.236  1.00  0.00     0.116 C 
BRANCH   2   3
ATOM      3  N   UNL A   1      32.969  29.178  27.820  1.00  0.00    -0.356 N 
ATOM      4  C   UNL A   1      32.001  28.422  27.227  1.00  0.00     0.227 C 
ATOM      5  O   UNL A   1      31.044  28.095  27.930  1.00  0.00    -0.274 OA
ATOM      6  H   UNL A   1      32.887  29.270  28.796  1.00  0.00     0.163 HD
BRANCH   4   7
ATOM      7  C   UNL A   1      32.178  27.960  25.774  1.00  0.00     0.108 C 
ATOM      8  C   UNL A   1      30.884  28.039  24.955  1.00  0.00     0.023 C 
BRANCH   7   9
ATOM      9  C   UNL A   1      32.813  26.578  25.719  1.00  0.00    -0.000 A 
ATOM     10  C   UNL A   1      32.271  25.538  26.489  1.00  0.00     0.008 A 
ATOM     11  C   UNL A   1      33.899  26.284  24.891  1.00  0.00     0.127 A 
ATOM     12  C   UNL A   1      32.863  24.272  26.491  1.00  0.00     0.004 A 
ATOM     13  C   UNL A   1      34.503  25.031  24.905  1.00  0.00     0.043 A 
ATOM     14  F   UNL A   1      34.415  27.219  24.082  1.00  0.00    -0.207 F 
ATOM     15  C   UNL A   1      34.024  24.025  25.750  1.00  0.00    -0.045 A 
BRANCH  15  16
ATOM     16  C   UNL A   1      34.764  22.717  25.864  1.00  0.00     0.041 C 
BRANCH  16  17
ATOM     17  C   UNL A   1      34.338  21.568  24.920  1.00  0.00     0.022 C 
ATOM     18  C   UNL A   1      33.675  22.015  23.609  1.00  0.00     0.007 C 
ATOM     19  C   UNL A   1      33.346  20.528  25.455  1.00  0.00     0.117 C 
ATOM     20  C   UNL A   1      32.167  21.809  23.779  1.00  0.00     0.003 C 
ATOM     21  C   UNL A   1      31.968  21.072  25.099  1.00  0.00     0.032 C 
BRANCH  19  22
ATOM     22  O   UNL A   1      33.501  20.242  26.829  1.00  0.00    -0.393 OA
ATOM     23  H   UNL A   1      34.069  20.914  27.237  1.00  0.00     0.210 HD
ENDBRANCH  19  22
ENDBRANCH  16  17
ENDBRANCH  15  16
ENDBRANCH   7   9
ENDBRANCH   4   7
ENDBRANCH   2   3
ENDBRANCH   1   2
BRANCH   1  24
ATOM     24  C   UNL A   1      34.244  32.375  27.756  1.00  0.00     0.002 C 
BRANCH  24  25
ATOM     25  C   UNL A   1      34.246  33.414  28.882  1.00  0.00     0.002 C 
BRANCH  25  26
ATOM     26  C   UNL A   1      33.085  34.409  28.840  1.00  0.00     0.021 C 
BRANCH  26  27
ATOM     27  C   UNL A   1      33.424  35.799  29.372  1.00  0.00     0.116 C 
BRANCH  27  28
ATOM     28  N   UNL A   1      32.606  36.160  30.518  1.00  0.00    -0.352 N 
ATOM     29  C   UNL A   1      32.732  35.775  31.828  1.00  0.00     0.251 C 
ATOM     30  H   UNL A   1      31.856  36.767  30.327  1.00  0.00     0.163 HD
ATOM     31  O   UNL A   1      31.839  36.024  32.636  1.00  0.00    -0.269 OA
BRANCH  29  32
ATOM     32  C   UNL A   1      33.936  35.040  32.269  1.00  0.00     0.039 A 
ATOM     33  C   UNL A   1      33.799  33.718  32.701  1.00  0.00     0.014 A 
ATOM     34  C   UNL A   1      35.191  35.656  32.276  1.00  0.00     0.014 A 
ATOM     35  C   UNL A   1      34.929  32.996  33.090  1.00  0.00     0.010 A 
ATOM     36  C   UNL A   1      36.325  34.915  32.601  1.00  0.00     0.010 A 
ATOM     37  C   UNL A   1      36.204  33.580  33.017  1.00  0.00    -0.014 A 
BRANCH  37  38
ATOM     38  C   UNL A   1      37.420  32.813  33.382  1.00  0.00     0.031 A 
ATOM     39  C   UNL A   1      38.141  33.105  34.667  1.00  0.00     0.074 A 
ATOM     40  C   UNL A   1      37.908  31.894  32.527  1.00  0.00     0.049 A 
ATOM     41  N   UNL A   1      39.252  32.589  35.130  1.00  0.00    -0.248 NA
ATOM     42  C   UNL A   1      37.551  34.135  35.536  1.00  0.00     0.031 C 
ATOM     43  C   UNL A   1      37.325  31.553  31.228  1.00  0.00     0.029 A 
ATOM     44  N   UNL A   1      39.013  31.084  32.617  1.00  0.00    -0.354 N 
ATOM     45  C   UNL A   1      39.499  33.239  36.332  1.00  0.00     0.074 A 
ATOM     46  C   UNL A   1      38.452  34.223  36.503  1.00  0.00     0.031 C 
ATOM     47  C   UNL A   1      38.066  30.594  30.651  1.00  0.00     0.029 A 
ATOM     48  C   UNL A   1      39.193  30.274  31.523  1.00  0.00     0.049 A 
ATOM     49  H   UNL A   1      39.619  31.085  33.393  1.00  0.00     0.167 HD
ATOM     50  C   UNL A   1      40.497  33.020  37.222  1.00  0.00     0.037 A 
ATOM     51  C   UNL A   1      40.161  29.378  31.252  1.00  0.00     0.037 A 
ATOM     52  C   UNL A   1      41.519  32.021  37.062  1.00  0.00     0.049 A 
ATOM     53  C   UNL A   1      41.252  29.148  32.262  1.00  0.00     0.074 A 
ATOM     54  C   UNL A   1      42.537  31.680  37.936  1.00  0.00     0.029 A 
ATOM     55  N   UNL A   1      41.653  31.200  35.951  1.00  0.00    -0.354 N 
ATOM     56  N   UNL A   1      41.438  29.722  33.425  1.00  0.00    -0.248 NA
ATOM     57  C   UNL A   1      42.264  28.137  31.924  1.00  0.00     0.031 C 
ATOM     58  C   UNL A   1      43.312  30.680  37.336  1.00  0.00     0.029 A 
ATOM     59  C   UNL A   1      42.749  30.366  36.110  1.00  0.00     0.049 A 
ATOM     60  H   UNL A   1      41.059  31.209  35.167  1.00  0.00     0.167 HD
ATOM     61  C   UNL A   1      42.567  29.127  33.969  1.00  0.00     0.074 A 
ATOM     62  C   UNL A   1      43.016  28.134  33.014  1.00  0.00     0.031 C 
ATOM     63  C   UNL A   1      43.178  29.378  35.153  1.00  0.00     0.037 A 
BRANCH  50  64
ATOM     64  C   UNL A   1      40.527  33.877  38.454  1.00  0.00     0.064 A 
ATOM     65  C   UNL A   1      39.808  33.532  39.608  1.00  0.00     0.173 A 
ATOM     66  C   UNL A   1      41.315  35.037  38.496  1.00  0.00     0.173 A 
ATOM     67  F   UNL A   1      39.030  32.438  39.616  1.00  0.00    -0.203 F 
ATOM     68  C   UNL A   1      39.854  34.330  40.747  1.00  0.00     0.198 A 
ATOM     69  C   UNL A   1      41.382  35.817  39.647  1.00  0.00     0.198 A 
ATOM     70  F   UNL A   1      42.026  35.411  37.421  1.00  0.00    -0.203 F 
ATOM     71  F   UNL A   1      39.121  34.004  41.822  1.00  0.00    -0.200 F 
ATOM     72  C   UNL A   1      40.646  35.468  40.769  1.00  0.00     0.200 A 
ATOM     73  F   UNL A   1      42.158  36.911  39.670  1.00  0.00    -0.200 F 
ATOM     74  F   UNL A   1      40.694  36.231  41.869  1.00  0.00    -0.200 F 
ENDBRANCH  50  64
BRANCH  51  75
ATOM     75  C   UNL A   1      40.125  28.611  29.980  1.00  0.00     0.064 A 
ATOM     76  C   UNL A   1      39.496  27.360  29.912  1.00  0.00     0.173 A 
ATOM     77  C   UNL A   1      40.719  29.108  28.811  1.00  0.00     0.173 A 
ATOM     78  F   UNL A   1      38.933  26.835  31.011  1.00  0.00    -0.203 F 
ATOM     79  C   UNL A   1      39.478  26.626  28.729  1.00  0.00     0.198 A 
ATOM     80  C   UNL A   1      40.676  28.386  27.620  1.00  0.00     0.198 A 
ATOM     81  F   UNL A   1      41.328  30.302  28.822  1.00  0.00    -0.203 F 
ATOM     82  F   UNL A   1      38.908  25.414  28.704  1.00  0.00    -0.200 F 
ATOM     83  C   UNL A   1      40.063  27.142  27.582  1.00  0.00     0.200 A 
ATOM     84  F   UNL A   1      41.230  28.893  26.511  1.00  0.00    -0.200 F 
ATOM     85  F   UNL A   1      40.043  26.438  26.443  1.00  0.00    -0.200 F 
ENDBRANCH  51  75
BRANCH  63  86
ATOM     86  C   UNL A   1      44.377  28.545  35.499  1.00  0.00     0.064 A 
ATOM     87  C   UNL A   1      45.675  28.946  35.154  1.00  0.00     0.173 A 
ATOM     88  C   UNL A   1      44.227  27.349  36.216  1.00  0.00     0.173 A 
ATOM     89  F   UNL A   1      45.870  30.075  34.454  1.00  0.00    -0.203 F 
ATOM     90  C   UNL A   1      46.778  28.168  35.493  1.00  0.00     0.198 A 
ATOM     91  C   UNL A   1      45.333  26.588  36.580  1.00  0.00     0.198 A 
ATOM     92  F   UNL A   1      43.005  26.924  36.575  1.00  0.00    -0.203 F 
ATOM     93  F   UNL A   1      48.006  28.546  35.113  1.00  0.00    -0.200 F 
ATOM     94  C   UNL A   1      46.607  26.993  36.212  1.00  0.00     0.200 A 
ATOM     95  F   UNL A   1      45.167  25.460  37.284  1.00  0.00    -0.200 F 
ATOM     96  F   UNL A   1      47.670  26.247  36.542  1.00  0.00    -0.200 F 
ENDBRANCH  63  86
ENDBRANCH  37  38
ENDBRANCH  29  32
ENDBRANCH  27  28
ENDBRANCH  26  27
ENDBRANCH  25  26
ENDBRANCH  24  25
ENDBRANCH   1  24
TORSDOF 17
ENDMDL
MODEL 3
REMARK VINA RESULT:      -8.9      5.620     11.375
REMARK SMILES C[C@@H](C(=O)NCCCCCCNC(=O)c1ccc(-c2c3nc(c(-c4c(F)c(F)c(F)c(F)c4F)c4ccc([nH]4)c(-c4c(F)c(F)c(F)c(F)c4F)c4nc(c(-c5c(F)c(F)c(F)c(F)c5F)c5ccc2[nH]5)C=C4)C=C3)cc1)c1ccc(C[C@@H]2CCC[C@@H]2O)cc1F
REMARK SMILES IDX 7 1 6 2 5 3 3 4 4 5 2 7 1 8 78 9 79 10 90 11 80 12 89 13
REMARK SMILES IDX 91 14 81 15 82 16 83 17 84 18 87 19 85 20 86 21 88 22 8 24
REMARK SMILES IDX 9 25 10 26 11 27 12 28 13 29 14 31 15 32 16 33 77 34 17 35
REMARK SMILES IDX 76 36 18 37 19 38 20 39 70 40 21 41 75 42 69 43 71 44 22 45
REMARK SMILES IDX 74 46 68 47 67 48 23 50 55 51 35 52 54 53 36 54 39 55 53 56
REMARK SMILES IDX 72 57 37 58 38 59 52 61 73 62 40 63 24 64 25 65 33 66 26 67
REMARK SMILES IDX 27 68 31 69 34 70 28 71 29 72 32 73 30 74 56 75 57 76 65 77
REMARK SMILES IDX 58 78 59 79 63 80 66 81 60 82 61 83 64 84 62 85 41 86 42 87
REMARK SMILES IDX 50 88 43 89 44 90 48 91 51 92 45 93 46 94 49 95 47 96
REMARK H PARENT 5 6 88 23 12 30 71 49 39 60
REMARK Flexibility Score: inf
ROOT
ATOM      1  C   UNL A   1      31.413  28.070  26.997  1.00  0.00     0.021 C 
ENDROOT
BRANCH   1   2
ATOM      2  C   UNL A   1      32.069  26.816  26.416  1.00  0.00     0.116 C 
BRANCH   2   3
ATOM      3  N   UNL A   1      31.379  25.630  26.876  1.00  0.00    -0.356 N 
ATOM      4  C   UNL A   1      30.785  24.630  26.164  1.00  0.00     0.227 C 
ATOM      5  O   UNL A   1      30.107  23.823  26.800  1.00  0.00    -0.274 OA
ATOM      6  H   UNL A   1      31.331  25.531  27.854  1.00  0.00     0.163 HD
BRANCH   4   7
ATOM      7  C   UNL A   1      31.043  24.511  24.656  1.00  0.00     0.108 C 
ATOM      8  C   UNL A   1      32.449  24.000  24.322  1.00  0.00     0.023 C 
BRANCH   7   9
ATOM      9  C   UNL A   1      30.720  25.819  23.947  1.00  0.00    -0.000 A 
ATOM     10  C   UNL A   1      31.663  26.383  23.075  1.00  0.00     0.008 A 
ATOM     11  C   UNL A   1      29.491  26.469  24.094  1.00  0.00     0.127 A 
ATOM     12  C   UNL A   1      31.409  27.606  22.448  1.00  0.00     0.004 A 
ATOM     13  C   UNL A   1      29.243  27.695  23.486  1.00  0.00     0.043 A 
ATOM     14  F   UNL A   1      28.526  25.941  24.858  1.00  0.00    -0.207 F 
ATOM     15  C   UNL A   1      30.225  28.306  22.699  1.00  0.00    -0.045 A 
BRANCH  15  16
ATOM     16  C   UNL A   1      30.004  29.695  22.158  1.00  0.00     0.041 C 
BRANCH  16  17
ATOM     17  C   UNL A   1      28.635  30.362  22.434  1.00  0.00     0.022 C 
ATOM     18  C   UNL A   1      27.876  30.829  21.185  1.00  0.00     0.007 C 
ATOM     19  C   UNL A   1      28.611  31.611  23.323  1.00  0.00     0.117 C 
ATOM     20  C   UNL A   1      28.070  32.346  21.085  1.00  0.00     0.003 C 
ATOM     21  C   UNL A   1      28.773  32.785  22.365  1.00  0.00     0.032 C 
BRANCH  19  22
ATOM     22  O   UNL A   1      29.569  31.595  24.361  1.00  0.00    -0.393 OA
ATOM     23  H   UNL A   1      30.405  31.235  24.024  1.00  0.00     0.210 HD
ENDBRANCH  19  22
ENDBRANCH  16  17
ENDBRANCH  15  16
ENDBRANCH   7   9
ENDBRANCH   4   7
ENDBRANCH   2   3
ENDBRANCH   1   2
BRANCH   1  24
ATOM     24  C   UNL A   1      31.842  29.370  26.304  1.00  0.00     0.002 C 
BRANCH  24  25
ATOM     25  C   UNL A   1      32.442  30.431  27.231  1.00  0.00     0.002 C 
BRANCH  25  26
ATOM     26  C   UNL A   1      31.796  31.815  27.128  1.00  0.00     0.021 C 
BRANCH  26  27
ATOM     27  C   UNL A   1      32.755  32.931  26.727  1.00  0.00     0.116 C 
BRANCH  27  28
ATOM     28  N   UNL A   1      32.517  34.153  27.478  1.00  0.00    -0.352 N 
ATOM     29  C   UNL A   1      33.082  34.571  28.655  1.00  0.00     0.251 C 
ATOM     30  H   UNL A   1      31.856  34.768  27.085  1.00  0.00     0.163 HD
ATOM     31  O   UNL A   1      32.625  35.545  29.250  1.00  0.00    -0.269 OA
BRANCH  29  32
ATOM     32  C   UNL A   1      34.231  33.837  29.224  1.00  0.00     0.039 A 
ATOM     33  C   UNL A   1      35.525  34.239  28.878  1.00  0.00     0.014 A 
ATOM     34  C   UNL A   1      34.038  32.747  30.078  1.00  0.00     0.014 A 
ATOM     35  C   UNL A   1      36.625  33.581  29.431  1.00  0.00     0.010 A 
ATOM     36  C   UNL A   1      35.134  32.135  30.679  1.00  0.00     0.010 A 
ATOM     37  C   UNL A   1      36.439  32.541  30.357  1.00  0.00    -0.014 A 
BRANCH  37  38
ATOM     38  C   UNL A   1      37.596  31.862  30.990  1.00  0.00     0.031 A 
ATOM     39  C   UNL A   1      38.037  32.252  32.373  1.00  0.00     0.074 A 
ATOM     40  C   UNL A   1      38.285  30.936  30.297  1.00  0.00     0.049 A 
ATOM     41  N   UNL A   1      39.060  31.822  33.068  1.00  0.00    -0.248 NA
ATOM     42  C   UNL A   1      37.240  33.284  33.053  1.00  0.00     0.031 C 
ATOM     43  C   UNL A   1      37.984  30.506  28.930  1.00  0.00     0.029 A 
ATOM     44  N   UNL A   1      39.388  30.196  30.642  1.00  0.00    -0.354 N 
ATOM     45  C   UNL A   1      39.035  32.538  34.258  1.00  0.00     0.074 A 
ATOM     46  C   UNL A   1      37.929  33.467  34.170  1.00  0.00     0.031 C 
ATOM     47  C   UNL A   1      38.868  29.565  28.561  1.00  0.00     0.029 A 
ATOM     48  C   UNL A   1      39.817  29.351  29.649  1.00  0.00     0.049 A 
ATOM     49  H   UNL A   1      39.831  30.266  31.519  1.00  0.00     0.167 HD
ATOM     50  C   UNL A   1      39.849  32.417  35.334  1.00  0.00     0.037 A 
ATOM     51  C   UNL A   1      40.861  28.500  29.619  1.00  0.00     0.037 A 
ATOM     52  C   UNL A   1      40.930  31.472  35.428  1.00  0.00     0.049 A 
ATOM     53  C   UNL A   1      41.744  28.379  30.832  1.00  0.00     0.074 A 
ATOM     54  C   UNL A   1      41.773  31.229  36.500  1.00  0.00     0.029 A 
ATOM     55  N   UNL A   1      41.318  30.612  34.411  1.00  0.00    -0.354 N 
ATOM     56  N   UNL A   1      41.672  29.014  31.975  1.00  0.00    -0.248 NA
ATOM     57  C   UNL A   1      42.850  27.414  30.750  1.00  0.00     0.031 C 
ATOM     58  C   UNL A   1      42.697  30.250  36.116  1.00  0.00     0.029 A 
ATOM     59  C   UNL A   1      42.400  29.851  34.824  1.00  0.00     0.049 A 
ATOM     60  H   UNL A   1      40.889  30.552  33.528  1.00  0.00     0.167 HD
ATOM     61  C   UNL A   1      42.700  28.509  32.759  1.00  0.00     0.074 A 
ATOM     62  C   UNL A   1      43.374  27.503  31.964  1.00  0.00     0.031 C 
ATOM     63  C   UNL A   1      43.055  28.847  34.022  1.00  0.00     0.037 A 
BRANCH  50  64
ATOM     64  C   UNL A   1      39.598  33.328  36.500  1.00  0.00     0.064 A 
ATOM     65  C   UNL A   1      38.750  32.955  37.555  1.00  0.00     0.173 A 
ATOM     66  C   UNL A   1      40.241  34.571  36.584  1.00  0.00     0.173 A 
ATOM     67  F   UNL A   1      38.102  31.781  37.516  1.00  0.00    -0.203 F 
ATOM     68  C   UNL A   1      38.534  33.805  38.635  1.00  0.00     0.198 A 
ATOM     69  C   UNL A   1      40.046  35.406  37.681  1.00  0.00     0.198 A 
ATOM     70  F   UNL A   1      41.066  34.975  35.606  1.00  0.00    -0.203 F 
ATOM     71  F   UNL A   1      37.683  33.448  39.607  1.00  0.00    -0.200 F 
ATOM     72  C   UNL A   1      39.187  35.027  38.702  1.00  0.00     0.200 A 
ATOM     73  F   UNL A   1      40.687  36.582  37.749  1.00  0.00    -0.200 F 
ATOM     74  F   UNL A   1      38.983  35.841  39.746  1.00  0.00    -0.200 F 
ENDBRANCH  50  64
BRANCH  51  75
ATOM     75  C   UNL A   1      41.111  27.677  28.408  1.00  0.00     0.064 A 
ATOM     76  C   UNL A   1      42.004  28.108  27.417  1.00  0.00     0.173 A 
ATOM     77  C   UNL A   1      40.464  26.448  28.214  1.00  0.00     0.173 A 
ATOM     78  F   UNL A   1      42.630  29.287  27.550  1.00  0.00    -0.203 F 
ATOM     79  C   UNL A   1      42.227  27.351  26.270  1.00  0.00     0.198 A 
ATOM     80  C   UNL A   1      40.708  25.678  27.079  1.00  0.00     0.198 A 
ATOM     81  F   UNL A   1      39.605  25.988  29.136  1.00  0.00    -0.203 F 
ATOM     82  F   UNL A   1      43.052  27.809  25.318  1.00  0.00    -0.200 F 
ATOM     83  C   UNL A   1      41.582  26.134  26.104  1.00  0.00     0.200 A 
ATOM     84  F   UNL A   1      40.095  24.497  26.929  1.00  0.00    -0.200 F 
ATOM     85  F   UNL A   1      41.799  25.405  25.001  1.00  0.00    -0.200 F 
ENDBRANCH  51  75
BRANCH  63  86
ATOM     86  C   UNL A   1      44.202  28.101  34.638  1.00  0.00     0.064 A 
ATOM     87  C   UNL A   1      45.520  28.568  34.540  1.00  0.00     0.173 A 
ATOM     88  C   UNL A   1      43.973  26.923  35.365  1.00  0.00     0.173 A 
ATOM     89  F   UNL A   1      45.792  29.682  33.843  1.00  0.00    -0.203 F 
ATOM     90  C   UNL A   1      46.572  27.870  35.127  1.00  0.00     0.198 A 
ATOM     91  C   UNL A   1      45.022  26.243  35.976  1.00  0.00     0.198 A 
ATOM     92  F   UNL A   1      42.729  26.438  35.493  1.00  0.00    -0.203 F 
ATOM     93  F   UNL A   1      47.829  28.309  34.983  1.00  0.00    -0.200 F 
ATOM     94  C   UNL A   1      46.321  26.712  35.851  1.00  0.00     0.200 A 
ATOM     95  F   UNL A   1      44.778  25.132  36.683  1.00  0.00    -0.200 F 
ATOM     96  F   UNL A   1      47.334  26.045  36.420  1.00  0.00    -0.200 F 
ENDBRANCH  63  86
ENDBRANCH  37  38
ENDBRANCH  29  32
ENDBRANCH  27  28
ENDBRANCH  26  27
ENDBRANCH  25  26
ENDBRANCH  24  25
ENDBRANCH   1  24
TORSDOF 17
ENDMDL
