MODEL 1
REMARK VINA RESULT:     -14.5      0.000      0.000
REMARK SMILES Cc1cc(C(=O)NCCCCCCNC(=O)c2ccc(-c3c4nc(c(-c5c(F)c(F)c(F)c(F)c5F)c5ccc([nH]5)c(-c5c(F)c(F)c(F)c(F)c5F)c5nc(c(-c6c(F)c(F)c(F)c(F)c6F)c6ccc3[nH]6)C=C5)C=C4)cc2)ccc1NS(=O)(=O)c1ccc2c(c1)CCC2
REMARK SMILES IDX 10 1 9 2 8 3 7 4 5 5 6 6 4 8 1 9 2 10 3 11 82 12 81 13 80 14
REMARK SMILES IDX 83 15 84 17 85 18 86 19 87 20 88 21 92 22 89 23 91 24 90 25
REMARK SMILES IDX 93 26 95 27 94 28 11 29 12 30 13 31 14 32 15 33 16 35 17 36
REMARK SMILES IDX 18 37 79 38 19 39 78 40 20 41 21 42 22 43 72 44 23 45 77 46
REMARK SMILES IDX 71 47 73 48 24 49 76 50 70 51 69 52 25 54 57 55 37 56 56 57
REMARK SMILES IDX 38 58 41 59 55 60 74 61 39 62 40 63 54 65 75 66 42 67 26 68
REMARK SMILES IDX 27 69 35 70 28 71 29 72 33 73 36 74 30 75 31 76 34 77 32 78
REMARK SMILES IDX 58 79 59 80 67 81 60 82 61 83 65 84 68 85 62 86 63 87 66 88
REMARK SMILES IDX 64 89 43 90 44 91 52 92 45 93 46 94 50 95 53 96 47 97 48 98
REMARK SMILES IDX 51 99 49 100
REMARK H PARENT 7 7 83 16 14 34 73 53 41 64
REMARK Flexibility Score: inf
ROOT
ATOM      1  C   UNL A   1      35.605  23.066  25.667  1.00  0.00     0.002 C 
ENDROOT
BRANCH   1   2
ATOM      2  C   UNL A   1      35.547  21.604  26.123  1.00  0.00     0.021 C 
BRANCH   2   3
ATOM      3  C   UNL A   1      35.357  20.528  25.051  1.00  0.00     0.116 C 
BRANCH   3   4
ATOM      4  N   UNL A   1      34.366  19.517  25.369  1.00  0.00    -0.352 N 
ATOM      5  C   UNL A   1      33.019  19.484  25.073  1.00  0.00     0.251 C 
ATOM      6  O   UNL A   1      32.338  18.536  25.452  1.00  0.00    -0.269 OA
ATOM      7  H   UNL A   1      34.705  18.741  25.869  1.00  0.00     0.163 HD
BRANCH   5   8
ATOM      8  C   UNL A   1      32.361  20.626  24.386  1.00  0.00     0.040 A 
ATOM      9  C   UNL A   1      30.952  23.982  25.452  1.00  0.00     0.046 C 
ATOM     10  C   UNL A   1      31.516  22.902  24.570  1.00  0.00    -0.026 A 
ATOM     11  C   UNL A   1      31.906  21.691  25.169  1.00  0.00     0.019 A 
ATOM     12  C   UNL A   1      31.666  23.047  23.180  1.00  0.00     0.052 A 
ATOM     13  C   UNL A   1      31.837  21.900  22.400  1.00  0.00     0.028 A 
ATOM     14  C   UNL A   1      32.198  20.688  23.003  1.00  0.00     0.016 A 
BRANCH  12  15
ATOM     15  N   UNL A   1      31.924  24.358  22.680  1.00  0.00    -0.279 N 
ATOM     16  H   UNL A   1      31.133  24.936  22.574  1.00  0.00     0.180 HD
BRANCH  15  17
ATOM     17  S   UNL A   1      33.377  25.045  22.248  1.00  0.00     0.261 S 
ATOM     18  O   UNL A   1      34.439  24.147  22.674  1.00  0.00    -0.201 OA
ATOM     19  O   UNL A   1      33.226  25.423  20.866  1.00  0.00    -0.201 OA
BRANCH  17  20
ATOM     20  C   UNL A   1      33.603  26.565  23.160  1.00  0.00     0.088 A 
ATOM     21  C   UNL A   1      33.567  27.832  22.554  1.00  0.00     0.022 A 
ATOM     22  C   UNL A   1      33.618  26.443  24.556  1.00  0.00     0.026 A 
ATOM     23  C   UNL A   1      33.310  28.969  23.328  1.00  0.00     0.005 A 
ATOM     24  C   UNL A   1      33.416  27.584  25.310  1.00  0.00    -0.043 A 
ATOM     25  C   UNL A   1      33.176  28.818  24.698  1.00  0.00    -0.045 A 
ATOM     26  C   UNL A   1      33.370  27.718  26.798  1.00  0.00     0.036 C 
ATOM     27  C   UNL A   1      32.765  29.840  25.713  1.00  0.00     0.036 C 
ATOM     28  C   UNL A   1      32.468  28.949  26.933  1.00  0.00     0.010 C 
ENDBRANCH  17  20
ENDBRANCH  15  17
ENDBRANCH  12  15
ENDBRANCH   5   8
ENDBRANCH   3   4
ENDBRANCH   2   3
ENDBRANCH   1   2
BRANCH   1  29
ATOM     29  C   UNL A   1      36.955  23.792  25.758  1.00  0.00     0.002 C 
BRANCH  29  30
ATOM     30  C   UNL A   1      38.204  22.988  25.394  1.00  0.00     0.021 C 
BRANCH  30  31
ATOM     31  C   UNL A   1      39.090  22.587  26.568  1.00  0.00     0.116 C 
BRANCH  31  32
ATOM     32  N   UNL A   1      40.514  22.837  26.374  1.00  0.00    -0.352 N 
ATOM     33  C   UNL A   1      41.199  24.039  26.406  1.00  0.00     0.251 C 
ATOM     34  H   UNL A   1      41.064  22.039  26.196  1.00  0.00     0.163 HD
ATOM     35  O   UNL A   1      42.406  24.074  26.194  1.00  0.00    -0.269 OA
BRANCH  33  36
ATOM     36  C   UNL A   1      40.486  25.273  26.819  1.00  0.00     0.039 A 
ATOM     37  C   UNL A   1      40.764  26.463  26.136  1.00  0.00     0.014 A 
ATOM     38  C   UNL A   1      39.708  25.296  27.973  1.00  0.00     0.014 A 
ATOM     39  C   UNL A   1      40.477  27.684  26.746  1.00  0.00     0.010 A 
ATOM     40  C   UNL A   1      39.514  26.498  28.625  1.00  0.00     0.010 A 
ATOM     41  C   UNL A   1      39.964  27.687  28.043  1.00  0.00    -0.014 A 
BRANCH  41  42
ATOM     42  C   UNL A   1      39.985  28.858  28.914  1.00  0.00     0.031 A 
ATOM     43  C   UNL A   1      38.930  29.891  28.832  1.00  0.00     0.074 A 
ATOM     44  C   UNL A   1      40.927  28.936  29.880  1.00  0.00     0.049 A 
ATOM     45  N   UNL A   1      39.042  31.083  29.315  1.00  0.00    -0.248 NA
ATOM     46  C   UNL A   1      37.658  29.659  28.162  1.00  0.00     0.031 C 
ATOM     47  C   UNL A   1      40.966  29.850  31.019  1.00  0.00     0.029 A 
ATOM     48  N   UNL A   1      42.190  28.317  29.891  1.00  0.00    -0.354 N 
ATOM     49  C   UNL A   1      37.814  31.694  29.234  1.00  0.00     0.074 A 
ATOM     50  C   UNL A   1      36.991  30.774  28.480  1.00  0.00     0.031 C 
ATOM     51  C   UNL A   1      42.241  29.987  31.417  1.00  0.00     0.029 A 
ATOM     52  C   UNL A   1      43.065  29.276  30.456  1.00  0.00     0.049 A 
ATOM     53  H   UNL A   1      42.416  27.413  29.574  1.00  0.00     0.167 HD
ATOM     54  C   UNL A   1      37.602  32.866  29.899  1.00  0.00     0.037 A 
ATOM     55  C   UNL A   1      44.066  29.831  29.712  1.00  0.00     0.037 A 
ATOM     56  C   UNL A   1      38.822  33.357  30.532  1.00  0.00     0.049 A 
ATOM     57  C   UNL A   1      43.980  31.334  29.551  1.00  0.00     0.074 A 
ATOM     58  C   UNL A   1      39.350  33.278  31.810  1.00  0.00     0.029 A 
ATOM     59  N   UNL A   1      39.849  33.805  29.721  1.00  0.00    -0.354 N 
ATOM     60  N   UNL A   1      42.976  32.061  29.953  1.00  0.00    -0.248 NA
ATOM     61  C   UNL A   1      44.980  32.118  28.822  1.00  0.00     0.031 C 
ATOM     62  C   UNL A   1      40.721  33.655  31.747  1.00  0.00     0.029 A 
ATOM     63  C   UNL A   1      41.019  33.965  30.434  1.00  0.00     0.049 A 
ATOM     64  H   UNL A   1      39.757  33.985  28.757  1.00  0.00     0.167 HD
ATOM     65  C   UNL A   1      43.150  33.346  29.519  1.00  0.00     0.074 A 
ATOM     66  C   UNL A   1      44.417  33.337  28.815  1.00  0.00     0.031 C 
ATOM     67  C   UNL A   1      42.230  34.328  29.725  1.00  0.00     0.037 A 
BRANCH  54  68
ATOM     68  C   UNL A   1      36.239  33.467  30.147  1.00  0.00     0.064 A 
ATOM     69  C   UNL A   1      35.472  33.979  29.077  1.00  0.00     0.173 A 
ATOM     70  C   UNL A   1      35.650  33.607  31.416  1.00  0.00     0.173 A 
ATOM     71  F   UNL A   1      35.859  33.830  27.803  1.00  0.00    -0.203 F 
ATOM     72  C   UNL A   1      34.277  34.674  29.277  1.00  0.00     0.198 A 
ATOM     73  C   UNL A   1      34.487  34.356  31.623  1.00  0.00     0.198 A 
ATOM     74  F   UNL A   1      36.151  32.978  32.487  1.00  0.00    -0.203 F 
ATOM     75  F   UNL A   1      33.593  35.137  28.221  1.00  0.00    -0.200 F 
ATOM     76  C   UNL A   1      33.805  34.899  30.553  1.00  0.00     0.200 A 
ATOM     77  F   UNL A   1      34.032  34.545  32.870  1.00  0.00    -0.200 F 
ATOM     78  F   UNL A   1      32.689  35.613  30.749  1.00  0.00    -0.200 F 
ENDBRANCH  54  68
BRANCH  55  79
ATOM     79  C   UNL A   1      44.603  28.902  28.680  1.00  0.00     0.064 A 
ATOM     80  C   UNL A   1      45.442  27.848  29.094  1.00  0.00     0.173 A 
ATOM     81  C   UNL A   1      44.037  28.815  27.404  1.00  0.00     0.173 A 
ATOM     82  F   UNL A   1      46.011  27.881  30.310  1.00  0.00    -0.203 F 
ATOM     83  C   UNL A   1      45.600  26.702  28.320  1.00  0.00     0.198 A 
ATOM     84  C   UNL A   1      44.218  27.676  26.620  1.00  0.00     0.198 A 
ATOM     85  F   UNL A   1      43.212  29.773  26.959  1.00  0.00    -0.203 F 
ATOM     86  F   UNL A   1      46.299  25.663  28.797  1.00  0.00    -0.200 F 
ATOM     87  C   UNL A   1      44.966  26.608  27.093  1.00  0.00     0.200 A 
ATOM     88  F   UNL A   1      43.581  27.573  25.445  1.00  0.00    -0.200 F 
ATOM     89  F   UNL A   1      45.038  25.471  26.386  1.00  0.00    -0.200 F 
ENDBRANCH  55  79
BRANCH  67  90
ATOM     90  C   UNL A   1      42.432  35.732  29.261  1.00  0.00     0.064 A 
ATOM     91  C   UNL A   1      41.864  36.204  28.069  1.00  0.00     0.173 A 
ATOM     92  C   UNL A   1      43.303  36.606  29.938  1.00  0.00     0.173 A 
ATOM     93  F   UNL A   1      41.049  35.421  27.346  1.00  0.00    -0.203 F 
ATOM     94  C   UNL A   1      42.132  37.487  27.595  1.00  0.00     0.198 A 
ATOM     95  C   UNL A   1      43.605  37.871  29.441  1.00  0.00     0.198 A 
ATOM     96  F   UNL A   1      43.862  36.257  31.108  1.00  0.00    -0.203 F 
ATOM     97  F   UNL A   1      41.539  37.920  26.473  1.00  0.00    -0.200 F 
ATOM     98  C   UNL A   1      43.012  38.314  28.273  1.00  0.00     0.200 A 
ATOM     99  F   UNL A   1      44.468  38.657  30.098  1.00  0.00    -0.200 F 
ATOM    100  F   UNL A   1      43.286  39.539  27.803  1.00  0.00    -0.200 F 
ENDBRANCH  67  90
ENDBRANCH  41  42
ENDBRANCH  33  36
ENDBRANCH  31  32
ENDBRANCH  30  31
ENDBRANCH  29  30
ENDBRANCH   1  29
TORSDOF 16
ENDMDL
MODEL 2
REMARK VINA RESULT:     -14.2      3.823      9.854
REMARK SMILES Cc1cc(C(=O)NCCCCCCNC(=O)c2ccc(-c3c4nc(c(-c5c(F)c(F)c(F)c(F)c5F)c5ccc([nH]5)c(-c5c(F)c(F)c(F)c(F)c5F)c5nc(c(-c6c(F)c(F)c(F)c(F)c6F)c6ccc3[nH]6)C=C5)C=C4)cc2)ccc1NS(=O)(=O)c1ccc2c(c1)CCC2
REMARK SMILES IDX 10 1 9 2 8 3 7 4 5 5 6 6 4 8 1 9 2 10 3 11 82 12 81 13 80 14
REMARK SMILES IDX 83 15 84 17 85 18 86 19 87 20 88 21 92 22 89 23 91 24 90 25
REMARK SMILES IDX 93 26 95 27 94 28 11 29 12 30 13 31 14 32 15 33 16 35 17 36
REMARK SMILES IDX 18 37 79 38 19 39 78 40 20 41 21 42 22 43 72 44 23 45 77 46
REMARK SMILES IDX 71 47 73 48 24 49 76 50 70 51 69 52 25 54 57 55 37 56 56 57
REMARK SMILES IDX 38 58 41 59 55 60 74 61 39 62 40 63 54 65 75 66 42 67 26 68
REMARK SMILES IDX 27 69 35 70 28 71 29 72 33 73 36 74 30 75 31 76 34 77 32 78
REMARK SMILES IDX 58 79 59 80 67 81 60 82 61 83 65 84 68 85 62 86 63 87 66 88
REMARK SMILES IDX 64 89 43 90 44 91 52 92 45 93 46 94 50 95 53 96 47 97 48 98
REMARK SMILES IDX 51 99 49 100
REMARK H PARENT 7 7 83 16 14 34 73 53 41 64
REMARK Flexibility Score: inf
ROOT
ATOM      1  C   UNL A   1      33.676  27.761  26.089  1.00  0.00     0.002 C 
ENDROOT
BRANCH   1   2
ATOM      2  C   UNL A   1      33.742  27.204  24.662  1.00  0.00     0.021 C 
BRANCH   2   3
ATOM      3  C   UNL A   1      33.206  28.080  23.527  1.00  0.00     0.116 C 
BRANCH   3   4
ATOM      4  N   UNL A   1      33.491  27.592  22.192  1.00  0.00    -0.352 N 
ATOM      5  C   UNL A   1      32.989  26.488  21.534  1.00  0.00     0.251 C 
ATOM      6  O   UNL A   1      33.375  26.230  20.398  1.00  0.00    -0.269 OA
ATOM      7  H   UNL A   1      34.139  28.127  21.679  1.00  0.00     0.163 HD
BRANCH   5   8
ATOM      8  C   UNL A   1      32.058  25.552  22.217  1.00  0.00     0.040 A 
ATOM      9  C   UNL A   1      32.206  21.938  23.358  1.00  0.00     0.046 C 
ATOM     10  C   UNL A   1      31.763  23.373  23.262  1.00  0.00    -0.026 A 
ATOM     11  C   UNL A   1      32.475  24.230  22.405  1.00  0.00     0.019 A 
ATOM     12  C   UNL A   1      30.675  23.890  23.984  1.00  0.00     0.052 A 
ATOM     13  C   UNL A   1      30.107  25.097  23.568  1.00  0.00     0.028 A 
ATOM     14  C   UNL A   1      30.805  25.937  22.692  1.00  0.00     0.016 A 
BRANCH  12  15
ATOM     15  N   UNL A   1      30.396  23.312  25.258  1.00  0.00    -0.279 N 
ATOM     16  H   UNL A   1      29.757  22.562  25.254  1.00  0.00     0.180 HD
BRANCH  15  17
ATOM     17  S   UNL A   1      31.000  23.731  26.751  1.00  0.00     0.261 S 
ATOM     18  O   UNL A   1      30.983  25.182  26.848  1.00  0.00    -0.201 OA
ATOM     19  O   UNL A   1      30.289  22.908  27.696  1.00  0.00    -0.201 OA
BRANCH  17  20
ATOM     20  C   UNL A   1      32.714  23.238  26.850  1.00  0.00     0.088 A 
ATOM     21  C   UNL A   1      33.131  22.037  27.449  1.00  0.00     0.022 A 
ATOM     22  C   UNL A   1      33.618  24.019  26.117  1.00  0.00     0.026 A 
ATOM     23  C   UNL A   1      34.379  21.492  27.126  1.00  0.00     0.005 A 
ATOM     24  C   UNL A   1      34.867  23.490  25.852  1.00  0.00    -0.043 A 
ATOM     25  C   UNL A   1      35.210  22.203  26.277  1.00  0.00    -0.045 A 
ATOM     26  C   UNL A   1      35.993  24.106  25.085  1.00  0.00     0.036 C 
ATOM     27  C   UNL A   1      36.513  21.776  25.676  1.00  0.00     0.036 C 
ATOM     28  C   UNL A   1      36.704  22.845  24.583  1.00  0.00     0.010 C 
ENDBRANCH  17  20
ENDBRANCH  15  17
ENDBRANCH  12  15
ENDBRANCH   5   8
ENDBRANCH   3   4
ENDBRANCH   2   3
ENDBRANCH   1   2
BRANCH   1  29
ATOM     29  C   UNL A   1      32.482  28.656  26.455  1.00  0.00     0.002 C 
BRANCH  29  30
ATOM     30  C   UNL A   1      32.787  29.938  27.231  1.00  0.00     0.021 C 
BRANCH  30  31
ATOM     31  C   UNL A   1      34.246  30.375  27.226  1.00  0.00     0.116 C 
BRANCH  31  32
ATOM     32  N   UNL A   1      34.645  31.193  28.367  1.00  0.00    -0.352 N 
ATOM     33  C   UNL A   1      35.695  31.003  29.249  1.00  0.00     0.251 C 
ATOM     34  H   UNL A   1      34.091  31.989  28.533  1.00  0.00     0.163 HD
ATOM     35  O   UNL A   1      35.876  31.780  30.179  1.00  0.00    -0.269 OA
BRANCH  33  36
ATOM     36  C   UNL A   1      36.677  29.921  28.991  1.00  0.00     0.039 A 
ATOM     37  C   UNL A   1      36.971  29.026  30.026  1.00  0.00     0.014 A 
ATOM     38  C   UNL A   1      37.430  29.904  27.820  1.00  0.00     0.014 A 
ATOM     39  C   UNL A   1      38.163  28.303  29.988  1.00  0.00     0.010 A 
ATOM     40  C   UNL A   1      38.656  29.269  27.823  1.00  0.00     0.010 A 
ATOM     41  C   UNL A   1      39.054  28.526  28.938  1.00  0.00    -0.014 A 
BRANCH  41  42
ATOM     42  C   UNL A   1      40.461  28.137  28.980  1.00  0.00     0.031 A 
ATOM     43  C   UNL A   1      40.915  26.849  28.416  1.00  0.00     0.074 A 
ATOM     44  C   UNL A   1      41.368  29.024  29.447  1.00  0.00     0.049 A 
ATOM     45  N   UNL A   1      42.046  26.293  28.694  1.00  0.00    -0.248 NA
ATOM     46  C   UNL A   1      40.099  26.064  27.499  1.00  0.00     0.031 C 
ATOM     47  C   UNL A   1      42.822  28.963  29.322  1.00  0.00     0.029 A 
ATOM     48  N   UNL A   1      41.143  30.080  30.347  1.00  0.00    -0.354 N 
ATOM     49  C   UNL A   1      42.217  25.224  27.848  1.00  0.00     0.074 A 
ATOM     50  C   UNL A   1      40.961  25.105  27.142  1.00  0.00     0.031 C 
ATOM     51  C   UNL A   1      43.370  29.680  30.316  1.00  0.00     0.029 A 
ATOM     52  C   UNL A   1      42.285  30.100  31.185  1.00  0.00     0.049 A 
ATOM     53  H   UNL A   1      40.360  30.676  30.387  1.00  0.00     0.167 HD
ATOM     54  C   UNL A   1      43.437  24.618  27.769  1.00  0.00     0.037 A 
ATOM     55  C   UNL A   1      42.180  29.808  32.514  1.00  0.00     0.037 A 
ATOM     56  C   UNL A   1      44.380  25.173  28.735  1.00  0.00     0.049 A 
ATOM     57  C   UNL A   1      42.986  28.609  32.967  1.00  0.00     0.074 A 
ATOM     58  C   UNL A   1      45.380  26.131  28.672  1.00  0.00     0.029 A 
ATOM     59  N   UNL A   1      44.160  24.937  30.079  1.00  0.00    -0.354 N 
ATOM     60  N   UNL A   1      43.628  27.808  32.164  1.00  0.00    -0.248 NA
ATOM     61  C   UNL A   1      43.036  28.160  34.361  1.00  0.00     0.031 C 
ATOM     62  C   UNL A   1      45.734  26.489  30.004  1.00  0.00     0.029 A 
ATOM     63  C   UNL A   1      44.953  25.746  30.868  1.00  0.00     0.049 A 
ATOM     64  H   UNL A   1      43.519  24.277  30.429  1.00  0.00     0.167 HD
ATOM     65  C   UNL A   1      44.119  26.752  32.882  1.00  0.00     0.074 A 
ATOM     66  C   UNL A   1      43.725  27.013  34.252  1.00  0.00     0.031 C 
ATOM     67  C   UNL A   1      44.781  25.711  32.307  1.00  0.00     0.037 A 
BRANCH  54  68
ATOM     68  C   UNL A   1      43.838  23.657  26.676  1.00  0.00     0.064 A 
ATOM     69  C   UNL A   1      43.341  22.335  26.660  1.00  0.00     0.173 A 
ATOM     70  C   UNL A   1      44.740  23.962  25.640  1.00  0.00     0.173 A 
ATOM     71  F   UNL A   1      42.401  21.930  27.525  1.00  0.00    -0.203 F 
ATOM     72  C   UNL A   1      43.798  21.373  25.756  1.00  0.00     0.198 A 
ATOM     73  C   UNL A   1      45.244  22.984  24.776  1.00  0.00     0.198 A 
ATOM     74  F   UNL A   1      45.118  25.223  25.397  1.00  0.00    -0.203 F 
ATOM     75  F   UNL A   1      43.288  20.133  25.791  1.00  0.00    -0.200 F 
ATOM     76  C   UNL A   1      44.781  21.686  24.841  1.00  0.00     0.200 A 
ATOM     77  F   UNL A   1      46.184  23.313  23.878  1.00  0.00    -0.200 F 
ATOM     78  F   UNL A   1      45.260  20.750  24.011  1.00  0.00    -0.200 F 
ENDBRANCH  54  68
BRANCH  55  79
ATOM     79  C   UNL A   1      40.869  30.211  33.093  1.00  0.00     0.064 A 
ATOM     80  C   UNL A   1      40.593  31.584  33.245  1.00  0.00     0.173 A 
ATOM     81  C   UNL A   1      39.789  29.323  33.154  1.00  0.00     0.173 A 
ATOM     82  F   UNL A   1      41.592  32.479  33.194  1.00  0.00    -0.203 F 
ATOM     83  C   UNL A   1      39.285  32.055  33.322  1.00  0.00     0.198 A 
ATOM     84  C   UNL A   1      38.482  29.797  33.257  1.00  0.00     0.198 A 
ATOM     85  F   UNL A   1      39.982  28.006  32.995  1.00  0.00    -0.203 F 
ATOM     86  F   UNL A   1      39.049  33.374  33.335  1.00  0.00    -0.200 F 
ATOM     87  C   UNL A   1      38.229  31.160  33.303  1.00  0.00     0.200 A 
ATOM     88  F   UNL A   1      37.458  28.932  33.210  1.00  0.00    -0.200 F 
ATOM     89  F   UNL A   1      36.967  31.611  33.282  1.00  0.00    -0.200 F 
ENDBRANCH  55  79
BRANCH  67  90
ATOM     90  C   UNL A   1      45.326  24.568  33.097  1.00  0.00     0.064 A 
ATOM     91  C   UNL A   1      44.538  23.455  33.423  1.00  0.00     0.173 A 
ATOM     92  C   UNL A   1      46.618  24.616  33.652  1.00  0.00     0.173 A 
ATOM     93  F   UNL A   1      43.283  23.349  32.961  1.00  0.00    -0.203 F 
ATOM     94  C   UNL A   1      45.025  22.434  34.239  1.00  0.00     0.198 A 
ATOM     95  C   UNL A   1      47.087  23.618  34.502  1.00  0.00     0.198 A 
ATOM     96  F   UNL A   1      47.459  25.622  33.363  1.00  0.00    -0.203 F 
ATOM     97  F   UNL A   1      44.259  21.365  34.497  1.00  0.00    -0.200 F 
ATOM     98  C   UNL A   1      46.294  22.523  34.788  1.00  0.00     0.200 A 
ATOM     99  F   UNL A   1      48.311  23.721  35.038  1.00  0.00    -0.200 F 
ATOM    100  F   UNL A   1      46.752  21.552  35.590  1.00  0.00    -0.200 F 
ENDBRANCH  67  90
ENDBRANCH  41  42
ENDBRANCH  33  36
ENDBRANCH  31  32
ENDBRANCH  30  31
ENDBRANCH  29  30
ENDBRANCH   1  29
TORSDOF 16
ENDMDL
MODEL 3
REMARK VINA RESULT:     -14.0      3.691      9.999
REMARK SMILES Cc1cc(C(=O)NCCCCCCNC(=O)c2ccc(-c3c4nc(c(-c5c(F)c(F)c(F)c(F)c5F)c5ccc([nH]5)c(-c5c(F)c(F)c(F)c(F)c5F)c5nc(c(-c6c(F)c(F)c(F)c(F)c6F)c6ccc3[nH]6)C=C5)C=C4)cc2)ccc1NS(=O)(=O)c1ccc2c(c1)CCC2
REMARK SMILES IDX 10 1 9 2 8 3 7 4 5 5 6 6 4 8 1 9 2 10 3 11 82 12 81 13 80 14
REMARK SMILES IDX 83 15 84 17 85 18 86 19 87 20 88 21 92 22 89 23 91 24 90 25
REMARK SMILES IDX 93 26 95 27 94 28 11 29 12 30 13 31 14 32 15 33 16 35 17 36
REMARK SMILES IDX 18 37 79 38 19 39 78 40 20 41 21 42 22 43 72 44 23 45 77 46
REMARK SMILES IDX 71 47 73 48 24 49 76 50 70 51 69 52 25 54 57 55 37 56 56 57
REMARK SMILES IDX 38 58 41 59 55 60 74 61 39 62 40 63 54 65 75 66 42 67 26 68
REMARK SMILES IDX 27 69 35 70 28 71 29 72 33 73 36 74 30 75 31 76 34 77 32 78
REMARK SMILES IDX 58 79 59 80 67 81 60 82 61 83 65 84 68 85 62 86 63 87 66 88
REMARK SMILES IDX 64 89 43 90 44 91 52 92 45 93 46 94 50 95 53 96 47 97 48 98
REMARK SMILES IDX 51 99 49 100
REMARK H PARENT 7 7 83 16 14 34 73 53 41 64
REMARK Flexibility Score: inf
ROOT
ATOM      1  C   UNL A   1      33.230  28.688  27.065  1.00  0.00     0.002 C 
ENDROOT
BRANCH   1   2
ATOM      2  C   UNL A   1      33.589  28.291  25.629  1.00  0.00     0.021 C 
BRANCH   2   3
ATOM      3  C   UNL A   1      33.062  29.170  24.492  1.00  0.00     0.116 C 
BRANCH   3   4
ATOM      4  N   UNL A   1      33.653  28.909  23.193  1.00  0.00    -0.352 N 
ATOM      5  C   UNL A   1      33.403  27.884  22.305  1.00  0.00     0.251 C 
ATOM      6  O   UNL A   1      34.031  27.828  21.251  1.00  0.00    -0.269 OA
ATOM      7  H   UNL A   1      34.333  29.559  22.904  1.00  0.00     0.163 HD
BRANCH   5   8
ATOM      8  C   UNL A   1      32.455  26.792  22.647  1.00  0.00     0.040 A 
ATOM      9  C   UNL A   1      32.665  23.017  22.951  1.00  0.00     0.046 C 
ATOM     10  C   UNL A   1      32.163  24.424  23.131  1.00  0.00    -0.026 A 
ATOM     11  C   UNL A   1      32.917  25.474  22.578  1.00  0.00     0.019 A 
ATOM     12  C   UNL A   1      30.979  24.733  23.822  1.00  0.00     0.052 A 
ATOM     13  C   UNL A   1      30.397  25.989  23.627  1.00  0.00     0.028 A 
ATOM     14  C   UNL A   1      31.141  27.025  23.050  1.00  0.00     0.016 A 
BRANCH  12  15
ATOM     15  N   UNL A   1      30.596  23.870  24.892  1.00  0.00    -0.279 N 
ATOM     16  H   UNL A   1      29.910  23.199  24.671  1.00  0.00     0.180 HD
BRANCH  15  17
ATOM     17  S   UNL A   1      31.151  23.842  26.461  1.00  0.00     0.261 S 
ATOM     18  O   UNL A   1      31.364  25.217  26.884  1.00  0.00    -0.201 OA
ATOM     19  O   UNL A   1      30.247  22.971  27.169  1.00  0.00    -0.201 OA
BRANCH  17  20
ATOM     20  C   UNL A   1      32.749  23.045  26.506  1.00  0.00     0.088 A 
ATOM     21  C   UNL A   1      32.908  21.649  26.501  1.00  0.00     0.022 A 
ATOM     22  C   UNL A   1      33.857  23.888  26.342  1.00  0.00     0.026 A 
ATOM     23  C   UNL A   1      34.125  21.086  26.100  1.00  0.00     0.005 A 
ATOM     24  C   UNL A   1      35.066  23.313  25.998  1.00  0.00    -0.043 A 
ATOM     25  C   UNL A   1      35.175  21.935  25.794  1.00  0.00    -0.045 A 
ATOM     26  C   UNL A   1      36.378  23.986  25.752  1.00  0.00     0.036 C 
ATOM     27  C   UNL A   1      36.512  21.591  25.213  1.00  0.00     0.036 C 
ATOM     28  C   UNL A   1      37.024  22.981  24.792  1.00  0.00     0.010 C 
ENDBRANCH  17  20
ENDBRANCH  15  17
ENDBRANCH  12  15
ENDBRANCH   5   8
ENDBRANCH   3   4
ENDBRANCH   2   3
ENDBRANCH   1   2
BRANCH   1  29
ATOM     29  C   UNL A   1      32.342  29.925  27.267  1.00  0.00     0.002 C 
BRANCH  29  30
ATOM     30  C   UNL A   1      33.048  31.277  27.375  1.00  0.00     0.021 C 
BRANCH  30  31
ATOM     31  C   UNL A   1      34.550  31.213  27.625  1.00  0.00     0.116 C 
BRANCH  31  32
ATOM     32  N   UNL A   1      34.986  31.794  28.891  1.00  0.00    -0.352 N 
ATOM     33  C   UNL A   1      35.932  31.323  29.785  1.00  0.00     0.251 C 
ATOM     34  H   UNL A   1      34.546  32.638  29.144  1.00  0.00     0.163 HD
ATOM     35  O   UNL A   1      36.160  31.929  30.826  1.00  0.00    -0.269 OA
BRANCH  33  36
ATOM     36  C   UNL A   1      36.757  30.146  29.420  1.00  0.00     0.039 A 
ATOM     37  C   UNL A   1      36.986  29.165  30.392  1.00  0.00     0.014 A 
ATOM     38  C   UNL A   1      37.444  30.103  28.210  1.00  0.00     0.014 A 
ATOM     39  C   UNL A   1      38.075  28.305  30.252  1.00  0.00     0.010 A 
ATOM     40  C   UNL A   1      38.580  29.323  28.114  1.00  0.00     0.010 A 
ATOM     41  C   UNL A   1      38.935  28.476  29.167  1.00  0.00    -0.014 A 
BRANCH  41  42
ATOM     42  C   UNL A   1      40.283  27.916  29.113  1.00  0.00     0.031 A 
ATOM     43  C   UNL A   1      40.511  26.507  28.731  1.00  0.00     0.074 A 
ATOM     44  C   UNL A   1      41.338  28.738  29.311  1.00  0.00     0.049 A 
ATOM     45  N   UNL A   1      41.601  25.858  28.969  1.00  0.00    -0.248 NA
ATOM     46  C   UNL A   1      39.495  25.702  28.066  1.00  0.00     0.031 C 
ATOM     47  C   UNL A   1      42.746  28.467  29.030  1.00  0.00     0.029 A 
ATOM     48  N   UNL A   1      41.356  29.943  30.034  1.00  0.00    -0.354 N 
ATOM     49  C   UNL A   1      41.534  24.655  28.307  1.00  0.00     0.074 A 
ATOM     50  C   UNL A   1      40.188  24.593  27.782  1.00  0.00     0.031 C 
ATOM     51  C   UNL A   1      43.500  29.253  29.815  1.00  0.00     0.029 A 
ATOM     52  C   UNL A   1      42.597  29.944  30.718  1.00  0.00     0.049 A 
ATOM     53  H   UNL A   1      40.657  30.636  30.061  1.00  0.00     0.167 HD
ATOM     54  C   UNL A   1      42.657  23.888  28.193  1.00  0.00     0.037 A 
ATOM     55  C   UNL A   1      42.642  29.882  32.081  1.00  0.00     0.037 A 
ATOM     56  C   UNL A   1      43.779  24.460  28.932  1.00  0.00     0.049 A 
ATOM     57  C   UNL A   1      43.365  28.673  32.638  1.00  0.00     0.074 A 
ATOM     58  C   UNL A   1      44.861  25.255  28.588  1.00  0.00     0.029 A 
ATOM     59  N   UNL A   1      43.720  24.470  30.312  1.00  0.00    -0.354 N 
ATOM     60  N   UNL A   1      43.799  27.678  31.916  1.00  0.00    -0.248 NA
ATOM     61  C   UNL A   1      43.554  28.446  34.072  1.00  0.00     0.031 C 
ATOM     62  C   UNL A   1      45.431  25.768  29.788  1.00  0.00     0.029 A 
ATOM     63  C   UNL A   1      44.697  25.281  30.852  1.00  0.00     0.049 A 
ATOM     64  H   UNL A   1      43.063  23.963  30.844  1.00  0.00     0.167 HD
ATOM     65  C   UNL A   1      44.263  26.693  32.744  1.00  0.00     0.074 A 
ATOM     66  C   UNL A   1      44.091  27.216  34.085  1.00  0.00     0.031 C 
ATOM     67  C   UNL A   1      44.720  25.496  32.285  1.00  0.00     0.037 A 
BRANCH  54  68
ATOM     68  C   UNL A   1      42.797  22.723  27.243  1.00  0.00     0.064 A 
ATOM     69  C   UNL A   1      42.075  21.528  27.459  1.00  0.00     0.173 A 
ATOM     70  C   UNL A   1      43.654  22.703  26.129  1.00  0.00     0.173 A 
ATOM     71  F   UNL A   1      41.149  21.433  28.422  1.00  0.00    -0.203 F 
ATOM     72  C   UNL A   1      42.284  20.378  26.694  1.00  0.00     0.198 A 
ATOM     73  C   UNL A   1      43.910  21.534  25.403  1.00  0.00     0.198 A 
ATOM     74  F   UNL A   1      44.228  23.824  25.674  1.00  0.00    -0.203 F 
ATOM     75  F   UNL A   1      41.569  19.273  26.947  1.00  0.00    -0.200 F 
ATOM     76  C   UNL A   1      43.232  20.369  25.692  1.00  0.00     0.200 A 
ATOM     77  F   UNL A   1      44.820  21.551  24.418  1.00  0.00    -0.200 F 
ATOM     78  F   UNL A   1      43.473  19.250  24.995  1.00  0.00    -0.200 F 
ENDBRANCH  54  68
BRANCH  55  79
ATOM     79  C   UNL A   1      41.476  30.540  32.729  1.00  0.00     0.064 A 
ATOM     80  C   UNL A   1      41.446  31.947  32.795  1.00  0.00     0.173 A 
ATOM     81  C   UNL A   1      40.274  29.857  32.945  1.00  0.00     0.173 A 
ATOM     82  F   UNL A   1      42.572  32.652  32.594  1.00  0.00    -0.203 F 
ATOM     83  C   UNL A   1      40.247  32.640  32.939  1.00  0.00     0.198 A 
ATOM     84  C   UNL A   1      39.079  30.554  33.116  1.00  0.00     0.198 A 
ATOM     85  F   UNL A   1      40.230  28.520  32.876  1.00  0.00    -0.203 F 
ATOM     86  F   UNL A   1      40.236  33.978  32.867  1.00  0.00    -0.200 F 
ATOM     87  C   UNL A   1      39.061  31.941  33.074  1.00  0.00     0.200 A 
ATOM     88  F   UNL A   1      37.926  29.878  33.218  1.00  0.00    -0.200 F 
ATOM     89  F   UNL A   1      37.895  32.600  33.119  1.00  0.00    -0.200 F 
ENDBRANCH  55  79
BRANCH  67  90
ATOM     90  C   UNL A   1      45.238  24.430  33.193  1.00  0.00     0.064 A 
ATOM     91  C   UNL A   1      46.577  24.401  33.609  1.00  0.00     0.173 A 
ATOM     92  C   UNL A   1      44.432  23.340  33.571  1.00  0.00     0.173 A 
ATOM     93  F   UNL A   1      47.420  25.386  33.262  1.00  0.00    -0.203 F 
ATOM     94  C   UNL A   1      47.075  23.353  34.381  1.00  0.00     0.198 A 
ATOM     95  C   UNL A   1      44.942  22.272  34.305  1.00  0.00     0.198 A 
ATOM     96  F   UNL A   1      43.128  23.300  33.255  1.00  0.00    -0.203 F 
ATOM     97  F   UNL A   1      48.349  23.378  34.795  1.00  0.00    -0.200 F 
ATOM     98  C   UNL A   1      46.261  22.283  34.717  1.00  0.00     0.200 A 
ATOM     99  F   UNL A   1      44.149  21.237  34.613  1.00  0.00    -0.200 F 
ATOM    100  F   UNL A   1      46.748  21.265  35.440  1.00  0.00    -0.200 F 
ENDBRANCH  67  90
ENDBRANCH  41  42
ENDBRANCH  33  36
ENDBRANCH  31  32
ENDBRANCH  30  31
ENDBRANCH  29  30
ENDBRANCH   1  29
TORSDOF 16
ENDMDL
