MODEL 1
REMARK VINA RESULT:     -12.7      0.000      0.000
REMARK SMILES O=C(NCCCCCCNC(=O)[C@H]1O[C@@H](Oc2c(-c3cc(O)c(O)c(O)c3)oc3cc(O)cc(O)c3c2=O)[C@H](O)[C@@H](O)[C@@H]1O)c1ccc(-c2c3nc(c(-c4c(F)c(F)c(F)c(F)c4F)c4ccc([nH]4)c(-c4c(F)c(F)c(F)c(F)c4F)c4nc(c(-c5c(F)c(F)c(F)c(F)c5F)c5ccc2[nH]5)C=C4)C=C3)cc1
REMARK SMILES IDX 7 1 6 2 5 3 4 4 3 5 1 6 2 7 45 9 46 10 107 11 47 12 106 13
REMARK SMILES IDX 48 14 49 15 50 16 100 17 51 18 105 19 99 20 101 21 52 22
REMARK SMILES IDX 104 23 98 24 97 25 53 27 85 28 65 29 84 30 66 31 69 32 83 33
REMARK SMILES IDX 102 34 67 35 68 36 82 38 103 39 70 40 54 41 55 42 63 43
REMARK SMILES IDX 56 44 57 45 61 46 64 47 58 48 59 49 62 50 60 51 86 52 87 53
REMARK SMILES IDX 95 54 88 55 89 56 93 57 96 58 90 59 91 60 94 61 92 62 71 63
REMARK SMILES IDX 72 64 80 65 73 66 74 67 78 68 81 69 75 70 76 71 79 72 77 73
REMARK SMILES IDX 8 74 9 75 10 76 11 77 12 79 13 80 14 81 43 82 15 83 41 84
REMARK SMILES IDX 39 85 44 86 16 88 17 89 18 90 37 91 28 92 36 93 38 94 29 95
REMARK SMILES IDX 34 96 30 97 33 98 31 99 19 100 20 101 27 102 21 103 25 104
REMARK SMILES IDX 23 105 22 106 26 108 24 110 35 112 32 114 42 116 40 118
REMARK H PARENT 3 8 101 26 69 37 10 78 44 87 22 107 26 109 24 111 35 113
REMARK H PARENT 32 115 42 117 40 119
REMARK Flexibility Score: inf
ROOT
ATOM      1  C   UNL A   1      33.780  29.904  26.873  1.00  0.00     0.002 C 
ENDROOT
BRANCH   1   2
ATOM      2  C   UNL A   1      34.066  31.122  27.755  1.00  0.00     0.002 C 
BRANCH   2   3
ATOM      3  C   UNL A   1      32.927  32.135  27.872  1.00  0.00     0.021 C 
BRANCH   3   4
ATOM      4  C   UNL A   1      33.197  33.481  27.223  1.00  0.00     0.116 C 
BRANCH   4   5
ATOM      5  N   UNL A   1      32.687  34.599  28.001  1.00  0.00    -0.352 N 
ATOM      6  O   UNL A   1      32.482  35.925  29.821  1.00  0.00    -0.269 OA
ATOM      7  C   UNL A   1      33.101  35.044  29.233  1.00  0.00     0.251 C 
ATOM      8  H   UNL A   1      31.947  35.102  27.592  1.00  0.00     0.163 HD
BRANCH   7   9
ATOM      9  C   UNL A   1      34.288  34.428  29.862  1.00  0.00     0.039 A 
ATOM     10  C   UNL A   1      35.554  34.596  29.298  1.00  0.00     0.014 A 
ATOM     11  C   UNL A   1      34.129  33.657  31.018  1.00  0.00     0.014 A 
ATOM     12  C   UNL A   1      36.631  33.878  29.799  1.00  0.00     0.010 A 
ATOM     13  C   UNL A   1      35.234  33.008  31.577  1.00  0.00     0.010 A 
ATOM     14  C   UNL A   1      36.489  33.091  30.955  1.00  0.00    -0.014 A 
BRANCH  14  15
ATOM     15  C   UNL A   1      37.693  32.432  31.518  1.00  0.00     0.031 A 
ATOM     16  C   UNL A   1      38.210  32.775  32.887  1.00  0.00     0.074 A 
ATOM     17  C   UNL A   1      38.285  31.465  30.792  1.00  0.00     0.049 A 
ATOM     18  N   UNL A   1      39.208  32.242  33.546  1.00  0.00    -0.248 NA
ATOM     19  C   UNL A   1      37.529  33.860  33.607  1.00  0.00     0.031 C 
ATOM     20  C   UNL A   1      37.884  31.068  29.440  1.00  0.00     0.029 A 
ATOM     21  N   UNL A   1      39.322  30.621  31.091  1.00  0.00    -0.354 N 
ATOM     22  C   UNL A   1      39.281  32.928  34.751  1.00  0.00     0.074 A 
ATOM     23  C   UNL A   1      38.246  33.939  34.721  1.00  0.00     0.031 C 
ATOM     24  C   UNL A   1      38.624  30.022  29.049  1.00  0.00     0.029 A 
ATOM     25  C   UNL A   1      39.589  29.712  30.096  1.00  0.00     0.049 A 
ATOM     26  H   UNL A   1      39.826  30.662  31.935  1.00  0.00     0.167 HD
ATOM     27  C   UNL A   1      40.127  32.719  35.789  1.00  0.00     0.037 A 
ATOM     28  C   UNL A   1      40.514  28.738  30.031  1.00  0.00     0.037 A 
ATOM     29  C   UNL A   1      41.151  31.705  35.814  1.00  0.00     0.049 A 
ATOM     30  C   UNL A   1      41.430  28.526  31.201  1.00  0.00     0.074 A 
ATOM     31  C   UNL A   1      42.057  31.414  36.820  1.00  0.00     0.029 A 
ATOM     32  N   UNL A   1      41.401  30.810  34.783  1.00  0.00    -0.354 N 
ATOM     33  N   UNL A   1      41.474  29.171  32.341  1.00  0.00    -0.248 NA
ATOM     34  C   UNL A   1      42.423  27.453  31.076  1.00  0.00     0.031 C 
ATOM     35  C   UNL A   1      42.877  30.366  36.384  1.00  0.00     0.029 A 
ATOM     36  C   UNL A   1      42.454  29.974  35.125  1.00  0.00     0.049 A 
ATOM     37  H   UNL A   1      40.904  30.774  33.934  1.00  0.00     0.167 HD
ATOM     38  C   UNL A   1      42.496  28.583  33.069  1.00  0.00     0.074 A 
ATOM     39  C   UNL A   1      43.021  27.505  32.257  1.00  0.00     0.031 C 
ATOM     40  C   UNL A   1      42.967  28.913  34.297  1.00  0.00     0.037 A 
BRANCH  27  41
ATOM     41  C   UNL A   1      39.991  33.610  36.991  1.00  0.00     0.064 A 
ATOM     42  C   UNL A   1      40.722  34.801  37.106  1.00  0.00     0.173 A 
ATOM     43  C   UNL A   1      39.077  33.300  38.010  1.00  0.00     0.173 A 
ATOM     44  F   UNL A   1      41.619  35.136  36.167  1.00  0.00    -0.203 F 
ATOM     45  C   UNL A   1      40.555  35.642  38.205  1.00  0.00     0.198 A 
ATOM     46  C   UNL A   1      38.894  34.156  39.094  1.00  0.00     0.198 A 
ATOM     47  F   UNL A   1      38.348  32.176  37.947  1.00  0.00    -0.203 F 
ATOM     48  F   UNL A   1      41.292  36.755  38.313  1.00  0.00    -0.200 F 
ATOM     49  C   UNL A   1      39.636  35.323  39.193  1.00  0.00     0.200 A 
ATOM     50  F   UNL A   1      37.998  33.851  40.044  1.00  0.00    -0.200 F 
ATOM     51  F   UNL A   1      39.471  36.137  40.245  1.00  0.00    -0.200 F 
ENDBRANCH  27  41
BRANCH  28  52
ATOM     52  C   UNL A   1      40.613  27.898  28.810  1.00  0.00     0.064 A 
ATOM     53  C   UNL A   1      39.895  26.701  28.694  1.00  0.00     0.173 A 
ATOM     54  C   UNL A   1      41.414  28.288  27.728  1.00  0.00     0.173 A 
ATOM     55  F   UNL A   1      39.127  26.278  29.709  1.00  0.00    -0.203 F 
ATOM     56  C   UNL A   1      39.989  25.915  27.546  1.00  0.00     0.198 A 
ATOM     57  C   UNL A   1      41.484  27.520  26.569  1.00  0.00     0.198 A 
ATOM     58  F   UNL A   1      42.114  29.431  27.788  1.00  0.00    -0.203 F 
ATOM     59  F   UNL A   1      39.326  24.753  27.476  1.00  0.00    -0.200 F 
ATOM     60  C   UNL A   1      40.778  26.329  26.483  1.00  0.00     0.200 A 
ATOM     61  F   UNL A   1      42.231  27.933  25.537  1.00  0.00    -0.200 F 
ATOM     62  F   UNL A   1      40.861  25.579  25.376  1.00  0.00    -0.200 F 
ENDBRANCH  28  52
BRANCH  40  63
ATOM     63  C   UNL A   1      44.102  28.089  34.827  1.00  0.00     0.064 A 
ATOM     64  C   UNL A   1      43.873  26.913  35.555  1.00  0.00     0.173 A 
ATOM     65  C   UNL A   1      45.431  28.478  34.603  1.00  0.00     0.173 A 
ATOM     66  F   UNL A   1      42.619  26.511  35.811  1.00  0.00    -0.203 F 
ATOM     67  C   UNL A   1      44.934  26.172  36.071  1.00  0.00     0.198 A 
ATOM     68  C   UNL A   1      46.489  27.720  35.095  1.00  0.00     0.198 A 
ATOM     69  F   UNL A   1      45.701  29.593  33.907  1.00  0.00    -0.203 F 
ATOM     70  F   UNL A   1      44.691  25.083  36.811  1.00  0.00    -0.200 F 
ATOM     71  C   UNL A   1      46.240  26.574  35.836  1.00  0.00     0.200 A 
ATOM     72  F   UNL A   1      47.752  28.105  34.861  1.00  0.00    -0.200 F 
ATOM     73  F   UNL A   1      47.260  25.863  36.335  1.00  0.00    -0.200 F 
ENDBRANCH  40  63
ENDBRANCH  14  15
ENDBRANCH   7   9
ENDBRANCH   4   5
ENDBRANCH   3   4
ENDBRANCH   2   3
ENDBRANCH   1   2
BRANCH   1  74
ATOM     74  C   UNL A   1      32.505  29.978  26.028  1.00  0.00     0.021 C 
BRANCH  74  75
ATOM     75  C   UNL A   1      32.395  28.924  24.932  1.00  0.00     0.116 C 
BRANCH  75  76
ATOM     76  N   UNL A   1      31.026  28.734  24.489  1.00  0.00    -0.354 N 
ATOM     77  C   UNL A   1      30.511  27.664  23.805  1.00  0.00     0.252 C 
ATOM     78  H   UNL A   1      30.394  29.458  24.703  1.00  0.00     0.163 HD
ATOM     79  O   UNL A   1      29.290  27.566  23.691  1.00  0.00    -0.272 OA
BRANCH  77  80
ATOM     80  C   UNL A   1      31.507  26.658  23.230  1.00  0.00     0.242 C 
ATOM     81  O   UNL A   1      30.811  25.408  23.091  1.00  0.00    -0.324 OA
ATOM     82  C   UNL A   1      32.063  27.096  21.880  1.00  0.00     0.184 C 
ATOM     83  C   UNL A   1      31.707  24.338  22.811  1.00  0.00     0.340 C 
ATOM     84  C   UNL A   1      32.995  26.011  21.338  1.00  0.00     0.181 C 
ATOM     85  C   UNL A   1      32.430  24.594  21.468  1.00  0.00     0.214 C 
BRANCH  82  86
ATOM     86  O   UNL A   1      32.846  28.291  21.995  1.00  0.00    -0.387 OA
ATOM     87  H   UNL A   1      32.436  28.998  21.474  1.00  0.00     0.211 HD
ENDBRANCH  82  86
BRANCH  83  88
ATOM     88  O   UNL A   1      31.105  23.026  22.801  1.00  0.00    -0.454 OA
BRANCH  88  89
ATOM     89  C   UNL A   1      31.780  22.014  23.467  1.00  0.00     0.214 A 
ATOM     90  C   UNL A   1      32.092  22.070  24.779  1.00  0.00     0.181 A 
ATOM     91  C   UNL A   1      31.993  20.714  22.753  1.00  0.00     0.239 A 
ATOM     92  O   UNL A   1      32.720  21.070  25.486  1.00  0.00    -0.452 OA
ATOM     93  C   UNL A   1      32.456  19.569  23.587  1.00  0.00     0.111 A 
ATOM     94  O   UNL A   1      31.760  20.620  21.552  1.00  0.00    -0.285 OA
ATOM     95  C   UNL A   1      32.814  19.831  24.912  1.00  0.00     0.146 A 
ATOM     96  C   UNL A   1      32.535  18.246  23.123  1.00  0.00     0.134 A 
ATOM     97  C   UNL A   1      33.276  18.812  25.748  1.00  0.00     0.094 A 
ATOM     98  C   UNL A   1      32.986  17.216  23.963  1.00  0.00     0.093 A 
ATOM     99  C   UNL A   1      33.359  17.514  25.269  1.00  0.00     0.123 A 
BRANCH  90 100
ATOM    100  C   UNL A   1      31.840  23.271  25.591  1.00  0.00     0.029 A 
ATOM    101  C   UNL A   1      32.899  24.161  25.850  1.00  0.00     0.062 A 
ATOM    102  C   UNL A   1      30.533  23.610  25.978  1.00  0.00     0.062 A 
ATOM    103  C   UNL A   1      32.619  25.422  26.367  1.00  0.00     0.162 A 
ATOM    104  C   UNL A   1      30.286  24.858  26.537  1.00  0.00     0.162 A 
ATOM    105  C   UNL A   1      31.321  25.766  26.726  1.00  0.00     0.200 A 
BRANCH 103 106
ATOM    106  O   UNL A   1      33.620  26.351  26.395  1.00  0.00    -0.504 OA
ATOM    107  H   UNL A   1      33.412  27.265  26.365  1.00  0.00     0.293 HD
ENDBRANCH 103 106
BRANCH 104 108
ATOM    108  O   UNL A   1      29.002  25.203  26.849  1.00  0.00    -0.504 OA
ATOM    109  H   UNL A   1      28.482  24.639  27.388  1.00  0.00     0.293 HD
ENDBRANCH 104 108
BRANCH 105 110
ATOM    110  O   UNL A   1      31.028  26.995  27.251  1.00  0.00    -0.502 OA
ATOM    111  H   UNL A   1      31.231  27.182  28.147  1.00  0.00     0.293 HD
ENDBRANCH 105 110
ENDBRANCH  90 100
BRANCH  96 112
ATOM    112  O   UNL A   1      32.155  17.923  21.851  1.00  0.00    -0.507 OA
ATOM    113  H   UNL A   1      31.246  17.835  21.641  1.00  0.00     0.293 HD
ENDBRANCH  96 112
BRANCH  99 114
ATOM    114  O   UNL A   1      33.807  16.554  26.126  1.00  0.00    -0.508 OA
ATOM    115  H   UNL A   1      33.591  16.599  27.037  1.00  0.00     0.293 HD
ENDBRANCH  99 114
ENDBRANCH  88  89
ENDBRANCH  83  88
BRANCH  84 116
ATOM    116  O   UNL A   1      33.278  26.328  19.957  1.00  0.00    -0.387 OA
ATOM    117  H   UNL A   1      34.160  25.996  19.723  1.00  0.00     0.211 HD
ENDBRANCH  84 116
BRANCH  85 118
ATOM    118  O   UNL A   1      33.469  23.643  21.207  1.00  0.00    -0.384 OA
ATOM    119  H   UNL A   1      33.387  22.897  21.821  1.00  0.00     0.211 HD
ENDBRANCH  85 118
ENDBRANCH  77  80
ENDBRANCH  75  76
ENDBRANCH  74  75
ENDBRANCH   1  74
TORSDOF 24
ENDMDL
MODEL 2
REMARK VINA RESULT:     -12.5      0.353      6.680
REMARK SMILES O=C(NCCCCCCNC(=O)[C@H]1O[C@@H](Oc2c(-c3cc(O)c(O)c(O)c3)oc3cc(O)cc(O)c3c2=O)[C@H](O)[C@@H](O)[C@@H]1O)c1ccc(-c2c3nc(c(-c4c(F)c(F)c(F)c(F)c4F)c4ccc([nH]4)c(-c4c(F)c(F)c(F)c(F)c4F)c4nc(c(-c5c(F)c(F)c(F)c(F)c5F)c5ccc2[nH]5)C=C4)C=C3)cc1
REMARK SMILES IDX 7 1 6 2 5 3 4 4 3 5 1 6 2 7 45 9 46 10 107 11 47 12 106 13
REMARK SMILES IDX 48 14 49 15 50 16 100 17 51 18 105 19 99 20 101 21 52 22
REMARK SMILES IDX 104 23 98 24 97 25 53 27 85 28 65 29 84 30 66 31 69 32 83 33
REMARK SMILES IDX 102 34 67 35 68 36 82 38 103 39 70 40 54 41 55 42 63 43
REMARK SMILES IDX 56 44 57 45 61 46 64 47 58 48 59 49 62 50 60 51 86 52 87 53
REMARK SMILES IDX 95 54 88 55 89 56 93 57 96 58 90 59 91 60 94 61 92 62 71 63
REMARK SMILES IDX 72 64 80 65 73 66 74 67 78 68 81 69 75 70 76 71 79 72 77 73
REMARK SMILES IDX 8 74 9 75 10 76 11 77 12 79 13 80 14 81 43 82 15 83 41 84
REMARK SMILES IDX 39 85 44 86 16 88 17 89 18 90 37 91 28 92 36 93 38 94 29 95
REMARK SMILES IDX 34 96 30 97 33 98 31 99 19 100 20 101 27 102 21 103 25 104
REMARK SMILES IDX 23 105 22 106 26 108 24 110 35 112 32 114 42 116 40 118
REMARK H PARENT 3 8 101 26 69 37 10 78 44 87 22 107 26 109 24 111 35 113
REMARK H PARENT 32 115 42 117 40 119
REMARK Flexibility Score: inf
ROOT
ATOM      1  C   UNL A   1      33.338  29.909  26.956  1.00  0.00     0.002 C 
ENDROOT
BRANCH   1   2
ATOM      2  C   UNL A   1      33.773  31.195  27.663  1.00  0.00     0.002 C 
BRANCH   2   3
ATOM      3  C   UNL A   1      32.736  32.317  27.690  1.00  0.00     0.021 C 
BRANCH   3   4
ATOM      4  C   UNL A   1      33.256  33.682  27.271  1.00  0.00     0.116 C 
BRANCH   4   5
ATOM      5  N   UNL A   1      32.755  34.761  28.106  1.00  0.00    -0.352 N 
ATOM      6  O   UNL A   1      32.514  35.958  30.010  1.00  0.00    -0.269 OA
ATOM      7  C   UNL A   1      33.124  35.095  29.386  1.00  0.00     0.251 C 
ATOM      8  H   UNL A   1      32.060  35.328  27.701  1.00  0.00     0.163 HD
BRANCH   7   9
ATOM      9  C   UNL A   1      34.249  34.379  30.024  1.00  0.00     0.039 A 
ATOM     10  C   UNL A   1      35.562  34.621  29.617  1.00  0.00     0.014 A 
ATOM     11  C   UNL A   1      33.984  33.440  31.027  1.00  0.00     0.014 A 
ATOM     12  C   UNL A   1      36.590  33.825  30.102  1.00  0.00     0.010 A 
ATOM     13  C   UNL A   1      35.035  32.704  31.582  1.00  0.00     0.010 A 
ATOM     14  C   UNL A   1      36.343  32.871  31.104  1.00  0.00    -0.014 A 
BRANCH  14  15
ATOM     15  C   UNL A   1      37.492  32.123  31.672  1.00  0.00     0.031 A 
ATOM     16  C   UNL A   1      38.210  31.065  30.883  1.00  0.00     0.074 A 
ATOM     17  C   UNL A   1      37.920  32.460  32.903  1.00  0.00     0.049 A 
ATOM     18  N   UNL A   1      39.270  30.370  31.213  1.00  0.00    -0.248 NA
ATOM     19  C   UNL A   1      37.667  30.733  29.558  1.00  0.00     0.031 C 
ATOM     20  C   UNL A   1      37.282  33.454  33.769  1.00  0.00     0.029 A 
ATOM     21  N   UNL A   1      39.001  32.033  33.629  1.00  0.00    -0.354 N 
ATOM     22  C   UNL A   1      39.517  29.518  30.145  1.00  0.00     0.074 A 
ATOM     23  C   UNL A   1      38.477  29.757  29.168  1.00  0.00     0.031 C 
ATOM     24  C   UNL A   1      38.014  33.604  34.882  1.00  0.00     0.029 A 
ATOM     25  C   UNL A   1      39.139  32.677  34.834  1.00  0.00     0.049 A 
ATOM     26  H   UNL A   1      39.620  31.333  33.316  1.00  0.00     0.167 HD
ATOM     27  C   UNL A   1      40.528  28.628  29.995  1.00  0.00     0.037 A 
ATOM     28  C   UNL A   1      40.064  32.534  35.799  1.00  0.00     0.037 A 
ATOM     29  C   UNL A   1      41.565  28.401  30.970  1.00  0.00     0.049 A 
ATOM     30  C   UNL A   1      41.176  31.547  35.597  1.00  0.00     0.074 A 
ATOM     31  C   UNL A   1      42.634  27.522  30.909  1.00  0.00     0.029 A 
ATOM     32  N   UNL A   1      41.664  29.063  32.186  1.00  0.00    -0.354 N 
ATOM     33  N   UNL A   1      41.407  30.761  34.574  1.00  0.00    -0.248 NA
ATOM     34  C   UNL A   1      42.157  31.428  36.683  1.00  0.00     0.031 C 
ATOM     35  C   UNL A   1      43.360  27.629  32.101  1.00  0.00     0.029 A 
ATOM     36  C   UNL A   1      42.770  28.605  32.887  1.00  0.00     0.049 A 
ATOM     37  H   UNL A   1      41.041  29.756  32.504  1.00  0.00     0.167 HD
ATOM     38  C   UNL A   1      42.557  30.055  34.890  1.00  0.00     0.074 A 
ATOM     39  C   UNL A   1      42.999  30.534  36.184  1.00  0.00     0.031 C 
ATOM     40  C   UNL A   1      43.186  29.088  34.178  1.00  0.00     0.037 A 
BRANCH  27  41
ATOM     41  C   UNL A   1      40.567  27.822  28.728  1.00  0.00     0.064 A 
ATOM     42  C   UNL A   1      41.330  28.229  27.624  1.00  0.00     0.173 A 
ATOM     43  C   UNL A   1      39.881  26.601  28.637  1.00  0.00     0.173 A 
ATOM     44  F   UNL A   1      41.993  29.395  27.654  1.00  0.00    -0.203 F 
ATOM     45  C   UNL A   1      41.394  27.451  26.470  1.00  0.00     0.198 A 
ATOM     46  C   UNL A   1      39.967  25.814  27.490  1.00  0.00     0.198 A 
ATOM     47  F   UNL A   1      39.140  26.163  29.665  1.00  0.00    -0.203 F 
ATOM     48  F   UNL A   1      42.098  27.878  25.413  1.00  0.00    -0.200 F 
ATOM     49  C   UNL A   1      40.719  26.241  26.407  1.00  0.00     0.200 A 
ATOM     50  F   UNL A   1      39.322  24.639  27.436  1.00  0.00    -0.200 F 
ATOM     51  F   UNL A   1      40.788  25.490  25.299  1.00  0.00    -0.200 F 
ENDBRANCH  27  41
BRANCH  28  52
ATOM     52  C   UNL A   1      39.966  33.347  37.038  1.00  0.00     0.064 A 
ATOM     53  C   UNL A   1      39.095  32.988  38.074  1.00  0.00     0.173 A 
ATOM     54  C   UNL A   1      40.758  34.491  37.215  1.00  0.00     0.173 A 
ATOM     55  F   UNL A   1      38.306  31.911  37.944  1.00  0.00    -0.203 F 
ATOM     56  C   UNL A   1      39.008  33.753  39.236  1.00  0.00     0.198 A 
ATOM     57  C   UNL A   1      40.693  35.237  38.389  1.00  0.00     0.198 A 
ATOM     58  F   UNL A   1      41.614  34.871  36.255  1.00  0.00    -0.203 F 
ATOM     59  F   UNL A   1      38.136  33.412  40.195  1.00  0.00    -0.200 F 
ATOM     60  C   UNL A   1      39.811  34.872  39.395  1.00  0.00     0.200 A 
ATOM     61  F   UNL A   1      41.485  36.306  38.546  1.00  0.00    -0.200 F 
ATOM     62  F   UNL A   1      39.733  35.602  40.515  1.00  0.00    -0.200 F 
ENDBRANCH  28  52
BRANCH  40  63
ATOM     63  C   UNL A   1      44.420  28.495  34.791  1.00  0.00     0.064 A 
ATOM     64  C   UNL A   1      45.689  29.040  34.550  1.00  0.00     0.173 A 
ATOM     65  C   UNL A   1      44.331  27.374  35.629  1.00  0.00     0.173 A 
ATOM     66  F   UNL A   1      45.825  30.101  33.740  1.00  0.00    -0.203 F 
ATOM     67  C   UNL A   1      46.831  28.462  35.098  1.00  0.00     0.198 A 
ATOM     68  C   UNL A   1      45.472  26.816  36.198  1.00  0.00     0.198 A 
ATOM     69  F   UNL A   1      43.138  26.820  35.894  1.00  0.00    -0.203 F 
ATOM     70  F   UNL A   1      48.039  28.964  34.808  1.00  0.00    -0.200 F 
ATOM     71  C   UNL A   1      46.721  27.354  35.925  1.00  0.00     0.200 A 
ATOM     72  F   UNL A   1      45.364  25.750  37.004  1.00  0.00    -0.200 F 
ATOM     73  F   UNL A   1      47.821  26.797  36.449  1.00  0.00    -0.200 F 
ENDBRANCH  40  63
ENDBRANCH  14  15
ENDBRANCH   7   9
ENDBRANCH   4   5
ENDBRANCH   3   4
ENDBRANCH   2   3
ENDBRANCH   1   2
BRANCH   1  74
ATOM     74  C   UNL A   1      32.275  30.075  25.866  1.00  0.00     0.021 C 
BRANCH  74  75
ATOM     75  C   UNL A   1      32.184  28.923  24.872  1.00  0.00     0.116 C 
BRANCH  75  76
ATOM     76  N   UNL A   1      30.827  28.701  24.410  1.00  0.00    -0.354 N 
ATOM     77  C   UNL A   1      30.343  27.615  23.730  1.00  0.00     0.252 C 
ATOM     78  H   UNL A   1      30.178  29.415  24.608  1.00  0.00     0.163 HD
ATOM     79  O   UNL A   1      29.125  27.492  23.598  1.00  0.00    -0.272 OA
BRANCH  77  80
ATOM     80  C   UNL A   1      31.367  26.622  23.180  1.00  0.00     0.242 C 
ATOM     81  O   UNL A   1      30.695  25.360  23.034  1.00  0.00    -0.324 OA
ATOM     82  C   UNL A   1      31.942  27.063  21.839  1.00  0.00     0.184 C 
ATOM     83  C   UNL A   1      31.614  24.304  22.778  1.00  0.00     0.340 C 
ATOM     84  C   UNL A   1      32.903  25.991  21.322  1.00  0.00     0.181 C 
ATOM     85  C   UNL A   1      32.359  24.565  21.449  1.00  0.00     0.214 C 
BRANCH  82  86
ATOM     86  O   UNL A   1      32.702  28.271  21.963  1.00  0.00    -0.387 OA
ATOM     87  H   UNL A   1      32.438  28.893  21.268  1.00  0.00     0.211 HD
ENDBRANCH  82  86
BRANCH  83  88
ATOM     88  O   UNL A   1      31.034  22.982  22.764  1.00  0.00    -0.454 OA
BRANCH  88  89
ATOM     89  C   UNL A   1      31.728  21.978  23.424  1.00  0.00     0.214 A 
ATOM     90  C   UNL A   1      32.048  22.039  24.734  1.00  0.00     0.181 A 
ATOM     91  C   UNL A   1      31.953  20.682  22.708  1.00  0.00     0.239 A 
ATOM     92  O   UNL A   1      32.694  21.046  25.436  1.00  0.00    -0.452 OA
ATOM     93  C   UNL A   1      32.438  19.543  23.538  1.00  0.00     0.111 A 
ATOM     94  O   UNL A   1      31.713  20.586  21.509  1.00  0.00    -0.285 OA
ATOM     95  C   UNL A   1      32.801  19.809  24.860  1.00  0.00     0.146 A 
ATOM     96  C   UNL A   1      32.531  18.221  23.073  1.00  0.00     0.134 A 
ATOM     97  C   UNL A   1      33.283  18.796  25.693  1.00  0.00     0.094 A 
ATOM     98  C   UNL A   1      33.002  17.198  23.909  1.00  0.00     0.093 A 
ATOM     99  C   UNL A   1      33.380  17.499  25.212  1.00  0.00     0.123 A 
BRANCH  90 100
ATOM    100  C   UNL A   1      31.785  23.235  25.549  1.00  0.00     0.029 A 
ATOM    101  C   UNL A   1      32.829  24.149  25.786  1.00  0.00     0.062 A 
ATOM    102  C   UNL A   1      30.479  23.546  25.960  1.00  0.00     0.062 A 
ATOM    103  C   UNL A   1      32.531  25.404  26.306  1.00  0.00     0.162 A 
ATOM    104  C   UNL A   1      30.215  24.789  26.522  1.00  0.00     0.162 A 
ATOM    105  C   UNL A   1      31.233  25.721  26.690  1.00  0.00     0.200 A 
BRANCH 103 106
ATOM    106  O   UNL A   1      33.512  26.355  26.313  1.00  0.00    -0.504 OA
ATOM    107  H   UNL A   1      34.151  26.374  25.626  1.00  0.00     0.293 HD
ENDBRANCH 103 106
BRANCH 104 108
ATOM    108  O   UNL A   1      28.930  25.107  26.858  1.00  0.00    -0.504 OA
ATOM    109  H   UNL A   1      28.418  25.649  26.292  1.00  0.00     0.293 HD
ENDBRANCH 104 108
BRANCH 105 110
ATOM    110  O   UNL A   1      30.924  26.943  27.218  1.00  0.00    -0.502 OA
ATOM    111  H   UNL A   1      31.312  27.217  28.026  1.00  0.00     0.293 HD
ENDBRANCH 105 110
ENDBRANCH  90 100
BRANCH  96 112
ATOM    112  O   UNL A   1      32.147  17.895  21.802  1.00  0.00    -0.507 OA
ATOM    113  H   UNL A   1      32.794  17.704  21.151  1.00  0.00     0.293 HD
ENDBRANCH  96 112
BRANCH  99 114
ATOM    114  O   UNL A   1      33.847  16.544  26.065  1.00  0.00    -0.508 OA
ATOM    115  H   UNL A   1      33.717  16.636  26.989  1.00  0.00     0.293 HD
ENDBRANCH  99 114
ENDBRANCH  88  89
ENDBRANCH  83  88
BRANCH  84 116
ATOM    116  O   UNL A   1      33.208  26.305  19.945  1.00  0.00    -0.387 OA
ATOM    117  H   UNL A   1      33.203  25.490  19.419  1.00  0.00     0.211 HD
ENDBRANCH  84 116
BRANCH  85 118
ATOM    118  O   UNL A   1      33.419  23.630  21.214  1.00  0.00    -0.384 OA
ATOM    119  H   UNL A   1      33.649  23.632  20.271  1.00  0.00     0.211 HD
ENDBRANCH  85 118
ENDBRANCH  77  80
ENDBRANCH  75  76
ENDBRANCH  74  75
ENDBRANCH   1  74
TORSDOF 24
ENDMDL
MODEL 3
REMARK VINA RESULT:     -12.3      1.896      4.604
REMARK SMILES O=C(NCCCCCCNC(=O)[C@H]1O[C@@H](Oc2c(-c3cc(O)c(O)c(O)c3)oc3cc(O)cc(O)c3c2=O)[C@H](O)[C@@H](O)[C@@H]1O)c1ccc(-c2c3nc(c(-c4c(F)c(F)c(F)c(F)c4F)c4ccc([nH]4)c(-c4c(F)c(F)c(F)c(F)c4F)c4nc(c(-c5c(F)c(F)c(F)c(F)c5F)c5ccc2[nH]5)C=C4)C=C3)cc1
REMARK SMILES IDX 7 1 6 2 5 3 4 4 3 5 1 6 2 7 45 9 46 10 107 11 47 12 106 13
REMARK SMILES IDX 48 14 49 15 50 16 100 17 51 18 105 19 99 20 101 21 52 22
REMARK SMILES IDX 104 23 98 24 97 25 53 27 85 28 65 29 84 30 66 31 69 32 83 33
REMARK SMILES IDX 102 34 67 35 68 36 82 38 103 39 70 40 54 41 55 42 63 43
REMARK SMILES IDX 56 44 57 45 61 46 64 47 58 48 59 49 62 50 60 51 86 52 87 53
REMARK SMILES IDX 95 54 88 55 89 56 93 57 96 58 90 59 91 60 94 61 92 62 71 63
REMARK SMILES IDX 72 64 80 65 73 66 74 67 78 68 81 69 75 70 76 71 79 72 77 73
REMARK SMILES IDX 8 74 9 75 10 76 11 77 12 79 13 80 14 81 43 82 15 83 41 84
REMARK SMILES IDX 39 85 44 86 16 88 17 89 18 90 37 91 28 92 36 93 38 94 29 95
REMARK SMILES IDX 34 96 30 97 33 98 31 99 19 100 20 101 27 102 21 103 25 104
REMARK SMILES IDX 23 105 22 106 26 108 24 110 35 112 32 114 42 116 40 118
REMARK H PARENT 3 8 101 26 69 37 10 78 44 87 22 107 26 109 24 111 35 113
REMARK H PARENT 32 115 42 117 40 119
REMARK Flexibility Score: inf
ROOT
ATOM      1  C   UNL A   1      32.467  27.271  26.348  1.00  0.00     0.002 C 
ENDROOT
BRANCH   1   2
ATOM      2  C   UNL A   1      31.870  28.236  27.376  1.00  0.00     0.002 C 
BRANCH   2   3
ATOM      3  C   UNL A   1      31.667  29.672  26.894  1.00  0.00     0.021 C 
BRANCH   3   4
ATOM      4  C   UNL A   1      32.946  30.455  26.653  1.00  0.00     0.116 C 
BRANCH   4   5
ATOM      5  N   UNL A   1      32.782  31.886  26.846  1.00  0.00    -0.352 N 
ATOM      6  O   UNL A   1      33.208  33.909  27.764  1.00  0.00    -0.269 OA
ATOM      7  C   UNL A   1      33.552  32.743  27.593  1.00  0.00     0.251 C 
ATOM      8  H   UNL A   1      32.017  32.295  26.380  1.00  0.00     0.163 HD
BRANCH   7   9
ATOM      9  C   UNL A   1      34.791  32.240  28.222  1.00  0.00     0.039 A 
ATOM     10  C   UNL A   1      34.798  31.014  28.889  1.00  0.00     0.014 A 
ATOM     11  C   UNL A   1      35.954  33.015  28.161  1.00  0.00     0.014 A 
ATOM     12  C   UNL A   1      35.917  30.633  29.616  1.00  0.00     0.010 A 
ATOM     13  C   UNL A   1      37.110  32.583  28.817  1.00  0.00     0.010 A 
ATOM     14  C   UNL A   1      37.092  31.402  29.574  1.00  0.00    -0.014 A 
BRANCH  14  15
ATOM     15  C   UNL A   1      38.298  30.896  30.275  1.00  0.00     0.031 A 
ATOM     16  C   UNL A   1      38.607  31.289  31.692  1.00  0.00     0.074 A 
ATOM     17  C   UNL A   1      39.087  30.020  29.626  1.00  0.00     0.049 A 
ATOM     18  N   UNL A   1      39.583  30.881  32.465  1.00  0.00    -0.248 NA
ATOM     19  C   UNL A   1      37.716  32.272  32.324  1.00  0.00     0.031 C 
ATOM     20  C   UNL A   1      38.897  29.588  28.240  1.00  0.00     0.029 A 
ATOM     21  N   UNL A   1      40.183  29.311  30.047  1.00  0.00    -0.354 N 
ATOM     22  C   UNL A   1      39.430  31.559  33.666  1.00  0.00     0.074 A 
ATOM     23  C   UNL A   1      38.285  32.431  33.512  1.00  0.00     0.031 C 
ATOM     24  C   UNL A   1      39.805  28.648  27.942  1.00  0.00     0.029 A 
ATOM     25  C   UNL A   1      40.676  28.453  29.094  1.00  0.00     0.049 A 
ATOM     26  H   UNL A   1      40.578  29.408  30.943  1.00  0.00     0.167 HD
ATOM     27  C   UNL A   1      40.171  31.450  34.795  1.00  0.00     0.037 A 
ATOM     28  C   UNL A   1      41.718  27.605  29.140  1.00  0.00     0.037 A 
ATOM     29  C   UNL A   1      41.306  30.575  34.943  1.00  0.00     0.049 A 
ATOM     30  C   UNL A   1      42.514  27.501  30.409  1.00  0.00     0.074 A 
ATOM     31  C   UNL A   1      42.121  30.392  36.047  1.00  0.00     0.029 A 
ATOM     32  N   UNL A   1      41.785  29.729  33.952  1.00  0.00    -0.354 N 
ATOM     33  N   UNL A   1      42.345  28.136  31.543  1.00  0.00    -0.248 NA
ATOM     34  C   UNL A   1      43.643  26.564  30.404  1.00  0.00     0.031 C 
ATOM     35  C   UNL A   1      43.112  29.460  35.714  1.00  0.00     0.029 A 
ATOM     36  C   UNL A   1      42.889  29.030  34.416  1.00  0.00     0.049 A 
ATOM     37  H   UNL A   1      41.397  29.638  33.051  1.00  0.00     0.167 HD
ATOM     38  C   UNL A   1      43.343  27.675  32.387  1.00  0.00     0.074 A 
ATOM     39  C   UNL A   1      44.091  26.680  31.646  1.00  0.00     0.031 C 
ATOM     40  C   UNL A   1      43.625  28.051  33.659  1.00  0.00     0.037 A 
BRANCH  27  41
ATOM     41  C   UNL A   1      39.786  32.305  35.969  1.00  0.00     0.064 A 
ATOM     42  C   UNL A   1      40.426  33.526  36.227  1.00  0.00     0.173 A 
ATOM     43  C   UNL A   1      38.727  31.930  36.810  1.00  0.00     0.173 A 
ATOM     44  F   UNL A   1      41.454  33.925  35.463  1.00  0.00    -0.203 F 
ATOM     45  C   UNL A   1      40.031  34.332  37.293  1.00  0.00     0.198 A 
ATOM     46  C   UNL A   1      38.318  32.750  37.859  1.00  0.00     0.198 A 
ATOM     47  F   UNL A   1      38.077  30.774  36.605  1.00  0.00    -0.203 F 
ATOM     48  F   UNL A   1      40.682  35.476  37.545  1.00  0.00    -0.200 F 
ATOM     49  C   UNL A   1      38.973  33.948  38.103  1.00  0.00     0.200 A 
ATOM     50  F   UNL A   1      37.288  32.381  38.634  1.00  0.00    -0.200 F 
ATOM     51  F   UNL A   1      38.589  34.728  39.122  1.00  0.00    -0.200 F 
ENDBRANCH  27  41
BRANCH  28  52
ATOM     52  C   UNL A   1      42.062  26.797  27.943  1.00  0.00     0.064 A 
ATOM     53  C   UNL A   1      43.008  27.245  27.012  1.00  0.00     0.173 A 
ATOM     54  C   UNL A   1      41.464  25.549  27.719  1.00  0.00     0.173 A 
ATOM     55  F   UNL A   1      43.596  28.440  27.176  1.00  0.00    -0.203 F 
ATOM     56  C   UNL A   1      43.328  26.483  25.890  1.00  0.00     0.198 A 
ATOM     57  C   UNL A   1      41.807  24.773  26.615  1.00  0.00     0.198 A 
ATOM     58  F   UNL A   1      40.559  25.071  28.586  1.00  0.00    -0.203 F 
ATOM     59  F   UNL A   1      44.204  26.953  24.992  1.00  0.00    -0.200 F 
ATOM     60  C   UNL A   1      42.733  25.245  25.697  1.00  0.00     0.200 A 
ATOM     61  F   UNL A   1      41.245  23.570  26.442  1.00  0.00    -0.200 F 
ATOM     62  F   UNL A   1      43.049  24.508  24.623  1.00  0.00    -0.200 F 
ENDBRANCH  28  52
BRANCH  40  63
ATOM     63  C   UNL A   1      44.788  27.373  34.320  1.00  0.00     0.064 A 
ATOM     64  C   UNL A   1      46.081  27.913  34.254  1.00  0.00     0.173 A 
ATOM     65  C   UNL A   1      44.608  26.176  35.027  1.00  0.00     0.173 A 
ATOM     66  F   UNL A   1      46.305  29.047  33.574  1.00  0.00    -0.203 F 
ATOM     67  C   UNL A   1      47.159  27.259  34.844  1.00  0.00     0.198 A 
ATOM     68  C   UNL A   1      45.684  25.540  35.639  1.00  0.00     0.198 A 
ATOM     69  F   UNL A   1      43.389  25.623  35.122  1.00  0.00    -0.203 F 
ATOM     70  F   UNL A   1      48.394  27.763  34.721  1.00  0.00    -0.200 F 
ATOM     71  C   UNL A   1      46.959  26.076  35.540  1.00  0.00     0.200 A 
ATOM     72  F   UNL A   1      45.488  24.401  36.318  1.00  0.00    -0.200 F 
ATOM     73  F   UNL A   1      47.998  25.446  36.104  1.00  0.00    -0.200 F 
ENDBRANCH  40  63
ENDBRANCH  14  15
ENDBRANCH   7   9
ENDBRANCH   4   5
ENDBRANCH   3   4
ENDBRANCH   2   3
ENDBRANCH   1   2
BRANCH   1  74
ATOM     74  C   UNL A   1      31.988  25.820  26.442  1.00  0.00     0.021 C 
BRANCH  74  75
ATOM     75  C   UNL A   1      33.018  24.772  26.034  1.00  0.00     0.116 C 
BRANCH  75  76
ATOM     76  N   UNL A   1      33.102  23.683  26.989  1.00  0.00    -0.354 N 
ATOM     77  C   UNL A   1      34.046  22.692  27.045  1.00  0.00     0.252 C 
ATOM     78  H   UNL A   1      32.398  23.652  27.677  1.00  0.00     0.163 HD
ATOM     79  O   UNL A   1      34.091  21.970  28.041  1.00  0.00    -0.272 OA
BRANCH  77  80
ATOM     80  C   UNL A   1      34.988  22.557  25.849  1.00  0.00     0.242 C 
ATOM     81  O   UNL A   1      34.277  23.037  24.695  1.00  0.00    -0.324 OA
ATOM     82  C   UNL A   1      36.277  23.350  26.032  1.00  0.00     0.184 C 
ATOM     83  C   UNL A   1      34.961  22.717  23.489  1.00  0.00     0.340 C 
ATOM     84  C   UNL A   1      37.135  23.224  24.772  1.00  0.00     0.181 C 
ATOM     85  C   UNL A   1      36.347  23.402  23.471  1.00  0.00     0.214 C 
BRANCH  82  86
ATOM     86  O   UNL A   1      37.062  22.838  27.116  1.00  0.00    -0.387 OA
ATOM     87  H   UNL A   1      37.458  21.992  26.857  1.00  0.00     0.211 HD
ENDBRANCH  82  86
BRANCH  83  88
ATOM     88  O   UNL A   1      34.241  23.035  22.278  1.00  0.00    -0.454 OA
BRANCH  88  89
ATOM     89  C   UNL A   1      33.015  23.667  22.416  1.00  0.00     0.214 A 
ATOM     90  C   UNL A   1      31.908  23.043  22.873  1.00  0.00     0.181 A 
ATOM     91  C   UNL A   1      32.959  25.153  22.246  1.00  0.00     0.239 A 
ATOM     92  O   UNL A   1      30.685  23.644  23.068  1.00  0.00    -0.452 OA
ATOM     93  C   UNL A   1      31.701  25.823  22.681  1.00  0.00     0.111 A 
ATOM     94  O   UNL A   1      33.925  25.764  21.799  1.00  0.00    -0.285 OA
ATOM     95  C   UNL A   1      30.625  25.012  23.049  1.00  0.00     0.146 A 
ATOM     96  C   UNL A   1      31.544  27.217  22.760  1.00  0.00     0.134 A 
ATOM     97  C   UNL A   1      29.407  25.567  23.449  1.00  0.00     0.094 A 
ATOM     98  C   UNL A   1      30.327  27.780  23.174  1.00  0.00     0.093 A 
ATOM     99  C   UNL A   1      29.267  26.945  23.508  1.00  0.00     0.123 A 
BRANCH  90 100
ATOM    100  C   UNL A   1      31.886  21.600  23.158  1.00  0.00     0.029 A 
ATOM    101  C   UNL A   1      31.847  20.688  22.086  1.00  0.00     0.062 A 
ATOM    102  C   UNL A   1      32.053  21.127  24.470  1.00  0.00     0.062 A 
ATOM    103  C   UNL A   1      32.107  19.342  22.326  1.00  0.00     0.162 A 
ATOM    104  C   UNL A   1      32.263  19.771  24.689  1.00  0.00     0.162 A 
ATOM    105  C   UNL A   1      32.298  18.880  23.623  1.00  0.00     0.200 A 
BRANCH 103 106
ATOM    106  O   UNL A   1      32.296  18.515  21.256  1.00  0.00    -0.504 OA
ATOM    107  H   UNL A   1      32.393  17.592  21.388  1.00  0.00     0.293 HD
ENDBRANCH 103 106
BRANCH 104 108
ATOM    108  O   UNL A   1      32.490  19.332  25.961  1.00  0.00    -0.504 OA
ATOM    109  H   UNL A   1      33.047  19.820  26.534  1.00  0.00     0.293 HD
ENDBRANCH 104 108
BRANCH 105 110
ATOM    110  O   UNL A   1      32.539  17.559  23.881  1.00  0.00    -0.502 OA
ATOM    111  H   UNL A   1      32.609  16.948  23.173  1.00  0.00     0.293 HD
ENDBRANCH 105 110
ENDBRANCH  90 100
BRANCH  96 112
ATOM    112  O   UNL A   1      32.577  28.059  22.456  1.00  0.00    -0.507 OA
ATOM    113  H   UNL A   1      32.975  28.575  23.130  1.00  0.00     0.293 HD
ENDBRANCH  96 112
BRANCH  99 114
ATOM    114  O   UNL A   1      28.062  27.439  23.912  1.00  0.00    -0.508 OA
ATOM    115  H   UNL A   1      27.321  27.393  23.340  1.00  0.00     0.293 HD
ENDBRANCH  99 114
ENDBRANCH  88  89
ENDBRANCH  83  88
BRANCH  84 116
ATOM    116  O   UNL A   1      38.199  24.196  24.868  1.00  0.00    -0.387 OA
ATOM    117  H   UNL A   1      39.056  23.743  24.820  1.00  0.00     0.211 HD
ENDBRANCH  84 116
BRANCH  85 118
ATOM    118  O   UNL A   1      37.157  22.989  22.364  1.00  0.00    -0.384 OA
ATOM    119  H   UNL A   1      37.765  23.705  22.123  1.00  0.00     0.211 HD
ENDBRANCH  85 118
ENDBRANCH  77  80
ENDBRANCH  75  76
ENDBRANCH  74  75
ENDBRANCH   1  74
TORSDOF 24
ENDMDL
