MODEL 1
REMARK VINA RESULT:     -11.9      0.000      0.000
REMARK SMILES NNS(=O)(=O)c1ccc(O)c(C(=O)NCCCCCCNC(=O)c2ccc(-c3c4nc(c(-c5c(F)c(F)c(F)c(F)c5F)c5ccc([nH]5)c(-c5c(F)c(F)c(F)c(F)c5F)c5nc(c(-c6c(F)c(F)c(F)c(F)c6F)c6ccc3[nH]6)C=C5)C=C4)cc2)c1
REMARK SMILES IDX 17 1 16 2 15 3 14 4 12 5 13 6 11 8 6 9 7 10 87 11 8 12 9 13
REMARK SMILES IDX 3 14 4 15 5 16 2 17 1 19 10 22 18 24 19 25 20 26 21 27 22 28
REMARK SMILES IDX 23 30 24 31 25 32 86 33 26 34 85 35 27 36 28 37 29 38 79 39
REMARK SMILES IDX 30 40 84 41 78 42 80 43 31 44 83 45 77 46 76 47 32 49 64 50
REMARK SMILES IDX 44 51 63 52 45 53 48 54 62 55 81 56 46 57 47 58 61 60 82 61
REMARK SMILES IDX 49 62 33 63 34 64 42 65 35 66 36 67 40 68 43 69 37 70 38 71
REMARK SMILES IDX 41 72 39 73 65 74 66 75 74 76 67 77 68 78 72 79 75 80 69 81
REMARK SMILES IDX 70 82 73 83 71 84 50 85 51 86 59 87 52 88 53 89 57 90 60 91
REMARK SMILES IDX 54 92 55 93 58 94 56 95
REMARK H PARENT 14 7 2 18 1 20 1 21 10 23 21 29 80 48 48 59
REMARK Flexibility Score: inf
ROOT
ATOM      1  C   UNL A   1      32.463  30.299  27.000  1.00  0.00     0.002 C 
ENDROOT
BRANCH   1   2
ATOM      2  C   UNL A   1      32.191  28.794  27.098  1.00  0.00     0.021 C 
BRANCH   2   3
ATOM      3  C   UNL A   1      33.265  27.931  26.426  1.00  0.00     0.116 C 
BRANCH   3   4
ATOM      4  N   UNL A   1      33.576  28.467  25.120  1.00  0.00    -0.352 N 
ATOM      5  C   UNL A   1      32.859  28.548  23.957  1.00  0.00     0.255 C 
ATOM      6  O   UNL A   1      33.469  28.997  22.981  1.00  0.00    -0.269 OA
ATOM      7  H   UNL A   1      34.480  28.850  25.054  1.00  0.00     0.163 HD
BRANCH   5   8
ATOM      8  C   UNL A   1      31.409  28.224  23.793  1.00  0.00     0.082 A 
ATOM      9  C   UNL A   1      29.267  29.138  23.043  1.00  0.00     0.084 A 
ATOM     10  C   UNL A   1      28.648  27.907  23.248  1.00  0.00     0.025 A 
ATOM     11  C   UNL A   1      30.629  29.301  23.317  1.00  0.00     0.039 A 
ATOM     12  C   UNL A   1      29.396  26.838  23.725  1.00  0.00     0.048 A 
ATOM     13  C   UNL A   1      30.770  26.984  23.967  1.00  0.00     0.128 A 
BRANCH   9  14
ATOM     14  S   UNL A   1      28.331  30.451  22.297  1.00  0.00     0.253 S 
ATOM     15  O   UNL A   1      27.292  30.845  23.230  1.00  0.00    -0.206 OA
ATOM     16  O   UNL A   1      28.013  30.073  20.942  1.00  0.00    -0.206 OA
BRANCH  14  17
ATOM     17  N   UNL A   1      29.510  31.720  22.175  1.00  0.00    -0.150 NA
ATOM     18  H   UNL A   1      30.425  31.344  22.425  1.00  0.00     0.160 HD
BRANCH  17  19
ATOM     19  N   UNL A   1      29.216  32.804  23.032  1.00  0.00    -0.257 NA
ATOM     20  H   UNL A   1      28.408  33.313  22.672  1.00  0.00     0.138 HD
ATOM     21  H   UNL A   1      30.019  33.431  23.077  1.00  0.00     0.138 HD
ENDBRANCH  17  19
ENDBRANCH  14  17
ENDBRANCH   9  14
BRANCH  13  22
ATOM     22  O   UNL A   1      31.449  25.848  24.299  1.00  0.00    -0.507 OA
ATOM     23  H   UNL A   1      31.040  25.011  24.199  1.00  0.00     0.293 HD
ENDBRANCH  13  22
ENDBRANCH   5   8
ENDBRANCH   3   4
ENDBRANCH   2   3
ENDBRANCH   1   2
BRANCH   1  24
ATOM     24  C   UNL A   1      31.388  31.095  26.251  1.00  0.00     0.002 C 
BRANCH  24  25
ATOM     25  C   UNL A   1      31.366  32.595  26.557  1.00  0.00     0.021 C 
BRANCH  25  26
ATOM     26  C   UNL A   1      32.612  33.100  27.275  1.00  0.00     0.116 C 
BRANCH  26  27
ATOM     27  N   UNL A   1      32.430  34.458  27.765  1.00  0.00    -0.352 N 
ATOM     28  C   UNL A   1      33.044  35.080  28.823  1.00  0.00     0.251 C 
ATOM     29  H   UNL A   1      31.778  35.006  27.271  1.00  0.00     0.163 HD
ATOM     30  O   UNL A   1      32.612  36.139  29.265  1.00  0.00    -0.269 OA
BRANCH  28  31
ATOM     31  C   UNL A   1      34.236  34.458  29.432  1.00  0.00     0.039 A 
ATOM     32  C   UNL A   1      35.484  34.627  28.828  1.00  0.00     0.014 A 
ATOM     33  C   UNL A   1      34.110  33.699  30.600  1.00  0.00     0.014 A 
ATOM     34  C   UNL A   1      36.619  34.073  29.423  1.00  0.00     0.010 A 
ATOM     35  C   UNL A   1      35.247  33.208  31.227  1.00  0.00     0.010 A 
ATOM     36  C   UNL A   1      36.511  33.379  30.639  1.00  0.00    -0.014 A 
BRANCH  36  37
ATOM     37  C   UNL A   1      37.690  32.775  31.306  1.00  0.00     0.031 A 
ATOM     38  C   UNL A   1      38.404  31.633  30.642  1.00  0.00     0.074 A 
ATOM     39  C   UNL A   1      38.054  33.184  32.536  1.00  0.00     0.049 A 
ATOM     40  N   UNL A   1      39.341  30.850  31.115  1.00  0.00    -0.248 NA
ATOM     41  C   UNL A   1      37.982  31.303  29.270  1.00  0.00     0.031 C 
ATOM     42  C   UNL A   1      37.422  34.268  33.290  1.00  0.00     0.029 A 
ATOM     43  N   UNL A   1      39.031  32.719  33.379  1.00  0.00    -0.354 N 
ATOM     44  C   UNL A   1      39.596  29.923  30.113  1.00  0.00     0.074 A 
ATOM     45  C   UNL A   1      38.685  30.209  29.026  1.00  0.00     0.031 C 
ATOM     46  C   UNL A   1      38.032  34.387  34.480  1.00  0.00     0.029 A 
ATOM     47  C   UNL A   1      39.066  33.361  34.591  1.00  0.00     0.049 A 
ATOM     48  H   UNL A   1      39.651  31.991  33.136  1.00  0.00     0.167 HD
ATOM     49  C   UNL A   1      40.522  28.935  30.095  1.00  0.00     0.037 A 
ATOM     50  C   UNL A   1      39.831  33.134  35.676  1.00  0.00     0.037 A 
ATOM     51  C   UNL A   1      41.446  28.680  31.168  1.00  0.00     0.049 A 
ATOM     52  C   UNL A   1      40.847  32.022  35.636  1.00  0.00     0.074 A 
ATOM     53  C   UNL A   1      42.455  27.737  31.231  1.00  0.00     0.029 A 
ATOM     54  N   UNL A   1      41.474  29.380  32.365  1.00  0.00    -0.354 N 
ATOM     55  N   UNL A   1      41.111  31.178  34.668  1.00  0.00    -0.248 NA
ATOM     56  C   UNL A   1      41.673  31.834  36.837  1.00  0.00     0.031 C 
ATOM     57  C   UNL A   1      43.066  27.835  32.485  1.00  0.00     0.029 A 
ATOM     58  C   UNL A   1      42.474  28.878  33.180  1.00  0.00     0.049 A 
ATOM     59  H   UNL A   1      40.872  30.123  32.600  1.00  0.00     0.167 HD
ATOM     60  C   UNL A   1      42.160  30.390  35.123  1.00  0.00     0.074 A 
ATOM     61  C   UNL A   1      42.483  30.853  36.457  1.00  0.00     0.031 C 
ATOM     62  C   UNL A   1      42.801  29.377  34.491  1.00  0.00     0.037 A 
BRANCH  49  63
ATOM     63  C   UNL A   1      40.578  28.055  28.880  1.00  0.00     0.064 A 
ATOM     64  C   UNL A   1      41.376  28.377  27.772  1.00  0.00     0.173 A 
ATOM     65  C   UNL A   1      39.849  26.857  28.835  1.00  0.00     0.173 A 
ATOM     66  F   UNL A   1      42.084  29.517  27.759  1.00  0.00    -0.203 F 
ATOM     67  C   UNL A   1      41.417  27.550  26.652  1.00  0.00     0.198 A 
ATOM     68  C   UNL A   1      39.918  26.015  27.728  1.00  0.00     0.198 A 
ATOM     69  F   UNL A   1      39.073  26.497  29.869  1.00  0.00    -0.203 F 
ATOM     70  F   UNL A   1      42.145  27.907  25.585  1.00  0.00    -0.200 F 
ATOM     71  C   UNL A   1      40.695  26.367  26.635  1.00  0.00     0.200 A 
ATOM     72  F   UNL A   1      39.230  24.866  27.718  1.00  0.00    -0.200 F 
ATOM     73  F   UNL A   1      40.741  25.569  25.559  1.00  0.00    -0.200 F 
ENDBRANCH  49  63
BRANCH  50  74
ATOM     74  C   UNL A   1      39.681  33.985  36.884  1.00  0.00     0.064 A 
ATOM     75  C   UNL A   1      38.872  33.579  37.954  1.00  0.00     0.173 A 
ATOM     76  C   UNL A   1      40.336  35.221  36.996  1.00  0.00     0.173 A 
ATOM     77  F   UNL A   1      38.211  32.414  37.888  1.00  0.00    -0.203 F 
ATOM     78  C   UNL A   1      38.706  34.384  39.080  1.00  0.00     0.198 A 
ATOM     79  C   UNL A   1      40.192  36.013  38.134  1.00  0.00     0.198 A 
ATOM     80  F   UNL A   1      41.126  35.655  36.003  1.00  0.00    -0.203 F 
ATOM     81  F   UNL A   1      37.890  33.990  40.067  1.00  0.00    -0.200 F 
ATOM     82  C   UNL A   1      39.369  35.598  39.171  1.00  0.00     0.200 A 
ATOM     83  F   UNL A   1      40.848  37.178  38.225  1.00  0.00    -0.200 F 
ATOM     84  F   UNL A   1      39.212  36.370  40.254  1.00  0.00    -0.200 F 
ENDBRANCH  50  74
BRANCH  62  85
ATOM     85  C   UNL A   1      43.964  28.741  35.196  1.00  0.00     0.064 A 
ATOM     86  C   UNL A   1      45.275  29.203  35.027  1.00  0.00     0.173 A 
ATOM     87  C   UNL A   1      43.743  27.702  36.115  1.00  0.00     0.173 A 
ATOM     88  F   UNL A   1      45.538  30.183  34.149  1.00  0.00    -0.203 F 
ATOM     89  C   UNL A   1      46.327  28.641  35.745  1.00  0.00     0.198 A 
ATOM     90  C   UNL A   1      44.792  27.164  36.852  1.00  0.00     0.198 A 
ATOM     91  F   UNL A   1      42.503  27.231  36.316  1.00  0.00    -0.203 F 
ATOM     92  F   UNL A   1      47.580  29.076  35.545  1.00  0.00    -0.200 F 
ATOM     93  C   UNL A   1      46.084  27.631  36.665  1.00  0.00     0.200 A 
ATOM     94  F   UNL A   1      44.552  26.198  37.751  1.00  0.00    -0.200 F 
ATOM     95  F   UNL A   1      47.095  27.106  37.369  1.00  0.00    -0.200 F 
ENDBRANCH  62  85
ENDBRANCH  36  37
ENDBRANCH  28  31
ENDBRANCH  26  27
ENDBRANCH  25  26
ENDBRANCH  24  25
ENDBRANCH   1  24
TORSDOF 17
ENDMDL
MODEL 2
REMARK VINA RESULT:     -11.9      0.750      2.036
REMARK SMILES NNS(=O)(=O)c1ccc(O)c(C(=O)NCCCCCCNC(=O)c2ccc(-c3c4nc(c(-c5c(F)c(F)c(F)c(F)c5F)c5ccc([nH]5)c(-c5c(F)c(F)c(F)c(F)c5F)c5nc(c(-c6c(F)c(F)c(F)c(F)c6F)c6ccc3[nH]6)C=C5)C=C4)cc2)c1
REMARK SMILES IDX 17 1 16 2 15 3 14 4 12 5 13 6 11 8 6 9 7 10 87 11 8 12 9 13
REMARK SMILES IDX 3 14 4 15 5 16 2 17 1 19 10 22 18 24 19 25 20 26 21 27 22 28
REMARK SMILES IDX 23 30 24 31 25 32 86 33 26 34 85 35 27 36 28 37 29 38 79 39
REMARK SMILES IDX 30 40 84 41 78 42 80 43 31 44 83 45 77 46 76 47 32 49 64 50
REMARK SMILES IDX 44 51 63 52 45 53 48 54 62 55 81 56 46 57 47 58 61 60 82 61
REMARK SMILES IDX 49 62 33 63 34 64 42 65 35 66 36 67 40 68 43 69 37 70 38 71
REMARK SMILES IDX 41 72 39 73 65 74 66 75 74 76 67 77 68 78 72 79 75 80 69 81
REMARK SMILES IDX 70 82 73 83 71 84 50 85 51 86 59 87 52 88 53 89 57 90 60 91
REMARK SMILES IDX 54 92 55 93 58 94 56 95
REMARK H PARENT 14 7 2 18 1 20 1 21 10 23 21 29 80 48 48 59
REMARK Flexibility Score: inf
ROOT
ATOM      1  C   UNL A   1      32.906  30.074  26.627  1.00  0.00     0.002 C 
ENDROOT
BRANCH   1   2
ATOM      2  C   UNL A   1      32.851  28.656  27.207  1.00  0.00     0.021 C 
BRANCH   2   3
ATOM      3  C   UNL A   1      31.428  28.172  27.508  1.00  0.00     0.116 C 
BRANCH   3   4
ATOM      4  N   UNL A   1      31.192  26.907  26.850  1.00  0.00    -0.352 N 
ATOM      5  C   UNL A   1      30.878  26.578  25.559  1.00  0.00     0.255 C 
ATOM      6  O   UNL A   1      30.654  25.382  25.349  1.00  0.00    -0.269 OA
ATOM      7  H   UNL A   1      31.275  26.129  27.447  1.00  0.00     0.163 HD
BRANCH   5   8
ATOM      8  C   UNL A   1      30.863  27.513  24.392  1.00  0.00     0.082 A 
ATOM      9  C   UNL A   1      29.425  29.008  23.096  1.00  0.00     0.084 A 
ATOM     10  C   UNL A   1      30.512  29.420  22.328  1.00  0.00     0.025 A 
ATOM     11  C   UNL A   1      29.592  28.063  24.112  1.00  0.00     0.039 A 
ATOM     12  C   UNL A   1      31.768  28.883  22.581  1.00  0.00     0.048 A 
ATOM     13  C   UNL A   1      31.950  27.962  23.623  1.00  0.00     0.128 A 
BRANCH   9  14
ATOM     14  S   UNL A   1      27.857  29.810  22.855  1.00  0.00     0.253 S 
ATOM     15  O   UNL A   1      27.911  31.103  23.510  1.00  0.00    -0.206 OA
ATOM     16  O   UNL A   1      26.809  28.864  23.155  1.00  0.00    -0.206 OA
BRANCH  14  17
ATOM     17  N   UNL A   1      27.819  30.035  21.134  1.00  0.00    -0.150 NA
ATOM     18  H   UNL A   1      28.541  29.451  20.710  1.00  0.00     0.160 HD
BRANCH  17  19
ATOM     19  N   UNL A   1      28.050  31.379  20.768  1.00  0.00    -0.257 NA
ATOM     20  H   UNL A   1      27.777  31.993  21.536  1.00  0.00     0.138 HD
ATOM     21  H   UNL A   1      27.500  31.606  19.939  1.00  0.00     0.138 HD
ENDBRANCH  17  19
ENDBRANCH  14  17
ENDBRANCH   9  14
BRANCH  13  22
ATOM     22  O   UNL A   1      33.238  27.596  23.888  1.00  0.00    -0.507 OA
ATOM     23  H   UNL A   1      33.510  27.450  24.773  1.00  0.00     0.293 HD
ENDBRANCH  13  22
ENDBRANCH   5   8
ENDBRANCH   3   4
ENDBRANCH   2   3
ENDBRANCH   1   2
BRANCH   1  24
ATOM     24  C   UNL A   1      31.539  30.681  26.293  1.00  0.00     0.002 C 
BRANCH  24  25
ATOM     25  C   UNL A   1      31.403  32.173  26.603  1.00  0.00     0.021 C 
BRANCH  25  26
ATOM     26  C   UNL A   1      32.648  32.794  27.225  1.00  0.00     0.116 C 
BRANCH  26  27
ATOM     27  N   UNL A   1      32.427  34.187  27.585  1.00  0.00    -0.352 N 
ATOM     28  C   UNL A   1      32.992  34.913  28.602  1.00  0.00     0.251 C 
ATOM     29  H   UNL A   1      31.784  34.675  27.020  1.00  0.00     0.163 HD
ATOM     30  O   UNL A   1      32.527  35.999  28.931  1.00  0.00    -0.269 OA
BRANCH  28  31
ATOM     31  C   UNL A   1      34.171  34.372  29.307  1.00  0.00     0.039 A 
ATOM     32  C   UNL A   1      34.002  33.732  30.536  1.00  0.00     0.014 A 
ATOM     33  C   UNL A   1      35.444  34.509  28.747  1.00  0.00     0.014 A 
ATOM     34  C   UNL A   1      35.110  33.185  31.187  1.00  0.00     0.010 A 
ATOM     35  C   UNL A   1      36.534  33.903  29.360  1.00  0.00     0.010 A 
ATOM     36  C   UNL A   1      36.380  33.246  30.591  1.00  0.00    -0.014 A 
BRANCH  36  37
ATOM     37  C   UNL A   1      37.583  32.678  31.246  1.00  0.00     0.031 A 
ATOM     38  C   UNL A   1      38.325  31.559  30.572  1.00  0.00     0.074 A 
ATOM     39  C   UNL A   1      37.946  33.095  32.473  1.00  0.00     0.049 A 
ATOM     40  N   UNL A   1      39.290  30.805  31.034  1.00  0.00    -0.248 NA
ATOM     41  C   UNL A   1      37.901  31.220  29.203  1.00  0.00     0.031 C 
ATOM     42  C   UNL A   1      37.288  34.157  33.236  1.00  0.00     0.029 A 
ATOM     43  N   UNL A   1      38.945  32.658  33.306  1.00  0.00    -0.354 N 
ATOM     44  C   UNL A   1      39.564  29.888  30.027  1.00  0.00     0.074 A 
ATOM     45  C   UNL A   1      38.634  30.148  28.950  1.00  0.00     0.031 C 
ATOM     46  C   UNL A   1      37.905  34.292  34.421  1.00  0.00     0.029 A 
ATOM     47  C   UNL A   1      38.971  33.298  34.519  1.00  0.00     0.049 A 
ATOM     48  H   UNL A   1      39.584  31.951  33.055  1.00  0.00     0.167 HD
ATOM     49  C   UNL A   1      40.519  28.929  29.999  1.00  0.00     0.037 A 
ATOM     50  C   UNL A   1      39.753  33.092  35.596  1.00  0.00     0.037 A 
ATOM     51  C   UNL A   1      41.462  28.701  31.062  1.00  0.00     0.049 A 
ATOM     52  C   UNL A   1      40.803  32.013  35.544  1.00  0.00     0.074 A 
ATOM     53  C   UNL A   1      42.500  27.789  31.113  1.00  0.00     0.029 A 
ATOM     54  N   UNL A   1      41.479  29.398  32.261  1.00  0.00    -0.354 N 
ATOM     55  N   UNL A   1      41.083  31.179  34.572  1.00  0.00    -0.248 NA
ATOM     56  C   UNL A   1      41.646  31.847  36.736  1.00  0.00     0.031 C 
ATOM     57  C   UNL A   1      43.119  27.903  32.361  1.00  0.00     0.029 A 
ATOM     58  C   UNL A   1      42.502  28.926  33.065  1.00  0.00     0.049 A 
ATOM     59  H   UNL A   1      40.857  30.122  32.503  1.00  0.00     0.167 HD
ATOM     60  C   UNL A   1      42.160  30.423  35.015  1.00  0.00     0.074 A 
ATOM     61  C   UNL A   1      42.481  30.893  36.346  1.00  0.00     0.031 C 
ATOM     62  C   UNL A   1      42.826  29.431  34.374  1.00  0.00     0.037 A 
BRANCH  49  63
ATOM     63  C   UNL A   1      40.591  28.054  28.781  1.00  0.00     0.064 A 
ATOM     64  C   UNL A   1      39.884  26.845  28.699  1.00  0.00     0.173 A 
ATOM     65  C   UNL A   1      41.352  28.444  27.668  1.00  0.00     0.173 A 
ATOM     66  F   UNL A   1      39.150  26.420  29.739  1.00  0.00    -0.203 F 
ATOM     67  C   UNL A   1      39.962  26.044  27.562  1.00  0.00     0.198 A 
ATOM     68  C   UNL A   1      41.401  27.656  26.520  1.00  0.00     0.198 A 
ATOM     69  F   UNL A   1      42.044  29.593  27.690  1.00  0.00    -0.203 F 
ATOM     70  F   UNL A   1      39.320  24.868  27.530  1.00  0.00    -0.200 F 
ATOM     71  C   UNL A   1      40.713  26.454  26.472  1.00  0.00     0.200 A 
ATOM     72  F   UNL A   1      42.116  28.061  25.463  1.00  0.00    -0.200 F 
ATOM     73  F   UNL A   1      40.781  25.686  25.376  1.00  0.00    -0.200 F 
ENDBRANCH  49  63
BRANCH  50  74
ATOM     74  C   UNL A   1      39.589  33.936  36.808  1.00  0.00     0.064 A 
ATOM     75  C   UNL A   1      40.231  35.177  36.912  1.00  0.00     0.173 A 
ATOM     76  C   UNL A   1      38.793  33.523  37.887  1.00  0.00     0.173 A 
ATOM     77  F   UNL A   1      41.018  35.609  35.915  1.00  0.00    -0.203 F 
ATOM     78  C   UNL A   1      40.103  35.963  38.056  1.00  0.00     0.198 A 
ATOM     79  C   UNL A   1      38.642  34.322  39.019  1.00  0.00     0.198 A 
ATOM     80  F   UNL A   1      38.151  32.346  37.837  1.00  0.00    -0.203 F 
ATOM     81  F   UNL A   1      40.767  37.124  38.146  1.00  0.00    -0.200 F 
ATOM     82  C   UNL A   1      39.305  35.537  39.106  1.00  0.00     0.200 A 
ATOM     83  F   UNL A   1      37.857  33.913  40.025  1.00  0.00    -0.200 F 
ATOM     84  F   UNL A   1      39.179  36.294  40.205  1.00  0.00    -0.200 F 
ENDBRANCH  50  74
BRANCH  62  85
ATOM     85  C   UNL A   1      44.014  28.830  35.066  1.00  0.00     0.064 A 
ATOM     86  C   UNL A   1      45.303  29.361  34.921  1.00  0.00     0.173 A 
ATOM     87  C   UNL A   1      43.839  27.753  35.950  1.00  0.00     0.173 A 
ATOM     88  F   UNL A   1      45.522  30.380  34.077  1.00  0.00    -0.203 F 
ATOM     89  C   UNL A   1      46.377  28.827  35.628  1.00  0.00     0.198 A 
ATOM     90  C   UNL A   1      44.909  27.242  36.677  1.00  0.00     0.198 A 
ATOM     91  F   UNL A   1      42.623  27.215  36.127  1.00  0.00    -0.203 F 
ATOM     92  F   UNL A   1      47.608  29.328  35.451  1.00  0.00    -0.200 F 
ATOM     93  C   UNL A   1      46.178  27.776  36.513  1.00  0.00     0.200 A 
ATOM     94  F   UNL A   1      44.711  26.237  37.542  1.00  0.00    -0.200 F 
ATOM     95  F   UNL A   1      47.210  27.279  37.207  1.00  0.00    -0.200 F 
ENDBRANCH  62  85
ENDBRANCH  36  37
ENDBRANCH  28  31
ENDBRANCH  26  27
ENDBRANCH  25  26
ENDBRANCH  24  25
ENDBRANCH   1  24
TORSDOF 17
ENDMDL
MODEL 3
REMARK VINA RESULT:     -11.8      2.051      7.956
REMARK SMILES NNS(=O)(=O)c1ccc(O)c(C(=O)NCCCCCCNC(=O)c2ccc(-c3c4nc(c(-c5c(F)c(F)c(F)c(F)c5F)c5ccc([nH]5)c(-c5c(F)c(F)c(F)c(F)c5F)c5nc(c(-c6c(F)c(F)c(F)c(F)c6F)c6ccc3[nH]6)C=C5)C=C4)cc2)c1
REMARK SMILES IDX 17 1 16 2 15 3 14 4 12 5 13 6 11 8 6 9 7 10 87 11 8 12 9 13
REMARK SMILES IDX 3 14 4 15 5 16 2 17 1 19 10 22 18 24 19 25 20 26 21 27 22 28
REMARK SMILES IDX 23 30 24 31 25 32 86 33 26 34 85 35 27 36 28 37 29 38 79 39
REMARK SMILES IDX 30 40 84 41 78 42 80 43 31 44 83 45 77 46 76 47 32 49 64 50
REMARK SMILES IDX 44 51 63 52 45 53 48 54 62 55 81 56 46 57 47 58 61 60 82 61
REMARK SMILES IDX 49 62 33 63 34 64 42 65 35 66 36 67 40 68 43 69 37 70 38 71
REMARK SMILES IDX 41 72 39 73 65 74 66 75 74 76 67 77 68 78 72 79 75 80 69 81
REMARK SMILES IDX 70 82 73 83 71 84 50 85 51 86 59 87 52 88 53 89 57 90 60 91
REMARK SMILES IDX 54 92 55 93 58 94 56 95
REMARK H PARENT 14 7 2 18 1 20 1 21 10 23 21 29 80 48 48 59
REMARK Flexibility Score: inf
ROOT
ATOM      1  C   UNL A   1      34.051  32.323  28.815  1.00  0.00     0.002 C 
ENDROOT
BRANCH   1   2
ATOM      2  C   UNL A   1      34.838  31.519  27.773  1.00  0.00     0.021 C 
BRANCH   2   3
ATOM      3  C   UNL A   1      34.081  30.295  27.244  1.00  0.00     0.116 C 
BRANCH   3   4
ATOM      4  N   UNL A   1      32.837  30.713  26.639  1.00  0.00    -0.352 N 
ATOM      5  C   UNL A   1      31.933  30.069  25.839  1.00  0.00     0.255 C 
ATOM      6  O   UNL A   1      31.000  30.761  25.418  1.00  0.00    -0.269 OA
ATOM      7  H   UNL A   1      32.591  31.644  26.844  1.00  0.00     0.163 HD
BRANCH   5   8
ATOM      8  C   UNL A   1      31.934  28.611  25.506  1.00  0.00     0.082 A 
ATOM      9  C   UNL A   1      32.474  27.003  23.744  1.00  0.00     0.084 A 
ATOM     10  C   UNL A   1      32.175  25.941  24.595  1.00  0.00     0.025 A 
ATOM     11  C   UNL A   1      32.351  28.323  24.188  1.00  0.00     0.039 A 
ATOM     12  C   UNL A   1      31.754  26.204  25.892  1.00  0.00     0.048 A 
ATOM     13  C   UNL A   1      31.663  27.525  26.356  1.00  0.00     0.128 A 
BRANCH   9  14
ATOM     14  S   UNL A   1      33.149  26.647  22.139  1.00  0.00     0.253 S 
ATOM     15  O   UNL A   1      33.731  25.319  22.183  1.00  0.00    -0.206 OA
ATOM     16  O   UNL A   1      33.922  27.786  21.706  1.00  0.00    -0.206 OA
BRANCH  14  17
ATOM     17  N   UNL A   1      31.730  26.625  21.140  1.00  0.00    -0.150 NA
ATOM     18  H   UNL A   1      30.930  26.347  21.710  1.00  0.00     0.160 HD
BRANCH  17  19
ATOM     19  N   UNL A   1      31.853  25.722  20.060  1.00  0.00    -0.257 NA
ATOM     20  H   UNL A   1      31.927  24.770  20.420  1.00  0.00     0.138 HD
ATOM     21  H   UNL A   1      32.689  25.947  19.522  1.00  0.00     0.138 HD
ENDBRANCH  17  19
ENDBRANCH  14  17
ENDBRANCH   9  14
BRANCH  13  22
ATOM     22  O   UNL A   1      31.377  27.682  27.681  1.00  0.00    -0.507 OA
ATOM     23  H   UNL A   1      30.812  28.375  27.959  1.00  0.00     0.293 HD
ENDBRANCH  13  22
ENDBRANCH   5   8
ENDBRANCH   3   4
ENDBRANCH   2   3
ENDBRANCH   1   2
BRANCH   1  24
ATOM     24  C   UNL A   1      34.362  33.823  28.833  1.00  0.00     0.002 C 
BRANCH  24  25
ATOM     25  C   UNL A   1      33.135  34.736  28.886  1.00  0.00     0.021 C 
BRANCH  25  26
ATOM     26  C   UNL A   1      33.424  36.135  29.416  1.00  0.00     0.116 C 
BRANCH  26  27
ATOM     27  N   UNL A   1      32.559  36.471  30.537  1.00  0.00    -0.352 N 
ATOM     28  C   UNL A   1      32.560  35.956  31.809  1.00  0.00     0.251 C 
ATOM     29  H   UNL A   1      31.881  37.162  30.359  1.00  0.00     0.163 HD
ATOM     30  O   UNL A   1      31.619  36.158  32.568  1.00  0.00    -0.269 OA
BRANCH  28  31
ATOM     31  C   UNL A   1      33.710  35.146  32.258  1.00  0.00     0.039 A 
ATOM     32  C   UNL A   1      33.498  33.840  32.703  1.00  0.00     0.014 A 
ATOM     33  C   UNL A   1      34.998  35.691  32.244  1.00  0.00     0.014 A 
ATOM     34  C   UNL A   1      34.588  33.058  33.093  1.00  0.00     0.010 A 
ATOM     35  C   UNL A   1      36.086  34.891  32.565  1.00  0.00     0.010 A 
ATOM     36  C   UNL A   1      35.892  33.571  33.004  1.00  0.00    -0.014 A 
BRANCH  36  37
ATOM     37  C   UNL A   1      37.078  32.776  33.405  1.00  0.00     0.031 A 
ATOM     38  C   UNL A   1      37.757  33.079  34.710  1.00  0.00     0.074 A 
ATOM     39  C   UNL A   1      37.594  31.861  32.564  1.00  0.00     0.049 A 
ATOM     40  N   UNL A   1      38.895  32.633  35.178  1.00  0.00    -0.248 NA
ATOM     41  C   UNL A   1      37.080  34.042  35.594  1.00  0.00     0.031 C 
ATOM     42  C   UNL A   1      37.036  31.498  31.260  1.00  0.00     0.029 A 
ATOM     43  N   UNL A   1      38.721  31.085  32.670  1.00  0.00    -0.354 N 
ATOM     44  C   UNL A   1      39.082  33.282  36.392  1.00  0.00     0.074 A 
ATOM     45  C   UNL A   1      37.967  34.187  36.566  1.00  0.00     0.031 C 
ATOM     46  C   UNL A   1      37.819  30.566  30.693  1.00  0.00     0.029 A 
ATOM     47  C   UNL A   1      38.956  30.300  31.570  1.00  0.00     0.049 A 
ATOM     48  H   UNL A   1      39.306  31.091  33.464  1.00  0.00     0.167 HD
ATOM     49  C   UNL A   1      40.084  33.121  37.287  1.00  0.00     0.037 A 
ATOM     50  C   UNL A   1      39.984  29.475  31.291  1.00  0.00     0.037 A 
ATOM     51  C   UNL A   1      41.171  32.193  37.120  1.00  0.00     0.049 A 
ATOM     52  C   UNL A   1      41.093  29.320  32.300  1.00  0.00     0.074 A 
ATOM     53  C   UNL A   1      42.210  31.917  37.989  1.00  0.00     0.029 A 
ATOM     54  N   UNL A   1      41.352  31.387  36.006  1.00  0.00    -0.354 N 
ATOM     55  N   UNL A   1      41.240  29.906  33.464  1.00  0.00    -0.248 NA
ATOM     56  C   UNL A   1      42.177  28.389  31.958  1.00  0.00     0.031 C 
ATOM     57  C   UNL A   1      43.047  30.975  37.382  1.00  0.00     0.029 A 
ATOM     58  C   UNL A   1      42.496  30.623  36.160  1.00  0.00     0.049 A 
ATOM     59  H   UNL A   1      40.756  31.361  35.223  1.00  0.00     0.167 HD
ATOM     60  C   UNL A   1      42.403  29.383  34.012  1.00  0.00     0.074 A 
ATOM     61  C   UNL A   1      42.927  28.434  33.051  1.00  0.00     0.031 C 
ATOM     62  C   UNL A   1      42.982  29.660  35.205  1.00  0.00     0.037 A 
BRANCH  49  63
ATOM     63  C   UNL A   1      40.053  33.968  38.527  1.00  0.00     0.064 A 
ATOM     64  C   UNL A   1      39.367  33.561  39.682  1.00  0.00     0.173 A 
ATOM     65  C   UNL A   1      40.745  35.188  38.572  1.00  0.00     0.173 A 
ATOM     66  F   UNL A   1      38.680  32.409  39.687  1.00  0.00    -0.203 F 
ATOM     67  C   UNL A   1      39.348  34.359  40.823  1.00  0.00     0.198 A 
ATOM     68  C   UNL A   1      40.751  35.967  39.726  1.00  0.00     0.198 A 
ATOM     69  F   UNL A   1      41.422  35.623  37.498  1.00  0.00    -0.203 F 
ATOM     70  F   UNL A   1      38.641  33.974  41.894  1.00  0.00    -0.200 F 
ATOM     71  C   UNL A   1      40.046  35.557  40.846  1.00  0.00     0.200 A 
ATOM     72  F   UNL A   1      41.438  37.117  39.752  1.00  0.00    -0.200 F 
ATOM     73  F   UNL A   1      40.033  36.320  41.948  1.00  0.00    -0.200 F 
ENDBRANCH  49  63
BRANCH  50  74
ATOM     74  C   UNL A   1      40.006  28.718  30.014  1.00  0.00     0.064 A 
ATOM     75  C   UNL A   1      39.443  27.437  29.927  1.00  0.00     0.173 A 
ATOM     76  C   UNL A   1      40.591  29.252  28.855  1.00  0.00     0.173 A 
ATOM     77  F   UNL A   1      38.888  26.877  31.012  1.00  0.00    -0.203 F 
ATOM     78  C   UNL A   1      39.482  26.710  28.739  1.00  0.00     0.198 A 
ATOM     79  C   UNL A   1      40.605  28.535  27.659  1.00  0.00     0.198 A 
ATOM     80  F   UNL A   1      41.139  30.475  28.881  1.00  0.00    -0.203 F 
ATOM     81  F   UNL A   1      38.977  25.470  28.699  1.00  0.00    -0.200 F 
ATOM     82  C   UNL A   1      40.059  27.261  27.605  1.00  0.00     0.200 A 
ATOM     83  F   UNL A   1      41.149  29.078  26.562  1.00  0.00    -0.200 F 
ATOM     84  F   UNL A   1      40.094  26.563  26.462  1.00  0.00    -0.200 F 
ENDBRANCH  50  74
BRANCH  62  85
ATOM     85  C   UNL A   1      44.210  28.882  35.581  1.00  0.00     0.064 A 
ATOM     86  C   UNL A   1      44.134  27.672  36.282  1.00  0.00     0.173 A 
ATOM     87  C   UNL A   1      45.474  29.323  35.159  1.00  0.00     0.173 A 
ATOM     88  F   UNL A   1      42.950  27.217  36.718  1.00  0.00    -0.203 F 
ATOM     89  C   UNL A   1      45.283  26.935  36.558  1.00  0.00     0.198 A 
ATOM     90  C   UNL A   1      46.616  28.569  35.411  1.00  0.00     0.198 A 
ATOM     91  F   UNL A   1      45.597  30.473  34.479  1.00  0.00    -0.203 F 
ATOM     92  F   UNL A   1      45.193  25.795  37.258  1.00  0.00    -0.200 F 
ATOM     93  C   UNL A   1      46.520  27.377  36.113  1.00  0.00     0.200 A 
ATOM     94  F   UNL A   1      47.808  28.992  34.967  1.00  0.00    -0.200 F 
ATOM     95  F   UNL A   1      47.621  26.656  36.362  1.00  0.00    -0.200 F 
ENDBRANCH  62  85
ENDBRANCH  36  37
ENDBRANCH  28  31
ENDBRANCH  26  27
ENDBRANCH  25  26
ENDBRANCH  24  25
ENDBRANCH   1  24
TORSDOF 17
ENDMDL
