MODEL 1
REMARK VINA RESULT:     -11.4      0.000      0.000
REMARK SMILES COc1ccc(NC(=O)C[C@@H](C[NH+]2CCOCC2)C(=O)NCCCCCCNC(=O)c2ccc(-c3c4nc(c(-c5c(F)c(F)c(F)c(F)c5F)c5ccc([nH]5)c(-c5c(F)c(F)c(F)c(F)c5F)c5nc(c(-c6c(F)c(F)c(F)c(F)c6F)c6ccc3[nH]6)C=C5)C=C4)cc2)cc1
REMARK SMILES IDX 23 1 22 2 21 3 19 4 20 5 11 7 10 8 8 9 7 10 9 12 6 13 3 14
REMARK SMILES IDX 4 15 95 16 5 17 94 18 2 19 1 20 12 21 13 22 14 23 18 24
REMARK SMILES IDX 15 26 17 27 16 28 24 29 25 30 26 31 27 32 28 33 29 34 30 36
REMARK SMILES IDX 31 37 32 38 93 39 33 40 92 41 34 42 35 43 36 44 86 45 37 46
REMARK SMILES IDX 91 47 85 48 87 49 38 50 90 51 84 52 83 53 39 55 71 56 51 57
REMARK SMILES IDX 70 58 52 59 55 60 69 61 88 62 53 63 54 64 68 66 89 67 56 68
REMARK SMILES IDX 40 69 41 70 49 71 42 72 43 73 47 74 50 75 44 76 45 77 48 78
REMARK SMILES IDX 46 79 72 80 73 81 81 82 74 83 75 84 79 85 82 86 76 87 77 88
REMARK SMILES IDX 80 89 78 90 57 91 58 92 66 93 59 94 60 95 64 96 67 97 61 98
REMARK SMILES IDX 62 99 65 100 63 101
REMARK H PARENT 21 6 7 11 13 25 28 35 87 54 55 65
REMARK Flexibility Score: inf
ROOT
ATOM      1  C   UNL A   1      32.979  28.571  27.091  1.00  0.00     0.021 C 
ENDROOT
BRANCH   1   2
ATOM      2  C   UNL A   1      31.634  27.854  27.335  1.00  0.00     0.116 C 
BRANCH   2   3
ATOM      3  N   UNL A   1      31.303  26.942  26.208  1.00  0.00    -0.356 N 
ATOM      4  C   UNL A   1      31.833  25.677  26.085  1.00  0.00     0.229 C 
ATOM      5  O   UNL A   1      31.463  24.818  26.894  1.00  0.00    -0.275 OA
ATOM      6  H   UNL A   1      30.674  27.257  25.519  1.00  0.00     0.163 HD
BRANCH   4   7
ATOM      7  C   UNL A   1      32.684  25.265  24.841  1.00  0.00     0.142 C 
BRANCH   7   8
ATOM      8  C   UNL A   1      33.456  26.312  24.002  1.00  0.00     0.119 C 
BRANCH   8   9
ATOM      9  C   UNL A   1      33.037  26.355  22.527  1.00  0.00     0.225 C 
ATOM     10  N   UNL A   1      31.969  27.017  21.990  1.00  0.00    -0.326 N 
ATOM     11  H   UNL A   1      31.872  26.859  21.024  1.00  0.00     0.169 HD
ATOM     12  O   UNL A   1      33.775  25.798  21.698  1.00  0.00    -0.275 OA
BRANCH  10  13
ATOM     13  C   UNL A   1      30.976  27.869  22.499  1.00  0.00     0.041 A 
ATOM     14  C   UNL A   1      28.702  29.393  23.182  1.00  0.00     0.119 A 
ATOM     15  C   UNL A   1      29.923  30.025  22.936  1.00  0.00     0.048 A 
ATOM     16  C   UNL A   1      28.683  28.001  23.274  1.00  0.00     0.048 A 
ATOM     17  C   UNL A   1      31.062  29.258  22.579  1.00  0.00     0.030 A 
ATOM     18  C   UNL A   1      29.820  27.247  22.981  1.00  0.00     0.030 A 
BRANCH  14  19
ATOM     19  O   UNL A   1      27.457  29.941  23.249  1.00  0.00    -0.497 OA
ATOM     20  C   UNL A   1      27.240  31.265  23.702  1.00  0.00     0.278 C 
ENDBRANCH  14  19
ENDBRANCH  10  13
ENDBRANCH   8   9
ENDBRANCH   7   8
BRANCH   7  21
ATOM     21  C   UNL A   1      33.364  23.887  25.079  1.00  0.00     0.276 C 
BRANCH  21  22
ATOM     22  N   UNL A   1      34.355  23.635  26.141  1.00  0.00    -0.330 N 
ATOM     23  C   UNL A   1      35.726  23.573  25.602  1.00  0.00     0.291 C 
ATOM     24  C   UNL A   1      34.218  22.424  26.928  1.00  0.00     0.291 C 
ATOM     25  H   UNL A   1      34.172  24.430  26.754  1.00  0.00     0.348 HD
ATOM     26  C   UNL A   1      35.995  22.298  24.771  1.00  0.00     0.221 C 
ATOM     27  C   UNL A   1      34.484  21.137  26.199  1.00  0.00     0.221 C 
ATOM     28  O   UNL A   1      34.980  21.298  24.882  1.00  0.00    -0.370 OA
ENDBRANCH  21  22
ENDBRANCH   7  21
ENDBRANCH   4   7
ENDBRANCH   2   3
ENDBRANCH   1   2
BRANCH   1  29
ATOM     29  C   UNL A   1      32.912  30.103  26.957  1.00  0.00     0.002 C 
BRANCH  29  30
ATOM     30  C   UNL A   1      31.568  30.731  26.560  1.00  0.00     0.002 C 
BRANCH  30  31
ATOM     31  C   UNL A   1      31.420  32.250  26.747  1.00  0.00     0.021 C 
BRANCH  31  32
ATOM     32  C   UNL A   1      32.709  33.054  26.923  1.00  0.00     0.116 C 
BRANCH  32  33
ATOM     33  N   UNL A   1      32.519  34.289  27.668  1.00  0.00    -0.352 N 
ATOM     34  C   UNL A   1      33.132  34.739  28.803  1.00  0.00     0.251 C 
ATOM     35  H   UNL A   1      31.840  34.897  27.297  1.00  0.00     0.163 HD
ATOM     36  O   UNL A   1      32.707  35.762  29.363  1.00  0.00    -0.269 OA
BRANCH  34  37
ATOM     37  C   UNL A   1      34.287  34.030  29.383  1.00  0.00     0.039 A 
ATOM     38  C   UNL A   1      35.578  34.478  29.085  1.00  0.00     0.014 A 
ATOM     39  C   UNL A   1      34.110  32.894  30.180  1.00  0.00     0.014 A 
ATOM     40  C   UNL A   1      36.685  33.819  29.620  1.00  0.00     0.010 A 
ATOM     41  C   UNL A   1      35.212  32.284  30.773  1.00  0.00     0.010 A 
ATOM     42  C   UNL A   1      36.510  32.731  30.488  1.00  0.00    -0.014 A 
BRANCH  42  43
ATOM     43  C   UNL A   1      37.676  32.036  31.090  1.00  0.00     0.031 A 
ATOM     44  C   UNL A   1      38.144  32.408  32.470  1.00  0.00     0.074 A 
ATOM     45  C   UNL A   1      38.343  31.113  30.371  1.00  0.00     0.049 A 
ATOM     46  N   UNL A   1      39.171  31.959  33.147  1.00  0.00    -0.248 NA
ATOM     47  C   UNL A   1      37.371  33.444  33.173  1.00  0.00     0.031 C 
ATOM     48  C   UNL A   1      38.009  30.706  29.005  1.00  0.00     0.029 A 
ATOM     49  N   UNL A   1      39.443  30.355  30.684  1.00  0.00    -0.354 N 
ATOM     50  C   UNL A   1      39.173  32.666  34.343  1.00  0.00     0.074 A 
ATOM     51  C   UNL A   1      38.085  33.615  34.276  1.00  0.00     0.031 C 
ATOM     52  C   UNL A   1      38.869  29.755  28.607  1.00  0.00     0.029 A 
ATOM     53  C   UNL A   1      39.837  29.513  29.673  1.00  0.00     0.049 A 
ATOM     54  H   UNL A   1      39.906  30.410  31.550  1.00  0.00     0.167 HD
ATOM     55  C   UNL A   1      39.993  32.516  35.411  1.00  0.00     0.037 A 
ATOM     56  C   UNL A   1      40.867  28.649  29.613  1.00  0.00     0.037 A 
ATOM     57  C   UNL A   1      41.060  31.552  35.475  1.00  0.00     0.049 A 
ATOM     58  C   UNL A   1      41.766  28.505  30.811  1.00  0.00     0.074 A 
ATOM     59  C   UNL A   1      41.916  31.278  36.528  1.00  0.00     0.029 A 
ATOM     60  N   UNL A   1      41.420  30.704  34.437  1.00  0.00    -0.354 N 
ATOM     61  N   UNL A   1      41.716  29.128  31.964  1.00  0.00    -0.248 NA
ATOM     62  C   UNL A   1      42.859  27.529  30.704  1.00  0.00     0.031 C 
ATOM     63  C   UNL A   1      42.825  30.303  36.108  1.00  0.00     0.029 A 
ATOM     64  C   UNL A   1      42.499  29.922  34.817  1.00  0.00     0.049 A 
ATOM     65  H   UNL A   1      40.972  30.663  33.561  1.00  0.00     0.167 HD
ATOM     66  C   UNL A   1      42.747  28.601  32.729  1.00  0.00     0.074 A 
ATOM     67  C   UNL A   1      43.394  27.593  31.914  1.00  0.00     0.031 C 
ATOM     68  C   UNL A   1      43.125  28.920  33.992  1.00  0.00     0.037 A 
BRANCH  55  69
ATOM     69  C   UNL A   1      39.767  33.414  36.594  1.00  0.00     0.064 A 
ATOM     70  C   UNL A   1      40.412  34.656  36.713  1.00  0.00     0.173 A 
ATOM     71  C   UNL A   1      38.871  33.045  37.609  1.00  0.00     0.173 A 
ATOM     72  F   UNL A   1      41.287  35.054  35.778  1.00  0.00    -0.203 F 
ATOM     73  C   UNL A   1      40.195  35.476  37.819  1.00  0.00     0.198 A 
ATOM     74  C   UNL A   1      38.630  33.883  38.696  1.00  0.00     0.198 A 
ATOM     75  F   UNL A   1      38.222  31.872  37.546  1.00  0.00    -0.203 F 
ATOM     76  F   UNL A   1      40.866  36.630  37.937  1.00  0.00    -0.200 F 
ATOM     77  C   UNL A   1      39.299  35.092  38.805  1.00  0.00     0.200 A 
ATOM     78  F   UNL A   1      37.753  33.517  39.641  1.00  0.00    -0.200 F 
ATOM     79  F   UNL A   1      39.087  35.885  39.864  1.00  0.00    -0.200 F 
ENDBRANCH  55  69
BRANCH  56  80
ATOM     80  C   UNL A   1      41.084  27.833  28.388  1.00  0.00     0.064 A 
ATOM     81  C   UNL A   1      40.450  26.594  28.226  1.00  0.00     0.173 A 
ATOM     82  C   UNL A   1      41.929  28.271  27.358  1.00  0.00     0.173 A 
ATOM     83  F   UNL A   1      39.644  26.123  29.189  1.00  0.00    -0.203 F 
ATOM     84  C   UNL A   1      40.670  25.813  27.093  1.00  0.00     0.198 A 
ATOM     85  C   UNL A   1      42.124  27.505  26.211  1.00  0.00     0.198 A 
ATOM     86  F   UNL A   1      42.553  29.454  27.458  1.00  0.00    -0.203 F 
ATOM     87  F   UNL A   1      40.089  24.611  26.986  1.00  0.00    -0.200 F 
ATOM     88  C   UNL A   1      41.503  26.273  26.083  1.00  0.00     0.200 A 
ATOM     89  F   UNL A   1      42.914  27.962  25.229  1.00  0.00    -0.200 F 
ATOM     90  F   UNL A   1      41.711  25.524  24.991  1.00  0.00    -0.200 F 
ENDBRANCH  56  80
BRANCH  68  91
ATOM     91  C   UNL A   1      44.266  28.143  34.584  1.00  0.00     0.064 A 
ATOM     92  C   UNL A   1      44.066  26.918  35.237  1.00  0.00     0.173 A 
ATOM     93  C   UNL A   1      45.582  28.617  34.465  1.00  0.00     0.173 A 
ATOM     94  F   UNL A   1      42.826  26.428  35.390  1.00  0.00    -0.203 F 
ATOM     95  C   UNL A   1      45.138  26.213  35.778  1.00  0.00     0.198 A 
ATOM     96  C   UNL A   1      46.654  27.892  34.974  1.00  0.00     0.198 A 
ATOM     97  F   UNL A   1      45.828  29.779  33.842  1.00  0.00    -0.203 F 
ATOM     98  F   UNL A   1      44.918  25.072  36.446  1.00  0.00    -0.200 F 
ATOM     99  C   UNL A   1      46.431  26.696  35.639  1.00  0.00     0.200 A 
ATOM    100  F   UNL A   1      47.904  28.352  34.825  1.00  0.00    -0.200 F 
ATOM    101  F   UNL A   1      47.462  26.011  36.153  1.00  0.00    -0.200 F 
ENDBRANCH  68  91
ENDBRANCH  42  43
ENDBRANCH  34  37
ENDBRANCH  32  33
ENDBRANCH  31  32
ENDBRANCH  30  31
ENDBRANCH  29  30
ENDBRANCH   1  29
TORSDOF 19
ENDMDL
MODEL 2
REMARK VINA RESULT:     -11.4      0.859      7.249
REMARK SMILES COc1ccc(NC(=O)C[C@@H](C[NH+]2CCOCC2)C(=O)NCCCCCCNC(=O)c2ccc(-c3c4nc(c(-c5c(F)c(F)c(F)c(F)c5F)c5ccc([nH]5)c(-c5c(F)c(F)c(F)c(F)c5F)c5nc(c(-c6c(F)c(F)c(F)c(F)c6F)c6ccc3[nH]6)C=C5)C=C4)cc2)cc1
REMARK SMILES IDX 23 1 22 2 21 3 19 4 20 5 11 7 10 8 8 9 7 10 9 12 6 13 3 14
REMARK SMILES IDX 4 15 95 16 5 17 94 18 2 19 1 20 12 21 13 22 14 23 18 24
REMARK SMILES IDX 15 26 17 27 16 28 24 29 25 30 26 31 27 32 28 33 29 34 30 36
REMARK SMILES IDX 31 37 32 38 93 39 33 40 92 41 34 42 35 43 36 44 86 45 37 46
REMARK SMILES IDX 91 47 85 48 87 49 38 50 90 51 84 52 83 53 39 55 71 56 51 57
REMARK SMILES IDX 70 58 52 59 55 60 69 61 88 62 53 63 54 64 68 66 89 67 56 68
REMARK SMILES IDX 40 69 41 70 49 71 42 72 43 73 47 74 50 75 44 76 45 77 48 78
REMARK SMILES IDX 46 79 72 80 73 81 81 82 74 83 75 84 79 85 82 86 76 87 77 88
REMARK SMILES IDX 80 89 78 90 57 91 58 92 66 93 59 94 60 95 64 96 67 97 61 98
REMARK SMILES IDX 62 99 65 100 63 101
REMARK H PARENT 21 6 7 11 13 25 28 35 87 54 55 65
REMARK Flexibility Score: inf
ROOT
ATOM      1  C   UNL A   1      32.793  28.519  26.831  1.00  0.00     0.021 C 
ENDROOT
BRANCH   1   2
ATOM      2  C   UNL A   1      31.498  27.828  27.305  1.00  0.00     0.116 C 
BRANCH   2   3
ATOM      3  N   UNL A   1      31.058  26.791  26.334  1.00  0.00    -0.356 N 
ATOM      4  C   UNL A   1      31.622  25.536  26.267  1.00  0.00     0.229 C 
ATOM      5  O   UNL A   1      31.403  24.757  27.202  1.00  0.00    -0.275 OA
ATOM      6  H   UNL A   1      30.329  27.011  25.710  1.00  0.00     0.163 HD
BRANCH   4   7
ATOM      7  C   UNL A   1      32.316  25.020  24.965  1.00  0.00     0.142 C 
BRANCH   7   8
ATOM      8  C   UNL A   1      33.389  25.858  24.229  1.00  0.00     0.119 C 
BRANCH   8   9
ATOM      9  C   UNL A   1      33.122  26.027  22.728  1.00  0.00     0.225 C 
ATOM     10  N   UNL A   1      32.153  26.792  22.141  1.00  0.00    -0.326 N 
ATOM     11  H   UNL A   1      32.144  26.706  21.161  1.00  0.00     0.169 HD
ATOM     12  O   UNL A   1      33.905  25.479  21.935  1.00  0.00    -0.275 OA
BRANCH  10  13
ATOM     13  C   UNL A   1      31.167  27.673  22.614  1.00  0.00     0.041 A 
ATOM     14  C   UNL A   1      28.929  29.289  23.191  1.00  0.00     0.119 A 
ATOM     15  C   UNL A   1      30.199  29.860  23.089  1.00  0.00     0.048 A 
ATOM     16  C   UNL A   1      28.825  27.898  23.196  1.00  0.00     0.048 A 
ATOM     17  C   UNL A   1      31.322  29.047  22.785  1.00  0.00     0.030 A 
ATOM     18  C   UNL A   1      29.941  27.094  22.957  1.00  0.00     0.030 A 
BRANCH  14  19
ATOM     19  O   UNL A   1      27.714  29.906  23.185  1.00  0.00    -0.497 OA
ATOM     20  C   UNL A   1      27.553  31.257  23.578  1.00  0.00     0.278 C 
ENDBRANCH  14  19
ENDBRANCH  10  13
ENDBRANCH   8   9
ENDBRANCH   7   8
BRANCH   7  21
ATOM     21  C   UNL A   1      32.523  23.481  25.032  1.00  0.00     0.276 C 
BRANCH  21  22
ATOM     22  N   UNL A   1      33.522  22.753  24.228  1.00  0.00    -0.330 N 
ATOM     23  C   UNL A   1      33.034  21.418  23.834  1.00  0.00     0.291 C 
ATOM     24  C   UNL A   1      34.823  22.505  24.818  1.00  0.00     0.291 C 
ATOM     25  H   UNL A   1      33.646  23.408  23.455  1.00  0.00     0.348 HD
ATOM     26  C   UNL A   1      32.964  20.424  25.016  1.00  0.00     0.221 C 
ATOM     27  C   UNL A   1      34.848  21.531  25.962  1.00  0.00     0.221 C 
ATOM     28  O   UNL A   1      33.616  20.877  26.205  1.00  0.00    -0.370 OA
ENDBRANCH  21  22
ENDBRANCH   7  21
ENDBRANCH   4   7
ENDBRANCH   2   3
ENDBRANCH   1   2
BRANCH   1  29
ATOM     29  C   UNL A   1      32.784  30.058  26.853  1.00  0.00     0.002 C 
BRANCH  29  30
ATOM     30  C   UNL A   1      31.504  30.775  26.400  1.00  0.00     0.002 C 
BRANCH  30  31
ATOM     31  C   UNL A   1      31.393  32.276  26.710  1.00  0.00     0.021 C 
BRANCH  31  32
ATOM     32  C   UNL A   1      32.686  33.004  27.077  1.00  0.00     0.116 C 
BRANCH  32  33
ATOM     33  N   UNL A   1      32.462  34.324  27.647  1.00  0.00    -0.352 N 
ATOM     34  C   UNL A   1      33.045  34.933  28.721  1.00  0.00     0.251 C 
ATOM     35  H   UNL A   1      31.779  34.863  27.186  1.00  0.00     0.163 HD
ATOM     36  O   UNL A   1      32.592  36.014  29.132  1.00  0.00    -0.269 OA
BRANCH  34  37
ATOM     37  C   UNL A   1      34.200  34.330  29.411  1.00  0.00     0.039 A 
ATOM     38  C   UNL A   1      33.979  33.569  30.564  1.00  0.00     0.014 A 
ATOM     39  C   UNL A   1      35.505  34.549  28.960  1.00  0.00     0.014 A 
ATOM     40  C   UNL A   1      35.058  32.993  31.236  1.00  0.00     0.010 A 
ATOM     41  C   UNL A   1      36.572  33.913  29.587  1.00  0.00     0.010 A 
ATOM     42  C   UNL A   1      36.362  33.140  30.739  1.00  0.00    -0.014 A 
BRANCH  42  43
ATOM     43  C   UNL A   1      37.518  32.510  31.423  1.00  0.00     0.031 A 
ATOM     44  C   UNL A   1      38.258  31.378  30.763  1.00  0.00     0.074 A 
ATOM     45  C   UNL A   1      37.863  32.920  32.658  1.00  0.00     0.049 A 
ATOM     46  N   UNL A   1      39.255  30.662  31.219  1.00  0.00    -0.248 NA
ATOM     47  C   UNL A   1      37.796  30.978  29.424  1.00  0.00     0.031 C 
ATOM     48  C   UNL A   1      37.189  33.976  33.415  1.00  0.00     0.029 A 
ATOM     49  N   UNL A   1      38.862  32.495  33.498  1.00  0.00    -0.354 N 
ATOM     50  C   UNL A   1      39.528  29.724  30.231  1.00  0.00     0.074 A 
ATOM     51  C   UNL A   1      38.554  29.920  29.180  1.00  0.00     0.031 C 
ATOM     52  C   UNL A   1      37.807  34.135  34.595  1.00  0.00     0.029 A 
ATOM     53  C   UNL A   1      38.896  33.167  34.695  1.00  0.00     0.049 A 
ATOM     54  H   UNL A   1      39.493  31.777  33.265  1.00  0.00     0.167 HD
ATOM     55  C   UNL A   1      40.519  28.801  30.194  1.00  0.00     0.037 A 
ATOM     56  C   UNL A   1      39.712  33.014  35.756  1.00  0.00     0.037 A 
ATOM     57  C   UNL A   1      41.496  28.628  31.237  1.00  0.00     0.049 A 
ATOM     58  C   UNL A   1      40.802  31.978  35.691  1.00  0.00     0.074 A 
ATOM     59  C   UNL A   1      42.574  27.762  31.277  1.00  0.00     0.029 A 
ATOM     60  N   UNL A   1      41.510  29.339  32.429  1.00  0.00    -0.354 N 
ATOM     61  N   UNL A   1      41.095  31.144  34.723  1.00  0.00    -0.248 NA
ATOM     62  C   UNL A   1      41.680  31.869  36.863  1.00  0.00     0.031 C 
ATOM     63  C   UNL A   1      43.207  27.911  32.515  1.00  0.00     0.029 A 
ATOM     64  C   UNL A   1      42.564  28.914  33.222  1.00  0.00     0.049 A 
ATOM     65  H   UNL A   1      40.865  30.043  32.674  1.00  0.00     0.167 HD
ATOM     66  C   UNL A   1      42.207  30.434  35.153  1.00  0.00     0.074 A 
ATOM     67  C   UNL A   1      42.546  30.949  36.463  1.00  0.00     0.031 C 
ATOM     68  C   UNL A   1      42.888  29.445  34.521  1.00  0.00     0.037 A 
BRANCH  55  69
ATOM     69  C   UNL A   1      40.594  27.907  28.987  1.00  0.00     0.064 A 
ATOM     70  C   UNL A   1      39.829  26.735  28.888  1.00  0.00     0.173 A 
ATOM     71  C   UNL A   1      41.418  28.242  27.902  1.00  0.00     0.173 A 
ATOM     72  F   UNL A   1      39.033  26.360  29.900  1.00  0.00    -0.203 F 
ATOM     73  C   UNL A   1      39.913  25.915  27.764  1.00  0.00     0.198 A 
ATOM     74  C   UNL A   1      41.473  27.438  26.766  1.00  0.00     0.198 A 
ATOM     75  F   UNL A   1      42.168  29.355  27.939  1.00  0.00    -0.203 F 
ATOM     76  F   UNL A   1      39.215  24.771  27.719  1.00  0.00    -0.200 F 
ATOM     77  C   UNL A   1      40.729  26.271  26.702  1.00  0.00     0.200 A 
ATOM     78  F   UNL A   1      42.253  27.792  25.734  1.00  0.00    -0.200 F 
ATOM     79  F   UNL A   1      40.803  25.484  25.620  1.00  0.00    -0.200 F 
ENDBRANCH  55  69
BRANCH  56  80
ATOM     80  C   UNL A   1      39.548  33.881  36.953  1.00  0.00     0.064 A 
ATOM     81  C   UNL A   1      38.820  33.441  38.067  1.00  0.00     0.173 A 
ATOM     82  C   UNL A   1      40.110  35.164  37.008  1.00  0.00     0.173 A 
ATOM     83  F   UNL A   1      38.249  32.228  38.057  1.00  0.00    -0.203 F 
ATOM     84  C   UNL A   1      38.640  34.259  39.180  1.00  0.00     0.198 A 
ATOM     85  C   UNL A   1      39.957  35.970  38.135  1.00  0.00     0.198 A 
ATOM     86  F   UNL A   1      40.824  35.631  35.974  1.00  0.00    -0.203 F 
ATOM     87  F   UNL A   1      37.899  33.832  40.211  1.00  0.00    -0.200 F 
ATOM     88  C   UNL A   1      39.214  35.522  39.216  1.00  0.00     0.200 A 
ATOM     89  F   UNL A   1      40.530  37.181  38.173  1.00  0.00    -0.200 F 
ATOM     90  F   UNL A   1      39.046  36.307  40.289  1.00  0.00    -0.200 F 
ENDBRANCH  56  80
BRANCH  68  91
ATOM     91  C   UNL A   1      44.091  28.884  35.223  1.00  0.00     0.064 A 
ATOM     92  C   UNL A   1      45.376  29.412  35.023  1.00  0.00     0.173 A 
ATOM     93  C   UNL A   1      43.950  27.826  36.134  1.00  0.00     0.173 A 
ATOM     94  F   UNL A   1      45.566  30.414  34.152  1.00  0.00    -0.203 F 
ATOM     95  C   UNL A   1      46.479  28.878  35.685  1.00  0.00     0.198 A 
ATOM     96  C   UNL A   1      45.049  27.320  36.821  1.00  0.00     0.198 A 
ATOM     97  F   UNL A   1      42.742  27.292  36.368  1.00  0.00    -0.203 F 
ATOM     98  F   UNL A   1      47.704  29.361  35.436  1.00  0.00    -0.200 F 
ATOM     99  C   UNL A   1      46.314  27.839  36.588  1.00  0.00     0.200 A 
ATOM    100  F   UNL A   1      44.885  26.327  37.705  1.00  0.00    -0.200 F 
ATOM    101  F   UNL A   1      47.376  27.332  37.230  1.00  0.00    -0.200 F 
ENDBRANCH  68  91
ENDBRANCH  42  43
ENDBRANCH  34  37
ENDBRANCH  32  33
ENDBRANCH  31  32
ENDBRANCH  30  31
ENDBRANCH  29  30
ENDBRANCH   1  29
TORSDOF 19
ENDMDL
MODEL 3
REMARK VINA RESULT:     -11.4      1.371      8.105
REMARK SMILES COc1ccc(NC(=O)C[C@@H](C[NH+]2CCOCC2)C(=O)NCCCCCCNC(=O)c2ccc(-c3c4nc(c(-c5c(F)c(F)c(F)c(F)c5F)c5ccc([nH]5)c(-c5c(F)c(F)c(F)c(F)c5F)c5nc(c(-c6c(F)c(F)c(F)c(F)c6F)c6ccc3[nH]6)C=C5)C=C4)cc2)cc1
REMARK SMILES IDX 23 1 22 2 21 3 19 4 20 5 11 7 10 8 8 9 7 10 9 12 6 13 3 14
REMARK SMILES IDX 4 15 95 16 5 17 94 18 2 19 1 20 12 21 13 22 14 23 18 24
REMARK SMILES IDX 15 26 17 27 16 28 24 29 25 30 26 31 27 32 28 33 29 34 30 36
REMARK SMILES IDX 31 37 32 38 93 39 33 40 92 41 34 42 35 43 36 44 86 45 37 46
REMARK SMILES IDX 91 47 85 48 87 49 38 50 90 51 84 52 83 53 39 55 71 56 51 57
REMARK SMILES IDX 70 58 52 59 55 60 69 61 88 62 53 63 54 64 68 66 89 67 56 68
REMARK SMILES IDX 40 69 41 70 49 71 42 72 43 73 47 74 50 75 44 76 45 77 48 78
REMARK SMILES IDX 46 79 72 80 73 81 81 82 74 83 75 84 79 85 82 86 76 87 77 88
REMARK SMILES IDX 80 89 78 90 57 91 58 92 66 93 59 94 60 95 64 96 67 97 61 98
REMARK SMILES IDX 62 99 65 100 63 101
REMARK H PARENT 21 6 7 11 13 25 28 35 87 54 55 65
REMARK Flexibility Score: inf
ROOT
ATOM      1  C   UNL A   1      33.480  29.601  26.846  1.00  0.00     0.021 C 
ENDROOT
BRANCH   1   2
ATOM      2  C   UNL A   1      33.728  28.081  26.746  1.00  0.00     0.116 C 
BRANCH   2   3
ATOM      3  N   UNL A   1      32.752  27.439  25.826  1.00  0.00    -0.356 N 
ATOM      4  C   UNL A   1      31.955  26.379  26.197  1.00  0.00     0.229 C 
ATOM      5  O   UNL A   1      31.049  26.598  27.009  1.00  0.00    -0.275 OA
ATOM      6  H   UNL A   1      32.671  27.790  24.909  1.00  0.00     0.163 HD
BRANCH   4   7
ATOM      7  C   UNL A   1      32.026  25.005  25.455  1.00  0.00     0.142 C 
BRANCH   7   8
ATOM      8  C   UNL A   1      30.843  24.008  25.475  1.00  0.00     0.119 C 
BRANCH   8   9
ATOM      9  C   UNL A   1      30.854  23.056  26.678  1.00  0.00     0.225 C 
ATOM     10  N   UNL A   1      31.789  22.105  26.971  1.00  0.00    -0.326 N 
ATOM     11  H   UNL A   1      31.559  21.581  27.771  1.00  0.00     0.169 HD
ATOM     12  O   UNL A   1      29.965  23.196  27.534  1.00  0.00    -0.275 OA
BRANCH  10  13
ATOM     13  C   UNL A   1      33.004  21.701  26.393  1.00  0.00     0.041 A 
ATOM     14  C   UNL A   1      35.522  21.358  25.170  1.00  0.00     0.119 A 
ATOM     15  C   UNL A   1      34.405  20.678  24.680  1.00  0.00     0.048 A 
ATOM     16  C   UNL A   1      35.403  22.043  26.379  1.00  0.00     0.048 A 
ATOM     17  C   UNL A   1      33.136  20.863  25.287  1.00  0.00     0.030 A 
ATOM     18  C   UNL A   1      34.165  22.176  27.010  1.00  0.00     0.030 A 
BRANCH  14  19
ATOM     19  O   UNL A   1      36.734  21.546  24.577  1.00  0.00    -0.497 OA
ATOM     20  C   UNL A   1      37.938  21.596  25.320  1.00  0.00     0.278 C 
ENDBRANCH  14  19
ENDBRANCH  10  13
ENDBRANCH   8   9
ENDBRANCH   7   8
BRANCH   7  21
ATOM     21  C   UNL A   1      32.832  25.142  24.132  1.00  0.00     0.276 C 
BRANCH  21  22
ATOM     22  N   UNL A   1      32.210  25.205  22.796  1.00  0.00    -0.330 N 
ATOM     23  C   UNL A   1      33.160  25.690  21.777  1.00  0.00     0.291 C 
ATOM     24  C   UNL A   1      31.037  26.041  22.629  1.00  0.00     0.291 C 
ATOM     25  H   UNL A   1      31.923  24.232  22.684  1.00  0.00     0.348 HD
ATOM     26  C   UNL A   1      33.485  27.194  21.918  1.00  0.00     0.221 C 
ATOM     27  C   UNL A   1      31.270  27.522  22.728  1.00  0.00     0.221 C 
ATOM     28  O   UNL A   1      32.632  27.899  22.823  1.00  0.00    -0.370 OA
ENDBRANCH  21  22
ENDBRANCH   7  21
ENDBRANCH   4   7
ENDBRANCH   2   3
ENDBRANCH   1   2
BRANCH   1  29
ATOM     29  C   UNL A   1      32.025  30.032  27.106  1.00  0.00     0.002 C 
BRANCH  29  30
ATOM     30  C   UNL A   1      31.373  30.999  26.107  1.00  0.00     0.002 C 
BRANCH  30  31
ATOM     31  C   UNL A   1      31.341  32.487  26.489  1.00  0.00     0.021 C 
BRANCH  31  32
ATOM     32  C   UNL A   1      32.601  33.062  27.137  1.00  0.00     0.116 C 
BRANCH  32  33
ATOM     33  N   UNL A   1      32.408  34.395  27.687  1.00  0.00    -0.352 N 
ATOM     34  C   UNL A   1      33.017  35.013  28.742  1.00  0.00     0.251 C 
ATOM     35  H   UNL A   1      31.728  34.938  27.227  1.00  0.00     0.163 HD
ATOM     36  O   UNL A   1      32.589  36.108  29.140  1.00  0.00    -0.269 OA
BRANCH  34  37
ATOM     37  C   UNL A   1      34.172  34.402  29.425  1.00  0.00     0.039 A 
ATOM     38  C   UNL A   1      33.959  33.688  30.609  1.00  0.00     0.014 A 
ATOM     39  C   UNL A   1      35.471  34.568  28.936  1.00  0.00     0.014 A 
ATOM     40  C   UNL A   1      35.037  33.105  31.276  1.00  0.00     0.010 A 
ATOM     41  C   UNL A   1      36.536  33.924  29.560  1.00  0.00     0.010 A 
ATOM     42  C   UNL A   1      36.332  33.198  30.743  1.00  0.00    -0.014 A 
BRANCH  42  43
ATOM     43  C   UNL A   1      37.488  32.559  31.422  1.00  0.00     0.031 A 
ATOM     44  C   UNL A   1      38.215  31.421  30.759  1.00  0.00     0.074 A 
ATOM     45  C   UNL A   1      37.842  32.968  32.655  1.00  0.00     0.049 A 
ATOM     46  N   UNL A   1      39.209  30.698  31.210  1.00  0.00    -0.248 NA
ATOM     47  C   UNL A   1      37.744  31.024  29.423  1.00  0.00     0.031 C 
ATOM     48  C   UNL A   1      37.180  34.029  33.414  1.00  0.00     0.029 A 
ATOM     49  N   UNL A   1      38.842  32.536  33.489  1.00  0.00    -0.354 N 
ATOM     50  C   UNL A   1      39.470  29.757  30.222  1.00  0.00     0.074 A 
ATOM     51  C   UNL A   1      38.492  29.960  29.175  1.00  0.00     0.031 C 
ATOM     52  C   UNL A   1      37.806  34.185  34.591  1.00  0.00     0.029 A 
ATOM     53  C   UNL A   1      38.887  33.209  34.686  1.00  0.00     0.049 A 
ATOM     54  H   UNL A   1      39.466  31.813  33.254  1.00  0.00     0.167 HD
ATOM     55  C   UNL A   1      40.453  28.826  30.180  1.00  0.00     0.037 A 
ATOM     56  C   UNL A   1      39.707  33.051  35.742  1.00  0.00     0.037 A 
ATOM     57  C   UNL A   1      41.434  28.647  31.218  1.00  0.00     0.049 A 
ATOM     58  C   UNL A   1      40.789  32.006  35.673  1.00  0.00     0.074 A 
ATOM     59  C   UNL A   1      42.506  27.773  31.254  1.00  0.00     0.029 A 
ATOM     60  N   UNL A   1      41.460  29.359  32.410  1.00  0.00    -0.354 N 
ATOM     61  N   UNL A   1      41.071  31.169  34.704  1.00  0.00    -0.248 NA
ATOM     62  C   UNL A   1      41.673  31.891  36.840  1.00  0.00     0.031 C 
ATOM     63  C   UNL A   1      43.147  27.918  32.488  1.00  0.00     0.029 A 
ATOM     64  C   UNL A   1      42.514  28.926  33.197  1.00  0.00     0.049 A 
ATOM     65  H   UNL A   1      40.822  30.068  32.658  1.00  0.00     0.167 HD
ATOM     66  C   UNL A   1      42.179  30.451  35.129  1.00  0.00     0.074 A 
ATOM     67  C   UNL A   1      42.529  30.965  36.437  1.00  0.00     0.031 C 
ATOM     68  C   UNL A   1      42.849  29.456  34.495  1.00  0.00     0.037 A 
BRANCH  55  69
ATOM     69  C   UNL A   1      40.515  27.931  28.974  1.00  0.00     0.064 A 
ATOM     70  C   UNL A   1      39.771  26.744  28.897  1.00  0.00     0.173 A 
ATOM     71  C   UNL A   1      41.305  28.280  27.867  1.00  0.00     0.173 A 
ATOM     72  F   UNL A   1      39.008  26.356  29.930  1.00  0.00    -0.203 F 
ATOM     73  C   UNL A   1      39.842  25.922  27.773  1.00  0.00     0.198 A 
ATOM     74  C   UNL A   1      41.347  27.474  26.732  1.00  0.00     0.198 A 
ATOM     75  F   UNL A   1      42.033  29.407  27.883  1.00  0.00    -0.203 F 
ATOM     76  F   UNL A   1      39.167  24.765  27.748  1.00  0.00    -0.200 F 
ATOM     77  C   UNL A   1      40.624  26.292  26.690  1.00  0.00     0.200 A 
ATOM     78  F   UNL A   1      42.092  27.840  25.680  1.00  0.00    -0.200 F 
ATOM     79  F   UNL A   1      40.686  25.504  25.607  1.00  0.00    -0.200 F 
ENDBRANCH  55  69
BRANCH  56  80
ATOM     80  C   UNL A   1      39.556  33.920  36.940  1.00  0.00     0.064 A 
ATOM     81  C   UNL A   1      40.171  35.179  36.999  1.00  0.00     0.173 A 
ATOM     82  C   UNL A   1      38.799  33.514  38.047  1.00  0.00     0.173 A 
ATOM     83  F   UNL A   1      40.919  35.607  35.971  1.00  0.00    -0.203 F 
ATOM     84  C   UNL A   1      40.055  35.986  38.128  1.00  0.00     0.198 A 
ATOM     85  C   UNL A   1      38.657  34.335  39.164  1.00  0.00     0.198 A 
ATOM     86  F   UNL A   1      38.181  32.324  38.040  1.00  0.00    -0.203 F 
ATOM     87  F   UNL A   1      40.693  37.163  38.177  1.00  0.00    -0.200 F 
ATOM     88  C   UNL A   1      39.293  35.566  39.208  1.00  0.00     0.200 A 
ATOM     89  F   UNL A   1      37.903  33.933  40.197  1.00  0.00    -0.200 F 
ATOM     90  F   UNL A   1      39.176  36.345  40.292  1.00  0.00    -0.200 F 
ENDBRANCH  56  80
BRANCH  68  91
ATOM     91  C   UNL A   1      44.052  28.887  35.191  1.00  0.00     0.064 A 
ATOM     92  C   UNL A   1      43.952  27.792  36.062  1.00  0.00     0.173 A 
ATOM     93  C   UNL A   1      45.327  29.423  34.955  1.00  0.00     0.173 A 
ATOM     94  F   UNL A   1      42.754  27.251  36.333  1.00  0.00    -0.203 F 
ATOM     95  C   UNL A   1      45.080  27.277  36.697  1.00  0.00     0.198 A 
ATOM     96  C   UNL A   1      46.456  28.883  35.562  1.00  0.00     0.198 A 
ATOM     97  F   UNL A   1      45.479  30.465  34.123  1.00  0.00    -0.203 F 
ATOM     98  F   UNL A   1      44.953  26.267  37.568  1.00  0.00    -0.200 F 
ATOM     99  C   UNL A   1      46.331  27.818  36.440  1.00  0.00     0.200 A 
ATOM    100  F   UNL A   1      47.666  29.396  35.300  1.00  0.00    -0.200 F 
ATOM    101  F   UNL A   1      47.416  27.315  37.045  1.00  0.00    -0.200 F 
ENDBRANCH  68  91
ENDBRANCH  42  43
ENDBRANCH  34  37
ENDBRANCH  32  33
ENDBRANCH  31  32
ENDBRANCH  30  31
ENDBRANCH  29  30
ENDBRANCH   1  29
TORSDOF 19
ENDMDL
