MODEL 1
REMARK VINA RESULT:     -12.5      0.000      0.000
REMARK SMILES C[C@H](NC(=O)NCCc1ccccc1F)C(=O)NCCCCCCNC(=O)c1ccc(-c2c3nc(c(-c4c(F)c(F)c(F)c(F)c4F)c4ccc([nH]4)c(-c4c(F)c(F)c(F)c(F)c4F)c4nc(c(-c5c(F)c(F)c(F)c(F)c5F)c5ccc2[nH]5)C=C4)C=C3)cc1
REMARK SMILES IDX 20 1 19 2 18 3 16 4 17 5 2 7 1 8 3 9 4 10 5 12 6 13 7 15
REMARK SMILES IDX 8 16 9 17 10 18 14 19 11 20 13 21 15 22 12 23 21 24 22 25
REMARK SMILES IDX 23 26 24 27 25 28 26 29 27 31 28 32 29 33 90 34 30 35 89 36
REMARK SMILES IDX 31 37 32 38 33 39 83 40 34 41 88 42 82 43 84 44 35 45 87 46
REMARK SMILES IDX 81 47 80 48 36 50 68 51 48 52 67 53 49 54 52 55 66 56 85 57
REMARK SMILES IDX 50 58 51 59 65 61 86 62 53 63 37 64 38 65 46 66 39 67 40 68
REMARK SMILES IDX 44 69 47 70 41 71 42 72 45 73 43 74 69 75 70 76 78 77 71 78
REMARK SMILES IDX 72 79 76 80 79 81 73 82 74 83 77 84 75 85 54 86 55 87 63 88
REMARK SMILES IDX 56 89 57 90 61 91 64 92 58 93 59 94 62 95 60 96
REMARK H PARENT 18 6 3 11 6 14 25 30 84 49 52 60
REMARK Flexibility Score: inf
ROOT
ATOM      1  C   UNL A   1      32.887  28.466  26.326  1.00  0.00     0.021 C 
ENDROOT
BRANCH   1   2
ATOM      2  C   UNL A   1      32.154  27.134  26.353  1.00  0.00     0.116 C 
BRANCH   2   3
ATOM      3  N   UNL A   1      30.918  27.218  25.589  1.00  0.00    -0.354 N 
ATOM      4  C   UNL A   1      30.282  26.257  24.851  1.00  0.00     0.242 C 
ATOM      5  O   UNL A   1      29.212  26.535  24.311  1.00  0.00    -0.273 OA
ATOM      6  H   UNL A   1      30.474  28.097  25.604  1.00  0.00     0.163 HD
BRANCH   4   7
ATOM      7  C   UNL A   1      30.846  24.823  24.853  1.00  0.00     0.170 C 
ATOM      8  C   UNL A   1      30.629  24.335  23.419  1.00  0.00     0.041 C 
BRANCH   7   9
ATOM      9  N   UNL A   1      30.218  24.138  26.004  1.00  0.00    -0.327 N 
ATOM     10  C   UNL A   1      30.374  23.096  26.818  1.00  0.00     0.315 C 
ATOM     11  H   UNL A   1      29.398  24.622  26.255  1.00  0.00     0.166 HD
ATOM     12  O   UNL A   1      29.519  22.930  27.690  1.00  0.00    -0.249 OA
ATOM     13  N   UNL A   1      31.364  22.206  26.731  1.00  0.00    -0.338 N 
ATOM     14  H   UNL A   1      31.335  21.485  27.401  1.00  0.00     0.165 HD
BRANCH  13  15
ATOM     15  C   UNL A   1      32.464  22.138  25.812  1.00  0.00     0.122 C 
BRANCH  15  16
ATOM     16  C   UNL A   1      32.195  21.416  24.503  1.00  0.00     0.060 C 
BRANCH  16  17
ATOM     17  C   UNL A   1      32.453  19.937  24.400  1.00  0.00    -0.010 A 
ATOM     18  C   UNL A   1      32.811  19.100  25.463  1.00  0.00     0.007 A 
ATOM     19  C   UNL A   1      32.352  19.373  23.121  1.00  0.00     0.126 A 
ATOM     20  C   UNL A   1      33.084  17.746  25.231  1.00  0.00     0.000 A 
ATOM     21  C   UNL A   1      32.615  18.031  22.884  1.00  0.00     0.039 A 
ATOM     22  F   UNL A   1      31.990  20.149  22.087  1.00  0.00    -0.207 F 
ATOM     23  C   UNL A   1      32.993  17.214  23.943  1.00  0.00     0.003 A 
ENDBRANCH  16  17
ENDBRANCH  15  16
ENDBRANCH  13  15
ENDBRANCH   7   9
ENDBRANCH   4   7
ENDBRANCH   2   3
ENDBRANCH   1   2
BRANCH   1  24
ATOM     24  C   UNL A   1      32.087  29.583  26.999  1.00  0.00     0.002 C 
BRANCH  24  25
ATOM     25  C   UNL A   1      31.685  30.718  26.050  1.00  0.00     0.002 C 
BRANCH  25  26
ATOM     26  C   UNL A   1      31.426  32.057  26.744  1.00  0.00     0.021 C 
BRANCH  26  27
ATOM     27  C   UNL A   1      32.682  32.716  27.301  1.00  0.00     0.116 C 
BRANCH  27  28
ATOM     28  N   UNL A   1      32.453  34.114  27.629  1.00  0.00    -0.352 N 
ATOM     29  C   UNL A   1      33.014  34.873  28.622  1.00  0.00     0.251 C 
ATOM     30  H   UNL A   1      31.803  34.582  27.056  1.00  0.00     0.163 HD
ATOM     31  O   UNL A   1      32.553  35.969  28.905  1.00  0.00    -0.269 OA
BRANCH  29  32
ATOM     32  C   UNL A   1      34.175  34.342  29.361  1.00  0.00     0.039 A 
ATOM     33  C   UNL A   1      33.965  33.740  30.602  1.00  0.00     0.014 A 
ATOM     34  C   UNL A   1      35.463  34.432  28.822  1.00  0.00     0.014 A 
ATOM     35  C   UNL A   1      35.045  33.178  31.281  1.00  0.00     0.010 A 
ATOM     36  C   UNL A   1      36.523  33.803  29.462  1.00  0.00     0.010 A 
ATOM     37  C   UNL A   1      36.325  33.174  30.700  1.00  0.00    -0.014 A 
BRANCH  37  38
ATOM     38  C   UNL A   1      37.466  32.509  31.374  1.00  0.00     0.031 A 
ATOM     39  C   UNL A   1      38.180  31.370  30.705  1.00  0.00     0.074 A 
ATOM     40  C   UNL A   1      37.823  32.904  32.611  1.00  0.00     0.049 A 
ATOM     41  N   UNL A   1      39.169  30.639  31.154  1.00  0.00    -0.248 NA
ATOM     42  C   UNL A   1      37.709  30.984  29.365  1.00  0.00     0.031 C 
ATOM     43  C   UNL A   1      37.174  33.971  33.375  1.00  0.00     0.029 A 
ATOM     44  N   UNL A   1      38.817  32.457  33.443  1.00  0.00    -0.354 N 
ATOM     45  C   UNL A   1      39.432  29.711  30.158  1.00  0.00     0.074 A 
ATOM     46  C   UNL A   1      38.464  29.926  29.106  1.00  0.00     0.031 C 
ATOM     47  C   UNL A   1      37.809  34.120  34.547  1.00  0.00     0.029 A 
ATOM     48  C   UNL A   1      38.879  33.131  34.638  1.00  0.00     0.049 A 
ATOM     49  H   UNL A   1      39.428  31.722  33.206  1.00  0.00     0.167 HD
ATOM     50  C   UNL A   1      40.414  28.780  30.115  1.00  0.00     0.037 A 
ATOM     51  C   UNL A   1      39.703  32.967  35.692  1.00  0.00     0.037 A 
ATOM     52  C   UNL A   1      41.388  28.586  31.157  1.00  0.00     0.049 A 
ATOM     53  C   UNL A   1      40.769  31.908  35.629  1.00  0.00     0.074 A 
ATOM     54  C   UNL A   1      42.455  27.705  31.183  1.00  0.00     0.029 A 
ATOM     55  N   UNL A   1      41.411  29.280  32.358  1.00  0.00    -0.354 N 
ATOM     56  N   UNL A   1      41.048  31.073  34.657  1.00  0.00    -0.248 NA
ATOM     57  C   UNL A   1      41.638  31.769  36.806  1.00  0.00     0.031 C 
ATOM     58  C   UNL A   1      43.088  27.824  32.423  1.00  0.00     0.029 A 
ATOM     59  C   UNL A   1      42.458  28.825  33.145  1.00  0.00     0.049 A 
ATOM     60  H   UNL A   1      40.779  29.990  32.613  1.00  0.00     0.167 HD
ATOM     61  C   UNL A   1      42.134  30.327  35.093  1.00  0.00     0.074 A 
ATOM     62  C   UNL A   1      42.474  30.818  36.412  1.00  0.00     0.031 C 
ATOM     63  C   UNL A   1      42.787  29.326  34.456  1.00  0.00     0.037 A 
BRANCH  50  64
ATOM     64  C   UNL A   1      40.502  27.904  28.898  1.00  0.00     0.064 A 
ATOM     65  C   UNL A   1      41.261  28.304  27.788  1.00  0.00     0.173 A 
ATOM     66  C   UNL A   1      39.772  26.710  28.799  1.00  0.00     0.173 A 
ATOM     67  F   UNL A   1      41.975  29.439  27.827  1.00  0.00    -0.203 F 
ATOM     68  C   UNL A   1      41.272  27.548  26.618  1.00  0.00     0.198 A 
ATOM     69  C   UNL A   1      39.811  25.941  27.639  1.00  0.00     0.198 A 
ATOM     70  F   UNL A   1      39.039  26.279  29.836  1.00  0.00    -0.203 F 
ATOM     71  F   UNL A   1      41.974  27.968  25.557  1.00  0.00    -0.200 F 
ATOM     72  C   UNL A   1      40.550  26.366  26.546  1.00  0.00     0.200 A 
ATOM     73  F   UNL A   1      39.132  24.786  27.581  1.00  0.00    -0.200 F 
ATOM     74  F   UNL A   1      40.568  25.636  25.422  1.00  0.00    -0.200 F 
ENDBRANCH  50  64
BRANCH  51  75
ATOM     75  C   UNL A   1      39.563  33.854  36.875  1.00  0.00     0.064 A 
ATOM     76  C   UNL A   1      38.785  33.482  37.981  1.00  0.00     0.173 A 
ATOM     77  C   UNL A   1      40.175  35.115  36.903  1.00  0.00     0.173 A 
ATOM     78  F   UNL A   1      38.173  32.290  38.001  1.00  0.00    -0.203 F 
ATOM     79  C   UNL A   1      38.605  34.347  39.059  1.00  0.00     0.198 A 
ATOM     80  C   UNL A   1      40.019  35.967  37.994  1.00  0.00     0.198 A 
ATOM     81  F   UNL A   1      40.944  35.509  35.877  1.00  0.00    -0.203 F 
ATOM     82  F   UNL A   1      37.822  33.983  40.084  1.00  0.00    -0.200 F 
ATOM     83  C   UNL A   1      39.225  35.587  39.067  1.00  0.00     0.200 A 
ATOM     84  F   UNL A   1      40.639  37.154  38.009  1.00  0.00    -0.200 F 
ATOM     85  F   UNL A   1      39.059  36.414  40.107  1.00  0.00    -0.200 F 
ENDBRANCH  51  75
BRANCH  63  86
ATOM     86  C   UNL A   1      43.954  28.693  35.160  1.00  0.00     0.064 A 
ATOM     87  C   UNL A   1      43.761  27.585  35.998  1.00  0.00     0.173 A 
ATOM     88  C   UNL A   1      45.243  29.237  35.077  1.00  0.00     0.173 A 
ATOM     89  F   UNL A   1      42.544  27.032  36.121  1.00  0.00    -0.203 F 
ATOM     90  C   UNL A   1      44.811  27.058  36.744  1.00  0.00     0.198 A 
ATOM     91  C   UNL A   1      46.299  28.687  35.798  1.00  0.00     0.198 A 
ATOM     92  F   UNL A   1      45.482  30.289  34.279  1.00  0.00    -0.203 F 
ATOM     93  F   UNL A   1      44.593  26.027  37.572  1.00  0.00    -0.200 F 
ATOM     94  C   UNL A   1      46.080  27.607  36.640  1.00  0.00     0.200 A 
ATOM     95  F   UNL A   1      47.530  29.203  35.677  1.00  0.00    -0.200 F 
ATOM     96  F   UNL A   1      47.094  27.094  37.352  1.00  0.00    -0.200 F 
ENDBRANCH  63  86
ENDBRANCH  37  38
ENDBRANCH  29  32
ENDBRANCH  27  28
ENDBRANCH  26  27
ENDBRANCH  25  26
ENDBRANCH  24  25
ENDBRANCH   1  24
TORSDOF 17
ENDMDL
MODEL 2
REMARK VINA RESULT:     -12.3      1.676      2.206
REMARK SMILES C[C@H](NC(=O)NCCc1ccccc1F)C(=O)NCCCCCCNC(=O)c1ccc(-c2c3nc(c(-c4c(F)c(F)c(F)c(F)c4F)c4ccc([nH]4)c(-c4c(F)c(F)c(F)c(F)c4F)c4nc(c(-c5c(F)c(F)c(F)c(F)c5F)c5ccc2[nH]5)C=C4)C=C3)cc1
REMARK SMILES IDX 20 1 19 2 18 3 16 4 17 5 2 7 1 8 3 9 4 10 5 12 6 13 7 15
REMARK SMILES IDX 8 16 9 17 10 18 14 19 11 20 13 21 15 22 12 23 21 24 22 25
REMARK SMILES IDX 23 26 24 27 25 28 26 29 27 31 28 32 29 33 90 34 30 35 89 36
REMARK SMILES IDX 31 37 32 38 33 39 83 40 34 41 88 42 82 43 84 44 35 45 87 46
REMARK SMILES IDX 81 47 80 48 36 50 68 51 48 52 67 53 49 54 52 55 66 56 85 57
REMARK SMILES IDX 50 58 51 59 65 61 86 62 53 63 37 64 38 65 46 66 39 67 40 68
REMARK SMILES IDX 44 69 47 70 41 71 42 72 45 73 43 74 69 75 70 76 78 77 71 78
REMARK SMILES IDX 72 79 76 80 79 81 73 82 74 83 77 84 75 85 54 86 55 87 63 88
REMARK SMILES IDX 56 89 57 90 61 91 64 92 58 93 59 94 62 95 60 96
REMARK H PARENT 18 6 3 11 6 14 25 30 84 49 52 60
REMARK Flexibility Score: inf
ROOT
ATOM      1  C   UNL A   1      32.733  28.395  26.418  1.00  0.00     0.021 C 
ENDROOT
BRANCH   1   2
ATOM      2  C   UNL A   1      32.002  27.257  25.722  1.00  0.00     0.116 C 
BRANCH   2   3
ATOM      3  N   UNL A   1      31.306  27.747  24.542  1.00  0.00    -0.354 N 
ATOM      4  C   UNL A   1      31.769  27.920  23.266  1.00  0.00     0.242 C 
ATOM      5  O   UNL A   1      30.988  28.314  22.399  1.00  0.00    -0.273 OA
ATOM      6  H   UNL A   1      30.362  27.991  24.682  1.00  0.00     0.163 HD
BRANCH   4   7
ATOM      7  C   UNL A   1      33.202  27.468  22.927  1.00  0.00     0.170 C 
ATOM      8  C   UNL A   1      34.043  28.736  23.093  1.00  0.00     0.041 C 
BRANCH   7   9
ATOM      9  N   UNL A   1      33.113  26.768  21.627  1.00  0.00    -0.327 N 
ATOM     10  C   UNL A   1      32.832  25.581  21.091  1.00  0.00     0.315 C 
ATOM     11  H   UNL A   1      33.342  27.399  20.907  1.00  0.00     0.166 HD
ATOM     12  O   UNL A   1      32.901  25.487  19.864  1.00  0.00    -0.249 OA
ATOM     13  N   UNL A   1      32.519  24.487  21.788  1.00  0.00    -0.338 N 
ATOM     14  H   UNL A   1      32.348  23.684  21.247  1.00  0.00     0.165 HD
BRANCH  13  15
ATOM     15  C   UNL A   1      32.393  24.303  23.205  1.00  0.00     0.122 C 
BRANCH  15  16
ATOM     16  C   UNL A   1      32.810  22.943  23.740  1.00  0.00     0.060 C 
BRANCH  16  17
ATOM     17  C   UNL A   1      34.270  22.626  23.916  1.00  0.00    -0.010 A 
ATOM     18  C   UNL A   1      35.331  23.376  23.396  1.00  0.00     0.007 A 
ATOM     19  C   UNL A   1      34.574  21.462  24.636  1.00  0.00     0.126 A 
ATOM     20  C   UNL A   1      36.651  22.945  23.577  1.00  0.00     0.000 A 
ATOM     21  C   UNL A   1      35.879  21.032  24.824  1.00  0.00     0.039 A 
ATOM     22  F   UNL A   1      33.576  20.736  25.163  1.00  0.00    -0.207 F 
ATOM     23  C   UNL A   1      36.925  21.772  24.284  1.00  0.00     0.003 A 
ENDBRANCH  16  17
ENDBRANCH  15  16
ENDBRANCH  13  15
ENDBRANCH   7   9
ENDBRANCH   4   7
ENDBRANCH   2   3
ENDBRANCH   1   2
BRANCH   1  24
ATOM     24  C   UNL A   1      31.777  29.481  26.914  1.00  0.00     0.002 C 
BRANCH  24  25
ATOM     25  C   UNL A   1      31.759  30.740  26.040  1.00  0.00     0.002 C 
BRANCH  25  26
ATOM     26  C   UNL A   1      31.502  32.038  26.808  1.00  0.00     0.021 C 
BRANCH  26  27
ATOM     27  C   UNL A   1      32.771  32.747  27.264  1.00  0.00     0.116 C 
BRANCH  27  28
ATOM     28  N   UNL A   1      32.511  34.132  27.625  1.00  0.00    -0.352 N 
ATOM     29  C   UNL A   1      33.040  34.874  28.647  1.00  0.00     0.251 C 
ATOM     30  H   UNL A   1      31.863  34.603  27.053  1.00  0.00     0.163 HD
ATOM     31  O   UNL A   1      32.555  35.954  28.950  1.00  0.00    -0.269 OA
BRANCH  29  32
ATOM     32  C   UNL A   1      34.198  34.344  29.393  1.00  0.00     0.039 A 
ATOM     33  C   UNL A   1      33.973  33.669  30.593  1.00  0.00     0.014 A 
ATOM     34  C   UNL A   1      35.496  34.507  28.900  1.00  0.00     0.014 A 
ATOM     35  C   UNL A   1      35.052  33.109  31.275  1.00  0.00     0.010 A 
ATOM     36  C   UNL A   1      36.560  33.880  29.538  1.00  0.00     0.010 A 
ATOM     37  C   UNL A   1      36.348  33.180  30.735  1.00  0.00    -0.014 A 
BRANCH  37  38
ATOM     38  C   UNL A   1      37.492  32.519  31.408  1.00  0.00     0.031 A 
ATOM     39  C   UNL A   1      38.227  31.401  30.726  1.00  0.00     0.074 A 
ATOM     40  C   UNL A   1      37.834  32.898  32.653  1.00  0.00     0.049 A 
ATOM     41  N   UNL A   1      39.221  30.675  31.172  1.00  0.00    -0.248 NA
ATOM     42  C   UNL A   1      37.772  31.030  29.377  1.00  0.00     0.031 C 
ATOM     43  C   UNL A   1      37.164  33.944  33.430  1.00  0.00     0.029 A 
ATOM     44  N   UNL A   1      38.826  32.451  33.487  1.00  0.00    -0.354 N 
ATOM     45  C   UNL A   1      39.505  29.766  30.164  1.00  0.00     0.074 A 
ATOM     46  C   UNL A   1      38.543  29.986  29.107  1.00  0.00     0.031 C 
ATOM     47  C   UNL A   1      37.787  34.082  34.609  1.00  0.00     0.029 A 
ATOM     48  C   UNL A   1      38.869  33.106  34.693  1.00  0.00     0.049 A 
ATOM     49  H   UNL A   1      39.449  31.728  33.244  1.00  0.00     0.167 HD
ATOM     50  C   UNL A   1      40.500  28.849  30.115  1.00  0.00     0.037 A 
ATOM     51  C   UNL A   1      39.686  32.936  35.751  1.00  0.00     0.037 A 
ATOM     52  C   UNL A   1      41.467  28.651  31.161  1.00  0.00     0.049 A 
ATOM     53  C   UNL A   1      40.766  31.893  35.681  1.00  0.00     0.074 A 
ATOM     54  C   UNL A   1      42.545  27.784  31.183  1.00  0.00     0.029 A 
ATOM     55  N   UNL A   1      41.471  29.326  32.373  1.00  0.00    -0.354 N 
ATOM     56  N   UNL A   1      41.065  31.077  34.698  1.00  0.00    -0.248 NA
ATOM     57  C   UNL A   1      41.627  31.745  36.863  1.00  0.00     0.031 C 
ATOM     58  C   UNL A   1      43.166  27.891  32.429  1.00  0.00     0.029 A 
ATOM     59  C   UNL A   1      42.517  28.872  33.162  1.00  0.00     0.049 A 
ATOM     60  H   UNL A   1      40.827  30.024  32.635  1.00  0.00     0.167 HD
ATOM     61  C   UNL A   1      42.157  30.338  35.131  1.00  0.00     0.074 A 
ATOM     62  C   UNL A   1      42.479  30.812  36.461  1.00  0.00     0.031 C 
ATOM     63  C   UNL A   1      42.828  29.356  34.484  1.00  0.00     0.037 A 
BRANCH  50  64
ATOM     64  C   UNL A   1      40.609  27.995  28.885  1.00  0.00     0.064 A 
ATOM     65  C   UNL A   1      41.364  28.427  27.783  1.00  0.00     0.173 A 
ATOM     66  C   UNL A   1      39.904  26.788  28.764  1.00  0.00     0.173 A 
ATOM     67  F   UNL A   1      42.054  29.575  27.843  1.00  0.00    -0.203 F 
ATOM     68  C   UNL A   1      41.393  27.689  26.602  1.00  0.00     0.198 A 
ATOM     69  C   UNL A   1      39.962  26.038  27.592  1.00  0.00     0.198 A 
ATOM     70  F   UNL A   1      39.176  26.326  29.792  1.00  0.00    -0.203 F 
ATOM     71  F   UNL A   1      42.090  28.141  25.550  1.00  0.00    -0.200 F 
ATOM     72  C   UNL A   1      40.696  26.495  26.509  1.00  0.00     0.200 A 
ATOM     73  F   UNL A   1      39.308  24.871  27.514  1.00  0.00    -0.200 F 
ATOM     74  F   UNL A   1      40.733  25.782  25.374  1.00  0.00    -0.200 F 
ENDBRANCH  50  64
BRANCH  51  75
ATOM     75  C   UNL A   1      39.525  33.802  36.947  1.00  0.00     0.064 A 
ATOM     76  C   UNL A   1      38.737  33.405  38.038  1.00  0.00     0.173 A 
ATOM     77  C   UNL A   1      40.125  35.067  37.004  1.00  0.00     0.173 A 
ATOM     78  F   UNL A   1      38.135  32.207  38.031  1.00  0.00    -0.203 F 
ATOM     79  C   UNL A   1      38.536  34.249  39.128  1.00  0.00     0.198 A 
ATOM     80  C   UNL A   1      39.948  35.899  38.107  1.00  0.00     0.198 A 
ATOM     81  F   UNL A   1      40.903  35.485  35.994  1.00  0.00    -0.203 F 
ATOM     82  F   UNL A   1      37.745  33.862  40.137  1.00  0.00    -0.200 F 
ATOM     83  C   UNL A   1      39.146  35.495  39.164  1.00  0.00     0.200 A 
ATOM     84  F   UNL A   1      40.558  37.092  38.149  1.00  0.00    -0.200 F 
ATOM     85  F   UNL A   1      38.960  36.303  40.215  1.00  0.00    -0.200 F 
ENDBRANCH  51  75
BRANCH  63  86
ATOM     86  C   UNL A   1      43.997  28.727  35.188  1.00  0.00     0.064 A 
ATOM     87  C   UNL A   1      43.801  27.650  36.066  1.00  0.00     0.173 A 
ATOM     88  C   UNL A   1      45.293  29.245  35.064  1.00  0.00     0.173 A 
ATOM     89  F   UNL A   1      42.578  27.123  36.229  1.00  0.00    -0.203 F 
ATOM     90  C   UNL A   1      44.857  27.130  36.810  1.00  0.00     0.198 A 
ATOM     91  C   UNL A   1      46.354  28.702  35.784  1.00  0.00     0.198 A 
ATOM     92  F   UNL A   1      45.535  30.267  34.226  1.00  0.00    -0.203 F 
ATOM     93  F   UNL A   1      44.637  26.132  37.676  1.00  0.00    -0.200 F 
ATOM     94  C   UNL A   1      46.132  27.654  36.665  1.00  0.00     0.200 A 
ATOM     95  F   UNL A   1      47.590  29.192  35.623  1.00  0.00    -0.200 F 
ATOM     96  F   UNL A   1      47.150  27.148  37.376  1.00  0.00    -0.200 F 
ENDBRANCH  63  86
ENDBRANCH  37  38
ENDBRANCH  29  32
ENDBRANCH  27  28
ENDBRANCH  26  27
ENDBRANCH  25  26
ENDBRANCH  24  25
ENDBRANCH   1  24
TORSDOF 17
ENDMDL
MODEL 3
REMARK VINA RESULT:     -12.3      1.204      7.625
REMARK SMILES C[C@H](NC(=O)NCCc1ccccc1F)C(=O)NCCCCCCNC(=O)c1ccc(-c2c3nc(c(-c4c(F)c(F)c(F)c(F)c4F)c4ccc([nH]4)c(-c4c(F)c(F)c(F)c(F)c4F)c4nc(c(-c5c(F)c(F)c(F)c(F)c5F)c5ccc2[nH]5)C=C4)C=C3)cc1
REMARK SMILES IDX 20 1 19 2 18 3 16 4 17 5 2 7 1 8 3 9 4 10 5 12 6 13 7 15
REMARK SMILES IDX 8 16 9 17 10 18 14 19 11 20 13 21 15 22 12 23 21 24 22 25
REMARK SMILES IDX 23 26 24 27 25 28 26 29 27 31 28 32 29 33 90 34 30 35 89 36
REMARK SMILES IDX 31 37 32 38 33 39 83 40 34 41 88 42 82 43 84 44 35 45 87 46
REMARK SMILES IDX 81 47 80 48 36 50 68 51 48 52 67 53 49 54 52 55 66 56 85 57
REMARK SMILES IDX 50 58 51 59 65 61 86 62 53 63 37 64 38 65 46 66 39 67 40 68
REMARK SMILES IDX 44 69 47 70 41 71 42 72 45 73 43 74 69 75 70 76 78 77 71 78
REMARK SMILES IDX 72 79 76 80 79 81 73 82 74 83 77 84 75 85 54 86 55 87 63 88
REMARK SMILES IDX 56 89 57 90 61 91 64 92 58 93 59 94 62 95 60 96
REMARK H PARENT 18 6 3 11 6 14 25 30 84 49 52 60
REMARK Flexibility Score: inf
ROOT
ATOM      1  C   UNL A   1      32.931  28.414  26.318  1.00  0.00     0.021 C 
ENDROOT
BRANCH   1   2
ATOM      2  C   UNL A   1      32.211  27.075  26.272  1.00  0.00     0.116 C 
BRANCH   2   3
ATOM      3  N   UNL A   1      30.975  27.188  25.513  1.00  0.00    -0.354 N 
ATOM      4  C   UNL A   1      30.312  26.241  24.781  1.00  0.00     0.242 C 
ATOM      5  O   UNL A   1      29.246  26.544  24.245  1.00  0.00    -0.273 OA
ATOM      6  H   UNL A   1      30.552  28.077  25.528  1.00  0.00     0.163 HD
BRANCH   4   7
ATOM      7  C   UNL A   1      30.840  24.794  24.784  1.00  0.00     0.170 C 
ATOM      8  C   UNL A   1      30.535  24.282  23.374  1.00  0.00     0.041 C 
BRANCH   7   9
ATOM      9  N   UNL A   1      30.257  24.149  25.980  1.00  0.00    -0.327 N 
ATOM     10  C   UNL A   1      30.293  23.020  26.687  1.00  0.00     0.315 C 
ATOM     11  H   UNL A   1      29.620  24.771  26.401  1.00  0.00     0.166 HD
ATOM     12  O   UNL A   1      29.570  22.955  27.682  1.00  0.00    -0.249 OA
ATOM     13  N   UNL A   1      31.026  21.950  26.373  1.00  0.00    -0.338 N 
ATOM     14  H   UNL A   1      30.937  21.189  26.989  1.00  0.00     0.165 HD
BRANCH  13  15
ATOM     15  C   UNL A   1      31.924  21.739  25.274  1.00  0.00     0.122 C 
BRANCH  15  16
ATOM     16  C   UNL A   1      33.301  21.205  25.630  1.00  0.00     0.060 C 
BRANCH  16  17
ATOM     17  C   UNL A   1      34.503  22.100  25.509  1.00  0.00    -0.010 A 
ATOM     18  C   UNL A   1      34.507  23.485  25.710  1.00  0.00     0.007 A 
ATOM     19  C   UNL A   1      35.706  21.485  25.133  1.00  0.00     0.126 A 
ATOM     20  C   UNL A   1      35.681  24.222  25.509  1.00  0.00     0.000 A 
ATOM     21  C   UNL A   1      36.874  22.207  24.938  1.00  0.00     0.039 A 
ATOM     22  F   UNL A   1      35.735  20.155  24.955  1.00  0.00    -0.207 F 
ATOM     23  C   UNL A   1      36.861  23.586  25.117  1.00  0.00     0.003 A 
ENDBRANCH  16  17
ENDBRANCH  15  16
ENDBRANCH  13  15
ENDBRANCH   7   9
ENDBRANCH   4   7
ENDBRANCH   2   3
ENDBRANCH   1   2
BRANCH   1  24
ATOM     24  C   UNL A   1      32.085  29.505  26.976  1.00  0.00     0.002 C 
BRANCH  24  25
ATOM     25  C   UNL A   1      31.638  30.612  26.014  1.00  0.00     0.002 C 
BRANCH  25  26
ATOM     26  C   UNL A   1      31.428  31.976  26.675  1.00  0.00     0.021 C 
BRANCH  26  27
ATOM     27  C   UNL A   1      32.711  32.614  27.194  1.00  0.00     0.116 C 
BRANCH  27  28
ATOM     28  N   UNL A   1      32.500  33.999  27.585  1.00  0.00    -0.352 N 
ATOM     29  C   UNL A   1      33.084  34.711  28.599  1.00  0.00     0.251 C 
ATOM     30  H   UNL A   1      31.844  34.496  27.044  1.00  0.00     0.163 HD
ATOM     31  O   UNL A   1      32.638  35.797  28.936  1.00  0.00    -0.269 OA
BRANCH  29  32
ATOM     32  C   UNL A   1      34.254  34.139  29.294  1.00  0.00     0.039 A 
ATOM     33  C   UNL A   1      34.041  33.245  30.344  1.00  0.00     0.014 A 
ATOM     34  C   UNL A   1      35.551  34.480  28.901  1.00  0.00     0.014 A 
ATOM     35  C   UNL A   1      35.136  32.650  30.968  1.00  0.00     0.010 A 
ATOM     36  C   UNL A   1      36.638  33.827  29.469  1.00  0.00     0.010 A 
ATOM     37  C   UNL A   1      36.440  32.910  30.511  1.00  0.00    -0.014 A 
BRANCH  37  38
ATOM     38  C   UNL A   1      37.609  32.221  31.112  1.00  0.00     0.031 A 
ATOM     39  C   UNL A   1      38.100  32.616  32.475  1.00  0.00     0.074 A 
ATOM     40  C   UNL A   1      38.253  31.274  30.404  1.00  0.00     0.049 A 
ATOM     41  N   UNL A   1      39.128  32.159  33.144  1.00  0.00    -0.248 NA
ATOM     42  C   UNL A   1      37.356  33.678  33.170  1.00  0.00     0.031 C 
ATOM     43  C   UNL A   1      37.890  30.840  29.053  1.00  0.00     0.029 A 
ATOM     44  N   UNL A   1      39.345  30.507  30.717  1.00  0.00    -0.354 N 
ATOM     45  C   UNL A   1      39.154  32.879  34.330  1.00  0.00     0.074 A 
ATOM     46  C   UNL A   1      38.079  33.844  34.268  1.00  0.00     0.031 C 
ATOM     47  C   UNL A   1      38.722  29.859  28.670  1.00  0.00     0.029 A 
ATOM     48  C   UNL A   1      39.703  29.627  29.726  1.00  0.00     0.049 A 
ATOM     49  H   UNL A   1      39.827  30.581  31.573  1.00  0.00     0.167 HD
ATOM     50  C   UNL A   1      39.985  32.726  35.388  1.00  0.00     0.037 A 
ATOM     51  C   UNL A   1      40.712  28.736  29.671  1.00  0.00     0.037 A 
ATOM     52  C   UNL A   1      41.039  31.748  35.452  1.00  0.00     0.049 A 
ATOM     53  C   UNL A   1      41.636  28.604  30.849  1.00  0.00     0.074 A 
ATOM     54  C   UNL A   1      41.900  31.480  36.501  1.00  0.00     0.029 A 
ATOM     55  N   UNL A   1      41.378  30.882  34.422  1.00  0.00    -0.354 N 
ATOM     56  N   UNL A   1      41.616  29.248  31.992  1.00  0.00    -0.248 NA
ATOM     57  C   UNL A   1      42.722  27.620  30.737  1.00  0.00     0.031 C 
ATOM     58  C   UNL A   1      42.797  30.492  36.087  1.00  0.00     0.029 A 
ATOM     59  C   UNL A   1      42.456  30.098  34.803  1.00  0.00     0.049 A 
ATOM     60  H   UNL A   1      40.921  30.831  33.552  1.00  0.00     0.167 HD
ATOM     61  C   UNL A   1      42.666  28.736  32.740  1.00  0.00     0.074 A 
ATOM     62  C   UNL A   1      43.296  27.715  31.928  1.00  0.00     0.031 C 
ATOM     63  C   UNL A   1      43.071  29.083  33.985  1.00  0.00     0.037 A 
BRANCH  50  64
ATOM     64  C   UNL A   1      39.785  33.624  36.575  1.00  0.00     0.064 A 
ATOM     65  C   UNL A   1      38.914  33.251  37.610  1.00  0.00     0.173 A 
ATOM     66  C   UNL A   1      40.392  34.886  36.651  1.00  0.00     0.173 A 
ATOM     67  F   UNL A   1      38.303  32.056  37.585  1.00  0.00    -0.203 F 
ATOM     68  C   UNL A   1      38.646  34.117  38.668  1.00  0.00     0.198 A 
ATOM     69  C   UNL A   1      40.146  35.736  37.727  1.00  0.00     0.198 A 
ATOM     70  F   UNL A   1      41.241  35.285  35.693  1.00  0.00    -0.203 F 
ATOM     71  F   UNL A   1      37.781  33.754  39.625  1.00  0.00    -0.200 F 
ATOM     72  C   UNL A   1      39.265  35.355  38.727  1.00  0.00     0.200 A 
ATOM     73  F   UNL A   1      40.765  36.922  37.795  1.00  0.00    -0.200 F 
ATOM     74  F   UNL A   1      39.012  36.184  39.750  1.00  0.00    -0.200 F 
ENDBRANCH  50  64
BRANCH  51  75
ATOM     75  C   UNL A   1      40.869  27.882  28.466  1.00  0.00     0.064 A 
ATOM     76  C   UNL A   1      41.666  28.283  27.383  1.00  0.00     0.173 A 
ATOM     77  C   UNL A   1      40.190  26.661  28.357  1.00  0.00     0.173 A 
ATOM     78  F   UNL A   1      42.331  29.446  27.433  1.00  0.00    -0.203 F 
ATOM     79  C   UNL A   1      41.756  27.509  26.229  1.00  0.00     0.198 A 
ATOM     80  C   UNL A   1      40.304  25.872  27.215  1.00  0.00     0.198 A 
ATOM     81  F   UNL A   1      39.431  26.225  29.373  1.00  0.00    -0.203 F 
ATOM     82  F   UNL A   1      42.490  27.936  25.193  1.00  0.00    -0.200 F 
ATOM     83  C   UNL A   1      41.079  26.301  26.147  1.00  0.00     0.200 A 
ATOM     84  F   UNL A   1      39.667  24.695  27.148  1.00  0.00    -0.200 F 
ATOM     85  F   UNL A   1      41.174  25.552  25.041  1.00  0.00    -0.200 F 
ENDBRANCH  51  75
BRANCH  63  86
ATOM     86  C   UNL A   1      44.242  28.346  34.570  1.00  0.00     0.064 A 
ATOM     87  C   UNL A   1      45.549  28.815  34.367  1.00  0.00     0.173 A 
ATOM     88  C   UNL A   1      44.079  27.132  35.252  1.00  0.00     0.173 A 
ATOM     89  F   UNL A   1      45.761  29.966  33.712  1.00  0.00    -0.203 F 
ATOM     90  C   UNL A   1      46.650  28.085  34.806  1.00  0.00     0.198 A 
ATOM     91  C   UNL A   1      45.180  26.420  35.719  1.00  0.00     0.198 A 
ATOM     92  F   UNL A   1      42.849  26.647  35.483  1.00  0.00    -0.203 F 
ATOM     93  F   UNL A   1      47.890  28.530  34.561  1.00  0.00    -0.200 F 
ATOM     94  C   UNL A   1      46.464  26.890  35.485  1.00  0.00     0.200 A 
ATOM     95  F   UNL A   1      44.998  25.279  36.397  1.00  0.00    -0.200 F 
ATOM     96  F   UNL A   1      47.524  26.191  35.915  1.00  0.00    -0.200 F 
ENDBRANCH  63  86
ENDBRANCH  37  38
ENDBRANCH  29  32
ENDBRANCH  27  28
ENDBRANCH  26  27
ENDBRANCH  25  26
ENDBRANCH  24  25
ENDBRANCH   1  24
TORSDOF 17
ENDMDL
