MODEL 1
REMARK VINA RESULT:     -12.0      0.000      0.000
REMARK SMILES COc1cccc(CSc2nc3ccccc3c(=O)n2CCC(=O)NCCCCCCNC(=O)c2ccc(-c3c4nc(c(-c5c(F)c(F)c(F)c(F)c5F)c5ccc([nH]5)c(-c5c(F)c(F)c(F)c(F)c5F)c5nc(c(-c6c(F)c(F)c(F)c(F)c6F)c6ccc3[nH]6)C=C5)C=C4)cc2)c1
REMARK SMILES IDX 26 1 25 2 23 3 24 4 22 6 21 7 20 8 10 9 11 10 12 11 18 12
REMARK SMILES IDX 13 13 17 14 19 15 14 16 16 17 15 18 9 19 8 20 7 21 3 22 4 23
REMARK SMILES IDX 98 24 5 25 6 26 2 27 1 28 27 29 28 30 29 31 30 32 31 33
REMARK SMILES IDX 32 34 33 35 34 37 35 38 36 39 97 40 37 41 96 42 38 43 39 44
REMARK SMILES IDX 40 45 90 46 41 47 95 48 89 49 91 50 42 51 94 52 88 53 87 54
REMARK SMILES IDX 43 56 75 57 55 58 74 59 56 60 59 61 73 62 92 63 57 64 58 65
REMARK SMILES IDX 72 67 93 68 60 69 44 70 45 71 53 72 46 73 47 74 51 75 54 76
REMARK SMILES IDX 48 77 49 78 52 79 50 80 76 81 77 82 85 83 78 84 79 85 83 86
REMARK SMILES IDX 86 87 80 88 81 89 84 90 82 91 61 92 62 93 70 94 63 95 64 96
REMARK SMILES IDX 68 97 71 98 65 99 66 100 69 101 67 102
REMARK H PARENT 25 5 32 36 91 55 59 66
REMARK Flexibility Score: inf
ROOT
ATOM      1  C   UNL A   1      34.974  23.744  24.300  1.00  0.00     0.116 C 
ENDROOT
BRANCH   1   2
ATOM      2  N   UNL A   1      34.419  24.598  23.258  1.00  0.00    -0.356 N 
ATOM      3  C   UNL A   1      33.302  24.475  22.491  1.00  0.00     0.221 C 
ATOM      4  O   UNL A   1      33.086  25.341  21.639  1.00  0.00    -0.275 OA
ATOM      5  H   UNL A   1      34.947  25.409  23.074  1.00  0.00     0.163 HD
BRANCH   3   6
ATOM      6  C   UNL A   1      32.327  23.328  22.669  1.00  0.00     0.122 C 
BRANCH   6   7
ATOM      7  C   UNL A   1      30.933  23.816  23.087  1.00  0.00     0.138 C 
BRANCH   7   8
ATOM      8  N   UNL A   1      30.916  24.508  24.375  1.00  0.00    -0.287 N 
ATOM      9  C   UNL A   1      31.477  24.033  25.538  1.00  0.00     0.171 A 
ATOM     10  N   UNL A   1      32.166  24.824  26.310  1.00  0.00    -0.224 NA
ATOM     11  C   UNL A   1      32.276  26.176  25.958  1.00  0.00     0.079 A 
ATOM     12  C   UNL A   1      30.519  25.853  24.326  1.00  0.00     0.262 A 
ATOM     13  C   UNL A   1      33.332  26.957  26.426  1.00  0.00     0.029 A 
ATOM     14  C   UNL A   1      31.329  26.775  25.146  1.00  0.00     0.066 A 
ATOM     15  O   UNL A   1      29.658  26.298  23.588  1.00  0.00    -0.269 OA
ATOM     16  C   UNL A   1      33.391  28.327  26.154  1.00  0.00     0.002 A 
ATOM     17  C   UNL A   1      31.312  28.160  24.942  1.00  0.00     0.016 A 
ATOM     18  C   UNL A   1      32.349  28.939  25.460  1.00  0.00     0.001 A 
BRANCH   9  19
ATOM     19  S   UNL A   1      31.392  22.387  26.126  1.00  0.00    -0.083 SA
BRANCH  19  20
ATOM     20  C   UNL A   1      32.902  21.438  25.952  1.00  0.00     0.113 C 
BRANCH  20  21
ATOM     21  C   UNL A   1      32.718  20.126  25.246  1.00  0.00    -0.034 A 
ATOM     22  C   UNL A   1      33.029  17.722  25.240  1.00  0.00     0.119 A 
ATOM     23  C   UNL A   1      32.805  17.714  23.864  1.00  0.00     0.046 A 
ATOM     24  C   UNL A   1      32.903  18.919  25.935  1.00  0.00     0.051 A 
ATOM     25  C   UNL A   1      32.462  18.887  23.190  1.00  0.00     0.004 A 
ATOM     26  C   UNL A   1      32.426  20.094  23.878  1.00  0.00     0.005 A 
BRANCH  22  27
ATOM     27  O   UNL A   1      33.385  16.523  25.790  1.00  0.00    -0.497 OA
ATOM     28  C   UNL A   1      32.505  15.424  25.568  1.00  0.00     0.278 C 
ENDBRANCH  22  27
ENDBRANCH  20  21
ENDBRANCH  19  20
ENDBRANCH   9  19
ENDBRANCH   7   8
ENDBRANCH   6   7
ENDBRANCH   3   6
ENDBRANCH   1   2
BRANCH   1  29
ATOM     29  C   UNL A   1      35.777  22.591  23.705  1.00  0.00     0.021 C 
BRANCH  29  30
ATOM     30  C   UNL A   1      36.791  21.877  24.592  1.00  0.00     0.002 C 
BRANCH  30  31
ATOM     31  C   UNL A   1      36.538  20.392  24.839  1.00  0.00     0.002 C 
BRANCH  31  32
ATOM     32  C   UNL A   1      37.779  19.504  24.972  1.00  0.00     0.021 C 
BRANCH  32  33
ATOM     33  C   UNL A   1      38.964  20.110  25.724  1.00  0.00     0.116 C 
BRANCH  33  34
ATOM     34  N   UNL A   1      40.079  19.202  25.869  1.00  0.00    -0.352 N 
ATOM     35  C   UNL A   1      41.406  19.466  26.092  1.00  0.00     0.251 C 
ATOM     36  H   UNL A   1      39.852  18.247  25.797  1.00  0.00     0.163 HD
ATOM     37  O   UNL A   1      42.226  18.554  26.022  1.00  0.00    -0.269 OA
BRANCH  35  38
ATOM     38  C   UNL A   1      41.882  20.840  26.389  1.00  0.00     0.039 A 
ATOM     39  C   UNL A   1      42.015  21.207  27.731  1.00  0.00     0.014 A 
ATOM     40  C   UNL A   1      42.112  21.789  25.387  1.00  0.00     0.014 A 
ATOM     41  C   UNL A   1      42.401  22.507  28.069  1.00  0.00     0.010 A 
ATOM     42  C   UNL A   1      42.553  23.076  25.726  1.00  0.00     0.010 A 
ATOM     43  C   UNL A   1      42.690  23.454  27.071  1.00  0.00    -0.014 A 
BRANCH  43  44
ATOM     44  C   UNL A   1      43.122  24.828  27.451  1.00  0.00     0.031 A 
ATOM     45  C   UNL A   1      44.535  25.290  27.208  1.00  0.00     0.074 A 
ATOM     46  C   UNL A   1      42.237  25.674  28.013  1.00  0.00     0.049 A 
ATOM     47  N   UNL A   1      45.071  26.467  27.430  1.00  0.00    -0.248 NA
ATOM     48  C   UNL A   1      45.473  24.300  26.663  1.00  0.00     0.031 C 
ATOM     49  C   UNL A   1      40.849  25.344  28.337  1.00  0.00     0.029 A 
ATOM     50  N   UNL A   1      42.368  26.985  28.405  1.00  0.00    -0.354 N 
ATOM     51  C   UNL A   1      46.404  26.356  27.053  1.00  0.00     0.074 A 
ATOM     52  C   UNL A   1      46.608  24.985  26.639  1.00  0.00     0.031 C 
ATOM     53  C   UNL A   1      40.248  26.429  28.851  1.00  0.00     0.029 A 
ATOM     54  C   UNL A   1      41.213  27.524  28.920  1.00  0.00     0.049 A 
ATOM     55  H   UNL A   1      43.209  27.489  28.325  1.00  0.00     0.167 HD
ATOM     56  C   UNL A   1      47.363  27.314  27.032  1.00  0.00     0.037 A 
ATOM     57  C   UNL A   1      40.958  28.759  29.394  1.00  0.00     0.037 A 
ATOM     58  C   UNL A   1      47.158  28.684  27.429  1.00  0.00     0.049 A 
ATOM     59  C   UNL A   1      42.042  29.802  29.367  1.00  0.00     0.074 A 
ATOM     60  C   UNL A   1      48.056  29.739  27.390  1.00  0.00     0.029 A 
ATOM     61  N   UNL A   1      45.975  29.190  27.947  1.00  0.00    -0.354 N 
ATOM     62  N   UNL A   1      43.275  29.704  28.935  1.00  0.00    -0.248 NA
ATOM     63  C   UNL A   1      41.694  31.134  29.882  1.00  0.00     0.031 C 
ATOM     64  C   UNL A   1      47.435  30.867  27.935  1.00  0.00     0.029 A 
ATOM     65  C   UNL A   1      46.129  30.534  28.257  1.00  0.00     0.049 A 
ATOM     66  H   UNL A   1      45.148  28.672  28.077  1.00  0.00     0.167 HD
ATOM     67  C   UNL A   1      43.838  30.963  29.095  1.00  0.00     0.074 A 
ATOM     68  C   UNL A   1      42.808  31.814  29.653  1.00  0.00     0.031 C 
ATOM     69  C   UNL A   1      45.097  31.376  28.804  1.00  0.00     0.037 A 
BRANCH  56  70
ATOM     70  C   UNL A   1      48.736  26.915  26.564  1.00  0.00     0.064 A 
ATOM     71  C   UNL A   1      49.687  26.376  27.445  1.00  0.00     0.173 A 
ATOM     72  C   UNL A   1      49.089  27.029  25.211  1.00  0.00     0.173 A 
ATOM     73  F   UNL A   1      49.403  26.250  28.750  1.00  0.00    -0.203 F 
ATOM     74  C   UNL A   1      50.948  25.995  26.993  1.00  0.00     0.198 A 
ATOM     75  C   UNL A   1      50.340  26.617  24.758  1.00  0.00     0.198 A 
ATOM     76  F   UNL A   1      48.214  27.526  24.323  1.00  0.00    -0.203 F 
ATOM     77  F   UNL A   1      51.856  25.528  27.862  1.00  0.00    -0.200 F 
ATOM     78  C   UNL A   1      51.272  26.109  25.650  1.00  0.00     0.200 A 
ATOM     79  F   UNL A   1      50.643  26.712  23.455  1.00  0.00    -0.200 F 
ATOM     80  F   UNL A   1      52.482  25.734  25.215  1.00  0.00    -0.200 F 
ENDBRANCH  56  70
BRANCH  57  81
ATOM     81  C   UNL A   1      39.602  29.085  29.909  1.00  0.00     0.064 A 
ATOM     82  C   UNL A   1      38.619  29.625  29.067  1.00  0.00     0.173 A 
ATOM     83  C   UNL A   1      39.262  28.868  31.252  1.00  0.00     0.173 A 
ATOM     84  F   UNL A   1      38.901  29.872  27.779  1.00  0.00    -0.203 F 
ATOM     85  C   UNL A   1      37.354  29.952  29.554  1.00  0.00     0.198 A 
ATOM     86  C   UNL A   1      37.988  29.165  31.730  1.00  0.00     0.198 A 
ATOM     87  F   UNL A   1      40.165  28.349  32.098  1.00  0.00    -0.203 F 
ATOM     88  F   UNL A   1      36.448  30.508  28.739  1.00  0.00    -0.200 F 
ATOM     89  C   UNL A   1      37.038  29.715  30.883  1.00  0.00     0.200 A 
ATOM     90  F   UNL A   1      37.682  28.919  33.011  1.00  0.00    -0.200 F 
ATOM     91  F   UNL A   1      35.820  30.022  31.349  1.00  0.00    -0.200 F 
ENDBRANCH  57  81
BRANCH  69  92
ATOM     92  C   UNL A   1      45.423  32.824  29.043  1.00  0.00     0.064 A 
ATOM     93  C   UNL A   1      45.100  33.821  28.110  1.00  0.00     0.173 A 
ATOM     94  C   UNL A   1      46.037  33.222  30.241  1.00  0.00     0.173 A 
ATOM     95  F   UNL A   1      44.525  33.491  26.943  1.00  0.00    -0.203 F 
ATOM     96  C   UNL A   1      45.404  35.157  28.355  1.00  0.00     0.198 A 
ATOM     97  C   UNL A   1      46.312  34.564  30.495  1.00  0.00     0.198 A 
ATOM     98  F   UNL A   1      46.363  32.311  31.170  1.00  0.00    -0.203 F 
ATOM     99  F   UNL A   1      45.133  36.085  27.427  1.00  0.00    -0.200 F 
ATOM    100  C   UNL A   1      46.003  35.529  29.550  1.00  0.00     0.200 A 
ATOM    101  F   UNL A   1      46.877  34.921  31.657  1.00  0.00    -0.200 F 
ATOM    102  F   UNL A   1      46.289  36.817  29.785  1.00  0.00    -0.200 F 
ENDBRANCH  69  92
ENDBRANCH  43  44
ENDBRANCH  35  38
ENDBRANCH  33  34
ENDBRANCH  32  33
ENDBRANCH  31  32
ENDBRANCH  30  31
ENDBRANCH  29  30
ENDBRANCH   1  29
TORSDOF 19
ENDMDL
MODEL 2
REMARK VINA RESULT:     -11.9      1.854      3.673
REMARK SMILES COc1cccc(CSc2nc3ccccc3c(=O)n2CCC(=O)NCCCCCCNC(=O)c2ccc(-c3c4nc(c(-c5c(F)c(F)c(F)c(F)c5F)c5ccc([nH]5)c(-c5c(F)c(F)c(F)c(F)c5F)c5nc(c(-c6c(F)c(F)c(F)c(F)c6F)c6ccc3[nH]6)C=C5)C=C4)cc2)c1
REMARK SMILES IDX 26 1 25 2 23 3 24 4 22 6 21 7 20 8 10 9 11 10 12 11 18 12
REMARK SMILES IDX 13 13 17 14 19 15 14 16 16 17 15 18 9 19 8 20 7 21 3 22 4 23
REMARK SMILES IDX 98 24 5 25 6 26 2 27 1 28 27 29 28 30 29 31 30 32 31 33
REMARK SMILES IDX 32 34 33 35 34 37 35 38 36 39 97 40 37 41 96 42 38 43 39 44
REMARK SMILES IDX 40 45 90 46 41 47 95 48 89 49 91 50 42 51 94 52 88 53 87 54
REMARK SMILES IDX 43 56 75 57 55 58 74 59 56 60 59 61 73 62 92 63 57 64 58 65
REMARK SMILES IDX 72 67 93 68 60 69 44 70 45 71 53 72 46 73 47 74 51 75 54 76
REMARK SMILES IDX 48 77 49 78 52 79 50 80 76 81 77 82 85 83 78 84 79 85 83 86
REMARK SMILES IDX 86 87 80 88 81 89 84 90 82 91 61 92 62 93 70 94 63 95 64 96
REMARK SMILES IDX 68 97 71 98 65 99 66 100 69 101 67 102
REMARK H PARENT 25 5 32 36 91 55 59 66
REMARK Flexibility Score: inf
ROOT
ATOM      1  C   UNL A   1      34.623  22.711  24.067  1.00  0.00     0.116 C 
ENDROOT
BRANCH   1   2
ATOM      2  N   UNL A   1      34.314  22.980  22.668  1.00  0.00    -0.356 N 
ATOM      3  C   UNL A   1      33.390  23.793  22.089  1.00  0.00     0.221 C 
ATOM      4  O   UNL A   1      33.315  23.800  20.858  1.00  0.00    -0.275 OA
ATOM      5  H   UNL A   1      34.873  22.484  22.027  1.00  0.00     0.163 HD
BRANCH   3   6
ATOM      6  C   UNL A   1      32.479  24.685  22.909  1.00  0.00     0.122 C 
BRANCH   6   7
ATOM      7  C   UNL A   1      31.764  25.731  22.041  1.00  0.00     0.138 C 
BRANCH   7   8
ATOM      8  N   UNL A   1      31.371  26.932  22.776  1.00  0.00    -0.287 N 
ATOM      9  C   UNL A   1      32.031  28.138  22.737  1.00  0.00     0.171 A 
ATOM     10  N   UNL A   1      31.364  29.253  22.642  1.00  0.00    -0.224 NA
ATOM     11  C   UNL A   1      29.965  29.199  22.633  1.00  0.00     0.079 A 
ATOM     12  C   UNL A   1      30.090  26.890  23.347  1.00  0.00     0.262 A 
ATOM     13  C   UNL A   1      29.208  30.229  22.077  1.00  0.00     0.029 A 
ATOM     14  C   UNL A   1      29.295  28.124  23.193  1.00  0.00     0.066 A 
ATOM     15  O   UNL A   1      29.578  25.899  23.837  1.00  0.00    -0.269 OA
ATOM     16  C   UNL A   1      27.813  30.221  22.154  1.00  0.00     0.002 A 
ATOM     17  C   UNL A   1      27.906  28.140  23.368  1.00  0.00     0.016 A 
ATOM     18  C   UNL A   1      27.165  29.204  22.851  1.00  0.00     0.001 A 
BRANCH   9  19
ATOM     19  S   UNL A   1      33.766  28.365  22.778  1.00  0.00    -0.083 SA
BRANCH  19  20
ATOM     20  C   UNL A   1      34.506  28.285  24.409  1.00  0.00     0.113 C 
BRANCH  20  21
ATOM     21  C   UNL A   1      33.508  28.185  25.525  1.00  0.00    -0.034 A 
ATOM     22  C   UNL A   1      31.875  26.855  26.724  1.00  0.00     0.119 A 
ATOM     23  C   UNL A   1      31.358  28.023  27.283  1.00  0.00     0.046 A 
ATOM     24  C   UNL A   1      32.999  26.938  25.912  1.00  0.00     0.051 A 
ATOM     25  C   UNL A   1      31.956  29.258  27.032  1.00  0.00     0.004 A 
ATOM     26  C   UNL A   1      33.025  29.342  26.148  1.00  0.00     0.005 A 
BRANCH  22  27
ATOM     27  O   UNL A   1      31.193  25.707  27.016  1.00  0.00    -0.497 OA
ATOM     28  C   UNL A   1      31.743  24.488  26.522  1.00  0.00     0.278 C 
ENDBRANCH  22  27
ENDBRANCH  20  21
ENDBRANCH  19  20
ENDBRANCH   9  19
ENDBRANCH   7   8
ENDBRANCH   6   7
ENDBRANCH   3   6
ENDBRANCH   1   2
BRANCH   1  29
ATOM     29  C   UNL A   1      36.126  22.767  24.325  1.00  0.00     0.021 C 
BRANCH  29  30
ATOM     30  C   UNL A   1      36.732  21.774  25.310  1.00  0.00     0.002 C 
BRANCH  30  31
ATOM     31  C   UNL A   1      36.602  20.298  24.941  1.00  0.00     0.002 C 
BRANCH  31  32
ATOM     32  C   UNL A   1      37.896  19.479  24.950  1.00  0.00     0.021 C 
BRANCH  32  33
ATOM     33  C   UNL A   1      39.061  20.067  25.746  1.00  0.00     0.116 C 
BRANCH  33  34
ATOM     34  N   UNL A   1      40.190  19.173  25.861  1.00  0.00    -0.352 N 
ATOM     35  C   UNL A   1      41.517  19.452  26.065  1.00  0.00     0.251 C 
ATOM     36  H   UNL A   1      39.974  18.216  25.780  1.00  0.00     0.163 HD
ATOM     37  O   UNL A   1      42.348  18.552  25.970  1.00  0.00    -0.269 OA
BRANCH  35  38
ATOM     38  C   UNL A   1      41.980  20.827  26.372  1.00  0.00     0.039 A 
ATOM     39  C   UNL A   1      42.126  21.181  27.717  1.00  0.00     0.014 A 
ATOM     40  C   UNL A   1      42.185  21.791  25.378  1.00  0.00     0.014 A 
ATOM     41  C   UNL A   1      42.500  22.482  28.064  1.00  0.00     0.010 A 
ATOM     42  C   UNL A   1      42.615  23.079  25.726  1.00  0.00     0.010 A 
ATOM     43  C   UNL A   1      42.764  23.444  27.073  1.00  0.00    -0.014 A 
BRANCH  43  44
ATOM     44  C   UNL A   1      43.184  24.818  27.463  1.00  0.00     0.031 A 
ATOM     45  C   UNL A   1      44.602  25.284  27.255  1.00  0.00     0.074 A 
ATOM     46  C   UNL A   1      42.284  25.663  28.004  1.00  0.00     0.049 A 
ATOM     47  N   UNL A   1      45.130  26.462  27.489  1.00  0.00    -0.248 NA
ATOM     48  C   UNL A   1      45.555  24.295  26.732  1.00  0.00     0.031 C 
ATOM     49  C   UNL A   1      40.889  25.330  28.295  1.00  0.00     0.029 A 
ATOM     50  N   UNL A   1      42.403  26.974  28.399  1.00  0.00    -0.354 N 
ATOM     51  C   UNL A   1      46.471  26.354  27.144  1.00  0.00     0.074 A 
ATOM     52  C   UNL A   1      46.689  24.983  26.736  1.00  0.00     0.031 C 
ATOM     53  C   UNL A   1      40.274  26.414  28.794  1.00  0.00     0.029 A 
ATOM     54  C   UNL A   1      41.235  27.511  28.887  1.00  0.00     0.049 A 
ATOM     55  H   UNL A   1      43.245  27.480  28.339  1.00  0.00     0.167 HD
ATOM     56  C   UNL A   1      47.429  27.314  27.146  1.00  0.00     0.037 A 
ATOM     57  C   UNL A   1      40.966  28.745  29.354  1.00  0.00     0.037 A 
ATOM     58  C   UNL A   1      47.211  28.683  27.539  1.00  0.00     0.049 A 
ATOM     59  C   UNL A   1      42.048  29.790  29.353  1.00  0.00     0.074 A 
ATOM     60  C   UNL A   1      48.108  29.740  27.521  1.00  0.00     0.029 A 
ATOM     61  N   UNL A   1      46.015  29.187  28.028  1.00  0.00    -0.354 N 
ATOM     62  N   UNL A   1      43.292  29.695  28.950  1.00  0.00    -0.248 NA
ATOM     63  C   UNL A   1      41.685  31.122  29.860  1.00  0.00     0.031 C 
ATOM     64  C   UNL A   1      47.471  30.866  28.050  1.00  0.00     0.029 A 
ATOM     65  C   UNL A   1      46.159  30.531  28.341  1.00  0.00     0.049 A 
ATOM     66  H   UNL A   1      45.187  28.667  28.137  1.00  0.00     0.167 HD
ATOM     67  C   UNL A   1      43.848  30.956  29.124  1.00  0.00     0.074 A 
ATOM     68  C   UNL A   1      42.803  31.804  29.657  1.00  0.00     0.031 C 
ATOM     69  C   UNL A   1      45.112  31.371  28.863  1.00  0.00     0.037 A 
BRANCH  56  70
ATOM     70  C   UNL A   1      48.813  26.918  26.711  1.00  0.00     0.064 A 
ATOM     71  C   UNL A   1      49.757  26.417  27.623  1.00  0.00     0.173 A 
ATOM     72  C   UNL A   1      49.186  26.995  25.361  1.00  0.00     0.173 A 
ATOM     73  F   UNL A   1      49.455  26.327  28.926  1.00  0.00    -0.203 F 
ATOM     74  C   UNL A   1      51.029  26.039  27.201  1.00  0.00     0.198 A 
ATOM     75  C   UNL A   1      50.448  26.585  24.939  1.00  0.00     0.198 A 
ATOM     76  F   UNL A   1      48.319  27.455  24.445  1.00  0.00    -0.203 F 
ATOM     77  F   UNL A   1      51.929  25.609  28.098  1.00  0.00    -0.200 F 
ATOM     78  C   UNL A   1      51.372  26.116  25.860  1.00  0.00     0.200 A 
ATOM     79  F   UNL A   1      50.770  26.644  23.639  1.00  0.00    -0.200 F 
ATOM     80  F   UNL A   1      52.594  25.742  25.455  1.00  0.00    -0.200 F 
ENDBRANCH  56  70
BRANCH  57  81
ATOM     81  C   UNL A   1      39.597  29.069  29.836  1.00  0.00     0.064 A 
ATOM     82  C   UNL A   1      39.230  28.850  31.172  1.00  0.00     0.173 A 
ATOM     83  C   UNL A   1      38.629  29.600  28.973  1.00  0.00     0.173 A 
ATOM     84  F   UNL A   1      40.113  28.323  32.032  1.00  0.00    -0.203 F 
ATOM     85  C   UNL A   1      37.940  29.133  31.619  1.00  0.00     0.198 A 
ATOM     86  C   UNL A   1      37.350  29.912  29.428  1.00  0.00     0.198 A 
ATOM     87  F   UNL A   1      38.931  29.833  27.686  1.00  0.00    -0.203 F 
ATOM     88  F   UNL A   1      37.602  28.872  32.889  1.00  0.00    -0.200 F 
ATOM     89  C   UNL A   1      37.004  29.670  30.749  1.00  0.00     0.200 A 
ATOM     90  F   UNL A   1      36.454  30.446  28.588  1.00  0.00    -0.200 F 
ATOM     91  F   UNL A   1      35.767  29.948  31.181  1.00  0.00    -0.200 F 
ENDBRANCH  57  81
BRANCH  69  92
ATOM     92  C   UNL A   1      45.430  32.820  29.110  1.00  0.00     0.064 A 
ATOM     93  C   UNL A   1      45.972  33.263  30.325  1.00  0.00     0.173 A 
ATOM     94  C   UNL A   1      45.219  33.772  28.100  1.00  0.00     0.173 A 
ATOM     95  F   UNL A   1      46.180  32.396  31.328  1.00  0.00    -0.203 F 
ATOM     96  C   UNL A   1      46.266  34.609  30.529  1.00  0.00     0.198 A 
ATOM     97  C   UNL A   1      45.543  35.112  28.298  1.00  0.00     0.198 A 
ATOM     98  F   UNL A   1      44.707  33.402  26.916  1.00  0.00    -0.203 F 
ATOM     99  F   UNL A   1      46.735  35.017  31.716  1.00  0.00    -0.200 F 
ATOM    100  C   UNL A   1      46.059  35.531  29.514  1.00  0.00     0.200 A 
ATOM    101  F   UNL A   1      45.355  35.997  27.309  1.00  0.00    -0.200 F 
ATOM    102  F   UNL A   1      46.348  36.824  29.712  1.00  0.00    -0.200 F 
ENDBRANCH  69  92
ENDBRANCH  43  44
ENDBRANCH  35  38
ENDBRANCH  33  34
ENDBRANCH  32  33
ENDBRANCH  31  32
ENDBRANCH  30  31
ENDBRANCH  29  30
ENDBRANCH   1  29
TORSDOF 19
ENDMDL
MODEL 3
REMARK VINA RESULT:     -11.8      2.220      5.162
REMARK SMILES COc1cccc(CSc2nc3ccccc3c(=O)n2CCC(=O)NCCCCCCNC(=O)c2ccc(-c3c4nc(c(-c5c(F)c(F)c(F)c(F)c5F)c5ccc([nH]5)c(-c5c(F)c(F)c(F)c(F)c5F)c5nc(c(-c6c(F)c(F)c(F)c(F)c6F)c6ccc3[nH]6)C=C5)C=C4)cc2)c1
REMARK SMILES IDX 26 1 25 2 23 3 24 4 22 6 21 7 20 8 10 9 11 10 12 11 18 12
REMARK SMILES IDX 13 13 17 14 19 15 14 16 16 17 15 18 9 19 8 20 7 21 3 22 4 23
REMARK SMILES IDX 98 24 5 25 6 26 2 27 1 28 27 29 28 30 29 31 30 32 31 33
REMARK SMILES IDX 32 34 33 35 34 37 35 38 36 39 97 40 37 41 96 42 38 43 39 44
REMARK SMILES IDX 40 45 90 46 41 47 95 48 89 49 91 50 42 51 94 52 88 53 87 54
REMARK SMILES IDX 43 56 75 57 55 58 74 59 56 60 59 61 73 62 92 63 57 64 58 65
REMARK SMILES IDX 72 67 93 68 60 69 44 70 45 71 53 72 46 73 47 74 51 75 54 76
REMARK SMILES IDX 48 77 49 78 52 79 50 80 76 81 77 82 85 83 78 84 79 85 83 86
REMARK SMILES IDX 86 87 80 88 81 89 84 90 82 91 61 92 62 93 70 94 63 95 64 96
REMARK SMILES IDX 68 97 71 98 65 99 66 100 69 101 67 102
REMARK H PARENT 25 5 32 36 91 55 59 66
REMARK Flexibility Score: inf
ROOT
ATOM      1  C   UNL A   1      33.243  26.036  22.864  1.00  0.00     0.116 C 
ENDROOT
BRANCH   1   2
ATOM      2  N   UNL A   1      33.675  27.169  23.672  1.00  0.00    -0.356 N 
ATOM      3  C   UNL A   1      33.587  27.409  25.008  1.00  0.00     0.221 C 
ATOM      4  O   UNL A   1      34.005  28.490  25.431  1.00  0.00    -0.275 OA
ATOM      5  H   UNL A   1      34.108  27.891  23.160  1.00  0.00     0.163 HD
BRANCH   3   6
ATOM      6  C   UNL A   1      33.010  26.391  25.971  1.00  0.00     0.122 C 
BRANCH   6   7
ATOM      7  C   UNL A   1      31.484  26.515  26.094  1.00  0.00     0.138 C 
BRANCH   7   8
ATOM      8  N   UNL A   1      30.755  25.419  25.457  1.00  0.00    -0.287 N 
ATOM      9  C   UNL A   1      30.143  25.482  24.227  1.00  0.00     0.171 A 
ATOM     10  N   UNL A   1      30.260  24.500  23.380  1.00  0.00    -0.224 NA
ATOM     11  C   UNL A   1      30.976  23.360  23.769  1.00  0.00     0.079 A 
ATOM     12  C   UNL A   1      30.930  24.160  26.052  1.00  0.00     0.262 A 
ATOM     13  C   UNL A   1      31.542  22.508  22.821  1.00  0.00     0.029 A 
ATOM     14  C   UNL A   1      31.128  23.043  25.108  1.00  0.00     0.066 A 
ATOM     15  O   UNL A   1      31.039  23.966  27.250  1.00  0.00    -0.269 OA
ATOM     16  C   UNL A   1      32.173  21.321  23.206  1.00  0.00     0.002 A 
ATOM     17  C   UNL A   1      31.667  21.816  25.511  1.00  0.00     0.016 A 
ATOM     18  C   UNL A   1      32.184  20.947  24.548  1.00  0.00     0.001 A 
BRANCH   9  19
ATOM     19  S   UNL A   1      29.189  26.816  23.618  1.00  0.00    -0.083 SA
BRANCH  19  20
ATOM     20  C   UNL A   1      30.131  28.156  22.891  1.00  0.00     0.113 C 
BRANCH  20  21
ATOM     21  C   UNL A   1      29.390  29.460  22.834  1.00  0.00    -0.034 A 
ATOM     22  C   UNL A   1      28.159  31.081  21.517  1.00  0.00     0.119 A 
ATOM     23  C   UNL A   1      28.367  32.028  22.520  1.00  0.00     0.046 A 
ATOM     24  C   UNL A   1      28.603  29.780  21.718  1.00  0.00     0.051 A 
ATOM     25  C   UNL A   1      29.010  31.679  23.707  1.00  0.00     0.004 A 
ATOM     26  C   UNL A   1      29.530  30.399  23.862  1.00  0.00     0.005 A 
BRANCH  22  27
ATOM     27  O   UNL A   1      27.543  31.540  20.387  1.00  0.00    -0.497 OA
ATOM     28  C   UNL A   1      27.617  32.941  20.136  1.00  0.00     0.278 C 
ENDBRANCH  22  27
ENDBRANCH  20  21
ENDBRANCH  19  20
ENDBRANCH   9  19
ENDBRANCH   7   8
ENDBRANCH   6   7
ENDBRANCH   3   6
ENDBRANCH   1   2
BRANCH   1  29
ATOM     29  C   UNL A   1      34.361  25.010  22.702  1.00  0.00     0.021 C 
BRANCH  29  30
ATOM     30  C   UNL A   1      34.611  24.022  23.835  1.00  0.00     0.002 C 
BRANCH  30  31
ATOM     31  C   UNL A   1      35.518  22.839  23.506  1.00  0.00     0.002 C 
BRANCH  31  32
ATOM     32  C   UNL A   1      35.727  21.811  24.623  1.00  0.00     0.021 C 
BRANCH  32  33
ATOM     33  C   UNL A   1      36.834  22.125  25.629  1.00  0.00     0.116 C 
BRANCH  33  34
ATOM     34  N   UNL A   1      37.796  21.057  25.778  1.00  0.00    -0.352 N 
ATOM     35  C   UNL A   1      39.120  21.108  26.132  1.00  0.00     0.251 C 
ATOM     36  H   UNL A   1      37.448  20.154  25.600  1.00  0.00     0.163 HD
ATOM     37  O   UNL A   1      39.810  20.095  26.045  1.00  0.00    -0.269 OA
BRANCH  35  38
ATOM     38  C   UNL A   1      39.750  22.369  26.593  1.00  0.00     0.039 A 
ATOM     39  C   UNL A   1      39.403  23.551  25.931  1.00  0.00     0.014 A 
ATOM     40  C   UNL A   1      40.730  22.399  27.591  1.00  0.00     0.014 A 
ATOM     41  C   UNL A   1      40.013  24.758  26.284  1.00  0.00     0.010 A 
ATOM     42  C   UNL A   1      41.299  23.619  27.982  1.00  0.00     0.010 A 
ATOM     43  C   UNL A   1      40.957  24.811  27.324  1.00  0.00    -0.014 A 
BRANCH  43  44
ATOM     44  C   UNL A   1      41.578  26.111  27.700  1.00  0.00     0.031 A 
ATOM     45  C   UNL A   1      42.999  26.432  27.316  1.00  0.00     0.074 A 
ATOM     46  C   UNL A   1      40.858  27.020  28.388  1.00  0.00     0.049 A 
ATOM     47  N   UNL A   1      43.683  27.533  27.517  1.00  0.00    -0.248 NA
ATOM     48  C   UNL A   1      43.756  25.374  26.634  1.00  0.00     0.031 C 
ATOM     49  C   UNL A   1      39.485  26.824  28.855  1.00  0.00     0.029 A 
ATOM     50  N   UNL A   1      41.175  28.289  28.809  1.00  0.00    -0.354 N 
ATOM     51  C   UNL A   1      44.946  27.299  26.988  1.00  0.00     0.074 A 
ATOM     52  C   UNL A   1      44.951  25.934  26.507  1.00  0.00     0.031 C 
ATOM     53  C   UNL A   1      39.068  27.942  29.471  1.00  0.00     0.029 A 
ATOM     54  C   UNL A   1      40.151  28.923  29.470  1.00  0.00     0.049 A 
ATOM     55  H   UNL A   1      42.054  28.704  28.651  1.00  0.00     0.167 HD
ATOM     56  C   UNL A   1      45.998  28.149  26.893  1.00  0.00     0.037 A 
ATOM     57  C   UNL A   1      40.087  30.154  30.012  1.00  0.00     0.037 A 
ATOM     58  C   UNL A   1      45.990  29.513  27.359  1.00  0.00     0.049 A 
ATOM     59  C   UNL A   1      41.270  31.076  29.899  1.00  0.00     0.074 A 
ATOM     60  C   UNL A   1      46.990  30.467  27.255  1.00  0.00     0.029 A 
ATOM     61  N   UNL A   1      44.934  30.117  28.024  1.00  0.00    -0.354 N 
ATOM     62  N   UNL A   1      42.431  30.868  29.327  1.00  0.00    -0.248 NA
ATOM     63  C   UNL A   1      41.130  32.412  30.496  1.00  0.00     0.031 C 
ATOM     64  C   UNL A   1      46.560  31.628  27.906  1.00  0.00     0.029 A 
ATOM     65  C   UNL A   1      45.269  31.421  28.361  1.00  0.00     0.049 A 
ATOM     66  H   UNL A   1      44.074  29.684  28.228  1.00  0.00     0.167 HD
ATOM     67  C   UNL A   1      43.144  32.052  29.467  1.00  0.00     0.074 A 
ATOM     68  C   UNL A   1      42.281  32.980  30.167  1.00  0.00     0.031 C 
ATOM     69  C   UNL A   1      44.402  32.341  29.050  1.00  0.00     0.037 A 
BRANCH  56  70
ATOM     70  C   UNL A   1      47.259  27.629  26.260  1.00  0.00     0.064 A 
ATOM     71  C   UNL A   1      47.546  27.846  24.903  1.00  0.00     0.173 A 
ATOM     72  C   UNL A   1      48.215  26.949  27.029  1.00  0.00     0.173 A 
ATOM     73  F   UNL A   1      46.664  28.487  24.120  1.00  0.00    -0.203 F 
ATOM     74  C   UNL A   1      48.727  27.373  24.335  1.00  0.00     0.198 A 
ATOM     75  C   UNL A   1      49.409  26.507  26.465  1.00  0.00     0.198 A 
ATOM     76  F   UNL A   1      47.999  26.725  28.335  1.00  0.00    -0.203 F 
ATOM     77  F   UNL A   1      48.955  27.550  23.026  1.00  0.00    -0.200 F 
ATOM     78  C   UNL A   1      49.660  26.711  25.116  1.00  0.00     0.200 A 
ATOM     79  F   UNL A   1      50.318  25.882  27.227  1.00  0.00    -0.200 F 
ATOM     80  F   UNL A   1      50.800  26.265  24.571  1.00  0.00    -0.200 F 
ENDBRANCH  56  70
BRANCH  57  81
ATOM     81  C   UNL A   1      38.839  30.599  30.687  1.00  0.00     0.064 A 
ATOM     82  C   UNL A   1      37.760  31.108  29.952  1.00  0.00     0.173 A 
ATOM     83  C   UNL A   1      38.701  30.526  32.081  1.00  0.00     0.173 A 
ATOM     84  F   UNL A   1      37.851  31.220  28.618  1.00  0.00    -0.203 F 
ATOM     85  C   UNL A   1      36.598  31.546  30.586  1.00  0.00     0.198 A 
ATOM     86  C   UNL A   1      37.528  30.933  32.711  1.00  0.00     0.198 A 
ATOM     87  F   UNL A   1      39.702  30.041  32.831  1.00  0.00    -0.203 F 
ATOM     88  F   UNL A   1      35.600  32.070  29.864  1.00  0.00    -0.200 F 
ATOM     89  C   UNL A   1      36.480  31.451  31.965  1.00  0.00     0.200 A 
ATOM     90  F   UNL A   1      37.412  30.825  34.042  1.00  0.00    -0.200 F 
ATOM     91  F   UNL A   1      35.361  31.864  32.574  1.00  0.00    -0.200 F 
ENDBRANCH  57  81
BRANCH  69  92
ATOM     92  C   UNL A   1      44.910  33.734  29.301  1.00  0.00     0.064 A 
ATOM     93  C   UNL A   1      45.664  34.053  30.440  1.00  0.00     0.173 A 
ATOM     94  C   UNL A   1      44.669  34.754  28.368  1.00  0.00     0.173 A 
ATOM     95  F   UNL A   1      45.911  33.117  31.370  1.00  0.00    -0.203 F 
ATOM     96  C   UNL A   1      46.132  35.348  30.650  1.00  0.00     0.198 A 
ATOM     97  C   UNL A   1      45.165  36.040  28.566  1.00  0.00     0.198 A 
ATOM     98  F   UNL A   1      43.959  34.502  27.258  1.00  0.00    -0.203 F 
ATOM     99  F   UNL A   1      46.805  35.642  31.770  1.00  0.00    -0.200 F 
ATOM    100  C   UNL A   1      45.889  36.338  29.710  1.00  0.00     0.200 A 
ATOM    101  F   UNL A   1      44.941  36.991  27.648  1.00  0.00    -0.200 F 
ATOM    102  F   UNL A   1      46.346  37.582  29.911  1.00  0.00    -0.200 F 
ENDBRANCH  69  92
ENDBRANCH  43  44
ENDBRANCH  35  38
ENDBRANCH  33  34
ENDBRANCH  32  33
ENDBRANCH  31  32
ENDBRANCH  30  31
ENDBRANCH  29  30
ENDBRANCH   1  29
TORSDOF 19
ENDMDL
