MODEL 1
REMARK VINA RESULT:     -12.9      0.000      0.000
REMARK SMILES C[N@@H+]1CCN(C(=O)c2cnn3c2CCCC3)C[C@@H]1C(=O)NCCCCCCNC(=O)c1ccc(-c2c3nc(c(-c4c(F)c(F)c(F)c(F)c4F)c4ccc([nH]4)c(-c4c(F)c(F)c(F)c(F)c4F)c4nc(c(-c5c(F)c(F)c(F)c(F)c5F)c5ccc2[nH]5)C=C4)C=C3)cc1
REMARK SMILES IDX 24 1 23 2 22 3 21 4 19 5 20 6 18 8 1 9 2 10 3 11 4 13 17 14
REMARK SMILES IDX 5 15 6 16 7 17 8 18 9 19 12 20 10 21 11 22 13 23 16 24 14 25
REMARK SMILES IDX 15 26 25 27 26 28 27 29 28 30 29 31 30 33 31 34 32 35 93 36
REMARK SMILES IDX 33 37 92 38 34 39 35 40 36 41 86 42 37 43 91 44 85 45 87 46
REMARK SMILES IDX 38 47 90 48 84 49 83 50 39 52 71 53 51 54 70 55 52 56 55 57
REMARK SMILES IDX 69 58 88 59 53 60 54 61 68 63 89 64 56 65 40 66 41 67 49 68
REMARK SMILES IDX 42 69 43 70 47 71 50 72 44 73 45 74 48 75 46 76 72 77 73 78
REMARK SMILES IDX 81 79 74 80 75 81 79 82 82 83 76 84 77 85 80 86 78 87 57 88
REMARK SMILES IDX 58 89 66 90 59 91 60 92 64 93 67 94 61 95 62 96 65 97 63 98
REMARK H PARENT 21 7 2 12 28 32 87 51 55 62
REMARK Flexibility Score: inf
ROOT
ATOM      1  C   UNL A   1      39.342  21.592  26.087  1.00  0.00     0.002 C 
ENDROOT
BRANCH   1   2
ATOM      2  C   UNL A   1      39.189  23.115  26.188  1.00  0.00     0.021 C 
BRANCH   2   3
ATOM      3  C   UNL A   1      37.762  23.630  25.990  1.00  0.00     0.116 C 
BRANCH   3   4
ATOM      4  N   UNL A   1      37.330  23.463  24.621  1.00  0.00    -0.351 N 
ATOM      5  C   UNL A   1      36.098  23.253  24.083  1.00  0.00     0.280 C 
ATOM      6  O   UNL A   1      36.067  23.113  22.857  1.00  0.00    -0.268 OA
ATOM      7  H   UNL A   1      38.057  23.510  23.959  1.00  0.00     0.163 HD
BRANCH   5   8
ATOM      8  C   UNL A   1      34.828  23.212  24.968  1.00  0.00     0.293 C 
ATOM      9  C   UNL A   1      34.350  20.785  24.722  1.00  0.00     0.333 C 
ATOM     10  N   UNL A   1      33.856  22.143  24.590  1.00  0.00    -0.324 N 
ATOM     11  C   UNL A   1      33.295  22.376  23.245  1.00  0.00     0.284 C 
ATOM     12  H   UNL A   1      33.111  22.219  25.282  1.00  0.00     0.348 HD
ATOM     13  C   UNL A   1      32.612  23.748  23.136  1.00  0.00     0.181 C 
ATOM     14  C   UNL A   1      34.130  24.598  24.889  1.00  0.00     0.195 C 
ATOM     15  N   UNL A   1      33.476  24.833  23.592  1.00  0.00    -0.326 N 
BRANCH  15  16
ATOM     16  C   UNL A   1      33.548  25.991  22.825  1.00  0.00     0.257 C 
ATOM     17  O   UNL A   1      33.893  25.973  21.645  1.00  0.00    -0.269 OA
BRANCH  16  18
ATOM     18  C   UNL A   1      33.096  27.231  23.424  1.00  0.00     0.081 A 
ATOM     19  C   UNL A   1      33.806  28.243  24.108  1.00  0.00     0.149 A 
ATOM     20  C   UNL A   1      31.803  27.717  23.358  1.00  0.00     0.051 A 
ATOM     21  N   UNL A   1      33.019  29.250  24.509  1.00  0.00    -0.180 NA
ATOM     22  N   UNL A   1      31.819  28.922  24.001  1.00  0.00    -0.269 N 
ATOM     23  C   UNL A   1      30.575  27.180  22.710  1.00  0.00     0.057 C 
ATOM     24  C   UNL A   1      30.661  29.772  24.204  1.00  0.00     0.144 C 
ATOM     25  C   UNL A   1      29.315  27.879  23.223  1.00  0.00     0.008 C 
ATOM     26  C   UNL A   1      29.511  29.397  23.268  1.00  0.00     0.024 C 
ENDBRANCH  16  18
ENDBRANCH  15  16
ENDBRANCH   5   8
ENDBRANCH   3   4
ENDBRANCH   2   3
ENDBRANCH   1   2
BRANCH   1  27
ATOM     27  C   UNL A   1      40.475  20.983  26.925  1.00  0.00     0.002 C 
BRANCH  27  28
ATOM     28  C   UNL A   1      41.253  19.839  26.263  1.00  0.00     0.021 C 
BRANCH  28  29
ATOM     29  C   UNL A   1      42.665  19.662  26.802  1.00  0.00     0.116 C 
BRANCH  29  30
ATOM     30  N   UNL A   1      43.649  19.504  25.739  1.00  0.00    -0.352 N 
ATOM     31  C   UNL A   1      44.217  20.487  24.953  1.00  0.00     0.251 C 
ATOM     32  H   UNL A   1      43.946  18.583  25.558  1.00  0.00     0.163 HD
ATOM     33  O   UNL A   1      44.744  20.218  23.888  1.00  0.00    -0.269 OA
BRANCH  31  34
ATOM     34  C   UNL A   1      44.167  21.882  25.426  1.00  0.00     0.039 A 
ATOM     35  C   UNL A   1      43.154  22.741  24.994  1.00  0.00     0.014 A 
ATOM     36  C   UNL A   1      45.142  22.319  26.321  1.00  0.00     0.014 A 
ATOM     37  C   UNL A   1      43.080  24.022  25.532  1.00  0.00     0.010 A 
ATOM     38  C   UNL A   1      44.999  23.538  26.941  1.00  0.00     0.010 A 
ATOM     39  C   UNL A   1      43.994  24.408  26.524  1.00  0.00    -0.014 A 
BRANCH  39  40
ATOM     40  C   UNL A   1      43.818  25.676  27.231  1.00  0.00     0.031 A 
ATOM     41  C   UNL A   1      44.806  26.728  26.861  1.00  0.00     0.074 A 
ATOM     42  C   UNL A   1      42.723  25.952  27.973  1.00  0.00     0.049 A 
ATOM     43  N   UNL A   1      45.663  27.317  27.627  1.00  0.00    -0.248 NA
ATOM     44  C   UNL A   1      44.938  27.095  25.440  1.00  0.00     0.031 C 
ATOM     45  C   UNL A   1      41.532  25.109  28.142  1.00  0.00     0.029 A 
ATOM     46  N   UNL A   1      42.377  27.095  28.637  1.00  0.00    -0.354 N 
ATOM     47  C   UNL A   1      46.304  28.270  26.835  1.00  0.00     0.074 A 
ATOM     48  C   UNL A   1      45.947  27.970  25.476  1.00  0.00     0.031 C 
ATOM     49  C   UNL A   1      40.516  25.849  28.632  1.00  0.00     0.029 A 
ATOM     50  C   UNL A   1      41.032  27.160  28.984  1.00  0.00     0.049 A 
ATOM     51  H   UNL A   1      43.021  27.807  28.851  1.00  0.00     0.167 HD
ATOM     52  C   UNL A   1      46.836  29.389  27.402  1.00  0.00     0.037 A 
ATOM     53  C   UNL A   1      40.369  28.213  29.516  1.00  0.00     0.037 A 
ATOM     54  C   UNL A   1      46.931  29.229  28.830  1.00  0.00     0.049 A 
ATOM     55  C   UNL A   1      41.368  29.109  30.136  1.00  0.00     0.074 A 
ATOM     56  C   UNL A   1      47.749  28.575  29.723  1.00  0.00     0.029 A 
ATOM     57  N   UNL A   1      45.780  29.558  29.493  1.00  0.00    -0.354 N 
ATOM     58  N   UNL A   1      42.068  28.784  31.187  1.00  0.00    -0.248 NA
ATOM     59  C   UNL A   1      41.856  30.264  29.391  1.00  0.00     0.031 C 
ATOM     60  C   UNL A   1      46.969  28.374  30.902  1.00  0.00     0.029 A 
ATOM     61  C   UNL A   1      45.710  28.940  30.708  1.00  0.00     0.049 A 
ATOM     62  H   UNL A   1      45.090  30.165  29.138  1.00  0.00     0.167 HD
ATOM     63  C   UNL A   1      43.288  29.396  30.982  1.00  0.00     0.074 A 
ATOM     64  C   UNL A   1      43.040  30.430  29.987  1.00  0.00     0.031 C 
ATOM     65  C   UNL A   1      44.441  28.787  31.379  1.00  0.00     0.037 A 
BRANCH  52  66
ATOM     66  C   UNL A   1      46.784  30.790  26.810  1.00  0.00     0.064 A 
ATOM     67  C   UNL A   1      47.954  31.585  26.861  1.00  0.00     0.173 A 
ATOM     68  C   UNL A   1      45.592  31.496  26.542  1.00  0.00     0.173 A 
ATOM     69  F   UNL A   1      49.151  31.028  27.100  1.00  0.00    -0.203 F 
ATOM     70  C   UNL A   1      47.911  32.981  26.768  1.00  0.00     0.198 A 
ATOM     71  C   UNL A   1      45.561  32.885  26.404  1.00  0.00     0.198 A 
ATOM     72  F   UNL A   1      44.397  30.900  26.512  1.00  0.00    -0.203 F 
ATOM     73  F   UNL A   1      49.026  33.697  26.962  1.00  0.00    -0.200 F 
ATOM     74  C   UNL A   1      46.710  33.630  26.555  1.00  0.00     0.200 A 
ATOM     75  F   UNL A   1      44.384  33.498  26.212  1.00  0.00    -0.200 F 
ATOM     76  F   UNL A   1      46.652  34.968  26.541  1.00  0.00    -0.200 F 
ENDBRANCH  52  66
BRANCH  53  77
ATOM     77  C   UNL A   1      38.947  28.590  29.366  1.00  0.00     0.064 A 
ATOM     78  C   UNL A   1      38.110  28.747  30.482  1.00  0.00     0.173 A 
ATOM     79  C   UNL A   1      38.456  29.070  28.137  1.00  0.00     0.173 A 
ATOM     80  F   UNL A   1      38.521  28.349  31.694  1.00  0.00    -0.203 F 
ATOM     81  C   UNL A   1      36.867  29.379  30.380  1.00  0.00     0.198 A 
ATOM     82  C   UNL A   1      37.214  29.697  28.036  1.00  0.00     0.198 A 
ATOM     83  F   UNL A   1      39.216  29.025  27.032  1.00  0.00    -0.203 F 
ATOM     84  F   UNL A   1      36.122  29.569  31.478  1.00  0.00    -0.200 F 
ATOM     85  C   UNL A   1      36.426  29.866  29.160  1.00  0.00     0.200 A 
ATOM     86  F   UNL A   1      36.815  30.195  26.857  1.00  0.00    -0.200 F 
ATOM     87  F   UNL A   1      35.266  30.531  29.075  1.00  0.00    -0.200 F 
ENDBRANCH  53  77
BRANCH  65  88
ATOM     88  C   UNL A   1      44.338  27.766  32.466  1.00  0.00     0.064 A 
ATOM     89  C   UNL A   1      44.213  26.384  32.250  1.00  0.00     0.173 A 
ATOM     90  C   UNL A   1      44.447  28.211  33.789  1.00  0.00     0.173 A 
ATOM     91  F   UNL A   1      44.183  25.879  31.011  1.00  0.00    -0.203 F 
ATOM     92  C   UNL A   1      44.157  25.494  33.320  1.00  0.00     0.198 A 
ATOM     93  C   UNL A   1      44.428  27.317  34.853  1.00  0.00     0.198 A 
ATOM     94  F   UNL A   1      44.609  29.518  34.046  1.00  0.00    -0.203 F 
ATOM     95  F   UNL A   1      44.015  24.179  33.095  1.00  0.00    -0.200 F 
ATOM     96  C   UNL A   1      44.271  25.961  34.620  1.00  0.00     0.200 A 
ATOM     97  F   UNL A   1      44.583  27.771  36.105  1.00  0.00    -0.200 F 
ATOM     98  F   UNL A   1      44.251  25.102  35.649  1.00  0.00    -0.200 F 
ENDBRANCH  65  88
ENDBRANCH  39  40
ENDBRANCH  31  34
ENDBRANCH  29  30
ENDBRANCH  28  29
ENDBRANCH  27  28
ENDBRANCH   1  27
TORSDOF 15
ENDMDL
MODEL 2
REMARK VINA RESULT:     -12.7      3.956      9.762
REMARK SMILES C[N@@H+]1CCN(C(=O)c2cnn3c2CCCC3)C[C@@H]1C(=O)NCCCCCCNC(=O)c1ccc(-c2c3nc(c(-c4c(F)c(F)c(F)c(F)c4F)c4ccc([nH]4)c(-c4c(F)c(F)c(F)c(F)c4F)c4nc(c(-c5c(F)c(F)c(F)c(F)c5F)c5ccc2[nH]5)C=C4)C=C3)cc1
REMARK SMILES IDX 24 1 23 2 22 3 21 4 19 5 20 6 18 8 1 9 2 10 3 11 4 13 17 14
REMARK SMILES IDX 5 15 6 16 7 17 8 18 9 19 12 20 10 21 11 22 13 23 16 24 14 25
REMARK SMILES IDX 15 26 25 27 26 28 27 29 28 30 29 31 30 33 31 34 32 35 93 36
REMARK SMILES IDX 33 37 92 38 34 39 35 40 36 41 86 42 37 43 91 44 85 45 87 46
REMARK SMILES IDX 38 47 90 48 84 49 83 50 39 52 71 53 51 54 70 55 52 56 55 57
REMARK SMILES IDX 69 58 88 59 53 60 54 61 68 63 89 64 56 65 40 66 41 67 49 68
REMARK SMILES IDX 42 69 43 70 47 71 50 72 44 73 45 74 48 75 46 76 72 77 73 78
REMARK SMILES IDX 81 79 74 80 75 81 79 82 82 83 76 84 77 85 80 86 78 87 57 88
REMARK SMILES IDX 58 89 66 90 59 91 60 92 64 93 67 94 61 95 62 96 65 97 63 98
REMARK H PARENT 21 7 2 12 28 32 87 51 55 62
REMARK Flexibility Score: inf
ROOT
ATOM      1  C   UNL A   1      34.422  32.212  28.410  1.00  0.00     0.002 C 
ENDROOT
BRANCH   1   2
ATOM      2  C   UNL A   1      33.480  31.383  27.527  1.00  0.00     0.021 C 
BRANCH   2   3
ATOM      3  C   UNL A   1      33.935  29.943  27.279  1.00  0.00     0.116 C 
BRANCH   3   4
ATOM      4  N   UNL A   1      32.916  28.998  27.677  1.00  0.00    -0.351 N 
ATOM      5  C   UNL A   1      32.308  27.987  26.996  1.00  0.00     0.280 C 
ATOM      6  O   UNL A   1      31.436  27.374  27.618  1.00  0.00    -0.268 OA
ATOM      7  H   UNL A   1      32.606  29.103  28.605  1.00  0.00     0.163 HD
BRANCH   5   8
ATOM      8  C   UNL A   1      32.713  27.636  25.544  1.00  0.00     0.293 C 
ATOM      9  C   UNL A   1      31.074  29.109  24.394  1.00  0.00     0.333 C 
ATOM     10  N   UNL A   1      31.603  27.767  24.553  1.00  0.00    -0.324 N 
ATOM     11  C   UNL A   1      30.523  26.797  24.823  1.00  0.00     0.284 C 
ATOM     12  H   UNL A   1      32.034  27.547  23.656  1.00  0.00     0.348 HD
ATOM     13  C   UNL A   1      31.036  25.350  24.824  1.00  0.00     0.181 C 
ATOM     14  C   UNL A   1      33.255  26.179  25.524  1.00  0.00     0.195 C 
ATOM     15  N   UNL A   1      32.194  25.174  25.697  1.00  0.00    -0.326 N 
BRANCH  15  16
ATOM     16  C   UNL A   1      32.230  24.068  26.538  1.00  0.00     0.257 C 
ATOM     17  O   UNL A   1      31.366  23.865  27.390  1.00  0.00    -0.269 OA
BRANCH  16  18
ATOM     18  C   UNL A   1      33.267  23.080  26.315  1.00  0.00     0.081 A 
ATOM     19  C   UNL A   1      34.565  22.959  26.861  1.00  0.00     0.149 A 
ATOM     20  C   UNL A   1      33.130  21.951  25.529  1.00  0.00     0.051 A 
ATOM     21  N   UNL A   1      35.224  21.888  26.403  1.00  0.00    -0.180 NA
ATOM     22  N   UNL A   1      34.311  21.273  25.631  1.00  0.00    -0.269 N 
ATOM     23  C   UNL A   1      31.983  21.430  24.736  1.00  0.00     0.057 C 
ATOM     24  C   UNL A   1      34.625  20.039  24.936  1.00  0.00     0.144 C 
ATOM     25  C   UNL A   1      32.426  20.353  23.744  1.00  0.00     0.008 C 
ATOM     26  C   UNL A   1      33.365  19.346  24.413  1.00  0.00     0.024 C 
ENDBRANCH  16  18
ENDBRANCH  15  16
ENDBRANCH   5   8
ENDBRANCH   3   4
ENDBRANCH   2   3
ENDBRANCH   1   2
BRANCH   1  27
ATOM     27  C   UNL A   1      34.415  33.724  28.150  1.00  0.00     0.002 C 
BRANCH  27  28
ATOM     28  C   UNL A   1      33.223  34.495  28.730  1.00  0.00     0.021 C 
BRANCH  28  29
ATOM     29  C   UNL A   1      33.615  35.747  29.500  1.00  0.00     0.116 C 
BRANCH  29  30
ATOM     30  N   UNL A   1      32.929  35.846  30.783  1.00  0.00    -0.352 N 
ATOM     31  C   UNL A   1      33.124  35.080  31.913  1.00  0.00     0.251 C 
ATOM     32  H   UNL A   1      32.241  36.547  30.851  1.00  0.00     0.163 HD
ATOM     33  O   UNL A   1      32.277  35.013  32.786  1.00  0.00    -0.269 OA
BRANCH  31  34
ATOM     34  C   UNL A   1      34.386  34.328  32.045  1.00  0.00     0.039 A 
ATOM     35  C   UNL A   1      34.399  32.938  31.914  1.00  0.00     0.014 A 
ATOM     36  C   UNL A   1      35.562  35.036  32.287  1.00  0.00     0.014 A 
ATOM     37  C   UNL A   1      35.618  32.269  31.949  1.00  0.00     0.010 A 
ATOM     38  C   UNL A   1      36.773  34.392  32.201  1.00  0.00     0.010 A 
ATOM     39  C   UNL A   1      36.808  33.005  32.070  1.00  0.00    -0.014 A 
BRANCH  39  40
ATOM     40  C   UNL A   1      38.101  32.340  31.921  1.00  0.00     0.031 A 
ATOM     41  C   UNL A   1      38.837  32.133  33.201  1.00  0.00     0.074 A 
ATOM     42  C   UNL A   1      38.491  31.753  30.768  1.00  0.00     0.049 A 
ATOM     43  N   UNL A   1      39.994  32.599  33.535  1.00  0.00    -0.248 NA
ATOM     44  C   UNL A   1      38.156  31.412  34.291  1.00  0.00     0.031 C 
ATOM     45  C   UNL A   1      37.704  31.611  29.536  1.00  0.00     0.029 A 
ATOM     46  N   UNL A   1      39.624  31.044  30.483  1.00  0.00    -0.354 N 
ATOM     47  C   UNL A   1      40.279  32.068  34.793  1.00  0.00     0.074 A 
ATOM     48  C   UNL A   1      39.053  31.496  35.277  1.00  0.00     0.031 C 
ATOM     49  C   UNL A   1      38.262  30.669  28.746  1.00  0.00     0.029 A 
ATOM     50  C   UNL A   1      39.534  30.278  29.326  1.00  0.00     0.049 A 
ATOM     51  H   UNL A   1      40.431  31.073  31.046  1.00  0.00     0.167 HD
ATOM     52  C   UNL A   1      41.572  31.898  35.190  1.00  0.00     0.037 A 
ATOM     53  C   UNL A   1      40.428  29.373  28.866  1.00  0.00     0.037 A 
ATOM     54  C   UNL A   1      42.460  32.632  34.325  1.00  0.00     0.049 A 
ATOM     55  C   UNL A   1      41.733  29.669  29.492  1.00  0.00     0.074 A 
ATOM     56  C   UNL A   1      42.848  33.940  34.149  1.00  0.00     0.029 A 
ATOM     57  N   UNL A   1      42.817  31.942  33.199  1.00  0.00    -0.354 N 
ATOM     58  N   UNL A   1      42.421  30.749  29.241  1.00  0.00    -0.248 NA
ATOM     59  C   UNL A   1      42.147  28.926  30.677  1.00  0.00     0.031 C 
ATOM     60  C   UNL A   1      43.298  34.042  32.798  1.00  0.00     0.029 A 
ATOM     61  C   UNL A   1      43.205  32.787  32.199  1.00  0.00     0.049 A 
ATOM     62  H   UNL A   1      42.798  30.961  33.121  1.00  0.00     0.167 HD
ATOM     63  C   UNL A   1      43.033  31.046  30.442  1.00  0.00     0.074 A 
ATOM     64  C   UNL A   1      42.991  29.812  31.213  1.00  0.00     0.031 C 
ATOM     65  C   UNL A   1      43.207  32.342  30.825  1.00  0.00     0.037 A 
BRANCH  52  66
ATOM     66  C   UNL A   1      42.107  30.709  35.973  1.00  0.00     0.064 A 
ATOM     67  C   UNL A   1      43.091  30.943  36.963  1.00  0.00     0.173 A 
ATOM     68  C   UNL A   1      41.980  29.364  35.564  1.00  0.00     0.173 A 
ATOM     69  F   UNL A   1      43.301  32.179  37.441  1.00  0.00    -0.203 F 
ATOM     70  C   UNL A   1      43.950  29.935  37.413  1.00  0.00     0.198 A 
ATOM     71  C   UNL A   1      42.809  28.353  36.050  1.00  0.00     0.198 A 
ATOM     72  F   UNL A   1      41.133  28.985  34.601  1.00  0.00    -0.203 F 
ATOM     73  F   UNL A   1      44.955  30.237  38.246  1.00  0.00    -0.200 F 
ATOM     74  C   UNL A   1      43.818  28.643  36.943  1.00  0.00     0.200 A 
ATOM     75  F   UNL A   1      42.675  27.107  35.571  1.00  0.00    -0.200 F 
ATOM     76  F   UNL A   1      44.684  27.690  37.313  1.00  0.00    -0.200 F 
ENDBRANCH  52  66
BRANCH  53  77
ATOM     77  C   UNL A   1      40.190  28.155  28.062  1.00  0.00     0.064 A 
ATOM     78  C   UNL A   1      40.866  27.935  26.851  1.00  0.00     0.173 A 
ATOM     79  C   UNL A   1      39.499  27.056  28.607  1.00  0.00     0.173 A 
ATOM     80  F   UNL A   1      41.577  28.920  26.286  1.00  0.00    -0.203 F 
ATOM     81  C   UNL A   1      40.875  26.678  26.236  1.00  0.00     0.198 A 
ATOM     82  C   UNL A   1      39.506  25.805  27.991  1.00  0.00     0.198 A 
ATOM     83  F   UNL A   1      38.884  27.156  29.795  1.00  0.00    -0.203 F 
ATOM     84  F   UNL A   1      41.583  26.488  25.115  1.00  0.00    -0.200 F 
ATOM     85  C   UNL A   1      40.207  25.611  26.815  1.00  0.00     0.200 A 
ATOM     86  F   UNL A   1      38.886  24.771  28.579  1.00  0.00    -0.200 F 
ATOM     87  F   UNL A   1      40.273  24.391  26.264  1.00  0.00    -0.200 F 
ENDBRANCH  53  77
BRANCH  65  88
ATOM     88  C   UNL A   1      43.224  33.380  29.750  1.00  0.00     0.064 A 
ATOM     89  C   UNL A   1      44.302  33.604  28.878  1.00  0.00     0.173 A 
ATOM     90  C   UNL A   1      42.058  34.130  29.550  1.00  0.00     0.173 A 
ATOM     91  F   UNL A   1      45.419  32.871  28.958  1.00  0.00    -0.203 F 
ATOM     92  C   UNL A   1      44.225  34.571  27.878  1.00  0.00     0.198 A 
ATOM     93  C   UNL A   1      41.971  35.067  28.528  1.00  0.00     0.198 A 
ATOM     94  F   UNL A   1      40.986  33.923  30.331  1.00  0.00    -0.203 F 
ATOM     95  F   UNL A   1      45.273  34.787  27.069  1.00  0.00    -0.200 F 
ATOM     96  C   UNL A   1      43.058  35.296  27.700  1.00  0.00     0.200 A 
ATOM     97  F   UNL A   1      40.825  35.734  28.334  1.00  0.00    -0.200 F 
ATOM     98  F   UNL A   1      42.971  36.203  26.717  1.00  0.00    -0.200 F 
ENDBRANCH  65  88
ENDBRANCH  39  40
ENDBRANCH  31  34
ENDBRANCH  29  30
ENDBRANCH  28  29
ENDBRANCH  27  28
ENDBRANCH   1  27
TORSDOF 15
ENDMDL
MODEL 3
REMARK VINA RESULT:     -12.3      4.172      9.820
REMARK SMILES C[N@@H+]1CCN(C(=O)c2cnn3c2CCCC3)C[C@@H]1C(=O)NCCCCCCNC(=O)c1ccc(-c2c3nc(c(-c4c(F)c(F)c(F)c(F)c4F)c4ccc([nH]4)c(-c4c(F)c(F)c(F)c(F)c4F)c4nc(c(-c5c(F)c(F)c(F)c(F)c5F)c5ccc2[nH]5)C=C4)C=C3)cc1
REMARK SMILES IDX 24 1 23 2 22 3 21 4 19 5 20 6 18 8 1 9 2 10 3 11 4 13 17 14
REMARK SMILES IDX 5 15 6 16 7 17 8 18 9 19 12 20 10 21 11 22 13 23 16 24 14 25
REMARK SMILES IDX 15 26 25 27 26 28 27 29 28 30 29 31 30 33 31 34 32 35 93 36
REMARK SMILES IDX 33 37 92 38 34 39 35 40 36 41 86 42 37 43 91 44 85 45 87 46
REMARK SMILES IDX 38 47 90 48 84 49 83 50 39 52 71 53 51 54 70 55 52 56 55 57
REMARK SMILES IDX 69 58 88 59 53 60 54 61 68 63 89 64 56 65 40 66 41 67 49 68
REMARK SMILES IDX 42 69 43 70 47 71 50 72 44 73 45 74 48 75 46 76 72 77 73 78
REMARK SMILES IDX 81 79 74 80 75 81 79 82 82 83 76 84 77 85 80 86 78 87 57 88
REMARK SMILES IDX 58 89 66 90 59 91 60 92 64 93 67 94 61 95 62 96 65 97 63 98
REMARK H PARENT 21 7 2 12 28 32 87 51 55 62
REMARK Flexibility Score: inf
ROOT
ATOM      1  C   UNL A   1      34.550  32.100  28.339  1.00  0.00     0.002 C 
ENDROOT
BRANCH   1   2
ATOM      2  C   UNL A   1      33.505  31.299  27.551  1.00  0.00     0.021 C 
BRANCH   2   3
ATOM      3  C   UNL A   1      33.889  29.845  27.270  1.00  0.00     0.116 C 
BRANCH   3   4
ATOM      4  N   UNL A   1      32.831  28.940  27.658  1.00  0.00    -0.351 N 
ATOM      5  C   UNL A   1      32.186  27.959  26.970  1.00  0.00     0.280 C 
ATOM      6  O   UNL A   1      31.286  27.379  27.585  1.00  0.00    -0.268 OA
ATOM      7  H   UNL A   1      32.522  29.053  28.586  1.00  0.00     0.163 HD
BRANCH   5   8
ATOM      8  C   UNL A   1      32.581  27.599  25.517  1.00  0.00     0.293 C 
ATOM      9  C   UNL A   1      30.907  29.033  24.369  1.00  0.00     0.333 C 
ATOM     10  N   UNL A   1      31.460  27.702  24.537  1.00  0.00    -0.324 N 
ATOM     11  C   UNL A   1      30.399  26.717  24.827  1.00  0.00     0.284 C 
ATOM     12  H   UNL A   1      31.885  27.479  23.637  1.00  0.00     0.348 HD
ATOM     13  C   UNL A   1      30.935  25.278  24.838  1.00  0.00     0.181 C 
ATOM     14  C   UNL A   1      33.147  26.151  25.507  1.00  0.00     0.195 C 
ATOM     15  N   UNL A   1      32.104  25.131  25.701  1.00  0.00    -0.326 N 
BRANCH  15  16
ATOM     16  C   UNL A   1      32.167  24.034  26.553  1.00  0.00     0.257 C 
ATOM     17  O   UNL A   1      31.309  23.820  27.408  1.00  0.00    -0.269 OA
BRANCH  16  18
ATOM     18  C   UNL A   1      33.225  23.067  26.338  1.00  0.00     0.081 A 
ATOM     19  C   UNL A   1      34.520  22.971  26.896  1.00  0.00     0.149 A 
ATOM     20  C   UNL A   1      33.118  21.938  25.548  1.00  0.00     0.051 A 
ATOM     21  N   UNL A   1      35.205  21.914  26.441  1.00  0.00    -0.180 NA
ATOM     22  N   UNL A   1      34.312  21.283  25.659  1.00  0.00    -0.269 N 
ATOM     23  C   UNL A   1      31.989  21.396  24.742  1.00  0.00     0.057 C 
ATOM     24  C   UNL A   1      34.657  20.058  24.965  1.00  0.00     0.144 C 
ATOM     25  C   UNL A   1      32.463  20.331  23.752  1.00  0.00     0.008 C 
ATOM     26  C   UNL A   1      33.416  19.342  24.427  1.00  0.00     0.024 C 
ENDBRANCH  16  18
ENDBRANCH  15  16
ENDBRANCH   5   8
ENDBRANCH   3   4
ENDBRANCH   2   3
ENDBRANCH   1   2
BRANCH   1  27
ATOM     27  C   UNL A   1      34.536  33.616  28.106  1.00  0.00     0.002 C 
BRANCH  27  28
ATOM     28  C   UNL A   1      33.287  34.356  28.600  1.00  0.00     0.021 C 
BRANCH  28  29
ATOM     29  C   UNL A   1      33.591  35.644  29.350  1.00  0.00     0.116 C 
BRANCH  29  30
ATOM     30  N   UNL A   1      32.852  35.745  30.602  1.00  0.00    -0.352 N 
ATOM     31  C   UNL A   1      33.060  35.041  31.771  1.00  0.00     0.251 C 
ATOM     32  H   UNL A   1      32.113  36.395  30.617  1.00  0.00     0.163 HD
ATOM     33  O   UNL A   1      32.188  34.947  32.617  1.00  0.00    -0.269 OA
BRANCH  31  34
ATOM     34  C   UNL A   1      34.367  34.391  31.978  1.00  0.00     0.039 A 
ATOM     35  C   UNL A   1      34.505  33.011  31.817  1.00  0.00     0.014 A 
ATOM     36  C   UNL A   1      35.461  35.184  32.322  1.00  0.00     0.014 A 
ATOM     37  C   UNL A   1      35.770  32.442  31.926  1.00  0.00     0.010 A 
ATOM     38  C   UNL A   1      36.724  34.643  32.311  1.00  0.00     0.010 A 
ATOM     39  C   UNL A   1      36.882  33.268  32.151  1.00  0.00    -0.014 A 
BRANCH  39  40
ATOM     40  C   UNL A   1      38.234  32.714  32.083  1.00  0.00     0.031 A 
ATOM     41  C   UNL A   1      38.966  32.718  33.381  1.00  0.00     0.074 A 
ATOM     42  C   UNL A   1      38.694  32.044  31.003  1.00  0.00     0.049 A 
ATOM     43  N   UNL A   1      40.070  33.325  33.667  1.00  0.00    -0.248 NA
ATOM     44  C   UNL A   1      38.338  32.060  34.540  1.00  0.00     0.031 C 
ATOM     45  C   UNL A   1      37.943  31.696  29.790  1.00  0.00     0.029 A 
ATOM     46  N   UNL A   1      39.892  31.417  30.804  1.00  0.00    -0.354 N 
ATOM     47  C   UNL A   1      40.384  32.963  34.978  1.00  0.00     0.074 A 
ATOM     48  C   UNL A   1      39.209  32.335  35.516  1.00  0.00     0.031 C 
ATOM     49  C   UNL A   1      38.596  30.730  29.112  1.00  0.00     0.029 A 
ATOM     50  C   UNL A   1      39.890  30.524  29.738  1.00  0.00     0.049 A 
ATOM     51  H   UNL A   1      40.684  31.583  31.364  1.00  0.00     0.167 HD
ATOM     52  C   UNL A   1      41.681  32.959  35.397  1.00  0.00     0.037 A 
ATOM     53  C   UNL A   1      40.871  29.662  29.385  1.00  0.00     0.037 A 
ATOM     54  C   UNL A   1      42.511  33.674  34.461  1.00  0.00     0.049 A 
ATOM     55  C   UNL A   1      42.134  30.146  29.981  1.00  0.00     0.074 A 
ATOM     56  C   UNL A   1      42.779  34.986  34.145  1.00  0.00     0.029 A 
ATOM     57  N   UNL A   1      42.947  32.902  33.420  1.00  0.00    -0.354 N 
ATOM     58  N   UNL A   1      42.722  31.251  29.616  1.00  0.00    -0.248 NA
ATOM     59  C   UNL A   1      42.596  29.579  31.242  1.00  0.00     0.031 C 
ATOM     60  C   UNL A   1      43.238  34.981  32.792  1.00  0.00     0.029 A 
ATOM     61  C   UNL A   1      43.270  33.664  32.335  1.00  0.00     0.049 A 
ATOM     62  H   UNL A   1      43.019  31.920  33.450  1.00  0.00     0.167 HD
ATOM     63  C   UNL A   1      43.286  31.734  30.779  1.00  0.00     0.074 A 
ATOM     64  C   UNL A   1      43.347  30.593  31.682  1.00  0.00     0.031 C 
ATOM     65  C   UNL A   1      43.334  33.075  31.018  1.00  0.00     0.037 A 
BRANCH  52  66
ATOM     66  C   UNL A   1      42.311  31.917  36.309  1.00  0.00     0.064 A 
ATOM     67  C   UNL A   1      43.132  32.363  37.373  1.00  0.00     0.173 A 
ATOM     68  C   UNL A   1      42.447  30.551  35.983  1.00  0.00     0.173 A 
ATOM     69  F   UNL A   1      43.088  33.640  37.782  1.00  0.00    -0.203 F 
ATOM     70  C   UNL A   1      44.088  31.537  37.974  1.00  0.00     0.198 A 
ATOM     71  C   UNL A   1      43.370  29.718  36.617  1.00  0.00     0.198 A 
ATOM     72  F   UNL A   1      41.781  29.987  34.971  1.00  0.00    -0.203 F 
ATOM     73  F   UNL A   1      44.936  32.046  38.878  1.00  0.00    -0.200 F 
ATOM     74  C   UNL A   1      44.216  30.219  37.583  1.00  0.00     0.200 A 
ATOM     75  F   UNL A   1      43.489  28.445  36.214  1.00  0.00    -0.200 F 
ATOM     76  F   UNL A   1      45.179  29.444  38.101  1.00  0.00    -0.200 F 
ENDBRANCH  52  66
BRANCH  53  77
ATOM     77  C   UNL A   1      40.759  28.347  28.718  1.00  0.00     0.064 A 
ATOM     78  C   UNL A   1      39.993  27.309  29.271  1.00  0.00     0.173 A 
ATOM     79  C   UNL A   1      41.181  28.178  27.385  1.00  0.00     0.173 A 
ATOM     80  F   UNL A   1      39.524  27.410  30.522  1.00  0.00    -0.203 F 
ATOM     81  C   UNL A   1      39.642  26.180  28.523  1.00  0.00     0.198 A 
ATOM     82  C   UNL A   1      40.833  27.051  26.641  1.00  0.00     0.198 A 
ATOM     83  F   UNL A   1      41.857  29.150  26.753  1.00  0.00    -0.203 F 
ATOM     84  F   UNL A   1      38.856  25.239  29.063  1.00  0.00    -0.200 F 
ATOM     85  C   UNL A   1      40.050  26.060  27.205  1.00  0.00     0.200 A 
ATOM     86  F   UNL A   1      41.204  26.963  25.356  1.00  0.00    -0.200 F 
ATOM     87  F   UNL A   1      39.657  25.012  26.467  1.00  0.00    -0.200 F 
ENDBRANCH  53  77
BRANCH  65  88
ATOM     88  C   UNL A   1      43.271  33.986  29.835  1.00  0.00     0.064 A 
ATOM     89  C   UNL A   1      42.096  34.586  29.355  1.00  0.00     0.173 A 
ATOM     90  C   UNL A   1      44.477  34.321  29.207  1.00  0.00     0.173 A 
ATOM     91  F   UNL A   1      40.917  34.374  29.954  1.00  0.00    -0.203 F 
ATOM     92  C   UNL A   1      42.128  35.451  28.263  1.00  0.00     0.198 A 
ATOM     93  C   UNL A   1      44.511  35.213  28.143  1.00  0.00     0.198 A 
ATOM     94  F   UNL A   1      45.633  33.805  29.656  1.00  0.00    -0.203 F 
ATOM     95  F   UNL A   1      40.992  35.998  27.804  1.00  0.00    -0.200 F 
ATOM     96  C   UNL A   1      43.336  35.769  27.663  1.00  0.00     0.200 A 
ATOM     97  F   UNL A   1      45.687  35.550  27.595  1.00  0.00    -0.200 F 
ATOM     98  F   UNL A   1      43.372  36.627  26.634  1.00  0.00    -0.200 F 
ENDBRANCH  65  88
ENDBRANCH  39  40
ENDBRANCH  31  34
ENDBRANCH  29  30
ENDBRANCH  28  29
ENDBRANCH  27  28
ENDBRANCH   1  27
TORSDOF 15
ENDMDL
