MODEL 1
REMARK VINA RESULT:     -13.3      0.000      0.000
REMARK SMILES Cc1cc(OC(F)(F)F)cc2c1O[C@H](C(F)(F)F)C(C(=O)NCCCCCCNC(=O)c1ccc(-c3c4nc(c(-c5c(F)c(F)c(F)c(F)c5F)c5ccc([nH]5)c(-c5c(F)c(F)c(F)c(F)c5F)c5nc(c(-c6c(F)c(F)c(F)c(F)c6F)c6ccc3[nH]6)C=C5)C=C4)cc1)=C2
REMARK SMILES IDX 25 1 24 2 23 3 22 4 20 5 21 6 19 8 1 9 2 10 3 11 12 12 4 13
REMARK SMILES IDX 11 14 13 15 10 16 95 17 14 18 5 19 6 20 7 21 8 22 9 23 15 24
REMARK SMILES IDX 16 25 17 26 18 27 26 28 27 29 28 30 29 31 30 32 31 34 32 35
REMARK SMILES IDX 33 36 94 37 34 38 93 39 35 40 36 41 37 42 87 43 38 44 92 45
REMARK SMILES IDX 86 46 88 47 39 48 91 49 85 50 84 51 40 53 72 54 52 55 71 56
REMARK SMILES IDX 53 57 56 58 70 59 89 60 54 61 55 62 69 64 90 65 57 66 41 67
REMARK SMILES IDX 42 68 50 69 43 70 44 71 48 72 51 73 45 74 46 75 49 76 47 77
REMARK SMILES IDX 73 78 74 79 82 80 75 81 76 82 80 83 83 84 77 85 78 86 81 87
REMARK SMILES IDX 79 88 58 89 59 90 67 91 60 92 61 93 65 94 68 95 62 96 63 97
REMARK SMILES IDX 66 98 64 99
REMARK H PARENT 22 7 29 33 88 52 56 63
REMARK Flexibility Score: inf
ROOT
ATOM      1  C   UNL A   1      33.722  20.258  24.580  1.00  0.00     0.002 C 
ENDROOT
BRANCH   1   2
ATOM      2  C   UNL A   1      32.232  20.477  24.865  1.00  0.00     0.021 C 
BRANCH   2   3
ATOM      3  C   UNL A   1      31.795  21.938  24.799  1.00  0.00     0.116 C 
BRANCH   3   4
ATOM      4  N   UNL A   1      30.966  22.305  25.932  1.00  0.00    -0.352 N 
ATOM      5  C   UNL A   1      30.543  23.444  26.527  1.00  0.00     0.251 C 
ATOM      6  O   UNL A   1      29.802  23.277  27.502  1.00  0.00    -0.270 OA
ATOM      7  H   UNL A   1      30.617  21.508  26.395  1.00  0.00     0.163 HD
BRANCH   5   8
ATOM      8  C   UNL A   1      30.896  24.832  26.101  1.00  0.00     0.067 C 
ATOM      9  C   UNL A   1      32.685  29.648  25.497  1.00  0.00     0.048 C 
ATOM     10  C   UNL A   1      31.619  28.794  24.867  1.00  0.00    -0.005 A 
ATOM     11  C   UNL A   1      30.889  29.314  23.785  1.00  0.00     0.054 A 
ATOM     12  C   UNL A   1      31.353  27.490  25.302  1.00  0.00     0.131 A 
ATOM     13  C   UNL A   1      29.898  28.555  23.161  1.00  0.00     0.130 A 
ATOM     14  C   UNL A   1      30.364  26.721  24.687  1.00  0.00     0.021 A 
ATOM     15  O   UNL A   1      32.057  27.029  26.376  1.00  0.00    -0.475 OA
ATOM     16  C   UNL A   1      29.642  27.258  23.618  1.00  0.00     0.058 A 
ATOM     17  C   UNL A   1      30.075  25.382  25.188  1.00  0.00     0.025 C 
ATOM     18  C   UNL A   1      32.097  25.594  26.584  1.00  0.00     0.314 C 
BRANCH  13  19
ATOM     19  O   UNL A   1      29.115  28.950  22.113  1.00  0.00    -0.406 OA
BRANCH  19  20
ATOM     20  C   UNL A   1      27.933  29.676  22.409  1.00  0.00     0.573 C 
ATOM     21  F   UNL A   1      27.500  30.364  21.331  1.00  0.00    -0.132 F 
ATOM     22  F   UNL A   1      26.953  28.855  22.843  1.00  0.00    -0.132 F 
ATOM     23  F   UNL A   1      28.205  30.563  23.392  1.00  0.00    -0.132 F 
ENDBRANCH  19  20
ENDBRANCH  13  19
BRANCH  18  24
ATOM     24  C   UNL A   1      33.421  25.048  26.025  1.00  0.00     0.429 C 
ATOM     25  F   UNL A   1      33.258  24.627  24.745  1.00  0.00    -0.167 F 
ATOM     26  F   UNL A   1      34.399  25.984  25.991  1.00  0.00    -0.167 F 
ATOM     27  F   UNL A   1      33.897  24.003  26.738  1.00  0.00    -0.167 F 
ENDBRANCH  18  24
ENDBRANCH   5   8
ENDBRANCH   3   4
ENDBRANCH   2   3
ENDBRANCH   1   2
BRANCH   1  28
ATOM     28  C   UNL A   1      34.610  21.505  24.703  1.00  0.00     0.002 C 
BRANCH  28  29
ATOM     29  C   UNL A   1      35.548  21.533  25.912  1.00  0.00     0.021 C 
BRANCH  29  30
ATOM     30  C   UNL A   1      36.967  21.992  25.602  1.00  0.00     0.116 C 
BRANCH  30  31
ATOM     31  N   UNL A   1      37.938  20.927  25.792  1.00  0.00    -0.352 N 
ATOM     32  C   UNL A   1      39.252  21.024  26.172  1.00  0.00     0.251 C 
ATOM     33  H   UNL A   1      37.606  20.014  25.626  1.00  0.00     0.163 HD
ATOM     34  O   UNL A   1      39.999  20.053  26.120  1.00  0.00    -0.269 OA
BRANCH  32  35
ATOM     35  C   UNL A   1      39.767  22.328  26.629  1.00  0.00     0.039 A 
ATOM     36  C   UNL A   1      40.763  22.357  27.605  1.00  0.00     0.014 A 
ATOM     37  C   UNL A   1      39.282  23.512  26.064  1.00  0.00     0.014 A 
ATOM     38  C   UNL A   1      41.316  23.580  27.981  1.00  0.00     0.010 A 
ATOM     39  C   UNL A   1      39.870  24.726  26.402  1.00  0.00     0.010 A 
ATOM     40  C   UNL A   1      40.889  24.769  27.365  1.00  0.00    -0.014 A 
BRANCH  40  41
ATOM     41  C   UNL A   1      41.499  26.066  27.738  1.00  0.00     0.031 A 
ATOM     42  C   UNL A   1      42.909  26.375  27.328  1.00  0.00     0.074 A 
ATOM     43  C   UNL A   1      40.788  26.953  28.459  1.00  0.00     0.049 A 
ATOM     44  N   UNL A   1      43.599  27.470  27.515  1.00  0.00    -0.248 NA
ATOM     45  C   UNL A   1      43.644  25.310  26.628  1.00  0.00     0.031 C 
ATOM     46  C   UNL A   1      39.426  26.741  28.950  1.00  0.00     0.029 A 
ATOM     47  N   UNL A   1      41.109  28.212  28.899  1.00  0.00    -0.354 N 
ATOM     48  C   UNL A   1      44.841  27.231  26.943  1.00  0.00     0.074 A 
ATOM     49  C   UNL A   1      44.835  25.868  26.463  1.00  0.00     0.031 C 
ATOM     50  C   UNL A   1      39.016  27.844  29.596  1.00  0.00     0.029 A 
ATOM     51  C   UNL A   1      40.090  28.834  29.578  1.00  0.00     0.049 A 
ATOM     52  H   UNL A   1      41.986  28.630  28.742  1.00  0.00     0.167 HD
ATOM     53  C   UNL A   1      45.880  28.087  26.802  1.00  0.00     0.037 A 
ATOM     54  C   UNL A   1      40.028  30.070  30.110  1.00  0.00     0.037 A 
ATOM     55  C   UNL A   1      45.876  29.445  27.270  1.00  0.00     0.049 A 
ATOM     56  C   UNL A   1      41.207  30.993  29.965  1.00  0.00     0.074 A 
ATOM     57  C   UNL A   1      46.861  30.406  27.137  1.00  0.00     0.029 A 
ATOM     58  N   UNL A   1      44.831  30.034  27.967  1.00  0.00    -0.354 N 
ATOM     59  N   UNL A   1      42.348  30.782  29.355  1.00  0.00    -0.248 NA
ATOM     60  C   UNL A   1      41.091  32.324  30.577  1.00  0.00     0.031 C 
ATOM     61  C   UNL A   1      46.428  31.568  27.782  1.00  0.00     0.029 A 
ATOM     62  C   UNL A   1      45.157  31.341  28.287  1.00  0.00     0.049 A 
ATOM     63  H   UNL A   1      43.983  29.590  28.199  1.00  0.00     0.167 HD
ATOM     64  C   UNL A   1      43.070  31.961  29.478  1.00  0.00     0.074 A 
ATOM     65  C   UNL A   1      42.240  32.885  30.224  1.00  0.00     0.031 C 
ATOM     66  C   UNL A   1      44.308  32.250  29.014  1.00  0.00     0.037 A 
BRANCH  53  67
ATOM     67  C   UNL A   1      47.098  27.588  26.087  1.00  0.00     0.064 A 
ATOM     68  C   UNL A   1      47.202  27.670  24.691  1.00  0.00     0.173 A 
ATOM     69  C   UNL A   1      48.190  27.076  26.801  1.00  0.00     0.173 A 
ATOM     70  F   UNL A   1      46.177  28.142  23.964  1.00  0.00    -0.203 F 
ATOM     71  C   UNL A   1      48.351  27.243  24.033  1.00  0.00     0.198 A 
ATOM     72  C   UNL A   1      49.348  26.671  26.141  1.00  0.00     0.198 A 
ATOM     73  F   UNL A   1      48.141  26.981  28.138  1.00  0.00    -0.203 F 
ATOM     74  F   UNL A   1      48.416  27.299  22.695  1.00  0.00    -0.200 F 
ATOM     75  C   UNL A   1      49.426  26.751  24.758  1.00  0.00     0.200 A 
ATOM     76  F   UNL A   1      50.389  26.206  26.844  1.00  0.00    -0.200 F 
ATOM     77  F   UNL A   1      50.536  26.350  24.125  1.00  0.00    -0.200 F 
ENDBRANCH  53  67
BRANCH  54  78
ATOM     78  C   UNL A   1      38.779  30.523  30.772  1.00  0.00     0.064 A 
ATOM     79  C   UNL A   1      38.646  30.461  32.166  1.00  0.00     0.173 A 
ATOM     80  C   UNL A   1      37.707  31.045  30.035  1.00  0.00     0.173 A 
ATOM     81  F   UNL A   1      39.640  29.953  32.910  1.00  0.00    -0.203 F 
ATOM     82  C   UNL A   1      37.484  30.897  32.798  1.00  0.00     0.198 A 
ATOM     83  C   UNL A   1      36.552  31.500  30.670  1.00  0.00     0.198 A 
ATOM     84  F   UNL A   1      37.787  31.129  28.699  1.00  0.00    -0.203 F 
ATOM     85  F   UNL A   1      37.372  30.803  34.130  1.00  0.00    -0.200 F 
ATOM     86  C   UNL A   1      36.440  31.423  32.051  1.00  0.00     0.200 A 
ATOM     87  F   UNL A   1      35.551  32.017  29.945  1.00  0.00    -0.200 F 
ATOM     88  F   UNL A   1      35.327  31.850  32.659  1.00  0.00    -0.200 F 
ENDBRANCH  54  78
BRANCH  66  89
ATOM     89  C   UNL A   1      44.848  33.625  29.265  1.00  0.00     0.064 A 
ATOM     90  C   UNL A   1      45.654  33.897  30.379  1.00  0.00     0.173 A 
ATOM     91  C   UNL A   1      44.651  34.646  28.324  1.00  0.00     0.173 A 
ATOM     92  F   UNL A   1      45.860  32.953  31.310  1.00  0.00    -0.203 F 
ATOM     93  C   UNL A   1      46.249  35.146  30.539  1.00  0.00     0.198 A 
ATOM     94  C   UNL A   1      45.264  35.886  28.477  1.00  0.00     0.198 A 
ATOM     95  F   UNL A   1      43.893  34.428  27.239  1.00  0.00    -0.203 F 
ATOM     96  F   UNL A   1      47.008  35.390  31.616  1.00  0.00    -0.200 F 
ATOM     97  C   UNL A   1      46.064  36.134  29.582  1.00  0.00     0.200 A 
ATOM     98  F   UNL A   1      45.097  36.834  27.545  1.00  0.00    -0.200 F 
ATOM     99  F   UNL A   1      46.660  37.326  29.726  1.00  0.00    -0.200 F 
ENDBRANCH  66  89
ENDBRANCH  40  41
ENDBRANCH  32  35
ENDBRANCH  30  31
ENDBRANCH  29  30
ENDBRANCH  28  29
ENDBRANCH   1  28
TORSDOF 16
ENDMDL
MODEL 2
REMARK VINA RESULT:     -13.0      2.623      4.415
REMARK SMILES Cc1cc(OC(F)(F)F)cc2c1O[C@H](C(F)(F)F)C(C(=O)NCCCCCCNC(=O)c1ccc(-c3c4nc(c(-c5c(F)c(F)c(F)c(F)c5F)c5ccc([nH]5)c(-c5c(F)c(F)c(F)c(F)c5F)c5nc(c(-c6c(F)c(F)c(F)c(F)c6F)c6ccc3[nH]6)C=C5)C=C4)cc1)=C2
REMARK SMILES IDX 25 1 24 2 23 3 22 4 20 5 21 6 19 8 1 9 2 10 3 11 12 12 4 13
REMARK SMILES IDX 11 14 13 15 10 16 95 17 14 18 5 19 6 20 7 21 8 22 9 23 15 24
REMARK SMILES IDX 16 25 17 26 18 27 26 28 27 29 28 30 29 31 30 32 31 34 32 35
REMARK SMILES IDX 33 36 94 37 34 38 93 39 35 40 36 41 37 42 87 43 38 44 92 45
REMARK SMILES IDX 86 46 88 47 39 48 91 49 85 50 84 51 40 53 72 54 52 55 71 56
REMARK SMILES IDX 53 57 56 58 70 59 89 60 54 61 55 62 69 64 90 65 57 66 41 67
REMARK SMILES IDX 42 68 50 69 43 70 44 71 48 72 51 73 45 74 46 75 49 76 47 77
REMARK SMILES IDX 73 78 74 79 82 80 75 81 76 82 80 83 83 84 77 85 78 86 81 87
REMARK SMILES IDX 79 88 58 89 59 90 67 91 60 92 61 93 65 94 68 95 62 96 63 97
REMARK SMILES IDX 66 98 64 99
REMARK H PARENT 22 7 29 33 88 52 56 63
REMARK Flexibility Score: inf
ROOT
ATOM      1  C   UNL A   1      39.675  21.733  26.314  1.00  0.00     0.002 C 
ENDROOT
BRANCH   1   2
ATOM      2  C   UNL A   1      39.501  23.249  26.464  1.00  0.00     0.021 C 
BRANCH   2   3
ATOM      3  C   UNL A   1      38.094  23.748  26.146  1.00  0.00     0.116 C 
BRANCH   3   4
ATOM      4  N   UNL A   1      37.685  23.387  24.801  1.00  0.00    -0.352 N 
ATOM      5  C   UNL A   1      36.527  23.282  24.108  1.00  0.00     0.251 C 
ATOM      6  O   UNL A   1      36.656  22.942  22.928  1.00  0.00    -0.270 OA
ATOM      7  H   UNL A   1      38.460  23.156  24.240  1.00  0.00     0.163 HD
BRANCH   5   8
ATOM      8  C   UNL A   1      35.160  23.539  24.654  1.00  0.00     0.067 C 
ATOM      9  C   UNL A   1      30.285  23.414  26.379  1.00  0.00     0.048 C 
ATOM     10  C   UNL A   1      31.284  24.477  26.011  1.00  0.00    -0.005 A 
ATOM     11  C   UNL A   1      30.934  25.826  26.192  1.00  0.00     0.054 A 
ATOM     12  C   UNL A   1      32.559  24.166  25.524  1.00  0.00     0.131 A 
ATOM     13  C   UNL A   1      31.832  26.846  25.875  1.00  0.00     0.130 A 
ATOM     14  C   UNL A   1      33.467  25.177  25.203  1.00  0.00     0.021 A 
ATOM     15  O   UNL A   1      32.854  22.848  25.328  1.00  0.00    -0.475 OA
ATOM     16  C   UNL A   1      33.098  26.513  25.381  1.00  0.00     0.058 A 
ATOM     17  C   UNL A   1      34.772  24.828  24.655  1.00  0.00     0.025 C 
ATOM     18  C   UNL A   1      34.254  22.484  25.221  1.00  0.00     0.314 C 
BRANCH  13  19
ATOM     19  O   UNL A   1      31.607  28.189  25.994  1.00  0.00    -0.406 OA
BRANCH  19  20
ATOM     20  C   UNL A   1      31.825  28.784  27.264  1.00  0.00     0.573 C 
ATOM     21  F   UNL A   1      31.615  30.117  27.219  1.00  0.00    -0.132 F 
ATOM     22  F   UNL A   1      31.026  28.232  28.203  1.00  0.00    -0.132 F 
ATOM     23  F   UNL A   1      33.109  28.572  27.626  1.00  0.00    -0.132 F 
ENDBRANCH  19  20
ENDBRANCH  13  19
BRANCH  18  24
ATOM     24  C   UNL A   1      34.733  21.947  26.580  1.00  0.00     0.429 C 
ATOM     25  F   UNL A   1      33.839  21.055  27.078  1.00  0.00    -0.167 F 
ATOM     26  F   UNL A   1      35.913  21.289  26.496  1.00  0.00    -0.167 F 
ATOM     27  F   UNL A   1      34.888  22.923  27.502  1.00  0.00    -0.167 F 
ENDBRANCH  18  24
ENDBRANCH   5   8
ENDBRANCH   3   4
ENDBRANCH   2   3
ENDBRANCH   1   2
BRANCH   1  28
ATOM     28  C   UNL A   1      41.126  21.237  26.253  1.00  0.00     0.002 C 
BRANCH  28  29
ATOM     29  C   UNL A   1      41.303  19.723  26.108  1.00  0.00     0.021 C 
BRANCH  29  30
ATOM     30  C   UNL A   1      42.706  19.217  26.418  1.00  0.00     0.116 C 
BRANCH  30  31
ATOM     31  N   UNL A   1      43.436  18.863  25.212  1.00  0.00    -0.352 N 
ATOM     32  C   UNL A   1      44.206  19.667  24.411  1.00  0.00     0.251 C 
ATOM     33  H   UNL A   1      43.368  17.920  24.934  1.00  0.00     0.163 HD
ATOM     34  O   UNL A   1      44.619  19.270  23.327  1.00  0.00    -0.269 OA
BRANCH  32  35
ATOM     35  C   UNL A   1      44.518  21.035  24.864  1.00  0.00     0.039 A 
ATOM     36  C   UNL A   1      44.195  22.111  24.037  1.00  0.00     0.014 A 
ATOM     37  C   UNL A   1      45.099  21.244  26.119  1.00  0.00     0.014 A 
ATOM     38  C   UNL A   1      44.407  23.411  24.494  1.00  0.00     0.010 A 
ATOM     39  C   UNL A   1      45.262  22.541  26.594  1.00  0.00     0.010 A 
ATOM     40  C   UNL A   1      44.920  23.634  25.783  1.00  0.00    -0.014 A 
BRANCH  40  41
ATOM     41  C   UNL A   1      45.114  25.015  26.283  1.00  0.00     0.031 A 
ATOM     42  C   UNL A   1      46.465  25.659  26.195  1.00  0.00     0.074 A 
ATOM     43  C   UNL A   1      44.077  25.675  26.831  1.00  0.00     0.049 A 
ATOM     44  N   UNL A   1      46.824  26.871  26.532  1.00  0.00    -0.248 NA
ATOM     45  C   UNL A   1      47.563  24.829  25.673  1.00  0.00     0.031 C 
ATOM     46  C   UNL A   1      42.730  25.132  27.008  1.00  0.00     0.029 A 
ATOM     47  N   UNL A   1      43.992  26.949  27.334  1.00  0.00    -0.354 N 
ATOM     48  C   UNL A   1      48.179  26.953  26.248  1.00  0.00     0.074 A 
ATOM     49  C   UNL A   1      48.597  25.652  25.776  1.00  0.00     0.031 C 
ATOM     50  C   UNL A   1      41.944  26.076  27.550  1.00  0.00     0.029 A 
ATOM     51  C   UNL A   1      42.734  27.285  27.772  1.00  0.00     0.049 A 
ATOM     52  H   UNL A   1      44.759  27.565  27.375  1.00  0.00     0.167 HD
ATOM     53  C   UNL A   1      48.994  28.030  26.342  1.00  0.00     0.037 A 
ATOM     54  C   UNL A   1      42.271  28.444  28.279  1.00  0.00     0.037 A 
ATOM     55  C   UNL A   1      48.571  29.324  26.800  1.00  0.00     0.049 A 
ATOM     56  C   UNL A   1      43.204  29.618  28.400  1.00  0.00     0.074 A 
ATOM     57  C   UNL A   1      49.308  30.491  26.889  1.00  0.00     0.029 A 
ATOM     58  N   UNL A   1      47.292  29.621  27.250  1.00  0.00    -0.354 N 
ATOM     59  N   UNL A   1      44.465  29.707  28.056  1.00  0.00    -0.248 NA
ATOM     60  C   UNL A   1      42.650  30.852  28.973  1.00  0.00     0.031 C 
ATOM     61  C   UNL A   1      48.487  31.486  27.425  1.00  0.00     0.029 A 
ATOM     62  C   UNL A   1      47.227  30.949  27.637  1.00  0.00     0.049 A 
ATOM     63  H   UNL A   1      46.544  28.983  27.288  1.00  0.00     0.167 HD
ATOM     64  C   UNL A   1      44.847  31.011  28.338  1.00  0.00     0.074 A 
ATOM     65  C   UNL A   1      43.684  31.679  28.883  1.00  0.00     0.031 C 
ATOM     66  C   UNL A   1      46.053  31.599  28.159  1.00  0.00     0.037 A 
BRANCH  53  67
ATOM     67  C   UNL A   1      50.419  27.861  25.912  1.00  0.00     0.064 A 
ATOM     68  C   UNL A   1      51.441  27.665  26.852  1.00  0.00     0.173 A 
ATOM     69  C   UNL A   1      50.760  27.838  24.552  1.00  0.00     0.173 A 
ATOM     70  F   UNL A   1      51.163  27.690  28.165  1.00  0.00    -0.203 F 
ATOM     71  C   UNL A   1      52.757  27.468  26.448  1.00  0.00     0.198 A 
ATOM     72  C   UNL A   1      52.075  27.616  24.150  1.00  0.00     0.198 A 
ATOM     73  F   UNL A   1      49.818  28.015  23.615  1.00  0.00    -0.203 F 
ATOM     74  F   UNL A   1      53.723  27.316  27.365  1.00  0.00    -0.200 F 
ATOM     75  C   UNL A   1      53.072  27.436  25.098  1.00  0.00     0.200 A 
ATOM     76  F   UNL A   1      52.377  27.575  22.846  1.00  0.00    -0.200 F 
ATOM     77  F   UNL A   1      54.339  27.235  24.709  1.00  0.00    -0.200 F 
ENDBRANCH  53  67
BRANCH  54  78
ATOM     78  C   UNL A   1      40.839  28.563  28.649  1.00  0.00     0.064 A 
ATOM     79  C   UNL A   1      40.408  28.254  29.947  1.00  0.00     0.173 A 
ATOM     80  C   UNL A   1      39.878  29.007  27.730  1.00  0.00     0.173 A 
ATOM     81  F   UNL A   1      41.289  27.809  30.855  1.00  0.00    -0.203 F 
ATOM     82  C   UNL A   1      39.068  28.377  30.309  1.00  0.00     0.198 A 
ATOM     83  C   UNL A   1      38.541  29.149  28.099  1.00  0.00     0.198 A 
ATOM     84  F   UNL A   1      40.241  29.320  26.477  1.00  0.00    -0.203 F 
ATOM     85  F   UNL A   1      38.679  28.050  31.548  1.00  0.00    -0.200 F 
ATOM     86  C   UNL A   1      38.137  28.831  29.387  1.00  0.00     0.200 A 
ATOM     87  F   UNL A   1      37.647  29.598  27.208  1.00  0.00    -0.200 F 
ATOM     88  F   UNL A   1      36.851  28.957  29.738  1.00  0.00    -0.200 F 
ENDBRANCH  54  78
BRANCH  66  89
ATOM     89  C   UNL A   1      46.188  33.046  28.526  1.00  0.00     0.064 A 
ATOM     90  C   UNL A   1      46.612  33.435  29.804  1.00  0.00     0.173 A 
ATOM     91  C   UNL A   1      46.003  34.042  27.557  1.00  0.00     0.173 A 
ATOM     92  F   UNL A   1      46.791  32.516  30.765  1.00  0.00    -0.203 F 
ATOM     93  C   UNL A   1      46.851  34.775  30.098  1.00  0.00     0.198 A 
ATOM     94  C   UNL A   1      46.263  35.378  27.848  1.00  0.00     0.198 A 
ATOM     95  F   UNL A   1      45.606  33.715  26.319  1.00  0.00    -0.203 F 
ATOM     96  F   UNL A   1      47.245  35.128  31.329  1.00  0.00    -0.200 F 
ATOM     97  C   UNL A   1      46.688  35.743  29.117  1.00  0.00     0.200 A 
ATOM     98  F   UNL A   1      46.120  36.310  26.896  1.00  0.00    -0.200 F 
ATOM     99  F   UNL A   1      46.944  37.029  29.395  1.00  0.00    -0.200 F 
ENDBRANCH  66  89
ENDBRANCH  40  41
ENDBRANCH  32  35
ENDBRANCH  30  31
ENDBRANCH  29  30
ENDBRANCH  28  29
ENDBRANCH   1  28
TORSDOF 16
ENDMDL
MODEL 3
REMARK VINA RESULT:     -13.0      1.844      2.418
REMARK SMILES Cc1cc(OC(F)(F)F)cc2c1O[C@H](C(F)(F)F)C(C(=O)NCCCCCCNC(=O)c1ccc(-c3c4nc(c(-c5c(F)c(F)c(F)c(F)c5F)c5ccc([nH]5)c(-c5c(F)c(F)c(F)c(F)c5F)c5nc(c(-c6c(F)c(F)c(F)c(F)c6F)c6ccc3[nH]6)C=C5)C=C4)cc1)=C2
REMARK SMILES IDX 25 1 24 2 23 3 22 4 20 5 21 6 19 8 1 9 2 10 3 11 12 12 4 13
REMARK SMILES IDX 11 14 13 15 10 16 95 17 14 18 5 19 6 20 7 21 8 22 9 23 15 24
REMARK SMILES IDX 16 25 17 26 18 27 26 28 27 29 28 30 29 31 30 32 31 34 32 35
REMARK SMILES IDX 33 36 94 37 34 38 93 39 35 40 36 41 37 42 87 43 38 44 92 45
REMARK SMILES IDX 86 46 88 47 39 48 91 49 85 50 84 51 40 53 72 54 52 55 71 56
REMARK SMILES IDX 53 57 56 58 70 59 89 60 54 61 55 62 69 64 90 65 57 66 41 67
REMARK SMILES IDX 42 68 50 69 43 70 44 71 48 72 51 73 45 74 46 75 49 76 47 77
REMARK SMILES IDX 73 78 74 79 82 80 75 81 76 82 80 83 83 84 77 85 78 86 81 87
REMARK SMILES IDX 79 88 58 89 59 90 67 91 60 92 61 93 65 94 68 95 62 96 63 97
REMARK SMILES IDX 66 98 64 99
REMARK H PARENT 22 7 29 33 88 52 56 63
REMARK Flexibility Score: inf
ROOT
ATOM      1  C   UNL A   1      35.775  20.712  25.380  1.00  0.00     0.002 C 
ENDROOT
BRANCH   1   2
ATOM      2  C   UNL A   1      34.805  19.656  24.838  1.00  0.00     0.021 C 
BRANCH   2   3
ATOM      3  C   UNL A   1      33.332  20.016  25.015  1.00  0.00     0.116 C 
BRANCH   3   4
ATOM      4  N   UNL A   1      32.702  20.348  23.750  1.00  0.00    -0.352 N 
ATOM      5  C   UNL A   1      32.247  21.460  23.128  1.00  0.00     0.251 C 
ATOM      6  O   UNL A   1      31.778  21.270  22.000  1.00  0.00    -0.270 OA
ATOM      7  H   UNL A   1      32.569  19.546  23.194  1.00  0.00     0.163 HD
BRANCH   5   8
ATOM      8  C   UNL A   1      32.271  22.844  23.690  1.00  0.00     0.067 C 
ATOM      9  C   UNL A   1      33.094  27.257  26.260  1.00  0.00     0.048 C 
ATOM     10  C   UNL A   1      32.059  26.730  25.304  1.00  0.00    -0.005 A 
ATOM     11  C   UNL A   1      31.028  27.586  24.883  1.00  0.00     0.054 A 
ATOM     12  C   UNL A   1      32.108  25.425  24.796  1.00  0.00     0.131 A 
ATOM     13  C   UNL A   1      30.052  27.144  23.988  1.00  0.00     0.130 A 
ATOM     14  C   UNL A   1      31.139  24.971  23.901  1.00  0.00     0.021 A 
ATOM     15  O   UNL A   1      33.103  24.610  25.252  1.00  0.00    -0.475 OA
ATOM     16  C   UNL A   1      30.115  25.834  23.501  1.00  0.00     0.058 A 
ATOM     17  C   UNL A   1      31.186  23.594  23.423  1.00  0.00     0.025 C 
ATOM     18  C   UNL A   1      33.415  23.431  24.466  1.00  0.00     0.314 C 
BRANCH  13  19
ATOM     19  O   UNL A   1      28.998  27.873  23.515  1.00  0.00    -0.406 OA
BRANCH  19  20
ATOM     20  C   UNL A   1      29.288  29.050  22.777  1.00  0.00     0.573 C 
ATOM     21  F   UNL A   1      29.476  30.106  23.597  1.00  0.00    -0.132 F 
ATOM     22  F   UNL A   1      30.380  28.881  22.001  1.00  0.00    -0.132 F 
ATOM     23  F   UNL A   1      28.238  29.325  21.972  1.00  0.00    -0.132 F 
ENDBRANCH  19  20
ENDBRANCH  13  19
BRANCH  18  24
ATOM     24  C   UNL A   1      34.645  23.728  23.592  1.00  0.00     0.429 C 
ATOM     25  F   UNL A   1      34.394  24.771  22.759  1.00  0.00    -0.167 F 
ATOM     26  F   UNL A   1      35.730  24.081  24.320  1.00  0.00    -0.167 F 
ATOM     27  F   UNL A   1      35.007  22.675  22.826  1.00  0.00    -0.167 F 
ENDBRANCH  18  24
ENDBRANCH   5   8
ENDBRANCH   3   4
ENDBRANCH   2   3
ENDBRANCH   1   2
BRANCH   1  28
ATOM     28  C   UNL A   1      37.131  20.793  24.665  1.00  0.00     0.002 C 
BRANCH  28  29
ATOM     29  C   UNL A   1      38.124  19.677  25.001  1.00  0.00     0.021 C 
BRANCH  29  30
ATOM     30  C   UNL A   1      39.266  20.100  25.917  1.00  0.00     0.116 C 
BRANCH  30  31
ATOM     31  N   UNL A   1      40.323  19.104  25.963  1.00  0.00    -0.352 N 
ATOM     32  C   UNL A   1      41.675  19.296  26.101  1.00  0.00     0.251 C 
ATOM     33  H   UNL A   1      40.030  18.166  25.886  1.00  0.00     0.163 HD
ATOM     34  O   UNL A   1      42.464  18.371  25.947  1.00  0.00    -0.269 OA
BRANCH  32  35
ATOM     35  C   UNL A   1      42.173  20.646  26.420  1.00  0.00     0.039 A 
ATOM     36  C   UNL A   1      42.453  21.528  25.376  1.00  0.00     0.014 A 
ATOM     37  C   UNL A   1      42.329  21.041  27.754  1.00  0.00     0.014 A 
ATOM     38  C   UNL A   1      42.841  22.835  25.670  1.00  0.00     0.010 A 
ATOM     39  C   UNL A   1      42.666  22.359  28.045  1.00  0.00     0.010 A 
ATOM     40  C   UNL A   1      42.928  23.264  27.005  1.00  0.00    -0.014 A 
BRANCH  40  41
ATOM     41  C   UNL A   1      43.307  24.661  27.320  1.00  0.00     0.031 A 
ATOM     42  C   UNL A   1      44.698  25.142  27.028  1.00  0.00     0.074 A 
ATOM     43  C   UNL A   1      42.404  25.484  27.883  1.00  0.00     0.049 A 
ATOM     44  N   UNL A   1      45.205  26.337  27.184  1.00  0.00    -0.248 NA
ATOM     45  C   UNL A   1      45.647  24.147  26.504  1.00  0.00     0.031 C 
ATOM     46  C   UNL A   1      41.037  25.112  28.250  1.00  0.00     0.029 A 
ATOM     47  N   UNL A   1      42.497  26.806  28.239  1.00  0.00    -0.354 N 
ATOM     48  C   UNL A   1      46.524  26.241  26.765  1.00  0.00     0.074 A 
ATOM     49  C   UNL A   1      46.761  24.860  26.411  1.00  0.00     0.031 C 
ATOM     50  C   UNL A   1      40.409  26.188  28.751  1.00  0.00     0.029 A 
ATOM     51  C   UNL A   1      41.332  27.321  28.753  1.00  0.00     0.049 A 
ATOM     52  H   UNL A   1      43.319  27.336  28.134  1.00  0.00     0.167 HD
ATOM     53  C   UNL A   1      47.444  27.227  26.654  1.00  0.00     0.037 A 
ATOM     54  C   UNL A   1      41.040  28.570  29.163  1.00  0.00     0.037 A 
ATOM     55  C   UNL A   1      47.200  28.601  26.995  1.00  0.00     0.049 A 
ATOM     56  C   UNL A   1      42.089  29.643  29.056  1.00  0.00     0.074 A 
ATOM     57  C   UNL A   1      48.052  29.684  26.876  1.00  0.00     0.029 A 
ATOM     58  N   UNL A   1      46.012  29.081  27.528  1.00  0.00    -0.354 N 
ATOM     59  N   UNL A   1      43.309  29.557  28.584  1.00  0.00    -0.248 NA
ATOM     60  C   UNL A   1      41.722  30.984  29.530  1.00  0.00     0.031 C 
ATOM     61  C   UNL A   1      47.393  30.814  27.368  1.00  0.00     0.029 A 
ATOM     62  C   UNL A   1      46.117  30.442  27.761  1.00  0.00     0.049 A 
ATOM     63  H   UNL A   1      45.214  28.535  27.711  1.00  0.00     0.167 HD
ATOM     64  C   UNL A   1      43.844  30.835  28.674  1.00  0.00     0.074 A 
ATOM     65  C   UNL A   1      42.815  31.679  29.246  1.00  0.00     0.031 C 
ATOM     66  C   UNL A   1      45.074  31.267  28.313  1.00  0.00     0.037 A 
BRANCH  53  67
ATOM     67  C   UNL A   1      48.792  26.860  26.112  1.00  0.00     0.064 A 
ATOM     68  C   UNL A   1      49.090  27.006  24.750  1.00  0.00     0.173 A 
ATOM     69  C   UNL A   1      49.811  26.414  26.966  1.00  0.00     0.173 A 
ATOM     70  F   UNL A   1      48.143  27.419  23.893  1.00  0.00    -0.203 F 
ATOM     71  C   UNL A   1      50.355  26.703  24.257  1.00  0.00     0.198 A 
ATOM     72  C   UNL A   1      51.083  26.134  26.473  1.00  0.00     0.198 A 
ATOM     73  F   UNL A   1      49.577  26.263  28.277  1.00  0.00    -0.203 F 
ATOM     74  F   UNL A   1      50.607  26.818  22.945  1.00  0.00    -0.200 F 
ATOM     75  C   UNL A   1      51.353  26.275  25.120  1.00  0.00     0.200 A 
ATOM     76  F   UNL A   1      52.049  25.730  27.309  1.00  0.00    -0.200 F 
ATOM     77  F   UNL A   1      52.575  25.993  24.646  1.00  0.00    -0.200 F 
ENDBRANCH  53  67
BRANCH  54  78
ATOM     78  C   UNL A   1      39.674  28.883  29.651  1.00  0.00     0.064 A 
ATOM     79  C   UNL A   1      39.337  28.696  31.000  1.00  0.00     0.173 A 
ATOM     80  C   UNL A   1      38.688  29.393  28.796  1.00  0.00     0.173 A 
ATOM     81  F   UNL A   1      40.243  28.194  31.851  1.00  0.00    -0.203 F 
ATOM     82  C   UNL A   1      38.062  29.000  31.471  1.00  0.00     0.198 A 
ATOM     83  C   UNL A   1      37.419  29.717  29.273  1.00  0.00     0.198 A 
ATOM     84  F   UNL A   1      38.962  29.594  27.499  1.00  0.00    -0.203 F 
ATOM     85  F   UNL A   1      37.758  28.787  32.759  1.00  0.00    -0.200 F 
ATOM     86  C   UNL A   1      37.106  29.516  30.610  1.00  0.00     0.200 A 
ATOM     87  F   UNL A   1      36.501  30.225  28.440  1.00  0.00    -0.200 F 
ATOM     88  F   UNL A   1      35.883  29.817  31.066  1.00  0.00    -0.200 F 
ENDBRANCH  54  78
BRANCH  66  89
ATOM     89  C   UNL A   1      45.388  32.721  28.494  1.00  0.00     0.064 A 
ATOM     90  C   UNL A   1      46.085  33.181  29.619  1.00  0.00     0.173 A 
ATOM     91  C   UNL A   1      45.089  33.641  27.478  1.00  0.00     0.173 A 
ATOM     92  F   UNL A   1      46.382  32.338  30.619  1.00  0.00    -0.203 F 
ATOM     93  C   UNL A   1      46.477  34.513  29.720  1.00  0.00     0.198 A 
ATOM     94  C   UNL A   1      45.500  34.967  27.573  1.00  0.00     0.198 A 
ATOM     95  F   UNL A   1      44.430  33.245  26.379  1.00  0.00    -0.203 F 
ATOM     96  F   UNL A   1      47.133  34.936  30.809  1.00  0.00    -0.200 F 
ATOM     97  C   UNL A   1      46.195  35.401  28.691  1.00  0.00     0.200 A 
ATOM     98  F   UNL A   1      45.240  35.821  26.572  1.00  0.00    -0.200 F 
ATOM     99  F   UNL A   1      46.596  36.677  28.779  1.00  0.00    -0.200 F 
ENDBRANCH  66  89
ENDBRANCH  40  41
ENDBRANCH  32  35
ENDBRANCH  30  31
ENDBRANCH  29  30
ENDBRANCH  28  29
ENDBRANCH   1  28
TORSDOF 16
ENDMDL
