MODEL 1
REMARK VINA RESULT:     -12.7      0.000      0.000
REMARK SMILES Cc1cc2c(c(C)c1Cl)C=C(C(=O)NCCCCCCNC(=O)c1ccc(-c3c4nc(c(-c5c(F)c(F)c(F)c(F)c5F)c5ccc([nH]5)c(-c5c(F)c(F)c(F)c(F)c5F)c5nc(c(-c6c(F)c(F)c(F)c(F)c6F)c6ccc3[nH]6)C=C5)C=C4)cc1)[C@@H](C(F)(F)F)O2
REMARK SMILES IDX 18 1 17 2 16 3 15 4 14 5 12 6 13 7 11 9 1 10 2 11 3 12 8 13
REMARK SMILES IDX 4 14 6 15 9 16 5 17 92 18 7 19 10 20 87 21 88 22 89 23 90 24
REMARK SMILES IDX 91 25 19 26 20 27 21 28 22 29 23 31 24 32 25 33 86 34 26 35
REMARK SMILES IDX 85 36 27 37 28 38 29 39 79 40 30 41 84 42 78 43 80 44 31 45
REMARK SMILES IDX 83 46 77 47 76 48 32 50 64 51 44 52 63 53 45 54 48 55 62 56
REMARK SMILES IDX 81 57 46 58 47 59 61 61 82 62 49 63 33 64 34 65 42 66 35 67
REMARK SMILES IDX 36 68 40 69 43 70 37 71 38 72 41 73 39 74 65 75 66 76 74 77
REMARK SMILES IDX 67 78 68 79 72 80 75 81 69 82 70 83 73 84 71 85 50 86 51 87
REMARK SMILES IDX 59 88 52 89 53 90 57 91 60 92 54 93 55 94 58 95 56 96
REMARK H PARENT 14 8 21 30 80 49 48 60
REMARK Flexibility Score: inf
ROOT
ATOM      1  C   UNL A   1      31.383  30.736  26.289  1.00  0.00     0.002 C 
ENDROOT
BRANCH   1   2
ATOM      2  C   UNL A   1      32.347  29.951  27.190  1.00  0.00     0.002 C 
BRANCH   2   3
ATOM      3  C   UNL A   1      32.660  28.527  26.724  1.00  0.00     0.021 C 
BRANCH   3   4
ATOM      4  C   UNL A   1      34.032  28.374  26.076  1.00  0.00     0.116 C 
BRANCH   4   5
ATOM      5  N   UNL A   1      33.941  28.261  24.632  1.00  0.00    -0.352 N 
ATOM      6  C   UNL A   1      33.628  27.303  23.730  1.00  0.00     0.251 C 
ATOM      7  O   UNL A   1      33.644  27.671  22.549  1.00  0.00    -0.270 OA
ATOM      8  H   UNL A   1      34.167  29.111  24.189  1.00  0.00     0.163 HD
BRANCH   6   9
ATOM      9  C   UNL A   1      33.283  25.885  24.054  1.00  0.00     0.067 C 
ATOM     10  C   UNL A   1      33.136  19.577  25.662  1.00  0.00     0.046 C 
ATOM     11  C   UNL A   1      33.518  20.953  25.187  1.00  0.00    -0.028 A 
ATOM     12  C   UNL A   1      32.527  21.938  25.214  1.00  0.00     0.052 A 
ATOM     13  C   UNL A   1      34.820  21.314  24.789  1.00  0.00     0.047 A 
ATOM     14  C   UNL A   1      32.813  23.245  24.835  1.00  0.00     0.128 A 
ATOM     15  C   UNL A   1      35.122  22.641  24.386  1.00  0.00    -0.021 A 
ATOM     16  Cl  UNL A   1      36.068  20.105  24.832  1.00  0.00    -0.084 Cl
ATOM     17  C   UNL A   1      34.096  23.617  24.431  1.00  0.00     0.022 A 
ATOM     18  O   UNL A   1      31.769  24.112  24.943  1.00  0.00    -0.475 OA
ATOM     19  C   UNL A   1      36.508  23.040  23.933  1.00  0.00     0.047 C 
ATOM     20  C   UNL A   1      34.323  25.034  24.128  1.00  0.00     0.026 C 
ATOM     21  C   UNL A   1      31.886  25.385  24.264  1.00  0.00     0.314 C 
BRANCH  21  22
ATOM     22  C   UNL A   1      31.064  25.337  22.964  1.00  0.00     0.429 C 
ATOM     23  F   UNL A   1      30.413  26.513  22.774  1.00  0.00    -0.167 F 
ATOM     24  F   UNL A   1      31.831  25.148  21.866  1.00  0.00    -0.167 F 
ATOM     25  F   UNL A   1      30.136  24.355  22.973  1.00  0.00    -0.167 F 
ENDBRANCH  21  22
ENDBRANCH   6   9
ENDBRANCH   4   5
ENDBRANCH   3   4
ENDBRANCH   2   3
ENDBRANCH   1   2
BRANCH   1  26
ATOM     26  C   UNL A   1      31.373  32.254  26.498  1.00  0.00     0.021 C 
BRANCH  26  27
ATOM     27  C   UNL A   1      32.595  32.809  27.221  1.00  0.00     0.116 C 
BRANCH  27  28
ATOM     28  N   UNL A   1      32.405  34.193  27.628  1.00  0.00    -0.352 N 
ATOM     29  C   UNL A   1      33.019  34.895  28.627  1.00  0.00     0.251 C 
ATOM     30  H   UNL A   1      31.738  34.697  27.108  1.00  0.00     0.163 HD
ATOM     31  O   UNL A   1      32.590  36.001  28.960  1.00  0.00    -0.269 OA
BRANCH  29  32
ATOM     32  C   UNL A   1      34.191  34.328  29.320  1.00  0.00     0.039 A 
ATOM     33  C   UNL A   1      33.994  33.600  30.498  1.00  0.00     0.014 A 
ATOM     34  C   UNL A   1      35.484  34.540  28.829  1.00  0.00     0.014 A 
ATOM     35  C   UNL A   1      35.090  33.043  31.158  1.00  0.00     0.010 A 
ATOM     36  C   UNL A   1      36.569  33.938  29.458  1.00  0.00     0.010 A 
ATOM     37  C   UNL A   1      36.382  33.189  30.630  1.00  0.00    -0.014 A 
BRANCH  37  38
ATOM     38  C   UNL A   1      37.559  32.575  31.291  1.00  0.00     0.031 A 
ATOM     39  C   UNL A   1      38.298  31.457  30.614  1.00  0.00     0.074 A 
ATOM     40  C   UNL A   1      37.918  32.983  32.521  1.00  0.00     0.049 A 
ATOM     41  N   UNL A   1      39.276  30.717  31.069  1.00  0.00    -0.248 NA
ATOM     42  C   UNL A   1      37.867  31.113  29.250  1.00  0.00     0.031 C 
ATOM     43  C   UNL A   1      37.266  34.050  33.279  1.00  0.00     0.029 A 
ATOM     44  N   UNL A   1      38.914  32.541  33.355  1.00  0.00    -0.354 N 
ATOM     45  C   UNL A   1      39.572  29.818  30.054  1.00  0.00     0.074 A 
ATOM     46  C   UNL A   1      38.640  30.072  28.976  1.00  0.00     0.031 C 
ATOM     47  C   UNL A   1      37.889  34.193  34.460  1.00  0.00     0.029 A 
ATOM     48  C   UNL A   1      38.955  33.199  34.559  1.00  0.00     0.049 A 
ATOM     49  H   UNL A   1      39.539  31.820  33.112  1.00  0.00     0.167 HD
ATOM     50  C   UNL A   1      40.548  28.880  30.018  1.00  0.00     0.037 A 
ATOM     51  C   UNL A   1      39.756  33.015  35.625  1.00  0.00     0.037 A 
ATOM     52  C   UNL A   1      41.479  28.640  31.090  1.00  0.00     0.049 A 
ATOM     53  C   UNL A   1      40.810  31.943  35.573  1.00  0.00     0.074 A 
ATOM     54  C   UNL A   1      42.514  27.723  31.145  1.00  0.00     0.029 A 
ATOM     55  N   UNL A   1      41.490  29.329  32.295  1.00  0.00    -0.354 N 
ATOM     56  N   UNL A   1      41.092  31.108  34.603  1.00  0.00    -0.248 NA
ATOM     57  C   UNL A   1      41.658  31.790  36.762  1.00  0.00     0.031 C 
ATOM     58  C   UNL A   1      43.126  27.829  32.398  1.00  0.00     0.029 A 
ATOM     59  C   UNL A   1      42.507  28.849  33.104  1.00  0.00     0.049 A 
ATOM     60  H   UNL A   1      40.868  30.052  32.538  1.00  0.00     0.167 HD
ATOM     61  C   UNL A   1      42.167  30.351  35.050  1.00  0.00     0.074 A 
ATOM     62  C   UNL A   1      42.493  30.835  36.375  1.00  0.00     0.031 C 
ATOM     63  C   UNL A   1      42.824  29.348  34.418  1.00  0.00     0.037 A 
BRANCH  50  64
ATOM     64  C   UNL A   1      40.667  28.043  28.778  1.00  0.00     0.064 A 
ATOM     65  C   UNL A   1      39.953  26.844  28.633  1.00  0.00     0.173 A 
ATOM     66  C   UNL A   1      41.458  28.470  27.700  1.00  0.00     0.173 A 
ATOM     67  F   UNL A   1      39.194  26.384  29.639  1.00  0.00    -0.203 F 
ATOM     68  C   UNL A   1      40.039  26.096  27.462  1.00  0.00     0.198 A 
ATOM     69  C   UNL A   1      41.517  27.734  26.519  1.00  0.00     0.198 A 
ATOM     70  F   UNL A   1      42.159  29.611  27.785  1.00  0.00    -0.203 F 
ATOM     71  F   UNL A   1      39.376  24.935  27.361  1.00  0.00    -0.200 F 
ATOM     72  C   UNL A   1      40.812  26.546  26.403  1.00  0.00     0.200 A 
ATOM     73  F   UNL A   1      42.255  28.177  25.492  1.00  0.00    -0.200 F 
ATOM     74  F   UNL A   1      40.880  25.833  25.270  1.00  0.00    -0.200 F 
ENDBRANCH  50  64
BRANCH  51  75
ATOM     75  C   UNL A   1      39.609  33.889  36.816  1.00  0.00     0.064 A 
ATOM     76  C   UNL A   1      40.251  35.134  36.873  1.00  0.00     0.173 A 
ATOM     77  C   UNL A   1      38.811  33.515  37.907  1.00  0.00     0.173 A 
ATOM     78  F   UNL A   1      41.041  35.525  35.862  1.00  0.00    -0.203 F 
ATOM     79  C   UNL A   1      40.107  35.968  37.979  1.00  0.00     0.198 A 
ATOM     80  C   UNL A   1      38.647  34.362  39.002  1.00  0.00     0.198 A 
ATOM     81  F   UNL A   1      38.173  32.336  37.900  1.00  0.00    -0.203 F 
ATOM     82  F   UNL A   1      40.759  37.138  38.021  1.00  0.00    -0.200 F 
ATOM     83  C   UNL A   1      39.299  35.586  39.038  1.00  0.00     0.200 A 
ATOM     84  F   UNL A   1      37.853  33.996  40.017  1.00  0.00    -0.200 F 
ATOM     85  F   UNL A   1      39.151  36.394  40.097  1.00  0.00    -0.200 F 
ENDBRANCH  51  75
BRANCH  63  86
ATOM     86  C   UNL A   1      43.987  28.728  35.134  1.00  0.00     0.064 A 
ATOM     87  C   UNL A   1      45.290  29.227  34.995  1.00  0.00     0.173 A 
ATOM     88  C   UNL A   1      43.786  27.651  36.013  1.00  0.00     0.173 A 
ATOM     89  F   UNL A   1      45.537  30.247  34.158  1.00  0.00    -0.203 F 
ATOM     90  C   UNL A   1      46.353  28.656  35.689  1.00  0.00     0.198 A 
ATOM     91  C   UNL A   1      44.846  27.102  36.728  1.00  0.00     0.198 A 
ATOM     92  F   UNL A   1      42.557  27.143  36.188  1.00  0.00    -0.203 F 
ATOM     93  F   UNL A   1      47.597  29.119  35.507  1.00  0.00    -0.200 F 
ATOM     94  C   UNL A   1      46.129  27.599  36.561  1.00  0.00     0.200 A 
ATOM     95  F   UNL A   1      44.625  26.092  37.581  1.00  0.00    -0.200 F 
ATOM     96  F   UNL A   1      47.152  27.058  37.235  1.00  0.00    -0.200 F 
ENDBRANCH  63  86
ENDBRANCH  37  38
ENDBRANCH  29  32
ENDBRANCH  27  28
ENDBRANCH  26  27
ENDBRANCH   1  26
TORSDOF 14
ENDMDL
MODEL 2
REMARK VINA RESULT:     -12.7      0.174      1.625
REMARK SMILES Cc1cc2c(c(C)c1Cl)C=C(C(=O)NCCCCCCNC(=O)c1ccc(-c3c4nc(c(-c5c(F)c(F)c(F)c(F)c5F)c5ccc([nH]5)c(-c5c(F)c(F)c(F)c(F)c5F)c5nc(c(-c6c(F)c(F)c(F)c(F)c6F)c6ccc3[nH]6)C=C5)C=C4)cc1)[C@@H](C(F)(F)F)O2
REMARK SMILES IDX 18 1 17 2 16 3 15 4 14 5 12 6 13 7 11 9 1 10 2 11 3 12 8 13
REMARK SMILES IDX 4 14 6 15 9 16 5 17 92 18 7 19 10 20 87 21 88 22 89 23 90 24
REMARK SMILES IDX 91 25 19 26 20 27 21 28 22 29 23 31 24 32 25 33 86 34 26 35
REMARK SMILES IDX 85 36 27 37 28 38 29 39 79 40 30 41 84 42 78 43 80 44 31 45
REMARK SMILES IDX 83 46 77 47 76 48 32 50 64 51 44 52 63 53 45 54 48 55 62 56
REMARK SMILES IDX 81 57 46 58 47 59 61 61 82 62 49 63 33 64 34 65 42 66 35 67
REMARK SMILES IDX 36 68 40 69 43 70 37 71 38 72 41 73 39 74 65 75 66 76 74 77
REMARK SMILES IDX 67 78 68 79 72 80 75 81 69 82 70 83 73 84 71 85 50 86 51 87
REMARK SMILES IDX 59 88 52 89 53 90 57 91 60 92 54 93 55 94 58 95 56 96
REMARK H PARENT 14 8 21 30 80 49 48 60
REMARK Flexibility Score: inf
ROOT
ATOM      1  C   UNL A   1      31.403  30.780  26.177  1.00  0.00     0.002 C 
ENDROOT
BRANCH   1   2
ATOM      2  C   UNL A   1      32.221  29.928  27.158  1.00  0.00     0.002 C 
BRANCH   2   3
ATOM      3  C   UNL A   1      32.544  28.512  26.677  1.00  0.00     0.021 C 
BRANCH   3   4
ATOM      4  C   UNL A   1      33.953  28.354  26.114  1.00  0.00     0.116 C 
BRANCH   4   5
ATOM      5  N   UNL A   1      33.948  28.216  24.669  1.00  0.00    -0.352 N 
ATOM      6  C   UNL A   1      33.683  27.244  23.766  1.00  0.00     0.251 C 
ATOM      7  O   UNL A   1      33.771  27.591  22.583  1.00  0.00    -0.270 OA
ATOM      8  H   UNL A   1      34.205  29.057  24.226  1.00  0.00     0.163 HD
BRANCH   6   9
ATOM      9  C   UNL A   1      33.309  25.834  24.094  1.00  0.00     0.067 C 
ATOM     10  C   UNL A   1      33.039  19.527  25.687  1.00  0.00     0.046 C 
ATOM     11  C   UNL A   1      33.444  20.894  25.208  1.00  0.00    -0.028 A 
ATOM     12  C   UNL A   1      32.479  21.903  25.258  1.00  0.00     0.052 A 
ATOM     13  C   UNL A   1      34.748  21.225  24.786  1.00  0.00     0.047 A 
ATOM     14  C   UNL A   1      32.789  23.204  24.876  1.00  0.00     0.128 A 
ATOM     15  C   UNL A   1      35.074  22.545  24.381  1.00  0.00    -0.021 A 
ATOM     16  Cl  UNL A   1      35.966  19.986  24.801  1.00  0.00    -0.084 Cl
ATOM     17  C   UNL A   1      34.074  23.546  24.448  1.00  0.00     0.022 A 
ATOM     18  O   UNL A   1      31.769  24.096  25.007  1.00  0.00    -0.475 OA
ATOM     19  C   UNL A   1      36.460  22.912  23.902  1.00  0.00     0.047 C 
ATOM     20  C   UNL A   1      34.329  24.958  24.145  1.00  0.00     0.026 C 
ATOM     21  C   UNL A   1      31.905  25.368  24.329  1.00  0.00     0.314 C 
BRANCH  21  22
ATOM     22  C   UNL A   1      31.057  25.345  23.045  1.00  0.00     0.429 C 
ATOM     23  F   UNL A   1      30.161  24.326  23.090  1.00  0.00    -0.167 F 
ATOM     24  F   UNL A   1      30.335  26.476  22.874  1.00  0.00    -0.167 F 
ATOM     25  F   UNL A   1      31.805  25.180  21.932  1.00  0.00    -0.167 F 
ENDBRANCH  21  22
ENDBRANCH   6   9
ENDBRANCH   4   5
ENDBRANCH   3   4
ENDBRANCH   2   3
ENDBRANCH   1   2
BRANCH   1  26
ATOM     26  C   UNL A   1      31.363  32.281  26.483  1.00  0.00     0.021 C 
BRANCH  26  27
ATOM     27  C   UNL A   1      32.576  32.814  27.237  1.00  0.00     0.116 C 
BRANCH  27  28
ATOM     28  N   UNL A   1      32.396  34.198  27.650  1.00  0.00    -0.352 N 
ATOM     29  C   UNL A   1      33.025  34.895  28.642  1.00  0.00     0.251 C 
ATOM     30  H   UNL A   1      31.723  34.706  27.140  1.00  0.00     0.163 HD
ATOM     31  O   UNL A   1      32.605  36.002  28.984  1.00  0.00    -0.269 OA
BRANCH  29  32
ATOM     32  C   UNL A   1      34.204  34.323  29.319  1.00  0.00     0.039 A 
ATOM     33  C   UNL A   1      34.013  33.511  30.441  1.00  0.00     0.014 A 
ATOM     34  C   UNL A   1      35.498  34.612  28.868  1.00  0.00     0.014 A 
ATOM     35  C   UNL A   1      35.117  32.949  31.084  1.00  0.00     0.010 A 
ATOM     36  C   UNL A   1      36.592  34.005  29.476  1.00  0.00     0.010 A 
ATOM     37  C   UNL A   1      36.411  33.173  30.591  1.00  0.00    -0.014 A 
BRANCH  37  38
ATOM     38  C   UNL A   1      37.597  32.556  31.232  1.00  0.00     0.031 A 
ATOM     39  C   UNL A   1      38.327  31.441  30.540  1.00  0.00     0.074 A 
ATOM     40  C   UNL A   1      37.975  32.959  32.459  1.00  0.00     0.049 A 
ATOM     41  N   UNL A   1      39.311  30.699  30.978  1.00  0.00    -0.248 NA
ATOM     42  C   UNL A   1      37.876  31.103  29.181  1.00  0.00     0.031 C 
ATOM     43  C   UNL A   1      37.334  34.023  33.231  1.00  0.00     0.029 A 
ATOM     44  N   UNL A   1      38.983  32.513  33.277  1.00  0.00    -0.354 N 
ATOM     45  C   UNL A   1      39.592  29.804  29.955  1.00  0.00     0.074 A 
ATOM     46  C   UNL A   1      38.645  30.063  28.891  1.00  0.00     0.031 C 
ATOM     47  C   UNL A   1      37.974  34.161  34.404  1.00  0.00     0.029 A 
ATOM     48  C   UNL A   1      39.041  33.166  34.482  1.00  0.00     0.049 A 
ATOM     49  H   UNL A   1      39.604  31.793  33.022  1.00  0.00     0.167 HD
ATOM     50  C   UNL A   1      40.567  28.867  29.901  1.00  0.00     0.037 A 
ATOM     51  C   UNL A   1      39.858  32.977  35.536  1.00  0.00     0.037 A 
ATOM     52  C   UNL A   1      41.514  28.622  30.958  1.00  0.00     0.049 A 
ATOM     53  C   UNL A   1      40.911  31.905  35.464  1.00  0.00     0.074 A 
ATOM     54  C   UNL A   1      42.550  27.704  30.994  1.00  0.00     0.029 A 
ATOM     55  N   UNL A   1      41.543  29.306  32.165  1.00  0.00    -0.354 N 
ATOM     56  N   UNL A   1      41.178  31.074  34.486  1.00  0.00    -0.248 NA
ATOM     57  C   UNL A   1      41.776  31.747  36.640  1.00  0.00     0.031 C 
ATOM     58  C   UNL A   1      43.179  27.805  32.238  1.00  0.00     0.029 A 
ATOM     59  C   UNL A   1      42.571  28.822  32.957  1.00  0.00     0.049 A 
ATOM     60  H   UNL A   1      40.924  30.027  32.421  1.00  0.00     0.167 HD
ATOM     61  C   UNL A   1      42.259  30.316  34.914  1.00  0.00     0.074 A 
ATOM     62  C   UNL A   1      42.605  30.793  36.237  1.00  0.00     0.031 C 
ATOM     63  C   UNL A   1      42.907  29.316  34.269  1.00  0.00     0.037 A 
BRANCH  50  64
ATOM     64  C   UNL A   1      40.668  28.035  28.655  1.00  0.00     0.064 A 
ATOM     65  C   UNL A   1      41.455  28.441  27.566  1.00  0.00     0.173 A 
ATOM     66  C   UNL A   1      40.020  26.794  28.569  1.00  0.00     0.173 A 
ATOM     67  F   UNL A   1      42.084  29.626  27.593  1.00  0.00    -0.203 F 
ATOM     68  C   UNL A   1      41.576  27.643  26.432  1.00  0.00     0.198 A 
ATOM     69  C   UNL A   1      40.167  25.985  27.444  1.00  0.00     0.198 A 
ATOM     70  F   UNL A   1      39.257  26.356  29.582  1.00  0.00    -0.203 F 
ATOM     71  F   UNL A   1      42.303  28.069  25.390  1.00  0.00    -0.200 F 
ATOM     72  C   UNL A   1      40.940  26.413  26.376  1.00  0.00     0.200 A 
ATOM     73  F   UNL A   1      39.562  24.790  27.397  1.00  0.00    -0.200 F 
ATOM     74  F   UNL A   1      41.071  25.638  25.290  1.00  0.00    -0.200 F 
ENDBRANCH  50  64
BRANCH  51  75
ATOM     75  C   UNL A   1      39.728  33.846  36.733  1.00  0.00     0.064 A 
ATOM     76  C   UNL A   1      40.409  35.069  36.806  1.00  0.00     0.173 A 
ATOM     77  C   UNL A   1      38.909  33.490  37.814  1.00  0.00     0.173 A 
ATOM     78  F   UNL A   1      41.220  35.443  35.805  1.00  0.00    -0.203 F 
ATOM     79  C   UNL A   1      40.282  35.899  37.917  1.00  0.00     0.198 A 
ATOM     80  C   UNL A   1      38.762  34.333  38.914  1.00  0.00     0.198 A 
ATOM     81  F   UNL A   1      38.232  32.331  37.792  1.00  0.00    -0.203 F 
ATOM     82  F   UNL A   1      40.971  37.047  37.975  1.00  0.00    -0.200 F 
ATOM     83  C   UNL A   1      39.453  35.535  38.967  1.00  0.00     0.200 A 
ATOM     84  F   UNL A   1      37.947  33.984  39.919  1.00  0.00    -0.200 F 
ATOM     85  F   UNL A   1      39.321  36.338  40.030  1.00  0.00    -0.200 F 
ENDBRANCH  51  75
BRANCH  63  86
ATOM     86  C   UNL A   1      44.081  28.692  34.966  1.00  0.00     0.064 A 
ATOM     87  C   UNL A   1      43.934  27.576  35.802  1.00  0.00     0.173 A 
ATOM     88  C   UNL A   1      45.377  29.186  34.751  1.00  0.00     0.173 A 
ATOM     89  F   UNL A   1      42.714  27.074  36.049  1.00  0.00    -0.203 F 
ATOM     90  C   UNL A   1      45.038  26.994  36.418  1.00  0.00     0.198 A 
ATOM     91  C   UNL A   1      46.482  28.583  35.344  1.00  0.00     0.198 A 
ATOM     92  F   UNL A   1      45.572  30.247  33.952  1.00  0.00    -0.203 F 
ATOM     93  F   UNL A   1      44.870  25.956  37.249  1.00  0.00    -0.200 F 
ATOM     94  C   UNL A   1      46.312  27.493  36.182  1.00  0.00     0.200 A 
ATOM     95  F   UNL A   1      47.712  29.057  35.102  1.00  0.00    -0.200 F 
ATOM     96  F   UNL A   1      47.374  26.924  36.768  1.00  0.00    -0.200 F 
ENDBRANCH  63  86
ENDBRANCH  37  38
ENDBRANCH  29  32
ENDBRANCH  27  28
ENDBRANCH  26  27
ENDBRANCH   1  26
TORSDOF 14
ENDMDL
MODEL 3
REMARK VINA RESULT:     -12.5      5.495     10.893
REMARK SMILES Cc1cc2c(c(C)c1Cl)C=C(C(=O)NCCCCCCNC(=O)c1ccc(-c3c4nc(c(-c5c(F)c(F)c(F)c(F)c5F)c5ccc([nH]5)c(-c5c(F)c(F)c(F)c(F)c5F)c5nc(c(-c6c(F)c(F)c(F)c(F)c6F)c6ccc3[nH]6)C=C5)C=C4)cc1)[C@@H](C(F)(F)F)O2
REMARK SMILES IDX 18 1 17 2 16 3 15 4 14 5 12 6 13 7 11 9 1 10 2 11 3 12 8 13
REMARK SMILES IDX 4 14 6 15 9 16 5 17 92 18 7 19 10 20 87 21 88 22 89 23 90 24
REMARK SMILES IDX 91 25 19 26 20 27 21 28 22 29 23 31 24 32 25 33 86 34 26 35
REMARK SMILES IDX 85 36 27 37 28 38 29 39 79 40 30 41 84 42 78 43 80 44 31 45
REMARK SMILES IDX 83 46 77 47 76 48 32 50 64 51 44 52 63 53 45 54 48 55 62 56
REMARK SMILES IDX 81 57 46 58 47 59 61 61 82 62 49 63 33 64 34 65 42 66 35 67
REMARK SMILES IDX 36 68 40 69 43 70 37 71 38 72 41 73 39 74 65 75 66 76 74 77
REMARK SMILES IDX 67 78 68 79 72 80 75 81 69 82 70 83 73 84 71 85 50 86 51 87
REMARK SMILES IDX 59 88 52 89 53 90 57 91 60 92 54 93 55 94 58 95 56 96
REMARK H PARENT 14 8 21 30 80 49 48 60
REMARK Flexibility Score: inf
ROOT
ATOM      1  C   UNL A   1      36.968  20.243  24.980  1.00  0.00     0.002 C 
ENDROOT
BRANCH   1   2
ATOM      2  C   UNL A   1      37.117  21.695  24.504  1.00  0.00     0.002 C 
BRANCH   2   3
ATOM      3  C   UNL A   1      37.549  22.693  25.581  1.00  0.00     0.021 C 
BRANCH   3   4
ATOM      4  C   UNL A   1      36.520  23.781  25.868  1.00  0.00     0.116 C 
BRANCH   4   5
ATOM      5  N   UNL A   1      35.374  23.266  26.595  1.00  0.00    -0.352 N 
ATOM      6  C   UNL A   1      34.031  23.428  26.573  1.00  0.00     0.251 C 
ATOM      7  O   UNL A   1      33.407  22.731  27.382  1.00  0.00    -0.270 OA
ATOM      8  H   UNL A   1      35.648  22.625  27.290  1.00  0.00     0.163 HD
BRANCH   6   9
ATOM      9  C   UNL A   1      33.284  24.360  25.674  1.00  0.00     0.067 C 
ATOM     10  C   UNL A   1      30.518  29.392  22.603  1.00  0.00     0.046 C 
ATOM     11  C   UNL A   1      31.142  28.458  23.605  1.00  0.00    -0.028 A 
ATOM     12  C   UNL A   1      31.453  27.167  23.171  1.00  0.00     0.052 A 
ATOM     13  C   UNL A   1      31.491  28.833  24.918  1.00  0.00     0.047 A 
ATOM     14  C   UNL A   1      32.074  26.260  24.023  1.00  0.00     0.128 A 
ATOM     15  C   UNL A   1      32.113  27.914  25.802  1.00  0.00    -0.021 A 
ATOM     16  Cl  UNL A   1      31.175  30.464  25.429  1.00  0.00    -0.084 Cl
ATOM     17  C   UNL A   1      32.419  26.614  25.329  1.00  0.00     0.022 A 
ATOM     18  O   UNL A   1      32.354  25.051  23.465  1.00  0.00    -0.475 OA
ATOM     19  C   UNL A   1      32.472  28.291  27.221  1.00  0.00     0.047 C 
ATOM     20  C   UNL A   1      33.144  25.620  26.127  1.00  0.00     0.026 C 
ATOM     21  C   UNL A   1      32.684  23.962  24.361  1.00  0.00     0.314 C 
BRANCH  21  22
ATOM     22  C   UNL A   1      31.455  23.049  24.513  1.00  0.00     0.429 C 
ATOM     23  F   UNL A   1      30.607  23.219  23.467  1.00  0.00    -0.167 F 
ATOM     24  F   UNL A   1      31.778  21.735  24.528  1.00  0.00    -0.167 F 
ATOM     25  F   UNL A   1      30.760  23.299  25.645  1.00  0.00    -0.167 F 
ENDBRANCH  21  22
ENDBRANCH   6   9
ENDBRANCH   4   5
ENDBRANCH   3   4
ENDBRANCH   2   3
ENDBRANCH   1   2
BRANCH   1  26
ATOM     26  C   UNL A   1      38.248  19.402  24.943  1.00  0.00     0.021 C 
BRANCH  26  27
ATOM     27  C   UNL A   1      39.262  19.730  26.033  1.00  0.00     0.116 C 
BRANCH  27  28
ATOM     28  N   UNL A   1      40.435  18.872  25.962  1.00  0.00    -0.352 N 
ATOM     29  C   UNL A   1      41.759  19.209  25.988  1.00  0.00     0.251 C 
ATOM     30  H   UNL A   1      40.248  17.908  25.885  1.00  0.00     0.163 HD
ATOM     31  O   UNL A   1      42.617  18.368  25.716  1.00  0.00    -0.269 OA
BRANCH  29  32
ATOM     32  C   UNL A   1      42.168  20.585  26.330  1.00  0.00     0.039 A 
ATOM     33  C   UNL A   1      42.381  20.913  27.672  1.00  0.00     0.014 A 
ATOM     34  C   UNL A   1      42.311  21.557  25.333  1.00  0.00     0.014 A 
ATOM     35  C   UNL A   1      42.783  22.206  28.012  1.00  0.00     0.010 A 
ATOM     36  C   UNL A   1      42.766  22.828  25.669  1.00  0.00     0.010 A 
ATOM     37  C   UNL A   1      43.002  23.164  27.011  1.00  0.00    -0.014 A 
BRANCH  37  38
ATOM     38  C   UNL A   1      43.467  24.532  27.342  1.00  0.00     0.031 A 
ATOM     39  C   UNL A   1      42.499  25.538  27.896  1.00  0.00     0.074 A 
ATOM     40  C   UNL A   1      44.740  24.882  27.085  1.00  0.00     0.049 A 
ATOM     41  N   UNL A   1      42.678  26.810  28.143  1.00  0.00    -0.248 NA
ATOM     42  C   UNL A   1      41.143  25.052  28.193  1.00  0.00     0.031 C 
ATOM     43  C   UNL A   1      45.764  23.993  26.536  1.00  0.00     0.029 A 
ATOM     44  N   UNL A   1      45.388  26.082  27.241  1.00  0.00    -0.354 N 
ATOM     45  C   UNL A   1      41.460  27.277  28.617  1.00  0.00     0.074 A 
ATOM     46  C   UNL A   1      40.535  26.164  28.579  1.00  0.00     0.031 C 
ATOM     47  C   UNL A   1      46.916  24.673  26.417  1.00  0.00     0.029 A 
ATOM     48  C   UNL A   1      46.700  26.054  26.840  1.00  0.00     0.049 A 
ATOM     49  H   UNL A   1      44.951  26.885  27.606  1.00  0.00     0.167 HD
ATOM     50  C   UNL A   1      41.150  28.516  29.064  1.00  0.00     0.037 A 
ATOM     51  C   UNL A   1      47.621  27.035  26.808  1.00  0.00     0.037 A 
ATOM     52  C   UNL A   1      42.079  29.616  29.110  1.00  0.00     0.049 A 
ATOM     53  C   UNL A   1      47.241  28.413  27.278  1.00  0.00     0.074 A 
ATOM     54  C   UNL A   1      41.867  30.908  29.559  1.00  0.00     0.029 A 
ATOM     55  N   UNL A   1      43.402  29.549  28.696  1.00  0.00    -0.354 N 
ATOM     56  N   UNL A   1      46.091  28.841  27.738  1.00  0.00    -0.248 NA
ATOM     57  C   UNL A   1      48.288  29.442  27.226  1.00  0.00     0.031 C 
ATOM     58  C   UNL A   1      43.048  31.633  29.380  1.00  0.00     0.029 A 
ATOM     59  C   UNL A   1      44.014  30.779  28.869  1.00  0.00     0.049 A 
ATOM     60  H   UNL A   1      43.841  28.746  28.333  1.00  0.00     0.167 HD
ATOM     61  C   UNL A   1      46.281  30.178  28.059  1.00  0.00     0.074 A 
ATOM     62  C   UNL A   1      47.662  30.488  27.750  1.00  0.00     0.031 C 
ATOM     63  C   UNL A   1      45.393  31.068  28.564  1.00  0.00     0.037 A 
BRANCH  50  64
ATOM     64  C   UNL A   1      39.749  28.755  29.547  1.00  0.00     0.064 A 
ATOM     65  C   UNL A   1      39.393  28.549  30.888  1.00  0.00     0.173 A 
ATOM     66  C   UNL A   1      38.766  29.247  28.675  1.00  0.00     0.173 A 
ATOM     67  F   UNL A   1      40.292  28.066  31.759  1.00  0.00    -0.203 F 
ATOM     68  C   UNL A   1      38.101  28.813  31.335  1.00  0.00     0.198 A 
ATOM     69  C   UNL A   1      37.483  29.538  29.133  1.00  0.00     0.198 A 
ATOM     70  F   UNL A   1      39.054  29.464  27.383  1.00  0.00    -0.203 F 
ATOM     71  F   UNL A   1      37.775  28.574  32.613  1.00  0.00    -0.200 F 
ATOM     72  C   UNL A   1      37.151  29.316  30.460  1.00  0.00     0.200 A 
ATOM     73  F   UNL A   1      36.569  30.036  28.288  1.00  0.00    -0.200 F 
ATOM     74  F   UNL A   1      35.912  29.585  30.896  1.00  0.00    -0.200 F 
ENDBRANCH  50  64
BRANCH  51  75
ATOM     75  C   UNL A   1      48.999  26.736  26.343  1.00  0.00     0.064 A 
ATOM     76  C   UNL A   1      49.373  26.973  25.013  1.00  0.00     0.173 A 
ATOM     77  C   UNL A   1      49.975  26.232  27.215  1.00  0.00     0.173 A 
ATOM     78  F   UNL A   1      48.468  27.435  24.137  1.00  0.00    -0.203 F 
ATOM     79  C   UNL A   1      50.667  26.710  24.570  1.00  0.00     0.198 A 
ATOM     80  C   UNL A   1      51.277  25.994  26.778  1.00  0.00     0.198 A 
ATOM     81  F   UNL A   1      49.670  25.992  28.499  1.00  0.00    -0.203 F 
ATOM     82  F   UNL A   1      50.987  26.913  23.285  1.00  0.00    -0.200 F 
ATOM     83  C   UNL A   1      51.620  26.229  25.454  1.00  0.00     0.200 A 
ATOM     84  F   UNL A   1      52.199  25.544  27.639  1.00  0.00    -0.200 F 
ATOM     85  F   UNL A   1      52.868  25.988  25.032  1.00  0.00    -0.200 F 
ENDBRANCH  51  75
BRANCH  63  86
ATOM     86  C   UNL A   1      45.892  32.453  28.852  1.00  0.00     0.064 A 
ATOM     87  C   UNL A   1      45.793  33.484  27.907  1.00  0.00     0.173 A 
ATOM     88  C   UNL A   1      46.430  32.765  30.111  1.00  0.00     0.173 A 
ATOM     89  F   UNL A   1      45.298  33.234  26.685  1.00  0.00    -0.203 F 
ATOM     90  C   UNL A   1      46.237  34.770  28.202  1.00  0.00     0.198 A 
ATOM     91  C   UNL A   1      46.844  34.059  30.414  1.00  0.00     0.198 A 
ATOM     92  F   UNL A   1      46.538  31.816  31.054  1.00  0.00    -0.203 F 
ATOM     93  F   UNL A   1      46.174  35.729  27.269  1.00  0.00    -0.200 F 
ATOM     94  C   UNL A   1      46.754  35.058  29.457  1.00  0.00     0.200 A 
ATOM     95  F   UNL A   1      47.329  34.339  31.631  1.00  0.00    -0.200 F 
ATOM     96  F   UNL A   1      47.170  36.299  29.742  1.00  0.00    -0.200 F 
ENDBRANCH  63  86
ENDBRANCH  37  38
ENDBRANCH  29  32
ENDBRANCH  27  28
ENDBRANCH  26  27
ENDBRANCH   1  26
TORSDOF 14
ENDMDL
