MODEL 1
REMARK VINA RESULT:     -13.3      0.000      0.000
REMARK SMILES Cc1ncc(CC(=O)N2CCc3c(c(C(=O)NCCCCCCNC(=O)c4ccc(-c5c6nc(c(-c7c(F)c(F)c(F)c(F)c7F)c7ccc([nH]7)c(-c7c(F)c(F)c(F)c(F)c7F)c7nc(c(-c8c(F)c(F)c(F)c(F)c8F)c8ccc5[nH]8)C=C7)C=C6)cc4)nn3CC3CC3)C2)c(=O)[nH]1
REMARK SMILES IDX 20 1 19 2 18 3 17 4 15 5 16 6 14 8 9 9 10 10 96 11 11 12
REMARK SMILES IDX 13 13 12 14 91 15 90 16 7 17 8 18 6 19 5 20 1 21 2 22 3 23
REMARK SMILES IDX 99 24 4 25 97 26 98 28 92 29 93 30 94 31 95 32 21 33 22 34
REMARK SMILES IDX 23 35 24 36 25 37 26 39 27 40 28 41 89 42 29 43 88 44 30 45
REMARK SMILES IDX 31 46 32 47 82 48 33 49 87 50 81 51 83 52 34 53 86 54 80 55
REMARK SMILES IDX 79 56 35 58 67 59 47 60 66 61 48 62 51 63 65 64 84 65 49 66
REMARK SMILES IDX 50 67 64 69 85 70 52 71 36 72 37 73 45 74 38 75 39 76 43 77
REMARK SMILES IDX 46 78 40 79 41 80 44 81 42 82 68 83 69 84 77 85 70 86 71 87
REMARK SMILES IDX 75 88 78 89 72 90 73 91 76 92 74 93 53 94 54 95 62 96 55 97
REMARK SMILES IDX 56 98 60 99 63 100 57 101 58 102 61 103 59 104
REMARK H PARENT 17 7 99 27 24 38 83 57 51 68
REMARK Flexibility Score: inf
ROOT
ATOM      1  C   UNL A   1      39.326  21.751  26.133  1.00  0.00     0.002 C 
ENDROOT
BRANCH   1   2
ATOM      2  C   UNL A   1      38.872  23.169  26.485  1.00  0.00     0.021 C 
BRANCH   2   3
ATOM      3  C   UNL A   1      37.494  23.563  25.955  1.00  0.00     0.116 C 
BRANCH   3   4
ATOM      4  N   UNL A   1      37.387  23.413  24.513  1.00  0.00    -0.351 N 
ATOM      5  C   UNL A   1      36.373  22.912  23.719  1.00  0.00     0.272 C 
ATOM      6  O   UNL A   1      36.564  22.914  22.501  1.00  0.00    -0.267 OA
ATOM      7  H   UNL A   1      38.177  23.724  24.013  1.00  0.00     0.163 HD
BRANCH   5   8
ATOM      8  C   UNL A   1      35.128  22.363  24.293  1.00  0.00     0.155 A 
ATOM      9  N   UNL A   1      32.174  24.689  24.832  1.00  0.00    -0.338 N 
ATOM     10  C   UNL A   1      31.178  23.651  24.514  1.00  0.00     0.126 C 
ATOM     11  C   UNL A   1      33.503  24.485  24.207  1.00  0.00     0.159 C 
ATOM     12  C   UNL A   1      31.558  22.305  25.157  1.00  0.00     0.078 C 
ATOM     13  C   UNL A   1      33.891  23.054  24.460  1.00  0.00     0.026 A 
ATOM     14  C   UNL A   1      33.001  22.087  24.895  1.00  0.00     0.046 A 
ATOM     15  N   UNL A   1      33.706  20.940  25.044  1.00  0.00    -0.268 N 
ATOM     16  N   UNL A   1      35.006  21.099  24.749  1.00  0.00    -0.167 NA
BRANCH   9  17
ATOM     17  C   UNL A   1      31.990  25.806  25.628  1.00  0.00     0.227 C 
ATOM     18  O   UNL A   1      31.307  25.730  26.657  1.00  0.00    -0.275 OA
BRANCH  17  19
ATOM     19  C   UNL A   1      32.367  27.211  25.114  1.00  0.00     0.143 C 
BRANCH  19  20
ATOM     20  C   UNL A   1      31.421  27.986  24.265  1.00  0.00     0.045 A 
ATOM     21  C   UNL A   1      29.132  30.373  21.632  1.00  0.00     0.087 C 
ATOM     22  C   UNL A   1      29.882  29.476  22.572  1.00  0.00     0.105 A 
ATOM     23  N   UNL A   1      30.016  28.215  22.321  1.00  0.00    -0.243 NA
ATOM     24  N   UNL A   1      30.419  30.084  23.670  1.00  0.00    -0.311 N 
ATOM     25  C   UNL A   1      30.771  27.489  23.202  1.00  0.00     0.123 A 
ATOM     26  C   UNL A   1      31.181  29.410  24.582  1.00  0.00     0.254 A 
ATOM     27  H   UNL A   1      30.251  31.044  23.810  1.00  0.00     0.171 HD
ATOM     28  O   UNL A   1      31.662  29.956  25.563  1.00  0.00    -0.269 OA
ENDBRANCH  19  20
ENDBRANCH  17  19
ENDBRANCH   9  17
BRANCH  15  29
ATOM     29  C   UNL A   1      33.230  19.641  25.498  1.00  0.00     0.148 C 
BRANCH  29  30
ATOM     30  C   UNL A   1      32.658  18.757  24.418  1.00  0.00     0.011 C 
ATOM     31  C   UNL A   1      33.448  17.740  23.621  1.00  0.00     0.006 C 
ATOM     32  C   UNL A   1      32.495  17.278  24.684  1.00  0.00     0.006 C 
ENDBRANCH  29  30
ENDBRANCH  15  29
ENDBRANCH   5   8
ENDBRANCH   3   4
ENDBRANCH   2   3
ENDBRANCH   1   2
BRANCH   1  33
ATOM     33  C   UNL A   1      40.686  21.313  26.699  1.00  0.00     0.002 C 
BRANCH  33  34
ATOM     34  C   UNL A   1      41.272  19.998  26.165  1.00  0.00     0.021 C 
BRANCH  34  35
ATOM     35  C   UNL A   1      42.664  19.669  26.684  1.00  0.00     0.116 C 
BRANCH  35  36
ATOM     36  N   UNL A   1      43.657  19.551  25.617  1.00  0.00    -0.352 N 
ATOM     37  C   UNL A   1      44.212  20.557  24.850  1.00  0.00     0.251 C 
ATOM     38  H   UNL A   1      43.970  18.639  25.421  1.00  0.00     0.163 HD
ATOM     39  O   UNL A   1      44.732  20.316  23.769  1.00  0.00    -0.269 OA
BRANCH  37  40
ATOM     40  C   UNL A   1      44.164  21.940  25.354  1.00  0.00     0.039 A 
ATOM     41  C   UNL A   1      43.275  22.879  24.821  1.00  0.00     0.014 A 
ATOM     42  C   UNL A   1      45.017  22.282  26.399  1.00  0.00     0.014 A 
ATOM     43  C   UNL A   1      43.195  24.138  25.410  1.00  0.00     0.010 A 
ATOM     44  C   UNL A   1      44.825  23.459  27.075  1.00  0.00     0.010 A 
ATOM     45  C   UNL A   1      43.958  24.415  26.554  1.00  0.00    -0.014 A 
BRANCH  45  46
ATOM     46  C   UNL A   1      43.784  25.664  27.287  1.00  0.00     0.031 A 
ATOM     47  C   UNL A   1      44.724  26.756  26.907  1.00  0.00     0.074 A 
ATOM     48  C   UNL A   1      42.706  25.903  28.067  1.00  0.00     0.049 A 
ATOM     49  N   UNL A   1      45.578  27.364  27.663  1.00  0.00    -0.248 NA
ATOM     50  C   UNL A   1      44.799  27.154  25.490  1.00  0.00     0.031 C 
ATOM     51  C   UNL A   1      41.532  25.048  28.282  1.00  0.00     0.029 A 
ATOM     52  N   UNL A   1      42.373  27.035  28.744  1.00  0.00    -0.354 N 
ATOM     53  C   UNL A   1      46.172  28.344  26.870  1.00  0.00     0.074 A 
ATOM     54  C   UNL A   1      45.777  28.062  25.515  1.00  0.00     0.031 C 
ATOM     55  C   UNL A   1      40.530  25.782  28.811  1.00  0.00     0.029 A 
ATOM     56  C   UNL A   1      41.038  27.103  29.126  1.00  0.00     0.049 A 
ATOM     57  H   UNL A   1      43.022  27.747  28.946  1.00  0.00     0.167 HD
ATOM     58  C   UNL A   1      46.745  29.446  27.431  1.00  0.00     0.037 A 
ATOM     59  C   UNL A   1      40.390  28.184  29.626  1.00  0.00     0.037 A 
ATOM     60  C   UNL A   1      47.025  29.230  28.830  1.00  0.00     0.049 A 
ATOM     61  C   UNL A   1      41.425  29.124  30.128  1.00  0.00     0.074 A 
ATOM     62  C   UNL A   1      47.760  28.292  29.533  1.00  0.00     0.029 A 
ATOM     63  N   UNL A   1      46.202  29.818  29.760  1.00  0.00    -0.354 N 
ATOM     64  N   UNL A   1      42.177  28.884  31.166  1.00  0.00    -0.248 NA
ATOM     65  C   UNL A   1      41.942  30.115  29.196  1.00  0.00     0.031 C 
ATOM     66  C   UNL A   1      46.974  28.005  30.688  1.00  0.00     0.029 A 
ATOM     67  C   UNL A   1      45.858  28.841  30.659  1.00  0.00     0.049 A 
ATOM     68  H   UNL A   1      45.915  30.759  29.779  1.00  0.00     0.167 HD
ATOM     69  C   UNL A   1      43.433  29.340  30.798  1.00  0.00     0.074 A 
ATOM     70  C   UNL A   1      43.210  30.165  29.613  1.00  0.00     0.031 C 
ATOM     71  C   UNL A   1      44.569  28.772  31.302  1.00  0.00     0.037 A 
BRANCH  58  72
ATOM     72  C   UNL A   1      46.700  30.834  26.829  1.00  0.00     0.064 A 
ATOM     73  C   UNL A   1      47.871  31.621  26.842  1.00  0.00     0.173 A 
ATOM     74  C   UNL A   1      45.507  31.530  26.540  1.00  0.00     0.173 A 
ATOM     75  F   UNL A   1      49.064  31.069  27.113  1.00  0.00    -0.203 F 
ATOM     76  C   UNL A   1      47.831  33.008  26.683  1.00  0.00     0.198 A 
ATOM     77  C   UNL A   1      45.479  32.907  26.327  1.00  0.00     0.198 A 
ATOM     78  F   UNL A   1      44.307  30.939  26.565  1.00  0.00    -0.203 F 
ATOM     79  F   UNL A   1      48.949  33.729  26.848  1.00  0.00    -0.200 F 
ATOM     80  C   UNL A   1      46.633  33.652  26.435  1.00  0.00     0.200 A 
ATOM     81  F   UNL A   1      44.304  33.514  26.104  1.00  0.00    -0.200 F 
ATOM     82  F   UNL A   1      46.580  34.987  26.355  1.00  0.00    -0.200 F 
ENDBRANCH  58  72
BRANCH  59  83
ATOM     83  C   UNL A   1      38.970  28.574  29.445  1.00  0.00     0.064 A 
ATOM     84  C   UNL A   1      38.126  28.771  30.551  1.00  0.00     0.173 A 
ATOM     85  C   UNL A   1      38.479  29.020  28.201  1.00  0.00     0.173 A 
ATOM     86  F   UNL A   1      38.531  28.420  31.780  1.00  0.00    -0.203 F 
ATOM     87  C   UNL A   1      36.882  29.400  30.423  1.00  0.00     0.198 A 
ATOM     88  C   UNL A   1      37.235  29.636  28.074  1.00  0.00     0.198 A 
ATOM     89  F   UNL A   1      39.238  28.954  27.098  1.00  0.00    -0.203 F 
ATOM     90  F   UNL A   1      36.134  29.630  31.512  1.00  0.00    -0.200 F 
ATOM     91  C   UNL A   1      36.441  29.840  29.186  1.00  0.00     0.200 A 
ATOM     92  F   UNL A   1      36.838  30.090  26.876  1.00  0.00    -0.200 F 
ATOM     93  F   UNL A   1      35.278  30.497  29.073  1.00  0.00    -0.200 F 
ENDBRANCH  59  83
BRANCH  71  94
ATOM     94  C   UNL A   1      44.438  27.811  32.452  1.00  0.00     0.064 A 
ATOM     95  C   UNL A   1      44.280  28.202  33.794  1.00  0.00     0.173 A 
ATOM     96  C   UNL A   1      44.307  26.447  32.161  1.00  0.00     0.173 A 
ATOM     97  F   UNL A   1      44.284  29.493  34.144  1.00  0.00    -0.203 F 
ATOM     98  C   UNL A   1      44.047  27.264  34.798  1.00  0.00     0.198 A 
ATOM     99  C   UNL A   1      44.036  25.517  33.160  1.00  0.00     0.198 A 
ATOM    100  F   UNL A   1      44.392  26.020  30.891  1.00  0.00    -0.203 F 
ATOM    101  F   UNL A   1      43.911  27.663  36.072  1.00  0.00    -0.200 F 
ATOM    102  C   UNL A   1      43.918  25.923  34.479  1.00  0.00     0.200 A 
ATOM    103  F   UNL A   1      43.861  24.227  32.840  1.00  0.00    -0.200 F 
ATOM    104  F   UNL A   1      43.650  25.026  35.438  1.00  0.00    -0.200 F 
ENDBRANCH  71  94
ENDBRANCH  45  46
ENDBRANCH  37  40
ENDBRANCH  35  36
ENDBRANCH  34  35
ENDBRANCH  33  34
ENDBRANCH   1  33
TORSDOF 18
ENDMDL
MODEL 2
REMARK VINA RESULT:     -12.9      3.516      9.838
REMARK SMILES Cc1ncc(CC(=O)N2CCc3c(c(C(=O)NCCCCCCNC(=O)c4ccc(-c5c6nc(c(-c7c(F)c(F)c(F)c(F)c7F)c7ccc([nH]7)c(-c7c(F)c(F)c(F)c(F)c7F)c7nc(c(-c8c(F)c(F)c(F)c(F)c8F)c8ccc5[nH]8)C=C7)C=C6)cc4)nn3CC3CC3)C2)c(=O)[nH]1
REMARK SMILES IDX 20 1 19 2 18 3 17 4 15 5 16 6 14 8 9 9 10 10 96 11 11 12
REMARK SMILES IDX 13 13 12 14 91 15 90 16 7 17 8 18 6 19 5 20 1 21 2 22 3 23
REMARK SMILES IDX 99 24 4 25 97 26 98 28 92 29 93 30 94 31 95 32 21 33 22 34
REMARK SMILES IDX 23 35 24 36 25 37 26 39 27 40 28 41 89 42 29 43 88 44 30 45
REMARK SMILES IDX 31 46 32 47 82 48 33 49 87 50 81 51 83 52 34 53 86 54 80 55
REMARK SMILES IDX 79 56 35 58 67 59 47 60 66 61 48 62 51 63 65 64 84 65 49 66
REMARK SMILES IDX 50 67 64 69 85 70 52 71 36 72 37 73 45 74 38 75 39 76 43 77
REMARK SMILES IDX 46 78 40 79 41 80 44 81 42 82 68 83 69 84 77 85 70 86 71 87
REMARK SMILES IDX 75 88 78 89 72 90 73 91 76 92 74 93 53 94 54 95 62 96 55 97
REMARK SMILES IDX 56 98 60 99 63 100 57 101 58 102 61 103 59 104
REMARK H PARENT 17 7 99 27 24 38 83 57 51 68
REMARK Flexibility Score: inf
ROOT
ATOM      1  C   UNL A   1      34.434  32.212  28.236  1.00  0.00     0.002 C 
ENDROOT
BRANCH   1   2
ATOM      2  C   UNL A   1      33.609  31.449  27.197  1.00  0.00     0.021 C 
BRANCH   2   3
ATOM      3  C   UNL A   1      33.887  29.949  27.119  1.00  0.00     0.116 C 
BRANCH   3   4
ATOM      4  N   UNL A   1      32.838  29.154  27.736  1.00  0.00    -0.351 N 
ATOM      5  C   UNL A   1      31.840  28.372  27.186  1.00  0.00     0.272 C 
ATOM      6  O   UNL A   1      31.082  27.800  27.971  1.00  0.00    -0.267 OA
ATOM      7  H   UNL A   1      32.838  29.176  28.721  1.00  0.00     0.163 HD
BRANCH   5   8
ATOM      8  C   UNL A   1      31.657  28.250  25.725  1.00  0.00     0.155 A 
ATOM      9  N   UNL A   1      32.662  25.009  24.016  1.00  0.00    -0.338 N 
ATOM     10  C   UNL A   1      31.567  25.079  23.033  1.00  0.00     0.126 C 
ATOM     11  C   UNL A   1      32.394  25.715  25.293  1.00  0.00     0.159 C 
ATOM     12  C   UNL A   1      31.393  26.511  22.500  1.00  0.00     0.078 C 
ATOM     13  C   UNL A   1      31.870  27.080  24.937  1.00  0.00     0.026 A 
ATOM     14  C   UNL A   1      31.429  27.421  23.670  1.00  0.00     0.046 A 
ATOM     15  N   UNL A   1      31.067  28.726  23.717  1.00  0.00    -0.268 N 
ATOM     16  N   UNL A   1      31.258  29.264  24.932  1.00  0.00    -0.167 NA
BRANCH   9  17
ATOM     17  C   UNL A   1      33.876  24.361  23.869  1.00  0.00     0.227 C 
ATOM     18  O   UNL A   1      34.403  24.276  22.753  1.00  0.00    -0.275 OA
BRANCH  17  19
ATOM     19  C   UNL A   1      34.446  23.488  25.006  1.00  0.00     0.143 C 
BRANCH  19  20
ATOM     20  C   UNL A   1      34.051  22.058  25.134  1.00  0.00     0.045 A 
ATOM     21  C   UNL A   1      32.628  18.078  25.117  1.00  0.00     0.087 C 
ATOM     22  C   UNL A   1      33.201  19.464  25.156  1.00  0.00     0.105 A 
ATOM     23  N   UNL A   1      34.351  19.722  24.626  1.00  0.00    -0.243 NA
ATOM     24  N   UNL A   1      32.422  20.410  25.757  1.00  0.00    -0.311 N 
ATOM     25  C   UNL A   1      34.763  21.027  24.654  1.00  0.00     0.123 A 
ATOM     26  C   UNL A   1      32.781  21.727  25.814  1.00  0.00     0.254 A 
ATOM     27  H   UNL A   1      31.569  20.134  26.164  1.00  0.00     0.171 HD
ATOM     28  O   UNL A   1      32.081  22.573  26.350  1.00  0.00    -0.269 OA
ENDBRANCH  19  20
ENDBRANCH  17  19
ENDBRANCH   9  17
BRANCH  15  29
ATOM     29  C   UNL A   1      30.555  29.559  22.638  1.00  0.00     0.148 C 
BRANCH  29  30
ATOM     30  C   UNL A   1      29.138  30.040  22.819  1.00  0.00     0.011 C 
ATOM     31  C   UNL A   1      28.102  30.122  21.717  1.00  0.00     0.006 C 
ATOM     32  C   UNL A   1      28.004  29.042  22.754  1.00  0.00     0.006 C 
ENDBRANCH  29  30
ENDBRANCH  15  29
ENDBRANCH   5   8
ENDBRANCH   3   4
ENDBRANCH   2   3
ENDBRANCH   1   2
BRANCH   1  33
ATOM     33  C   UNL A   1      34.424  33.745  28.119  1.00  0.00     0.002 C 
BRANCH  33  34
ATOM     34  C   UNL A   1      33.252  34.487  28.776  1.00  0.00     0.021 C 
BRANCH  34  35
ATOM     35  C   UNL A   1      33.653  35.706  29.592  1.00  0.00     0.116 C 
BRANCH  35  36
ATOM     36  N   UNL A   1      33.000  35.758  30.900  1.00  0.00    -0.352 N 
ATOM     37  C   UNL A   1      33.188  34.920  31.982  1.00  0.00     0.251 C 
ATOM     38  H   UNL A   1      32.345  36.481  31.024  1.00  0.00     0.163 HD
ATOM     39  O   UNL A   1      32.345  34.827  32.864  1.00  0.00    -0.269 OA
BRANCH  37  40
ATOM     40  C   UNL A   1      34.429  34.129  32.059  1.00  0.00     0.039 A 
ATOM     41  C   UNL A   1      34.426  32.749  31.840  1.00  0.00     0.014 A 
ATOM     42  C   UNL A   1      35.615  34.804  32.335  1.00  0.00     0.014 A 
ATOM     43  C   UNL A   1      35.642  32.070  31.816  1.00  0.00     0.010 A 
ATOM     44  C   UNL A   1      36.815  34.168  32.153  1.00  0.00     0.010 A 
ATOM     45  C   UNL A   1      36.838  32.791  31.950  1.00  0.00    -0.014 A 
BRANCH  45  46
ATOM     46  C   UNL A   1      38.130  32.138  31.773  1.00  0.00     0.031 A 
ATOM     47  C   UNL A   1      38.885  31.881  33.032  1.00  0.00     0.074 A 
ATOM     48  C   UNL A   1      38.509  31.586  30.599  1.00  0.00     0.049 A 
ATOM     49  N   UNL A   1      40.054  32.324  33.358  1.00  0.00    -0.248 NA
ATOM     50  C   UNL A   1      38.219  31.121  34.104  1.00  0.00     0.031 C 
ATOM     51  C   UNL A   1      37.736  31.473  29.357  1.00  0.00     0.029 A 
ATOM     52  N   UNL A   1      39.638  30.886  30.307  1.00  0.00    -0.354 N 
ATOM     53  C   UNL A   1      40.355  31.756  34.595  1.00  0.00     0.074 A 
ATOM     54  C   UNL A   1      39.134  31.165  35.075  1.00  0.00     0.031 C 
ATOM     55  C   UNL A   1      38.303  30.546  28.555  1.00  0.00     0.029 A 
ATOM     56  C   UNL A   1      39.558  30.126  29.146  1.00  0.00     0.049 A 
ATOM     57  H   UNL A   1      40.445  30.915  30.870  1.00  0.00     0.167 HD
ATOM     58  C   UNL A   1      41.647  31.618  35.007  1.00  0.00     0.037 A 
ATOM     59  C   UNL A   1      40.443  29.188  28.726  1.00  0.00     0.037 A 
ATOM     60  C   UNL A   1      42.526  32.481  34.256  1.00  0.00     0.049 A 
ATOM     61  C   UNL A   1      41.718  29.432  29.448  1.00  0.00     0.074 A 
ATOM     62  C   UNL A   1      42.576  33.844  34.028  1.00  0.00     0.029 A 
ATOM     63  N   UNL A   1      43.316  31.921  33.281  1.00  0.00    -0.354 N 
ATOM     64  N   UNL A   1      42.473  30.477  29.250  1.00  0.00    -0.248 NA
ATOM     65  C   UNL A   1      41.909  28.755  30.722  1.00  0.00     0.031 C 
ATOM     66  C   UNL A   1      42.935  33.971  32.654  1.00  0.00     0.029 A 
ATOM     67  C   UNL A   1      43.162  32.688  32.155  1.00  0.00     0.049 A 
ATOM     68  H   UNL A   1      43.885  31.122  33.373  1.00  0.00     0.167 HD
ATOM     69  C   UNL A   1      42.896  30.846  30.517  1.00  0.00     0.074 A 
ATOM     70  C   UNL A   1      42.591  29.702  31.372  1.00  0.00     0.031 C 
ATOM     71  C   UNL A   1      43.178  32.149  30.818  1.00  0.00     0.037 A 
BRANCH  58  72
ATOM     72  C   UNL A   1      42.168  30.443  35.805  1.00  0.00     0.064 A 
ATOM     73  C   UNL A   1      43.105  30.680  36.834  1.00  0.00     0.173 A 
ATOM     74  C   UNL A   1      42.040  29.097  35.402  1.00  0.00     0.173 A 
ATOM     75  F   UNL A   1      43.318  31.922  37.293  1.00  0.00    -0.203 F 
ATOM     76  C   UNL A   1      43.920  29.663  37.340  1.00  0.00     0.198 A 
ATOM     77  C   UNL A   1      42.816  28.076  35.949  1.00  0.00     0.198 A 
ATOM     78  F   UNL A   1      41.250  28.723  34.389  1.00  0.00    -0.203 F 
ATOM     79  F   UNL A   1      44.893  29.964  38.210  1.00  0.00    -0.200 F 
ATOM     80  C   UNL A   1      43.781  28.364  36.890  1.00  0.00     0.200 A 
ATOM     81  F   UNL A   1      42.677  26.825  35.488  1.00  0.00    -0.200 F 
ATOM     82  F   UNL A   1      44.608  27.402  37.319  1.00  0.00    -0.200 F 
ENDBRANCH  58  72
BRANCH  59  83
ATOM     83  C   UNL A   1      40.176  27.945  27.963  1.00  0.00     0.064 A 
ATOM     84  C   UNL A   1      40.809  27.699  26.732  1.00  0.00     0.173 A 
ATOM     85  C   UNL A   1      39.504  26.851  28.545  1.00  0.00     0.173 A 
ATOM     86  F   UNL A   1      41.511  28.670  26.130  1.00  0.00    -0.203 F 
ATOM     87  C   UNL A   1      40.792  26.433  26.137  1.00  0.00     0.198 A 
ATOM     88  C   UNL A   1      39.479  25.592  27.946  1.00  0.00     0.198 A 
ATOM     89  F   UNL A   1      38.939  26.956  29.757  1.00  0.00    -0.203 F 
ATOM     90  F   UNL A   1      41.463  26.222  24.996  1.00  0.00    -0.200 F 
ATOM     91  C   UNL A   1      40.134  25.378  26.748  1.00  0.00     0.200 A 
ATOM     92  F   UNL A   1      38.869  24.572  28.567  1.00  0.00    -0.200 F 
ATOM     93  F   UNL A   1      40.170  24.151  26.210  1.00  0.00    -0.200 F 
ENDBRANCH  59  83
BRANCH  71  94
ATOM     94  C   UNL A   1      43.266  33.140  29.690  1.00  0.00     0.064 A 
ATOM     95  C   UNL A   1      42.209  33.977  29.290  1.00  0.00     0.173 A 
ATOM     96  C   UNL A   1      44.518  33.361  29.101  1.00  0.00     0.173 A 
ATOM     97  F   UNL A   1      41.009  33.905  29.876  1.00  0.00    -0.203 F 
ATOM     98  C   UNL A   1      42.391  34.956  28.314  1.00  0.00     0.198 A 
ATOM     99  C   UNL A   1      44.707  34.364  28.156  1.00  0.00     0.198 A 
ATOM    100  F   UNL A   1      45.578  32.631  29.483  1.00  0.00    -0.203 F 
ATOM    101  F   UNL A   1      41.364  35.734  27.942  1.00  0.00    -0.200 F 
ATOM    102  C   UNL A   1      43.642  35.154  27.754  1.00  0.00     0.200 A 
ATOM    103  F   UNL A   1      45.930  34.585  27.654  1.00  0.00    -0.200 F 
ATOM    104  F   UNL A   1      43.828  36.124  26.848  1.00  0.00    -0.200 F 
ENDBRANCH  71  94
ENDBRANCH  45  46
ENDBRANCH  37  40
ENDBRANCH  35  36
ENDBRANCH  34  35
ENDBRANCH  33  34
ENDBRANCH   1  33
TORSDOF 18
ENDMDL
MODEL 3
REMARK VINA RESULT:     -12.4      3.015      8.896
REMARK SMILES Cc1ncc(CC(=O)N2CCc3c(c(C(=O)NCCCCCCNC(=O)c4ccc(-c5c6nc(c(-c7c(F)c(F)c(F)c(F)c7F)c7ccc([nH]7)c(-c7c(F)c(F)c(F)c(F)c7F)c7nc(c(-c8c(F)c(F)c(F)c(F)c8F)c8ccc5[nH]8)C=C7)C=C6)cc4)nn3CC3CC3)C2)c(=O)[nH]1
REMARK SMILES IDX 20 1 19 2 18 3 17 4 15 5 16 6 14 8 9 9 10 10 96 11 11 12
REMARK SMILES IDX 13 13 12 14 91 15 90 16 7 17 8 18 6 19 5 20 1 21 2 22 3 23
REMARK SMILES IDX 99 24 4 25 97 26 98 28 92 29 93 30 94 31 95 32 21 33 22 34
REMARK SMILES IDX 23 35 24 36 25 37 26 39 27 40 28 41 89 42 29 43 88 44 30 45
REMARK SMILES IDX 31 46 32 47 82 48 33 49 87 50 81 51 83 52 34 53 86 54 80 55
REMARK SMILES IDX 79 56 35 58 67 59 47 60 66 61 48 62 51 63 65 64 84 65 49 66
REMARK SMILES IDX 50 67 64 69 85 70 52 71 36 72 37 73 45 74 38 75 39 76 43 77
REMARK SMILES IDX 46 78 40 79 41 80 44 81 42 82 68 83 69 84 77 85 70 86 71 87
REMARK SMILES IDX 75 88 78 89 72 90 73 91 76 92 74 93 53 94 54 95 62 96 55 97
REMARK SMILES IDX 56 98 60 99 63 100 57 101 58 102 61 103 59 104
REMARK H PARENT 17 7 99 27 24 38 83 57 51 68
REMARK Flexibility Score: inf
ROOT
ATOM      1  C   UNL A   1      31.730  27.401  27.052  1.00  0.00     0.002 C 
ENDROOT
BRANCH   1   2
ATOM      2  C   UNL A   1      31.665  26.648  25.721  1.00  0.00     0.021 C 
BRANCH   2   3
ATOM      3  C   UNL A   1      30.737  25.434  25.705  1.00  0.00     0.116 C 
BRANCH   3   4
ATOM      4  N   UNL A   1      31.026  24.495  26.777  1.00  0.00    -0.351 N 
ATOM      5  C   UNL A   1      32.095  23.645  26.984  1.00  0.00     0.272 C 
ATOM      6  O   UNL A   1      32.070  22.955  28.006  1.00  0.00    -0.267 OA
ATOM      7  H   UNL A   1      30.338  24.460  27.481  1.00  0.00     0.163 HD
BRANCH   5   8
ATOM      8  C   UNL A   1      33.204  23.531  26.015  1.00  0.00     0.155 A 
ATOM      9  N   UNL A   1      32.502  22.041  22.592  1.00  0.00    -0.338 N 
ATOM     10  C   UNL A   1      33.463  22.924  21.907  1.00  0.00     0.126 C 
ATOM     11  C   UNL A   1      31.944  22.591  23.851  1.00  0.00     0.159 C 
ATOM     12  C   UNL A   1      34.761  23.065  22.721  1.00  0.00     0.078 C 
ATOM     13  C   UNL A   1      33.106  23.106  24.657  1.00  0.00     0.026 A 
ATOM     14  C   UNL A   1      34.370  23.308  24.130  1.00  0.00     0.046 A 
ATOM     15  N   UNL A   1      35.156  23.740  25.146  1.00  0.00    -0.268 N 
ATOM     16  N   UNL A   1      34.488  23.820  26.308  1.00  0.00    -0.167 NA
BRANCH   9  17
ATOM     17  C   UNL A   1      32.080  20.789  22.180  1.00  0.00     0.227 C 
ATOM     18  O   UNL A   1      31.754  20.599  21.003  1.00  0.00    -0.275 OA
BRANCH  17  19
ATOM     19  C   UNL A   1      31.723  19.699  23.213  1.00  0.00     0.143 C 
BRANCH  19  20
ATOM     20  C   UNL A   1      32.734  18.687  23.626  1.00  0.00     0.045 A 
ATOM     21  C   UNL A   1      35.241  15.597  25.051  1.00  0.00     0.087 C 
ATOM     22  C   UNL A   1      34.400  16.701  24.483  1.00  0.00     0.105 A 
ATOM     23  N   UNL A   1      33.946  16.635  23.274  1.00  0.00    -0.243 NA
ATOM     24  N   UNL A   1      34.137  17.742  25.327  1.00  0.00    -0.311 N 
ATOM     25  C   UNL A   1      33.135  17.659  22.864  1.00  0.00     0.123 A 
ATOM     26  C   UNL A   1      33.335  18.789  24.973  1.00  0.00     0.254 A 
ATOM     27  H   UNL A   1      34.541  17.737  26.225  1.00  0.00     0.171 HD
ATOM     28  O   UNL A   1      33.099  19.718  25.731  1.00  0.00    -0.269 OA
ENDBRANCH  19  20
ENDBRANCH  17  19
ENDBRANCH   9  17
BRANCH  15  29
ATOM     29  C   UNL A   1      36.573  24.074  25.111  1.00  0.00     0.148 C 
BRANCH  29  30
ATOM     30  C   UNL A   1      37.352  23.681  26.339  1.00  0.00     0.011 C 
ATOM     31  C   UNL A   1      38.643  22.888  26.331  1.00  0.00     0.006 C 
ATOM     32  C   UNL A   1      38.674  24.360  26.624  1.00  0.00     0.006 C 
ENDBRANCH  29  30
ENDBRANCH  15  29
ENDBRANCH   5   8
ENDBRANCH   3   4
ENDBRANCH   2   3
ENDBRANCH   1   2
BRANCH   1  33
ATOM     33  C   UNL A   1      32.949  28.315  27.256  1.00  0.00     0.002 C 
BRANCH  33  34
ATOM     34  C   UNL A   1      32.714  29.827  27.129  1.00  0.00     0.021 C 
BRANCH  34  35
ATOM     35  C   UNL A   1      33.972  30.674  27.247  1.00  0.00     0.116 C 
BRANCH  35  36
ATOM     36  N   UNL A   1      33.894  31.665  28.320  1.00  0.00    -0.352 N 
ATOM     37  C   UNL A   1      34.751  31.834  29.391  1.00  0.00     0.251 C 
ATOM     38  H   UNL A   1      33.136  32.290  28.273  1.00  0.00     0.163 HD
ATOM     39  O   UNL A   1      34.395  32.429  30.399  1.00  0.00    -0.269 OA
BRANCH  37  40
ATOM     40  C   UNL A   1      36.112  31.279  29.303  1.00  0.00     0.039 A 
ATOM     41  C   UNL A   1      37.240  32.103  29.371  1.00  0.00     0.014 A 
ATOM     42  C   UNL A   1      36.246  29.899  29.174  1.00  0.00     0.014 A 
ATOM     43  C   UNL A   1      38.502  31.514  29.395  1.00  0.00     0.010 A 
ATOM     44  C   UNL A   1      37.473  29.316  29.357  1.00  0.00     0.010 A 
ATOM     45  C   UNL A   1      38.611  30.116  29.411  1.00  0.00    -0.014 A 
BRANCH  45  46
ATOM     46  C   UNL A   1      39.905  29.468  29.593  1.00  0.00     0.031 A 
ATOM     47  C   UNL A   1      40.353  29.338  31.008  1.00  0.00     0.074 A 
ATOM     48  C   UNL A   1      40.537  28.815  28.592  1.00  0.00     0.049 A 
ATOM     49  N   UNL A   1      41.420  29.825  31.549  1.00  0.00    -0.248 NA
ATOM     50  C   UNL A   1      39.455  28.670  31.967  1.00  0.00     0.031 C 
ATOM     51  C   UNL A   1      40.066  28.578  27.222  1.00  0.00     0.029 A 
ATOM     52  N   UNL A   1      41.698  28.107  28.630  1.00  0.00    -0.354 N 
ATOM     53  C   UNL A   1      41.427  29.378  32.869  1.00  0.00     0.074 A 
ATOM     54  C   UNL A   1      40.125  28.816  33.112  1.00  0.00     0.031 C 
ATOM     55  C   UNL A   1      40.794  27.588  26.660  1.00  0.00     0.029 A 
ATOM     56  C   UNL A   1      41.879  27.242  27.557  1.00  0.00     0.049 A 
ATOM     57  H   UNL A   1      42.356  28.199  29.357  1.00  0.00     0.167 HD
ATOM     58  C   UNL A   1      42.591  29.296  33.574  1.00  0.00     0.037 A 
ATOM     59  C   UNL A   1      42.829  26.283  27.438  1.00  0.00     0.037 A 
ATOM     60  C   UNL A   1      43.624  30.099  32.967  1.00  0.00     0.049 A 
ATOM     61  C   UNL A   1      43.908  26.610  28.405  1.00  0.00     0.074 A 
ATOM     62  C   UNL A   1      43.734  31.436  32.630  1.00  0.00     0.029 A 
ATOM     63  N   UNL A   1      44.611  29.463  32.252  1.00  0.00    -0.354 N 
ATOM     64  N   UNL A   1      44.696  27.642  28.287  1.00  0.00    -0.248 NA
ATOM     65  C   UNL A   1      43.800  26.055  29.746  1.00  0.00     0.031 C 
ATOM     66  C   UNL A   1      44.397  31.441  31.368  1.00  0.00     0.029 A 
ATOM     67  C   UNL A   1      44.722  30.121  31.055  1.00  0.00     0.049 A 
ATOM     68  H   UNL A   1      45.138  28.685  32.545  1.00  0.00     0.167 HD
ATOM     69  C   UNL A   1      44.822  28.133  29.577  1.00  0.00     0.074 A 
ATOM     70  C   UNL A   1      44.322  27.067  30.443  1.00  0.00     0.031 C 
ATOM     71  C   UNL A   1      45.038  29.461  29.812  1.00  0.00     0.037 A 
BRANCH  58  72
ATOM     72  C   UNL A   1      42.909  28.208  34.576  1.00  0.00     0.064 A 
ATOM     73  C   UNL A   1      43.330  28.575  35.872  1.00  0.00     0.173 A 
ATOM     74  C   UNL A   1      43.125  26.857  34.230  1.00  0.00     0.173 A 
ATOM     75  F   UNL A   1      43.182  29.835  36.308  1.00  0.00    -0.203 F 
ATOM     76  C   UNL A   1      44.008  27.685  36.708  1.00  0.00     0.198 A 
ATOM     77  C   UNL A   1      43.753  25.957  35.090  1.00  0.00     0.198 A 
ATOM     78  F   UNL A   1      42.849  26.375  33.013  1.00  0.00    -0.203 F 
ATOM     79  F   UNL A   1      44.516  28.120  37.869  1.00  0.00    -0.200 F 
ATOM     80  C   UNL A   1      44.228  26.378  36.313  1.00  0.00     0.200 A 
ATOM     81  F   UNL A   1      43.970  24.698  34.680  1.00  0.00    -0.200 F 
ATOM     82  F   UNL A   1      44.940  25.544  37.079  1.00  0.00    -0.200 F 
ENDBRANCH  58  72
BRANCH  59  83
ATOM     83  C   UNL A   1      42.734  24.970  26.753  1.00  0.00     0.064 A 
ATOM     84  C   UNL A   1      43.404  24.735  25.541  1.00  0.00     0.173 A 
ATOM     85  C   UNL A   1      42.205  23.836  27.401  1.00  0.00     0.173 A 
ATOM     86  F   UNL A   1      43.980  25.750  24.880  1.00  0.00    -0.203 F 
ATOM     87  C   UNL A   1      43.558  23.443  25.025  1.00  0.00     0.198 A 
ATOM     88  C   UNL A   1      42.349  22.550  26.880  1.00  0.00     0.198 A 
ATOM     89  F   UNL A   1      41.619  23.940  28.603  1.00  0.00    -0.203 F 
ATOM     90  F   UNL A   1      44.262  23.252  23.900  1.00  0.00    -0.200 F 
ATOM     91  C   UNL A   1      43.038  22.351  25.700  1.00  0.00     0.200 A 
ATOM     92  F   UNL A   1      41.872  21.499  27.563  1.00  0.00    -0.200 F 
ATOM     93  F   UNL A   1      43.238  21.108  25.238  1.00  0.00    -0.200 F 
ENDBRANCH  59  83
BRANCH  71  94
ATOM     94  C   UNL A   1      45.387  30.346  28.647  1.00  0.00     0.064 A 
ATOM     95  C   UNL A   1      44.439  30.993  27.834  1.00  0.00     0.173 A 
ATOM     96  C   UNL A   1      46.734  30.676  28.449  1.00  0.00     0.173 A 
ATOM     97  F   UNL A   1      43.128  30.816  28.025  1.00  0.00    -0.203 F 
ATOM     98  C   UNL A   1      44.830  31.892  26.842  1.00  0.00     0.198 A 
ATOM     99  C   UNL A   1      47.119  31.603  27.485  1.00  0.00     0.198 A 
ATOM    100  F   UNL A   1      47.681  30.133  29.232  1.00  0.00    -0.203 F 
ATOM    101  F   UNL A   1      43.905  32.487  26.073  1.00  0.00    -0.200 F 
ATOM    102  C   UNL A   1      46.168  32.202  26.674  1.00  0.00     0.200 A 
ATOM    103  F   UNL A   1      48.410  31.938  27.360  1.00  0.00    -0.200 F 
ATOM    104  F   UNL A   1      46.540  33.100  25.751  1.00  0.00    -0.200 F 
ENDBRANCH  71  94
ENDBRANCH  45  46
ENDBRANCH  37  40
ENDBRANCH  35  36
ENDBRANCH  34  35
ENDBRANCH  33  34
ENDBRANCH   1  33
TORSDOF 18
ENDMDL
