MODEL 1
REMARK VINA RESULT:     -11.3      0.000      0.000
REMARK SMILES CC(C)(C)C(=O)NCCC(=O)N1C[C@@H](O)C[C@@H]1C(=O)NCCCCCCNC(=O)c1ccc(-c2c3nc(c(-c4c(F)c(F)c(F)c(F)c4F)c4ccc([nH]4)c(-c4c(F)c(F)c(F)c(F)c4F)c4nc(c(-c5c(F)c(F)c(F)c(F)c5F)c5ccc2[nH]5)C=C4)C=C3)cc1
REMARK SMILES IDX 22 1 21 2 20 3 18 4 19 5 17 7 12 8 13 9 14 10 16 11 10 12
REMARK SMILES IDX 11 13 9 14 8 15 7 16 5 17 6 18 2 20 1 21 3 22 4 23 15 24
REMARK SMILES IDX 23 26 24 27 25 28 26 29 27 30 28 31 29 33 30 34 31 35 92 36
REMARK SMILES IDX 32 37 91 38 33 39 34 40 35 41 85 42 36 43 90 44 84 45 86 46
REMARK SMILES IDX 37 47 89 48 83 49 82 50 38 52 70 53 50 54 69 55 51 56 54 57
REMARK SMILES IDX 68 58 87 59 52 60 53 61 67 63 88 64 55 65 39 66 40 67 48 68
REMARK SMILES IDX 41 69 42 70 46 71 49 72 43 73 44 74 47 75 45 76 71 77 72 78
REMARK SMILES IDX 80 79 73 80 74 81 78 82 81 83 75 84 76 85 79 86 77 87 56 88
REMARK SMILES IDX 57 89 65 90 58 91 59 92 63 93 66 94 60 95 61 96 64 97 62 98
REMARK H PARENT 20 6 7 19 15 25 27 32 86 51 54 62
REMARK Flexibility Score: inf
ROOT
ATOM      1  C   UNL A   1      33.218  28.761  27.325  1.00  0.00     0.021 C 
ENDROOT
BRANCH   1   2
ATOM      2  C   UNL A   1      34.129  28.144  26.265  1.00  0.00     0.116 C 
BRANCH   2   3
ATOM      3  N   UNL A   1      34.026  28.861  25.013  1.00  0.00    -0.354 N 
ATOM      4  C   UNL A   1      33.271  28.553  23.921  1.00  0.00     0.242 C 
ATOM      5  O   UNL A   1      33.412  29.237  22.905  1.00  0.00    -0.273 OA
ATOM      6  H   UNL A   1      34.571  29.679  24.941  1.00  0.00     0.163 HD
BRANCH   4   7
ATOM      7  C   UNL A   1      32.195  27.451  24.040  1.00  0.00     0.177 C 
ATOM      8  N   UNL A   1      32.059  26.775  22.757  1.00  0.00    -0.328 N 
ATOM      9  C   UNL A   1      30.931  27.315  22.006  1.00  0.00     0.152 C 
ATOM     10  C   UNL A   1      30.376  28.459  22.862  1.00  0.00     0.136 C 
ATOM     11  C   UNL A   1      30.837  28.102  24.276  1.00  0.00     0.069 C 
BRANCH   8  12
ATOM     12  C   UNL A   1      32.992  25.841  22.379  1.00  0.00     0.225 C 
ATOM     13  O   UNL A   1      33.352  25.734  21.204  1.00  0.00    -0.275 OA
BRANCH  12  14
ATOM     14  C   UNL A   1      33.511  24.874  23.421  1.00  0.00     0.121 C 
BRANCH  14  15
ATOM     15  C   UNL A   1      33.600  23.430  22.951  1.00  0.00     0.125 C 
BRANCH  15  16
ATOM     16  N   UNL A   1      33.728  22.493  24.051  1.00  0.00    -0.355 N 
ATOM     17  C   UNL A   1      34.805  21.896  24.628  1.00  0.00     0.225 C 
ATOM     18  O   UNL A   1      34.545  20.898  25.310  1.00  0.00    -0.275 OA
ATOM     19  H   UNL A   1      32.868  22.239  24.457  1.00  0.00     0.163 HD
BRANCH  17  20
ATOM     20  C   UNL A   1      36.239  22.458  24.533  1.00  0.00     0.041 C 
ATOM     21  C   UNL A   1      37.223  21.330  24.924  1.00  0.00     0.021 C 
ATOM     22  C   UNL A   1      36.382  23.591  25.558  1.00  0.00     0.021 C 
ATOM     23  C   UNL A   1      36.654  22.936  23.139  1.00  0.00     0.021 C 
ENDBRANCH  17  20
ENDBRANCH  15  16
ENDBRANCH  14  15
ENDBRANCH  12  14
ENDBRANCH   8  12
BRANCH  10  24
ATOM     24  O   UNL A   1      28.961  28.564  22.822  1.00  0.00    -0.391 OA
ATOM     25  H   UNL A   1      28.637  28.253  21.963  1.00  0.00     0.211 HD
ENDBRANCH  10  24
ENDBRANCH   4   7
ENDBRANCH   2   3
ENDBRANCH   1   2
BRANCH   1  26
ATOM     26  C   UNL A   1      33.055  30.283  27.199  1.00  0.00     0.002 C 
BRANCH  26  27
ATOM     27  C   UNL A   1      31.649  30.760  26.819  1.00  0.00     0.002 C 
BRANCH  27  28
ATOM     28  C   UNL A   1      31.440  32.275  26.872  1.00  0.00     0.021 C 
BRANCH  28  29
ATOM     29  C   UNL A   1      32.716  33.093  27.042  1.00  0.00     0.116 C 
BRANCH  29  30
ATOM     30  N   UNL A   1      32.456  34.400  27.623  1.00  0.00    -0.352 N 
ATOM     31  C   UNL A   1      33.008  34.993  28.726  1.00  0.00     0.251 C 
ATOM     32  H   UNL A   1      31.780  34.940  27.152  1.00  0.00     0.163 HD
ATOM     33  O   UNL A   1      32.523  36.034  29.170  1.00  0.00    -0.269 OA
BRANCH  31  34
ATOM     34  C   UNL A   1      34.173  34.386  29.405  1.00  0.00     0.039 A 
ATOM     35  C   UNL A   1      33.954  33.621  30.555  1.00  0.00     0.014 A 
ATOM     36  C   UNL A   1      35.477  34.588  28.940  1.00  0.00     0.014 A 
ATOM     37  C   UNL A   1      35.032  33.020  31.206  1.00  0.00     0.010 A 
ATOM     38  C   UNL A   1      36.544  33.935  29.552  1.00  0.00     0.010 A 
ATOM     39  C   UNL A   1      36.334  33.147  30.694  1.00  0.00    -0.014 A 
BRANCH  39  40
ATOM     40  C   UNL A   1      37.474  32.444  31.339  1.00  0.00     0.031 A 
ATOM     41  C   UNL A   1      38.163  31.304  30.642  1.00  0.00     0.074 A 
ATOM     42  C   UNL A   1      37.856  32.808  32.578  1.00  0.00     0.049 A 
ATOM     43  N   UNL A   1      39.162  30.566  31.057  1.00  0.00    -0.248 NA
ATOM     44  C   UNL A   1      37.650  30.925  29.316  1.00  0.00     0.031 C 
ATOM     45  C   UNL A   1      37.227  33.858  33.384  1.00  0.00     0.029 A 
ATOM     46  N   UNL A   1      38.860  32.330  33.384  1.00  0.00    -0.354 N 
ATOM     47  C   UNL A   1      39.383  29.628  30.056  1.00  0.00     0.074 A 
ATOM     48  C   UNL A   1      38.391  29.863  29.030  1.00  0.00     0.031 C 
ATOM     49  C   UNL A   1      37.870  33.958  34.556  1.00  0.00     0.029 A 
ATOM     50  C   UNL A   1      38.937  32.962  34.602  1.00  0.00     0.049 A 
ATOM     51  H   UNL A   1      39.467  31.603  33.116  1.00  0.00     0.167 HD
ATOM     52  C   UNL A   1      40.339  28.671  29.993  1.00  0.00     0.037 A 
ATOM     53  C   UNL A   1      39.772  32.760  35.638  1.00  0.00     0.037 A 
ATOM     54  C   UNL A   1      41.353  28.469  30.995  1.00  0.00     0.049 A 
ATOM     55  C   UNL A   1      40.842  31.707  35.523  1.00  0.00     0.074 A 
ATOM     56  C   UNL A   1      42.426  27.594  30.971  1.00  0.00     0.029 A 
ATOM     57  N   UNL A   1      41.417  29.147  32.202  1.00  0.00    -0.354 N 
ATOM     58  N   UNL A   1      41.105  30.898  34.527  1.00  0.00    -0.248 NA
ATOM     59  C   UNL A   1      41.738  31.547  36.677  1.00  0.00     0.031 C 
ATOM     60  C   UNL A   1      43.110  27.706  32.185  1.00  0.00     0.029 A 
ATOM     61  C   UNL A   1      42.494  28.687  32.944  1.00  0.00     0.049 A 
ATOM     62  H   UNL A   1      40.792  29.851  32.489  1.00  0.00     0.167 HD
ATOM     63  C   UNL A   1      42.209  30.155  34.920  1.00  0.00     0.074 A 
ATOM     64  C   UNL A   1      42.581  30.623  36.239  1.00  0.00     0.031 C 
ATOM     65  C   UNL A   1      42.856  29.169  34.252  1.00  0.00     0.037 A 
BRANCH  52  66
ATOM     66  C   UNL A   1      40.351  27.765  28.797  1.00  0.00     0.064 A 
ATOM     67  C   UNL A   1      41.119  28.054  27.660  1.00  0.00     0.173 A 
ATOM     68  C   UNL A   1      39.649  26.550  28.824  1.00  0.00     0.173 A 
ATOM     69  F   UNL A   1      41.803  29.206  27.583  1.00  0.00    -0.203 F 
ATOM     70  C   UNL A   1      41.173  27.169  26.588  1.00  0.00     0.198 A 
ATOM     71  C   UNL A   1      39.725  25.655  27.761  1.00  0.00     0.198 A 
ATOM     72  F   UNL A   1      38.905  26.222  29.891  1.00  0.00    -0.203 F 
ATOM     73  F   UNL A   1      41.889  27.480  25.499  1.00  0.00    -0.200 F 
ATOM     74  C   UNL A   1      40.485  25.965  26.642  1.00  0.00     0.200 A 
ATOM     75  F   UNL A   1      39.071  24.487  27.821  1.00  0.00    -0.200 F 
ATOM     76  F   UNL A   1      40.552  25.105  25.616  1.00  0.00    -0.200 F 
ENDBRANCH  52  66
BRANCH  53  77
ATOM     77  C   UNL A   1      39.649  33.579  36.872  1.00  0.00     0.064 A 
ATOM     78  C   UNL A   1      38.798  33.189  37.916  1.00  0.00     0.173 A 
ATOM     79  C   UNL A   1      40.352  34.783  37.019  1.00  0.00     0.173 A 
ATOM     80  F   UNL A   1      38.088  32.056  37.813  1.00  0.00    -0.203 F 
ATOM     81  C   UNL A   1      38.628  33.988  39.044  1.00  0.00     0.198 A 
ATOM     82  C   UNL A   1      40.205  35.568  38.162  1.00  0.00     0.198 A 
ATOM     83  F   UNL A   1      41.183  35.200  36.053  1.00  0.00    -0.203 F 
ATOM     84  F   UNL A   1      37.762  33.621  39.998  1.00  0.00    -0.200 F 
ATOM     85  C   UNL A   1      39.334  35.175  39.167  1.00  0.00     0.200 A 
ATOM     86  F   UNL A   1      40.900  36.707  38.284  1.00  0.00    -0.200 F 
ATOM     87  F   UNL A   1      39.167  35.947  40.251  1.00  0.00    -0.200 F 
ENDBRANCH  53  77
BRANCH  65  88
ATOM     88  C   UNL A   1      44.048  28.553  34.924  1.00  0.00     0.064 A 
ATOM     89  C   UNL A   1      43.926  27.417  35.740  1.00  0.00     0.173 A 
ATOM     90  C   UNL A   1      45.330  29.090  34.732  1.00  0.00     0.173 A 
ATOM     91  F   UNL A   1      42.720  26.876  35.968  1.00  0.00    -0.203 F 
ATOM     92  C   UNL A   1      45.040  26.863  36.364  1.00  0.00     0.198 A 
ATOM     93  C   UNL A   1      46.445  28.514  35.332  1.00  0.00     0.198 A 
ATOM     94  F   UNL A   1      45.501  30.170  33.955  1.00  0.00    -0.203 F 
ATOM     95  F   UNL A   1      44.893  25.813  37.183  1.00  0.00    -0.200 F 
ATOM     96  C   UNL A   1      46.298  27.407  36.155  1.00  0.00     0.200 A 
ATOM     97  F   UNL A   1      47.662  29.033  35.119  1.00  0.00    -0.200 F 
ATOM     98  F   UNL A   1      47.370  26.870  36.755  1.00  0.00    -0.200 F 
ENDBRANCH  65  88
ENDBRANCH  39  40
ENDBRANCH  31  34
ENDBRANCH  29  30
ENDBRANCH  28  29
ENDBRANCH  27  28
ENDBRANCH  26  27
ENDBRANCH   1  26
TORSDOF 19
ENDMDL
MODEL 2
REMARK VINA RESULT:     -11.2      1.099      7.302
REMARK SMILES CC(C)(C)C(=O)NCCC(=O)N1C[C@@H](O)C[C@@H]1C(=O)NCCCCCCNC(=O)c1ccc(-c2c3nc(c(-c4c(F)c(F)c(F)c(F)c4F)c4ccc([nH]4)c(-c4c(F)c(F)c(F)c(F)c4F)c4nc(c(-c5c(F)c(F)c(F)c(F)c5F)c5ccc2[nH]5)C=C4)C=C3)cc1
REMARK SMILES IDX 22 1 21 2 20 3 18 4 19 5 17 7 12 8 13 9 14 10 16 11 10 12
REMARK SMILES IDX 11 13 9 14 8 15 7 16 5 17 6 18 2 20 1 21 3 22 4 23 15 24
REMARK SMILES IDX 23 26 24 27 25 28 26 29 27 30 28 31 29 33 30 34 31 35 92 36
REMARK SMILES IDX 32 37 91 38 33 39 34 40 35 41 85 42 36 43 90 44 84 45 86 46
REMARK SMILES IDX 37 47 89 48 83 49 82 50 38 52 70 53 50 54 69 55 51 56 54 57
REMARK SMILES IDX 68 58 87 59 52 60 53 61 67 63 88 64 55 65 39 66 40 67 48 68
REMARK SMILES IDX 41 69 42 70 46 71 49 72 43 73 44 74 47 75 45 76 71 77 72 78
REMARK SMILES IDX 80 79 73 80 74 81 78 82 81 83 75 84 76 85 79 86 77 87 56 88
REMARK SMILES IDX 57 89 65 90 58 91 59 92 63 93 66 94 60 95 61 96 64 97 62 98
REMARK H PARENT 20 6 7 19 15 25 27 32 86 51 54 62
REMARK Flexibility Score: inf
ROOT
ATOM      1  C   UNL A   1      33.652  29.673  26.645  1.00  0.00     0.021 C 
ENDROOT
BRANCH   1   2
ATOM      2  C   UNL A   1      33.788  28.165  26.852  1.00  0.00     0.116 C 
BRANCH   2   3
ATOM      3  N   UNL A   1      34.040  27.491  25.597  1.00  0.00    -0.354 N 
ATOM      4  C   UNL A   1      33.136  27.050  24.678  1.00  0.00     0.242 C 
ATOM      5  O   UNL A   1      33.553  26.394  23.720  1.00  0.00    -0.273 OA
ATOM      6  H   UNL A   1      34.987  27.332  25.378  1.00  0.00     0.163 HD
BRANCH   4   7
ATOM      7  C   UNL A   1      31.659  27.488  24.807  1.00  0.00     0.177 C 
ATOM      8  N   UNL A   1      30.797  26.382  24.413  1.00  0.00    -0.328 N 
ATOM      9  C   UNL A   1      30.362  26.534  23.029  1.00  0.00     0.152 C 
ATOM     10  C   UNL A   1      31.070  27.791  22.511  1.00  0.00     0.136 C 
ATOM     11  C   UNL A   1      31.372  28.581  23.785  1.00  0.00     0.069 C 
BRANCH   8  12
ATOM     12  C   UNL A   1      30.579  25.345  25.287  1.00  0.00     0.225 C 
ATOM     13  O   UNL A   1      30.278  25.552  26.464  1.00  0.00    -0.275 OA
BRANCH  12  14
ATOM     14  C   UNL A   1      30.808  23.930  24.801  1.00  0.00     0.121 C 
BRANCH  14  15
ATOM     15  C   UNL A   1      32.247  23.450  24.915  1.00  0.00     0.125 C 
BRANCH  15  16
ATOM     16  N   UNL A   1      32.867  23.235  23.621  1.00  0.00    -0.355 N 
ATOM     17  C   UNL A   1      34.165  23.187  23.221  1.00  0.00     0.225 C 
ATOM     18  O   UNL A   1      34.343  23.329  22.006  1.00  0.00    -0.275 OA
ATOM     19  H   UNL A   1      32.221  23.099  22.890  1.00  0.00     0.163 HD
BRANCH  17  20
ATOM     20  C   UNL A   1      35.337  22.884  24.178  1.00  0.00     0.041 C 
ATOM     21  C   UNL A   1      36.650  22.937  23.362  1.00  0.00     0.021 C 
ATOM     22  C   UNL A   1      35.167  21.455  24.712  1.00  0.00     0.021 C 
ATOM     23  C   UNL A   1      35.500  23.875  25.334  1.00  0.00     0.021 C 
ENDBRANCH  17  20
ENDBRANCH  15  16
ENDBRANCH  14  15
ENDBRANCH  12  14
ENDBRANCH   8  12
BRANCH  10  24
ATOM     24  O   UNL A   1      30.275  28.570  21.631  1.00  0.00    -0.391 OA
ATOM     25  H   UNL A   1      29.519  28.937  22.116  1.00  0.00     0.211 HD
ENDBRANCH  10  24
ENDBRANCH   4   7
ENDBRANCH   2   3
ENDBRANCH   1   2
BRANCH   1  26
ATOM     26  C   UNL A   1      32.378  30.274  27.254  1.00  0.00     0.002 C 
BRANCH  26  27
ATOM     27  C   UNL A   1      31.567  31.173  26.315  1.00  0.00     0.002 C 
BRANCH  27  28
ATOM     28  C   UNL A   1      31.404  32.622  26.781  1.00  0.00     0.021 C 
BRANCH  28  29
ATOM     29  C   UNL A   1      32.700  33.314  27.189  1.00  0.00     0.116 C 
BRANCH  29  30
ATOM     30  N   UNL A   1      32.458  34.564  27.889  1.00  0.00    -0.352 N 
ATOM     31  C   UNL A   1      33.037  35.057  29.027  1.00  0.00     0.251 C 
ATOM     32  H   UNL A   1      31.772  35.145  27.483  1.00  0.00     0.163 HD
ATOM     33  O   UNL A   1      32.565  36.055  29.573  1.00  0.00    -0.269 OA
BRANCH  31  34
ATOM     34  C   UNL A   1      34.215  34.391  29.623  1.00  0.00     0.039 A 
ATOM     35  C   UNL A   1      34.030  33.582  30.747  1.00  0.00     0.014 A 
ATOM     36  C   UNL A   1      35.501  34.581  29.104  1.00  0.00     0.014 A 
ATOM     37  C   UNL A   1      35.120  32.926  31.319  1.00  0.00     0.010 A 
ATOM     38  C   UNL A   1      36.578  33.874  29.636  1.00  0.00     0.010 A 
ATOM     39  C   UNL A   1      36.400  33.042  30.751  1.00  0.00    -0.014 A 
BRANCH  39  40
ATOM     40  C   UNL A   1      37.549  32.283  31.310  1.00  0.00     0.031 A 
ATOM     41  C   UNL A   1      38.079  32.597  32.681  1.00  0.00     0.074 A 
ATOM     42  C   UNL A   1      38.144  31.339  30.555  1.00  0.00     0.049 A 
ATOM     43  N   UNL A   1      39.082  32.051  33.323  1.00  0.00    -0.248 NA
ATOM     44  C   UNL A   1      37.416  33.682  33.420  1.00  0.00     0.031 C 
ATOM     45  C   UNL A   1      37.762  30.985  29.186  1.00  0.00     0.029 A 
ATOM     46  N   UNL A   1      39.204  30.510  30.828  1.00  0.00    -0.354 N 
ATOM     47  C   UNL A   1      39.179  32.736  34.528  1.00  0.00     0.074 A 
ATOM     48  C   UNL A   1      38.161  33.764  34.514  1.00  0.00     0.031 C 
ATOM     49  C   UNL A   1      38.559  29.999  28.748  1.00  0.00     0.029 A 
ATOM     50  C   UNL A   1      39.529  29.671  29.789  1.00  0.00     0.049 A 
ATOM     51  H   UNL A   1      39.687  30.515  31.686  1.00  0.00     0.167 HD
ATOM     52  C   UNL A   1      40.030  32.513  35.558  1.00  0.00     0.037 A 
ATOM     53  C   UNL A   1      40.500  28.744  29.687  1.00  0.00     0.037 A 
ATOM     54  C   UNL A   1      41.013  31.461  35.588  1.00  0.00     0.049 A 
ATOM     55  C   UNL A   1      41.410  28.503  30.861  1.00  0.00     0.074 A 
ATOM     56  C   UNL A   1      41.849  31.093  36.628  1.00  0.00     0.029 A 
ATOM     57  N   UNL A   1      41.293  30.613  34.528  1.00  0.00    -0.354 N 
ATOM     58  N   UNL A   1      41.422  29.087  32.034  1.00  0.00    -0.248 NA
ATOM     59  C   UNL A   1      42.436  27.463  30.699  1.00  0.00     0.031 C 
ATOM     60  C   UNL A   1      42.671  30.054  36.181  1.00  0.00     0.029 A 
ATOM     61  C   UNL A   1      42.313  29.742  34.880  1.00  0.00     0.049 A 
ATOM     62  H   UNL A   1      40.837  30.627  33.656  1.00  0.00     0.167 HD
ATOM     63  C   UNL A   1      42.434  28.471  32.756  1.00  0.00     0.074 A 
ATOM     64  C   UNL A   1      43.000  27.450  31.898  1.00  0.00     0.031 C 
ATOM     65  C   UNL A   1      42.860  28.727  34.017  1.00  0.00     0.037 A 
BRANCH  52  66
ATOM     66  C   UNL A   1      39.940  33.416  36.753  1.00  0.00     0.064 A 
ATOM     67  C   UNL A   1      40.712  34.582  36.857  1.00  0.00     0.173 A 
ATOM     68  C   UNL A   1      39.008  33.152  37.770  1.00  0.00     0.173 A 
ATOM     69  F   UNL A   1      41.622  34.875  35.916  1.00  0.00    -0.203 F 
ATOM     70  C   UNL A   1      40.565  35.444  37.940  1.00  0.00     0.198 A 
ATOM     71  C   UNL A   1      38.846  34.029  38.838  1.00  0.00     0.198 A 
ATOM     72  F   UNL A   1      38.240  32.054  37.715  1.00  0.00    -0.203 F 
ATOM     73  F   UNL A   1      41.335  36.537  38.033  1.00  0.00    -0.200 F 
ATOM     74  C   UNL A   1      39.626  35.173  38.924  1.00  0.00     0.200 A 
ATOM     75  F   UNL A   1      37.929  33.774  39.781  1.00  0.00    -0.200 F 
ATOM     76  F   UNL A   1      39.474  36.014  39.958  1.00  0.00    -0.200 F 
ENDBRANCH  52  66
BRANCH  53  77
ATOM     77  C   UNL A   1      40.658  27.958  28.435  1.00  0.00     0.064 A 
ATOM     78  C   UNL A   1      40.037  26.709  28.283  1.00  0.00     0.173 A 
ATOM     79  C   UNL A   1      41.457  28.421  27.381  1.00  0.00     0.173 A 
ATOM     80  F   UNL A   1      39.279  26.214  29.272  1.00  0.00    -0.203 F 
ATOM     81  C   UNL A   1      40.238  25.940  27.139  1.00  0.00     0.198 A 
ATOM     82  C   UNL A   1      41.633  27.664  26.224  1.00  0.00     0.198 A 
ATOM     83  F   UNL A   1      42.069  29.611  27.473  1.00  0.00    -0.203 F 
ATOM     84  F   UNL A   1      39.682  24.724  27.047  1.00  0.00    -0.200 F 
ATOM     85  C   UNL A   1      41.033  26.420  26.110  1.00  0.00     0.200 A 
ATOM     86  F   UNL A   1      42.391  28.137  25.225  1.00  0.00    -0.200 F 
ATOM     87  F   UNL A   1      41.230  25.677  25.011  1.00  0.00    -0.200 F 
ENDBRANCH  53  77
BRANCH  65  88
ATOM     88  C   UNL A   1      43.972  27.873  34.552  1.00  0.00     0.064 A 
ATOM     89  C   UNL A   1      45.315  28.273  34.461  1.00  0.00     0.173 A 
ATOM     90  C   UNL A   1      43.691  26.653  35.184  1.00  0.00     0.173 A 
ATOM     91  F   UNL A   1      45.636  29.424  33.852  1.00  0.00    -0.203 F 
ATOM     92  C   UNL A   1      46.336  27.465  34.953  1.00  0.00     0.198 A 
ATOM     93  C   UNL A   1      44.712  25.863  35.704  1.00  0.00     0.198 A 
ATOM     94  F   UNL A   1      42.424  26.229  35.304  1.00  0.00    -0.203 F 
ATOM     95  F   UNL A   1      47.613  27.841  34.806  1.00  0.00    -0.200 F 
ATOM     96  C   UNL A   1      46.034  26.265  35.580  1.00  0.00     0.200 A 
ATOM     97  F   UNL A   1      44.418  24.710  36.320  1.00  0.00    -0.200 F 
ATOM     98  F   UNL A   1      47.019  25.491  36.056  1.00  0.00    -0.200 F 
ENDBRANCH  65  88
ENDBRANCH  39  40
ENDBRANCH  31  34
ENDBRANCH  29  30
ENDBRANCH  28  29
ENDBRANCH  27  28
ENDBRANCH  26  27
ENDBRANCH   1  26
TORSDOF 19
ENDMDL
MODEL 3
REMARK VINA RESULT:     -11.2      1.232      2.200
REMARK SMILES CC(C)(C)C(=O)NCCC(=O)N1C[C@@H](O)C[C@@H]1C(=O)NCCCCCCNC(=O)c1ccc(-c2c3nc(c(-c4c(F)c(F)c(F)c(F)c4F)c4ccc([nH]4)c(-c4c(F)c(F)c(F)c(F)c4F)c4nc(c(-c5c(F)c(F)c(F)c(F)c5F)c5ccc2[nH]5)C=C4)C=C3)cc1
REMARK SMILES IDX 22 1 21 2 20 3 18 4 19 5 17 7 12 8 13 9 14 10 16 11 10 12
REMARK SMILES IDX 11 13 9 14 8 15 7 16 5 17 6 18 2 20 1 21 3 22 4 23 15 24
REMARK SMILES IDX 23 26 24 27 25 28 26 29 27 30 28 31 29 33 30 34 31 35 92 36
REMARK SMILES IDX 32 37 91 38 33 39 34 40 35 41 85 42 36 43 90 44 84 45 86 46
REMARK SMILES IDX 37 47 89 48 83 49 82 50 38 52 70 53 50 54 69 55 51 56 54 57
REMARK SMILES IDX 68 58 87 59 52 60 53 61 67 63 88 64 55 65 39 66 40 67 48 68
REMARK SMILES IDX 41 69 42 70 46 71 49 72 43 73 44 74 47 75 45 76 71 77 72 78
REMARK SMILES IDX 80 79 73 80 74 81 78 82 81 83 75 84 76 85 79 86 77 87 56 88
REMARK SMILES IDX 57 89 65 90 58 91 59 92 63 93 66 94 60 95 61 96 64 97 62 98
REMARK H PARENT 20 6 7 19 15 25 27 32 86 51 54 62
REMARK Flexibility Score: inf
ROOT
ATOM      1  C   UNL A   1      34.440  29.239  27.280  1.00  0.00     0.021 C 
ENDROOT
BRANCH   1   2
ATOM      2  C   UNL A   1      33.404  28.164  26.960  1.00  0.00     0.116 C 
BRANCH   2   3
ATOM      3  N   UNL A   1      33.723  27.491  25.719  1.00  0.00    -0.354 N 
ATOM      4  C   UNL A   1      32.898  27.218  24.669  1.00  0.00     0.242 C 
ATOM      5  O   UNL A   1      33.341  26.531  23.745  1.00  0.00    -0.273 OA
ATOM      6  H   UNL A   1      34.656  27.194  25.620  1.00  0.00     0.163 HD
BRANCH   4   7
ATOM      7  C   UNL A   1      31.499  27.875  24.623  1.00  0.00     0.177 C 
ATOM      8  N   UNL A   1      30.633  27.092  23.751  1.00  0.00    -0.328 N 
ATOM      9  C   UNL A   1      30.575  27.680  22.418  1.00  0.00     0.152 C 
ATOM     10  C   UNL A   1      31.536  28.874  22.452  1.00  0.00     0.136 C 
ATOM     11  C   UNL A   1      31.608  29.231  23.937  1.00  0.00     0.069 C 
BRANCH   8  12
ATOM     12  C   UNL A   1      30.083  25.922  24.214  1.00  0.00     0.225 C 
ATOM     13  O   UNL A   1      29.436  25.889  25.263  1.00  0.00    -0.275 OA
BRANCH  12  14
ATOM     14  C   UNL A   1      30.363  24.642  23.457  1.00  0.00     0.121 C 
BRANCH  14  15
ATOM     15  C   UNL A   1      31.343  23.705  24.145  1.00  0.00     0.125 C 
BRANCH  15  16
ATOM     16  N   UNL A   1      31.310  23.826  25.590  1.00  0.00    -0.355 N 
ATOM     17  C   UNL A   1      32.100  23.319  26.573  1.00  0.00     0.225 C 
ATOM     18  O   UNL A   1      31.600  23.331  27.704  1.00  0.00    -0.275 OA
ATOM     19  H   UNL A   1      30.570  24.382  25.924  1.00  0.00     0.163 HD
BRANCH  17  20
ATOM     20  C   UNL A   1      33.551  22.848  26.337  1.00  0.00     0.041 C 
ATOM     21  C   UNL A   1      33.533  21.786  25.212  1.00  0.00     0.021 C 
ATOM     22  C   UNL A   1      34.054  22.172  27.620  1.00  0.00     0.021 C 
ATOM     23  C   UNL A   1      34.521  23.944  25.889  1.00  0.00     0.021 C 
ENDBRANCH  17  20
ENDBRANCH  15  16
ENDBRANCH  14  15
ENDBRANCH  12  14
ENDBRANCH   8  12
BRANCH  10  24
ATOM     24  O   UNL A   1      31.083  29.991  21.702  1.00  0.00    -0.391 OA
ATOM     25  H   UNL A   1      30.139  30.134  21.873  1.00  0.00     0.211 HD
ENDBRANCH  10  24
ENDBRANCH   4   7
ENDBRANCH   2   3
ENDBRANCH   1   2
BRANCH   1  26
ATOM     26  C   UNL A   1      33.868  30.664  27.323  1.00  0.00     0.002 C 
BRANCH  26  27
ATOM     27  C   UNL A   1      32.351  30.765  27.131  1.00  0.00     0.002 C 
BRANCH  27  28
ATOM     28  C   UNL A   1      31.787  32.188  27.143  1.00  0.00     0.021 C 
BRANCH  28  29
ATOM     29  C   UNL A   1      32.817  33.288  26.909  1.00  0.00     0.116 C 
BRANCH  29  30
ATOM     30  N   UNL A   1      32.560  34.462  27.724  1.00  0.00    -0.352 N 
ATOM     31  C   UNL A   1      33.096  34.826  28.930  1.00  0.00     0.251 C 
ATOM     32  H   UNL A   1      31.898  35.092  27.355  1.00  0.00     0.163 HD
ATOM     33  O   UNL A   1      32.613  35.769  29.557  1.00  0.00    -0.269 OA
BRANCH  31  34
ATOM     34  C   UNL A   1      34.242  34.085  29.500  1.00  0.00     0.039 A 
ATOM     35  C   UNL A   1      35.536  34.469  29.136  1.00  0.00     0.014 A 
ATOM     36  C   UNL A   1      34.053  32.999  30.362  1.00  0.00     0.014 A 
ATOM     37  C   UNL A   1      36.636  33.800  29.673  1.00  0.00     0.010 A 
ATOM     38  C   UNL A   1      35.152  32.375  30.948  1.00  0.00     0.010 A 
ATOM     39  C   UNL A   1      36.456  32.766  30.607  1.00  0.00    -0.014 A 
BRANCH  39  40
ATOM     40  C   UNL A   1      37.626  32.104  31.240  1.00  0.00     0.031 A 
ATOM     41  C   UNL A   1      38.370  31.013  30.521  1.00  0.00     0.074 A 
ATOM     42  C   UNL A   1      37.987  32.458  32.489  1.00  0.00     0.049 A 
ATOM     43  N   UNL A   1      39.401  30.313  30.924  1.00  0.00    -0.248 NA
ATOM     44  C   UNL A   1      37.878  30.640  29.186  1.00  0.00     0.031 C 
ATOM     45  C   UNL A   1      37.307  33.459  33.315  1.00  0.00     0.029 A 
ATOM     46  N   UNL A   1      39.010  32.010  33.288  1.00  0.00    -0.354 N 
ATOM     47  C   UNL A   1      39.669  29.410  29.903  1.00  0.00     0.074 A 
ATOM     48  C   UNL A   1      38.669  29.620  28.879  1.00  0.00     0.031 C 
ATOM     49  C   UNL A   1      37.942  33.563  34.492  1.00  0.00     0.029 A 
ATOM     50  C   UNL A   1      39.054  32.618  34.519  1.00  0.00     0.049 A 
ATOM     51  H   UNL A   1      39.651  31.318  33.006  1.00  0.00     0.167 HD
ATOM     52  C   UNL A   1      40.670  28.500  29.823  1.00  0.00     0.037 A 
ATOM     53  C   UNL A   1      39.896  32.432  35.554  1.00  0.00     0.037 A 
ATOM     54  C   UNL A   1      41.689  28.324  30.824  1.00  0.00     0.049 A 
ATOM     55  C   UNL A   1      41.014  31.434  35.420  1.00  0.00     0.074 A 
ATOM     56  C   UNL A   1      42.802  27.501  30.785  1.00  0.00     0.029 A 
ATOM     57  N   UNL A   1      41.718  28.977  32.046  1.00  0.00    -0.354 N 
ATOM     58  N   UNL A   1      41.317  30.660  34.407  1.00  0.00    -0.248 NA
ATOM     59  C   UNL A   1      41.914  31.291  36.573  1.00  0.00     0.031 C 
ATOM     60  C   UNL A   1      43.477  27.619  32.003  1.00  0.00     0.029 A 
ATOM     61  C   UNL A   1      42.813  28.553  32.782  1.00  0.00     0.049 A 
ATOM     62  H   UNL A   1      41.060  29.645  32.346  1.00  0.00     0.167 HD
ATOM     63  C   UNL A   1      42.454  29.961  34.788  1.00  0.00     0.074 A 
ATOM     64  C   UNL A   1      42.800  30.418  36.118  1.00  0.00     0.031 C 
ATOM     65  C   UNL A   1      43.148  29.022  34.101  1.00  0.00     0.037 A 
BRANCH  52  66
ATOM     66  C   UNL A   1      40.727  27.622  28.608  1.00  0.00     0.064 A 
ATOM     67  C   UNL A   1      39.980  26.439  28.516  1.00  0.00     0.173 A 
ATOM     68  C   UNL A   1      41.478  28.014  27.488  1.00  0.00     0.173 A 
ATOM     69  F   UNL A   1      39.253  26.018  29.562  1.00  0.00    -0.203 F 
ATOM     70  C   UNL A   1      39.992  25.673  27.354  1.00  0.00     0.198 A 
ATOM     71  C   UNL A   1      41.467  27.259  26.318  1.00  0.00     0.198 A 
ATOM     72  F   UNL A   1      42.205  29.141  27.521  1.00  0.00    -0.203 F 
ATOM     73  F   UNL A   1      39.294  24.530  27.300  1.00  0.00    -0.200 F 
ATOM     74  C   UNL A   1      40.726  26.088  26.253  1.00  0.00     0.200 A 
ATOM     75  F   UNL A   1      42.166  27.668  25.251  1.00  0.00    -0.200 F 
ATOM     76  F   UNL A   1      40.723  25.357  25.128  1.00  0.00    -0.200 F 
ENDBRANCH  52  66
BRANCH  53  77
ATOM     77  C   UNL A   1      39.730  33.218  36.805  1.00  0.00     0.064 A 
ATOM     78  C   UNL A   1      38.859  32.789  37.817  1.00  0.00     0.173 A 
ATOM     79  C   UNL A   1      40.413  34.427  37.001  1.00  0.00     0.173 A 
ATOM     80  F   UNL A   1      38.169  31.650  37.667  1.00  0.00    -0.203 F 
ATOM     81  C   UNL A   1      38.651  33.557  38.961  1.00  0.00     0.198 A 
ATOM     82  C   UNL A   1      40.227  35.179  38.159  1.00  0.00     0.198 A 
ATOM     83  F   UNL A   1      41.262  34.879  36.067  1.00  0.00    -0.203 F 
ATOM     84  F   UNL A   1      37.767  33.154  39.883  1.00  0.00    -0.200 F 
ATOM     85  C   UNL A   1      39.337  34.749  39.132  1.00  0.00     0.200 A 
ATOM     86  F   UNL A   1      40.903  36.324  38.328  1.00  0.00    -0.200 F 
ATOM     87  F   UNL A   1      39.133  35.491  40.230  1.00  0.00    -0.200 F 
ENDBRANCH  53  77
BRANCH  65  88
ATOM     88  C   UNL A   1      44.367  28.448  34.764  1.00  0.00     0.064 A 
ATOM     89  C   UNL A   1      45.623  29.063  34.649  1.00  0.00     0.173 A 
ATOM     90  C   UNL A   1      44.274  27.284  35.541  1.00  0.00     0.173 A 
ATOM     91  F   UNL A   1      45.767  30.169  33.904  1.00  0.00    -0.203 F 
ATOM     92  C   UNL A   1      46.746  28.514  35.261  1.00  0.00     0.198 A 
ATOM     93  C   UNL A   1      45.392  26.756  36.177  1.00  0.00     0.198 A 
ATOM     94  F   UNL A   1      43.094  26.663  35.689  1.00  0.00    -0.203 F 
ATOM     95  F   UNL A   1      47.945  29.087  35.093  1.00  0.00    -0.200 F 
ATOM     96  C   UNL A   1      46.629  27.366  36.030  1.00  0.00     0.200 A 
ATOM     97  F   UNL A   1      45.275  25.654  36.931  1.00  0.00    -0.200 F 
ATOM     98  F   UNL A   1      47.711  26.841  36.621  1.00  0.00    -0.200 F 
ENDBRANCH  65  88
ENDBRANCH  39  40
ENDBRANCH  31  34
ENDBRANCH  29  30
ENDBRANCH  28  29
ENDBRANCH  27  28
ENDBRANCH  26  27
ENDBRANCH   1  26
TORSDOF 19
ENDMDL
