MODEL 1
REMARK VINA RESULT:     -12.4      0.000      0.000
REMARK SMILES N#Cc1cc(F)ccc1N1[C@@H]2CC[C@H]1C[C@H](CC(=O)NCCCCCCNC(=O)c1ccc(-c3c4nc(c(-c5c(F)c(F)c(F)c(F)c5F)c5ccc([nH]5)c(-c5c(F)c(F)c(F)c(F)c5F)c5nc(c(-c6c(F)c(F)c(F)c(F)c6F)c6ccc3[nH]6)C=C5)C=C4)cc1)C2
REMARK SMILES IDX 23 1 22 2 21 3 20 4 18 5 19 6 17 8 16 9 10 10 11 11 14 12
REMARK SMILES IDX 12 13 93 14 13 15 15 16 9 17 3 18 4 19 5 20 8 21 6 22 7 23
REMARK SMILES IDX 2 24 1 25 24 26 25 27 26 28 27 29 28 30 29 32 30 33 31 34
REMARK SMILES IDX 92 35 32 36 91 37 33 38 34 39 35 40 85 41 36 42 90 43 84 44
REMARK SMILES IDX 86 45 37 46 89 47 83 48 82 49 38 51 70 52 50 53 69 54 51 55
REMARK SMILES IDX 54 56 68 57 87 58 52 59 53 60 67 62 88 63 55 64 39 65 40 66
REMARK SMILES IDX 48 67 41 68 42 69 46 70 49 71 43 72 44 73 47 74 45 75 71 76
REMARK SMILES IDX 72 77 80 78 73 79 74 80 78 81 81 82 75 83 76 84 79 85 77 86
REMARK SMILES IDX 56 87 57 88 65 89 58 90 59 91 63 92 66 93 60 94 61 95 64 96
REMARK SMILES IDX 62 97
REMARK H PARENT 20 7 27 31 86 50 54 61
REMARK Flexibility Score: inf
ROOT
ATOM      1  C   UNL A   1      32.049  29.850  27.095  1.00  0.00     0.002 C 
ENDROOT
BRANCH   1   2
ATOM      2  C   UNL A   1      31.952  28.381  26.694  1.00  0.00     0.021 C 
BRANCH   2   3
ATOM      3  C   UNL A   1      33.254  27.772  26.155  1.00  0.00     0.116 C 
BRANCH   3   4
ATOM      4  N   UNL A   1      33.328  27.926  24.713  1.00  0.00    -0.356 N 
ATOM      5  C   UNL A   1      33.327  27.005  23.710  1.00  0.00     0.220 C 
ATOM      6  O   UNL A   1      33.490  27.414  22.557  1.00  0.00    -0.275 OA
ATOM      7  H   UNL A   1      33.391  28.860  24.406  1.00  0.00     0.163 HD
BRANCH   5   8
ATOM      8  C   UNL A   1      33.130  25.522  23.979  1.00  0.00     0.103 C 
BRANCH   8   9
ATOM      9  C   UNL A   1      34.423  24.775  24.368  1.00  0.00     0.002 C 
ATOM     10  N   UNL A   1      35.100  22.037  25.017  1.00  0.00    -0.364 N 
ATOM     11  C   UNL A   1      35.767  22.636  23.866  1.00  0.00     0.083 C 
ATOM     12  C   UNL A   1      35.210  22.989  26.104  1.00  0.00     0.083 C 
ATOM     13  C   UNL A   1      37.027  23.248  24.508  1.00  0.00     0.027 C 
ATOM     14  C   UNL A   1      34.791  23.696  23.317  1.00  0.00     0.029 C 
ATOM     15  C   UNL A   1      36.681  23.424  25.995  1.00  0.00     0.027 C 
ATOM     16  C   UNL A   1      34.325  24.192  25.793  1.00  0.00     0.029 C 
BRANCH  10  17
ATOM     17  C   UNL A   1      34.422  20.855  24.914  1.00  0.00     0.055 A 
ATOM     18  C   UNL A   1      33.027  20.710  24.759  1.00  0.00     0.078 A 
ATOM     19  C   UNL A   1      32.472  19.461  24.421  1.00  0.00     0.060 A 
ATOM     20  C   UNL A   1      33.286  18.348  24.292  1.00  0.00     0.124 A 
ATOM     21  C   UNL A   1      35.201  19.682  24.831  1.00  0.00     0.030 A 
ATOM     22  F   UNL A   1      32.748  17.176  23.931  1.00  0.00    -0.207 F 
ATOM     23  C   UNL A   1      34.644  18.439  24.525  1.00  0.00     0.041 A 
BRANCH  18  24
ATOM     24  C   UNL A   1      32.093  21.784  24.880  1.00  0.00     0.101 C 
ATOM     25  N   UNL A   1      31.288  22.611  25.060  1.00  0.00    -0.192 NA
ENDBRANCH  18  24
ENDBRANCH  10  17
ENDBRANCH   8   9
ENDBRANCH   5   8
ENDBRANCH   3   4
ENDBRANCH   2   3
ENDBRANCH   1   2
BRANCH   1  26
ATOM     26  C   UNL A   1      31.494  30.827  26.059  1.00  0.00     0.002 C 
BRANCH  26  27
ATOM     27  C   UNL A   1      31.379  32.280  26.528  1.00  0.00     0.021 C 
BRANCH  27  28
ATOM     28  C   UNL A   1      32.621  32.825  27.230  1.00  0.00     0.116 C 
BRANCH  28  29
ATOM     29  N   UNL A   1      32.463  34.226  27.593  1.00  0.00    -0.352 N 
ATOM     30  C   UNL A   1      33.027  34.930  28.625  1.00  0.00     0.251 C 
ATOM     31  H   UNL A   1      31.862  34.744  27.010  1.00  0.00     0.163 HD
ATOM     32  O   UNL A   1      32.578  36.026  28.947  1.00  0.00    -0.269 OA
BRANCH  30  33
ATOM     33  C   UNL A   1      34.182  34.365  29.351  1.00  0.00     0.039 A 
ATOM     34  C   UNL A   1      33.958  33.632  30.518  1.00  0.00     0.014 A 
ATOM     35  C   UNL A   1      35.484  34.583  28.893  1.00  0.00     0.014 A 
ATOM     36  C   UNL A   1      35.040  33.073  31.198  1.00  0.00     0.010 A 
ATOM     37  C   UNL A   1      36.553  33.957  29.526  1.00  0.00     0.010 A 
ATOM     38  C   UNL A   1      36.344  33.204  30.690  1.00  0.00    -0.014 A 
BRANCH  38  39
ATOM     39  C   UNL A   1      37.497  32.562  31.369  1.00  0.00     0.031 A 
ATOM     40  C   UNL A   1      38.217  31.415  30.717  1.00  0.00     0.074 A 
ATOM     41  C   UNL A   1      37.859  32.978  32.597  1.00  0.00     0.049 A 
ATOM     42  N   UNL A   1      39.213  30.696  31.171  1.00  0.00    -0.248 NA
ATOM     43  C   UNL A   1      37.735  31.000  29.390  1.00  0.00     0.031 C 
ATOM     44  C   UNL A   1      37.203  34.047  33.353  1.00  0.00     0.029 A 
ATOM     45  N   UNL A   1      38.861  32.548  33.431  1.00  0.00    -0.354 N 
ATOM     46  C   UNL A   1      39.470  29.746  30.192  1.00  0.00     0.074 A 
ATOM     47  C   UNL A   1      38.483  29.935  29.151  1.00  0.00     0.031 C 
ATOM     48  C   UNL A   1      37.833  34.203  34.528  1.00  0.00     0.029 A 
ATOM     49  C   UNL A   1      38.907  33.221  34.626  1.00  0.00     0.049 A 
ATOM     50  H   UNL A   1      39.486  31.826  33.193  1.00  0.00     0.167 HD
ATOM     51  C   UNL A   1      40.456  28.818  30.152  1.00  0.00     0.037 A 
ATOM     52  C   UNL A   1      39.720  33.057  35.688  1.00  0.00     0.037 A 
ATOM     53  C   UNL A   1      41.439  28.642  31.191  1.00  0.00     0.049 A 
ATOM     54  C   UNL A   1      40.795  32.006  35.629  1.00  0.00     0.074 A 
ATOM     55  C   UNL A   1      42.510  27.766  31.226  1.00  0.00     0.029 A 
ATOM     56  N   UNL A   1      41.463  29.350  32.384  1.00  0.00    -0.354 N 
ATOM     57  N   UNL A   1      41.078  31.163  34.666  1.00  0.00    -0.248 NA
ATOM     58  C   UNL A   1      41.671  31.890  36.803  1.00  0.00     0.031 C 
ATOM     59  C   UNL A   1      43.144  27.902  32.465  1.00  0.00     0.029 A 
ATOM     60  C   UNL A   1      42.513  28.910  33.176  1.00  0.00     0.049 A 
ATOM     61  H   UNL A   1      40.828  30.061  32.632  1.00  0.00     0.167 HD
ATOM     62  C   UNL A   1      42.179  30.439  35.102  1.00  0.00     0.074 A 
ATOM     63  C   UNL A   1      42.524  30.955  36.410  1.00  0.00     0.031 C 
ATOM     64  C   UNL A   1      42.844  29.435  34.477  1.00  0.00     0.037 A 
BRANCH  51  65
ATOM     65  C   UNL A   1      40.514  27.919  28.950  1.00  0.00     0.064 A 
ATOM     66  C   UNL A   1      39.782  26.722  28.884  1.00  0.00     0.173 A 
ATOM     67  C   UNL A   1      41.295  28.266  27.836  1.00  0.00     0.173 A 
ATOM     68  F   UNL A   1      39.026  26.336  29.923  1.00  0.00    -0.203 F 
ATOM     69  C   UNL A   1      39.860  25.891  27.770  1.00  0.00     0.198 A 
ATOM     70  C   UNL A   1      41.342  27.450  26.708  1.00  0.00     0.198 A 
ATOM     71  F   UNL A   1      42.011  29.400  27.839  1.00  0.00    -0.203 F 
ATOM     72  F   UNL A   1      39.200  24.724  27.759  1.00  0.00    -0.200 F 
ATOM     73  C   UNL A   1      40.634  26.258  26.680  1.00  0.00     0.200 A 
ATOM     74  F   UNL A   1      42.078  27.815  25.649  1.00  0.00    -0.200 F 
ATOM     75  F   UNL A   1      40.706  25.460  25.607  1.00  0.00    -0.200 F 
ENDBRANCH  51  65
BRANCH  52  76
ATOM     76  C   UNL A   1      39.551  33.917  36.890  1.00  0.00     0.064 A 
ATOM     77  C   UNL A   1      40.143  35.185  36.961  1.00  0.00     0.173 A 
ATOM     78  C   UNL A   1      38.794  33.488  37.991  1.00  0.00     0.173 A 
ATOM     79  F   UNL A   1      40.891  35.634  35.943  1.00  0.00    -0.203 F 
ATOM     80  C   UNL A   1      40.006  35.982  38.097  1.00  0.00     0.198 A 
ATOM     81  C   UNL A   1      38.629  34.298  39.111  1.00  0.00     0.198 A 
ATOM     82  F   UNL A   1      38.201  32.286  37.971  1.00  0.00    -0.203 F 
ATOM     83  F   UNL A   1      40.624  37.168  38.159  1.00  0.00    -0.200 F 
ATOM     84  C   UNL A   1      39.243  35.541  39.168  1.00  0.00     0.200 A 
ATOM     85  F   UNL A   1      37.876  33.875  40.136  1.00  0.00    -0.200 F 
ATOM     86  F   UNL A   1      39.105  36.309  40.257  1.00  0.00    -0.200 F 
ENDBRANCH  52  76
BRANCH  64  87
ATOM     87  C   UNL A   1      44.036  28.853  35.185  1.00  0.00     0.064 A 
ATOM     88  C   UNL A   1      45.329  29.365  35.001  1.00  0.00     0.173 A 
ATOM     89  C   UNL A   1      43.874  27.790  36.087  1.00  0.00     0.173 A 
ATOM     90  F   UNL A   1      45.541  30.373  34.141  1.00  0.00    -0.203 F 
ATOM     91  C   UNL A   1      46.419  28.812  35.667  1.00  0.00     0.198 A 
ATOM     92  C   UNL A   1      44.961  27.264  36.779  1.00  0.00     0.198 A 
ATOM     93  F   UNL A   1      42.658  27.268  36.306  1.00  0.00    -0.203 F 
ATOM     94  F   UNL A   1      47.653  29.278  35.432  1.00  0.00    -0.200 F 
ATOM     95  C   UNL A   1      46.233  27.768  36.561  1.00  0.00     0.200 A 
ATOM     96  F   UNL A   1      44.776  26.268  37.657  1.00  0.00    -0.200 F 
ATOM     97  F   UNL A   1      47.283  27.242  37.208  1.00  0.00    -0.200 F 
ENDBRANCH  64  87
ENDBRANCH  38  39
ENDBRANCH  30  33
ENDBRANCH  28  29
ENDBRANCH  27  28
ENDBRANCH  26  27
ENDBRANCH   1  26
TORSDOF 16
ENDMDL
MODEL 2
REMARK VINA RESULT:     -12.2      5.535     11.170
REMARK SMILES N#Cc1cc(F)ccc1N1[C@@H]2CC[C@H]1C[C@H](CC(=O)NCCCCCCNC(=O)c1ccc(-c3c4nc(c(-c5c(F)c(F)c(F)c(F)c5F)c5ccc([nH]5)c(-c5c(F)c(F)c(F)c(F)c5F)c5nc(c(-c6c(F)c(F)c(F)c(F)c6F)c6ccc3[nH]6)C=C5)C=C4)cc1)C2
REMARK SMILES IDX 23 1 22 2 21 3 20 4 18 5 19 6 17 8 16 9 10 10 11 11 14 12
REMARK SMILES IDX 12 13 93 14 13 15 15 16 9 17 3 18 4 19 5 20 8 21 6 22 7 23
REMARK SMILES IDX 2 24 1 25 24 26 25 27 26 28 27 29 28 30 29 32 30 33 31 34
REMARK SMILES IDX 92 35 32 36 91 37 33 38 34 39 35 40 85 41 36 42 90 43 84 44
REMARK SMILES IDX 86 45 37 46 89 47 83 48 82 49 38 51 70 52 50 53 69 54 51 55
REMARK SMILES IDX 54 56 68 57 87 58 52 59 53 60 67 62 88 63 55 64 39 65 40 66
REMARK SMILES IDX 48 67 41 68 42 69 46 70 49 71 43 72 44 73 47 74 45 75 71 76
REMARK SMILES IDX 72 77 80 78 73 79 74 80 78 81 81 82 75 83 76 84 79 85 77 86
REMARK SMILES IDX 56 87 57 88 65 89 58 90 59 91 63 92 66 93 60 94 61 95 64 96
REMARK SMILES IDX 62 97
REMARK H PARENT 20 7 27 31 86 50 54 61
REMARK Flexibility Score: inf
ROOT
ATOM      1  C   UNL A   1      36.106  21.459  24.624  1.00  0.00     0.002 C 
ENDROOT
BRANCH   1   2
ATOM      2  C   UNL A   1      34.736  21.855  25.164  1.00  0.00     0.021 C 
BRANCH   2   3
ATOM      3  C   UNL A   1      34.766  22.720  26.431  1.00  0.00     0.116 C 
BRANCH   3   4
ATOM      4  N   UNL A   1      33.466  22.717  27.079  1.00  0.00    -0.356 N 
ATOM      5  C   UNL A   1      32.353  23.472  26.864  1.00  0.00     0.220 C 
ATOM      6  O   UNL A   1      31.399  23.317  27.631  1.00  0.00    -0.275 OA
ATOM      7  H   UNL A   1      33.373  22.054  27.802  1.00  0.00     0.163 HD
BRANCH   5   8
ATOM      8  C   UNL A   1      32.267  24.473  25.723  1.00  0.00     0.103 C 
BRANCH   8   9
ATOM      9  C   UNL A   1      32.677  25.909  26.113  1.00  0.00     0.002 C 
ATOM     10  N   UNL A   1      32.005  28.564  25.179  1.00  0.00    -0.364 N 
ATOM     11  C   UNL A   1      31.704  28.250  26.571  1.00  0.00     0.083 C 
ATOM     12  C   UNL A   1      33.369  28.138  24.941  1.00  0.00     0.083 C 
ATOM     13  C   UNL A   1      33.002  28.676  27.283  1.00  0.00     0.027 C 
ATOM     14  C   UNL A   1      31.460  26.728  26.616  1.00  0.00     0.029 C 
ATOM     15  C   UNL A   1      34.087  28.661  26.196  1.00  0.00     0.027 C 
ATOM     16  C   UNL A   1      33.415  26.614  24.956  1.00  0.00     0.029 C 
BRANCH  10  17
ATOM     17  C   UNL A   1      31.046  29.044  24.331  1.00  0.00     0.055 A 
ATOM     18  C   UNL A   1      30.350  28.296  23.358  1.00  0.00     0.078 A 
ATOM     19  C   UNL A   1      29.219  28.837  22.716  1.00  0.00     0.060 A 
ATOM     20  C   UNL A   1      28.811  30.131  22.994  1.00  0.00     0.124 A 
ATOM     21  C   UNL A   1      30.628  30.375  24.536  1.00  0.00     0.030 A 
ATOM     22  F   UNL A   1      27.712  30.617  22.405  1.00  0.00    -0.207 F 
ATOM     23  C   UNL A   1      29.525  30.919  23.875  1.00  0.00     0.041 A 
BRANCH  18  24
ATOM     24  C   UNL A   1      30.687  26.960  22.984  1.00  0.00     0.101 C 
ATOM     25  N   UNL A   1      30.901  25.880  22.595  1.00  0.00    -0.192 NA
ENDBRANCH  18  24
ENDBRANCH  10  17
ENDBRANCH   8   9
ENDBRANCH   5   8
ENDBRANCH   3   4
ENDBRANCH   2   3
ENDBRANCH   1   2
BRANCH   1  26
ATOM     26  C   UNL A   1      36.553  20.048  25.002  1.00  0.00     0.002 C 
BRANCH  26  27
ATOM     27  C   UNL A   1      38.011  19.715  24.674  1.00  0.00     0.021 C 
BRANCH  27  28
ATOM     28  C   UNL A   1      39.025  20.198  25.708  1.00  0.00     0.116 C 
BRANCH  28  29
ATOM     29  N   UNL A   1      40.051  19.198  25.965  1.00  0.00    -0.352 N 
ATOM     30  C   UNL A   1      41.400  19.358  26.153  1.00  0.00     0.251 C 
ATOM     31  H   UNL A   1      39.728  18.270  26.011  1.00  0.00     0.163 HD
ATOM     32  O   UNL A   1      42.154  18.392  26.086  1.00  0.00    -0.269 OA
BRANCH  30  33
ATOM     33  C   UNL A   1      41.945  20.700  26.437  1.00  0.00     0.039 A 
ATOM     34  C   UNL A   1      42.169  21.581  25.376  1.00  0.00     0.014 A 
ATOM     35  C   UNL A   1      42.260  21.076  27.745  1.00  0.00     0.014 A 
ATOM     36  C   UNL A   1      42.660  22.860  25.636  1.00  0.00     0.010 A 
ATOM     37  C   UNL A   1      42.672  22.378  28.010  1.00  0.00     0.010 A 
ATOM     38  C   UNL A   1      42.886  23.280  26.958  1.00  0.00    -0.014 A 
BRANCH  38  39
ATOM     39  C   UNL A   1      43.350  24.659  27.253  1.00  0.00     0.031 A 
ATOM     40  C   UNL A   1      42.386  25.685  27.780  1.00  0.00     0.074 A 
ATOM     41  C   UNL A   1      44.626  24.999  26.994  1.00  0.00     0.049 A 
ATOM     42  N   UNL A   1      42.589  26.950  28.053  1.00  0.00    -0.248 NA
ATOM     43  C   UNL A   1      41.001  25.241  28.002  1.00  0.00     0.031 C 
ATOM     44  C   UNL A   1      45.640  24.104  26.433  1.00  0.00     0.029 A 
ATOM     45  N   UNL A   1      45.288  26.190  27.159  1.00  0.00    -0.354 N 
ATOM     46  C   UNL A   1      41.363  27.449  28.471  1.00  0.00     0.074 A 
ATOM     47  C   UNL A   1      40.406  26.370  28.351  1.00  0.00     0.031 C 
ATOM     48  C   UNL A   1      46.800  24.771  26.322  1.00  0.00     0.029 A 
ATOM     49  C   UNL A   1      46.602  26.148  26.762  1.00  0.00     0.049 A 
ATOM     50  H   UNL A   1      44.862  26.997  27.528  1.00  0.00     0.167 HD
ATOM     51  C   UNL A   1      41.067  28.685  28.938  1.00  0.00     0.037 A 
ATOM     52  C   UNL A   1      47.538  27.115  26.745  1.00  0.00     0.037 A 
ATOM     53  C   UNL A   1      42.029  29.751  29.061  1.00  0.00     0.049 A 
ATOM     54  C   UNL A   1      47.181  28.487  27.251  1.00  0.00     0.074 A 
ATOM     55  C   UNL A   1      41.844  31.025  29.570  1.00  0.00     0.029 A 
ATOM     56  N   UNL A   1      43.354  29.669  28.660  1.00  0.00    -0.354 N 
ATOM     57  N   UNL A   1      46.037  28.927  27.716  1.00  0.00    -0.248 NA
ATOM     58  C   UNL A   1      48.250  29.495  27.237  1.00  0.00     0.031 C 
ATOM     59  C   UNL A   1      43.041  31.733  29.419  1.00  0.00     0.029 A 
ATOM     60  C   UNL A   1      43.993  30.880  28.882  1.00  0.00     0.049 A 
ATOM     61  H   UNL A   1      43.780  28.868  28.275  1.00  0.00     0.167 HD
ATOM     62  C   UNL A   1      46.255  30.250  28.076  1.00  0.00     0.074 A 
ATOM     63  C   UNL A   1      47.646  30.534  27.794  1.00  0.00     0.031 C 
ATOM     64  C   UNL A   1      45.379  31.148  28.594  1.00  0.00     0.037 A 
BRANCH  51  65
ATOM     65  C   UNL A   1      39.645  28.952  29.344  1.00  0.00     0.064 A 
ATOM     66  C   UNL A   1      38.693  29.436  28.432  1.00  0.00     0.173 A 
ATOM     67  C   UNL A   1      39.218  28.699  30.657  1.00  0.00     0.173 A 
ATOM     68  F   UNL A   1      39.048  29.704  27.166  1.00  0.00    -0.203 F 
ATOM     69  C   UNL A   1      37.384  29.695  28.827  1.00  0.00     0.198 A 
ATOM     70  C   UNL A   1      37.898  28.923  31.039  1.00  0.00     0.198 A 
ATOM     71  F   UNL A   1      40.080  28.229  31.570  1.00  0.00    -0.203 F 
ATOM     72  F   UNL A   1      36.512  30.217  27.953  1.00  0.00    -0.200 F 
ATOM     73  C   UNL A   1      36.985  29.432  30.128  1.00  0.00     0.200 A 
ATOM     74  F   UNL A   1      37.510  28.654  32.294  1.00  0.00    -0.200 F 
ATOM     75  F   UNL A   1      35.724  29.677  30.508  1.00  0.00    -0.200 F 
ENDBRANCH  51  65
BRANCH  52  76
ATOM     76  C   UNL A   1      48.906  26.813  26.243  1.00  0.00     0.064 A 
ATOM     77  C   UNL A   1      49.906  26.344  27.104  1.00  0.00     0.173 A 
ATOM     78  C   UNL A   1      49.238  26.988  24.891  1.00  0.00     0.173 A 
ATOM     79  F   UNL A   1      49.644  26.178  28.409  1.00  0.00    -0.203 F 
ATOM     80  C   UNL A   1      51.195  26.085  26.638  1.00  0.00     0.198 A 
ATOM     81  C   UNL A   1      50.516  26.696  24.419  1.00  0.00     0.198 A 
ATOM     82  F   UNL A   1      48.316  27.428  24.023  1.00  0.00    -0.203 F 
ATOM     83  F   UNL A   1      52.145  25.686  27.492  1.00  0.00    -0.200 F 
ATOM     84  C   UNL A   1      51.496  26.253  25.295  1.00  0.00     0.200 A 
ATOM     85  F   UNL A   1      50.797  26.844  23.117  1.00  0.00    -0.200 F 
ATOM     86  F   UNL A   1      52.732  25.998  24.846  1.00  0.00    -0.200 F 
ENDBRANCH  52  76
BRANCH  64  87
ATOM     87  C   UNL A   1      45.912  32.515  28.923  1.00  0.00     0.064 A 
ATOM     88  C   UNL A   1      45.855  33.573  28.003  1.00  0.00     0.173 A 
ATOM     89  C   UNL A   1      46.456  32.777  30.191  1.00  0.00     0.173 A 
ATOM     90  F   UNL A   1      45.357  33.374  26.774  1.00  0.00    -0.203 F 
ATOM     91  C   UNL A   1      46.354  34.832  28.328  1.00  0.00     0.198 A 
ATOM     92  C   UNL A   1      46.919  34.046  30.524  1.00  0.00     0.198 A 
ATOM     93  F   UNL A   1      46.527  31.804  31.111  1.00  0.00    -0.203 F 
ATOM     94  F   UNL A   1      46.343  35.811  27.414  1.00  0.00    -0.200 F 
ATOM     95  C   UNL A   1      46.877  35.069  29.591  1.00  0.00     0.200 A 
ATOM     96  F   UNL A   1      47.408  34.279  31.751  1.00  0.00    -0.200 F 
ATOM     97  F   UNL A   1      47.350  36.284  29.904  1.00  0.00    -0.200 F 
ENDBRANCH  64  87
ENDBRANCH  38  39
ENDBRANCH  30  33
ENDBRANCH  28  29
ENDBRANCH  27  28
ENDBRANCH  26  27
ENDBRANCH   1  26
TORSDOF 16
ENDMDL
MODEL 3
REMARK VINA RESULT:     -12.2      1.154      2.271
REMARK SMILES N#Cc1cc(F)ccc1N1[C@@H]2CC[C@H]1C[C@H](CC(=O)NCCCCCCNC(=O)c1ccc(-c3c4nc(c(-c5c(F)c(F)c(F)c(F)c5F)c5ccc([nH]5)c(-c5c(F)c(F)c(F)c(F)c5F)c5nc(c(-c6c(F)c(F)c(F)c(F)c6F)c6ccc3[nH]6)C=C5)C=C4)cc1)C2
REMARK SMILES IDX 23 1 22 2 21 3 20 4 18 5 19 6 17 8 16 9 10 10 11 11 14 12
REMARK SMILES IDX 12 13 93 14 13 15 15 16 9 17 3 18 4 19 5 20 8 21 6 22 7 23
REMARK SMILES IDX 2 24 1 25 24 26 25 27 26 28 27 29 28 30 29 32 30 33 31 34
REMARK SMILES IDX 92 35 32 36 91 37 33 38 34 39 35 40 85 41 36 42 90 43 84 44
REMARK SMILES IDX 86 45 37 46 89 47 83 48 82 49 38 51 70 52 50 53 69 54 51 55
REMARK SMILES IDX 54 56 68 57 87 58 52 59 53 60 67 62 88 63 55 64 39 65 40 66
REMARK SMILES IDX 48 67 41 68 42 69 46 70 49 71 43 72 44 73 47 74 45 75 71 76
REMARK SMILES IDX 72 77 80 78 73 79 74 80 78 81 81 82 75 83 76 84 79 85 77 86
REMARK SMILES IDX 56 87 57 88 65 89 58 90 59 91 63 92 66 93 60 94 61 95 64 96
REMARK SMILES IDX 62 97
REMARK H PARENT 20 7 27 31 86 50 54 61
REMARK Flexibility Score: inf
ROOT
ATOM      1  C   UNL A   1      31.614  29.993  25.472  1.00  0.00     0.002 C 
ENDROOT
BRANCH   1   2
ATOM      2  C   UNL A   1      32.946  29.428  24.990  1.00  0.00     0.021 C 
BRANCH   2   3
ATOM      3  C   UNL A   1      33.029  29.170  23.480  1.00  0.00     0.116 C 
BRANCH   3   4
ATOM      4  N   UNL A   1      31.706  29.219  22.883  1.00  0.00    -0.356 N 
ATOM      5  C   UNL A   1      30.943  28.249  22.308  1.00  0.00     0.220 C 
ATOM      6  O   UNL A   1      29.874  28.589  21.794  1.00  0.00    -0.275 OA
ATOM      7  H   UNL A   1      31.287  30.111  22.895  1.00  0.00     0.163 HD
BRANCH   5   8
ATOM      8  C   UNL A   1      31.374  26.790  22.291  1.00  0.00     0.103 C 
BRANCH   8   9
ATOM      9  C   UNL A   1      31.775  26.237  23.675  1.00  0.00     0.002 C 
ATOM     10  N   UNL A   1      32.283  23.605  24.767  1.00  0.00    -0.364 N 
ATOM     11  C   UNL A   1      33.375  24.570  24.814  1.00  0.00     0.083 C 
ATOM     12  C   UNL A   1      31.106  24.282  25.274  1.00  0.00     0.083 C 
ATOM     13  C   UNL A   1      33.146  25.247  26.179  1.00  0.00     0.027 C 
ATOM     14  C   UNL A   1      33.149  25.521  23.621  1.00  0.00     0.029 C 
ATOM     15  C   UNL A   1      31.665  25.005  26.511  1.00  0.00     0.027 C 
ATOM     16  C   UNL A   1      30.669  25.331  24.256  1.00  0.00     0.029 C 
BRANCH  10  17
ATOM     17  C   UNL A   1      32.443  22.371  24.202  1.00  0.00     0.055 A 
ATOM     18  C   UNL A   1      32.873  21.204  24.868  1.00  0.00     0.078 A 
ATOM     19  C   UNL A   1      32.766  19.946  24.244  1.00  0.00     0.060 A 
ATOM     20  C   UNL A   1      32.289  19.848  22.948  1.00  0.00     0.124 A 
ATOM     21  C   UNL A   1      32.020  22.227  22.864  1.00  0.00     0.030 A 
ATOM     22  F   UNL A   1      32.156  18.642  22.383  1.00  0.00    -0.207 F 
ATOM     23  C   UNL A   1      31.944  20.982  22.238  1.00  0.00     0.041 A 
BRANCH  18  24
ATOM     24  C   UNL A   1      33.391  21.186  26.198  1.00  0.00     0.101 C 
ATOM     25  N   UNL A   1      33.764  21.261  27.303  1.00  0.00    -0.192 NA
ENDBRANCH  18  24
ENDBRANCH  10  17
ENDBRANCH   8   9
ENDBRANCH   5   8
ENDBRANCH   3   4
ENDBRANCH   2   3
ENDBRANCH   1   2
BRANCH   1  26
ATOM     26  C   UNL A   1      31.661  30.630  26.860  1.00  0.00     0.002 C 
BRANCH  26  27
ATOM     27  C   UNL A   1      31.492  32.152  26.886  1.00  0.00     0.021 C 
BRANCH  27  28
ATOM     28  C   UNL A   1      32.787  32.936  27.089  1.00  0.00     0.116 C 
BRANCH  28  29
ATOM     29  N   UNL A   1      32.530  34.283  27.578  1.00  0.00    -0.352 N 
ATOM     30  C   UNL A   1      33.016  34.914  28.694  1.00  0.00     0.251 C 
ATOM     31  H   UNL A   1      31.918  34.819  27.025  1.00  0.00     0.163 HD
ATOM     32  O   UNL A   1      32.490  35.944  29.103  1.00  0.00    -0.269 OA
BRANCH  30  33
ATOM     33  C   UNL A   1      34.179  34.349  29.406  1.00  0.00     0.039 A 
ATOM     34  C   UNL A   1      33.967  33.595  30.563  1.00  0.00     0.014 A 
ATOM     35  C   UNL A   1      35.477  34.588  28.948  1.00  0.00     0.014 A 
ATOM     36  C   UNL A   1      35.057  33.036  31.230  1.00  0.00     0.010 A 
ATOM     37  C   UNL A   1      36.555  33.962  29.566  1.00  0.00     0.010 A 
ATOM     38  C   UNL A   1      36.358  33.189  30.719  1.00  0.00    -0.014 A 
BRANCH  38  39
ATOM     39  C   UNL A   1      37.520  32.548  31.383  1.00  0.00     0.031 A 
ATOM     40  C   UNL A   1      38.227  31.395  30.726  1.00  0.00     0.074 A 
ATOM     41  C   UNL A   1      37.902  32.970  32.602  1.00  0.00     0.049 A 
ATOM     42  N   UNL A   1      39.228  30.676  31.168  1.00  0.00    -0.248 NA
ATOM     43  C   UNL A   1      37.723  30.973  29.409  1.00  0.00     0.031 C 
ATOM     44  C   UNL A   1      37.261  34.044  33.363  1.00  0.00     0.029 A 
ATOM     45  N   UNL A   1      38.916  32.542  33.423  1.00  0.00    -0.354 N 
ATOM     46  C   UNL A   1      39.468  29.720  30.191  1.00  0.00     0.074 A 
ATOM     47  C   UNL A   1      38.465  29.905  29.164  1.00  0.00     0.031 C 
ATOM     48  C   UNL A   1      37.910  34.205  34.526  1.00  0.00     0.029 A 
ATOM     49  C   UNL A   1      38.984  33.221  34.614  1.00  0.00     0.049 A 
ATOM     50  H   UNL A   1      39.537  31.817  33.179  1.00  0.00     0.167 HD
ATOM     51  C   UNL A   1      40.451  28.789  30.140  1.00  0.00     0.037 A 
ATOM     52  C   UNL A   1      39.812  33.060  35.663  1.00  0.00     0.037 A 
ATOM     53  C   UNL A   1      41.450  28.617  31.164  1.00  0.00     0.049 A 
ATOM     54  C   UNL A   1      40.885  32.007  35.593  1.00  0.00     0.074 A 
ATOM     55  C   UNL A   1      42.519  27.739  31.186  1.00  0.00     0.029 A 
ATOM     56  N   UNL A   1      41.494  29.332  32.352  1.00  0.00    -0.354 N 
ATOM     57  N   UNL A   1      41.150  31.158  34.630  1.00  0.00    -0.248 NA
ATOM     58  C   UNL A   1      41.778  31.896  36.753  1.00  0.00     0.031 C 
ATOM     59  C   UNL A   1      43.173  27.879  32.415  1.00  0.00     0.029 A 
ATOM     60  C   UNL A   1      42.556  28.893  33.130  1.00  0.00     0.049 A 
ATOM     61  H   UNL A   1      40.865  30.046  32.606  1.00  0.00     0.167 HD
ATOM     62  C   UNL A   1      42.256  30.433  35.053  1.00  0.00     0.074 A 
ATOM     63  C   UNL A   1      42.623  30.956  36.353  1.00  0.00     0.031 C 
ATOM     64  C   UNL A   1      42.908  29.424  34.422  1.00  0.00     0.037 A 
BRANCH  51  65
ATOM     65  C   UNL A   1      40.488  27.883  28.942  1.00  0.00     0.064 A 
ATOM     66  C   UNL A   1      41.263  28.185  27.810  1.00  0.00     0.173 A 
ATOM     67  C   UNL A   1      39.757  26.685  28.930  1.00  0.00     0.173 A 
ATOM     68  F   UNL A   1      41.974  29.321  27.762  1.00  0.00    -0.203 F 
ATOM     69  C   UNL A   1      41.273  27.344  26.700  1.00  0.00     0.198 A 
ATOM     70  C   UNL A   1      39.799  25.828  27.833  1.00  0.00     0.198 A 
ATOM     71  F   UNL A   1      39.004  26.341  29.985  1.00  0.00    -0.203 F 
ATOM     72  F   UNL A   1      41.971  27.686  25.608  1.00  0.00    -0.200 F 
ATOM     73  C   UNL A   1      40.547  26.163  26.715  1.00  0.00     0.200 A 
ATOM     74  F   UNL A   1      39.109  24.679  27.856  1.00  0.00    -0.200 F 
ATOM     75  F   UNL A   1      40.560  25.352  25.649  1.00  0.00    -0.200 F 
ENDBRANCH  51  65
BRANCH  52  76
ATOM     76  C   UNL A   1      39.665  33.928  36.862  1.00  0.00     0.064 A 
ATOM     77  C   UNL A   1      38.876  33.532  37.950  1.00  0.00     0.173 A 
ATOM     78  C   UNL A   1      40.312  35.171  36.944  1.00  0.00     0.173 A 
ATOM     79  F   UNL A   1      38.222  32.362  37.913  1.00  0.00    -0.203 F 
ATOM     80  C   UNL A   1      38.718  34.356  39.064  1.00  0.00     0.198 A 
ATOM     81  C   UNL A   1      40.181  35.978  38.071  1.00  0.00     0.198 A 
ATOM     82  F   UNL A   1      41.085  35.594  35.933  1.00  0.00    -0.203 F 
ATOM     83  F   UNL A   1      37.917  33.976  40.067  1.00  0.00    -0.200 F 
ATOM     84  C   UNL A   1      39.377  35.575  39.127  1.00  0.00     0.200 A 
ATOM     85  F   UNL A   1      40.834  37.147  38.135  1.00  0.00    -0.200 F 
ATOM     86  F   UNL A   1      39.230  36.364  40.199  1.00  0.00    -0.200 F 
ENDBRANCH  52  76
BRANCH  64  87
ATOM     87  C   UNL A   1      44.110  28.844  35.115  1.00  0.00     0.064 A 
ATOM     88  C   UNL A   1      45.395  29.378  34.940  1.00  0.00     0.173 A 
ATOM     89  C   UNL A   1      43.965  27.758  35.993  1.00  0.00     0.173 A 
ATOM     90  F   UNL A   1      45.591  30.408  34.103  1.00  0.00    -0.203 F 
ATOM     91  C   UNL A   1      46.495  28.825  35.591  1.00  0.00     0.198 A 
ATOM     92  C   UNL A   1      45.061  27.232  36.671  1.00  0.00     0.198 A 
ATOM     93  F   UNL A   1      42.757  27.214  36.202  1.00  0.00    -0.203 F 
ATOM     94  F   UNL A   1      47.721  29.314  35.364  1.00  0.00    -0.200 F 
ATOM     95  C   UNL A   1      46.325  27.759  36.462  1.00  0.00     0.200 A 
ATOM     96  F   UNL A   1      44.892  26.213  37.525  1.00  0.00    -0.200 F 
ATOM     97  F   UNL A   1      47.385  27.233  37.094  1.00  0.00    -0.200 F 
ENDBRANCH  64  87
ENDBRANCH  38  39
ENDBRANCH  30  33
ENDBRANCH  28  29
ENDBRANCH  27  28
ENDBRANCH  26  27
ENDBRANCH   1  26
TORSDOF 16
ENDMDL
