MODEL 1
REMARK VINA RESULT:     -12.6      0.000      0.000
REMARK SMILES CSc1ccc(/C=C2\C(C)=C(CC(=O)NCCCCCCNC(=O)c3ccc(-c4c5nc(c(-c6c(F)c(F)c(F)c(F)c6F)c6ccc([nH]6)c(-c6c(F)c(F)c(F)c(F)c6F)c6nc(c(-c7c(F)c(F)c(F)c(F)c7F)c7ccc4[nH]7)C=C6)C=C5)cc3)c3cc(F)ccc32)cc1
REMARK SMILES IDX 18 1 17 2 16 3 15 4 13 5 14 6 12 8 11 9 7 10 8 11 9 12 94 13
REMARK SMILES IDX 10 14 88 15 93 16 89 17 92 18 90 19 91 20 6 21 3 22 4 23
REMARK SMILES IDX 96 24 5 25 95 26 2 27 1 28 19 29 20 30 21 31 22 32 23 33
REMARK SMILES IDX 24 35 25 36 26 37 87 38 27 39 86 40 28 41 29 42 30 43 80 44
REMARK SMILES IDX 31 45 85 46 79 47 81 48 32 49 84 50 78 51 77 52 33 54 65 55
REMARK SMILES IDX 45 56 64 57 46 58 49 59 63 60 82 61 47 62 48 63 62 65 83 66
REMARK SMILES IDX 50 67 34 68 35 69 43 70 36 71 37 72 41 73 44 74 38 75 39 76
REMARK SMILES IDX 42 77 40 78 66 79 67 80 75 81 68 82 69 83 73 84 76 85 70 86
REMARK SMILES IDX 71 87 74 88 72 89 51 90 52 91 60 92 53 93 54 94 58 95 61 96
REMARK SMILES IDX 55 97 56 98 59 99 57 100
REMARK H PARENT 15 7 22 34 81 53 49 64
REMARK Flexibility Score: inf
ROOT
ATOM      1  C   UNL A   1      34.308  32.439  28.787  1.00  0.00     0.002 C 
ENDROOT
BRANCH   1   2
ATOM      2  C   UNL A   1      35.339  31.670  27.960  1.00  0.00     0.021 C 
BRANCH   2   3
ATOM      3  C   UNL A   1      34.937  30.248  27.578  1.00  0.00     0.116 C 
BRANCH   3   4
ATOM      4  N   UNL A   1      34.018  30.245  26.462  1.00  0.00    -0.356 N 
ATOM      5  C   UNL A   1      33.647  29.187  25.684  1.00  0.00     0.224 C 
ATOM      6  O   UNL A   1      32.957  29.395  24.686  1.00  0.00    -0.275 OA
ATOM      7  H   UNL A   1      33.610  31.112  26.235  1.00  0.00     0.163 HD
BRANCH   5   8
ATOM      8  C   UNL A   1      34.074  27.787  26.082  1.00  0.00     0.136 C 
BRANCH   8   9
ATOM      9  C   UNL A   1      33.459  26.747  25.163  1.00  0.00    -0.027 C 
ATOM     10  C   UNL A   1      34.909  23.758  26.207  1.00  0.00     0.017 C 
ATOM     11  C   UNL A   1      34.021  24.652  25.748  1.00  0.00    -0.014 C 
ATOM     12  C   UNL A   1      34.181  25.684  24.702  1.00  0.00    -0.039 C 
ATOM     13  C   UNL A   1      32.634  24.812  26.216  1.00  0.00    -0.010 A 
ATOM     14  C   UNL A   1      33.766  25.114  23.337  1.00  0.00     0.045 C 
ATOM     15  C   UNL A   1      32.266  26.089  25.750  1.00  0.00    -0.011 A 
ATOM     16  C   UNL A   1      31.684  23.867  26.559  1.00  0.00     0.012 A 
ATOM     17  C   UNL A   1      30.943  26.448  25.584  1.00  0.00     0.048 A 
ATOM     18  C   UNL A   1      30.342  24.216  26.380  1.00  0.00     0.040 A 
ATOM     19  C   UNL A   1      29.988  25.484  25.886  1.00  0.00     0.123 A 
ATOM     20  F   UNL A   1      28.701  25.736  25.611  1.00  0.00    -0.207 F 
BRANCH  10  21
ATOM     21  C   UNL A   1      36.212  23.328  25.648  1.00  0.00    -0.025 A 
ATOM     22  C   UNL A   1      38.664  21.996  25.757  1.00  0.00     0.007 A 
ATOM     23  C   UNL A   1      37.589  21.401  25.109  1.00  0.00     0.015 A 
ATOM     24  C   UNL A   1      38.588  23.337  26.133  1.00  0.00     0.015 A 
ATOM     25  C   UNL A   1      36.375  22.079  25.037  1.00  0.00     0.009 A 
ATOM     26  C   UNL A   1      37.360  24.002  26.080  1.00  0.00     0.009 A 
BRANCH  22  27
ATOM     27  S   UNL A   1      39.955  20.960  26.413  1.00  0.00    -0.130 SA
ATOM     28  C   UNL A   1      40.773  22.259  27.401  1.00  0.00     0.091 C 
ENDBRANCH  22  27
ENDBRANCH  10  21
ENDBRANCH   8   9
ENDBRANCH   5   8
ENDBRANCH   3   4
ENDBRANCH   2   3
ENDBRANCH   1   2
BRANCH   1  29
ATOM     29  C   UNL A   1      34.400  33.961  28.689  1.00  0.00     0.002 C 
BRANCH  29  30
ATOM     30  C   UNL A   1      33.085  34.708  28.923  1.00  0.00     0.021 C 
BRANCH  30  31
ATOM     31  C   UNL A   1      33.242  36.125  29.457  1.00  0.00     0.116 C 
BRANCH  31  32
ATOM     32  N   UNL A   1      32.485  36.329  30.677  1.00  0.00    -0.352 N 
ATOM     33  C   UNL A   1      32.661  35.750  31.906  1.00  0.00     0.251 C 
ATOM     34  H   UNL A   1      31.741  36.972  30.612  1.00  0.00     0.163 HD
ATOM     35  O   UNL A   1      31.802  35.861  32.773  1.00  0.00    -0.269 OA
BRANCH  33  36
ATOM     36  C   UNL A   1      33.894  34.983  32.186  1.00  0.00     0.039 A 
ATOM     37  C   UNL A   1      33.789  33.621  32.473  1.00  0.00     0.014 A 
ATOM     38  C   UNL A   1      35.142  35.616  32.211  1.00  0.00     0.014 A 
ATOM     39  C   UNL A   1      34.938  32.885  32.769  1.00  0.00     0.010 A 
ATOM     40  C   UNL A   1      36.293  34.870  32.442  1.00  0.00     0.010 A 
ATOM     41  C   UNL A   1      36.198  33.504  32.749  1.00  0.00    -0.014 A 
BRANCH  41  42
ATOM     42  C   UNL A   1      37.422  32.755  33.123  1.00  0.00     0.031 A 
ATOM     43  C   UNL A   1      38.109  33.059  34.426  1.00  0.00     0.074 A 
ATOM     44  C   UNL A   1      37.932  31.834  32.283  1.00  0.00     0.049 A 
ATOM     45  N   UNL A   1      39.218  32.566  34.915  1.00  0.00    -0.248 NA
ATOM     46  C   UNL A   1      37.478  34.076  35.282  1.00  0.00     0.031 C 
ATOM     47  C   UNL A   1      37.374  31.478  30.978  1.00  0.00     0.029 A 
ATOM     48  N   UNL A   1      39.039  31.036  32.403  1.00  0.00    -0.354 N 
ATOM     49  C   UNL A   1      39.424  33.224  36.120  1.00  0.00     0.074 A 
ATOM     50  C   UNL A   1      38.356  34.188  36.266  1.00  0.00     0.031 C 
ATOM     51  C   UNL A   1      38.132  30.517  30.427  1.00  0.00     0.029 A 
ATOM     52  C   UNL A   1      39.241  30.210  31.325  1.00  0.00     0.049 A 
ATOM     53  H   UNL A   1      39.635  31.053  33.188  1.00  0.00     0.167 HD
ATOM     54  C   UNL A   1      40.403  33.026  37.034  1.00  0.00     0.037 A 
ATOM     55  C   UNL A   1      40.211  29.305  31.095  1.00  0.00     0.037 A 
ATOM     56  C   UNL A   1      41.444  32.042  36.903  1.00  0.00     0.049 A 
ATOM     57  C   UNL A   1      41.274  29.087  32.139  1.00  0.00     0.074 A 
ATOM     58  C   UNL A   1      42.464  31.738  37.787  1.00  0.00     0.029 A 
ATOM     59  N   UNL A   1      41.590  31.195  35.814  1.00  0.00    -0.354 N 
ATOM     60  N   UNL A   1      41.433  29.684  33.296  1.00  0.00    -0.248 NA
ATOM     61  C   UNL A   1      42.283  28.059  31.850  1.00  0.00     0.031 C 
ATOM     62  C   UNL A   1      43.243  30.721  37.223  1.00  0.00     0.029 A 
ATOM     63  C   UNL A   1      42.684  30.367  36.005  1.00  0.00     0.049 A 
ATOM     64  H   UNL A   1      41.003  31.184  35.024  1.00  0.00     0.167 HD
ATOM     65  C   UNL A   1      42.535  29.082  33.887  1.00  0.00     0.074 A 
ATOM     66  C   UNL A   1      43.000  28.066  32.964  1.00  0.00     0.031 C 
ATOM     67  C   UNL A   1      43.113  29.345  35.084  1.00  0.00     0.037 A 
BRANCH  54  68
ATOM     68  C   UNL A   1      40.384  33.886  38.264  1.00  0.00     0.064 A 
ATOM     69  C   UNL A   1      39.639  33.527  39.398  1.00  0.00     0.173 A 
ATOM     70  C   UNL A   1      41.134  35.070  38.319  1.00  0.00     0.173 A 
ATOM     71  F   UNL A   1      38.893  32.412  39.390  1.00  0.00    -0.203 F 
ATOM     72  C   UNL A   1      39.623  34.336  40.531  1.00  0.00     0.198 A 
ATOM     73  C   UNL A   1      41.138  35.863  39.464  1.00  0.00     0.198 A 
ATOM     74  F   UNL A   1      41.866  35.458  37.264  1.00  0.00    -0.203 F 
ATOM     75  F   UNL A   1      38.865  33.998  41.583  1.00  0.00    -0.200 F 
ATOM     76  C   UNL A   1      40.378  35.499  40.566  1.00  0.00     0.200 A 
ATOM     77  F   UNL A   1      41.876  36.982  39.501  1.00  0.00    -0.200 F 
ATOM     78  F   UNL A   1      40.364  36.275  41.658  1.00  0.00    -0.200 F 
ENDBRANCH  54  68
BRANCH  55  79
ATOM     79  C   UNL A   1      40.201  28.504  29.845  1.00  0.00     0.064 A 
ATOM     80  C   UNL A   1      39.543  27.267  29.792  1.00  0.00     0.173 A 
ATOM     81  C   UNL A   1      40.853  28.949  28.686  1.00  0.00     0.173 A 
ATOM     82  F   UNL A   1      38.923  26.792  30.882  1.00  0.00    -0.203 F 
ATOM     83  C   UNL A   1      39.559  26.494  28.634  1.00  0.00     0.198 A 
ATOM     84  C   UNL A   1      40.845  28.186  27.520  1.00  0.00     0.198 A 
ATOM     85  F   UNL A   1      41.490  30.129  28.684  1.00  0.00    -0.203 F 
ATOM     86  F   UNL A   1      38.962  25.294  28.624  1.00  0.00    -0.200 F 
ATOM     87  C   UNL A   1      40.206  26.955  27.498  1.00  0.00     0.200 A 
ATOM     88  F   UNL A   1      41.462  28.640  26.420  1.00  0.00    -0.200 F 
ATOM     89  F   UNL A   1      40.221  26.210  26.384  1.00  0.00    -0.200 F 
ENDBRANCH  55  79
BRANCH  67  90
ATOM     90  C   UNL A   1      44.274  28.487  35.488  1.00  0.00     0.064 A 
ATOM     91  C   UNL A   1      45.593  28.829  35.158  1.00  0.00     0.173 A 
ATOM     92  C   UNL A   1      44.062  27.322  36.241  1.00  0.00     0.173 A 
ATOM     93  F   UNL A   1      45.844  29.925  34.427  1.00  0.00    -0.203 F 
ATOM     94  C   UNL A   1      46.658  28.019  35.544  1.00  0.00     0.198 A 
ATOM     95  C   UNL A   1      45.131  26.530  36.649  1.00  0.00     0.198 A 
ATOM     96  F   UNL A   1      42.818  26.957  36.587  1.00  0.00    -0.203 F 
ATOM     97  F   UNL A   1      47.906  28.338  35.178  1.00  0.00    -0.200 F 
ATOM     98  C   UNL A   1      46.426  26.875  36.293  1.00  0.00     0.200 A 
ATOM     99  F   UNL A   1      44.907  25.430  37.381  1.00  0.00    -0.200 F 
ATOM    100  F   UNL A   1      47.453  26.097  36.666  1.00  0.00    -0.200 F 
ENDBRANCH  67  90
ENDBRANCH  41  42
ENDBRANCH  33  36
ENDBRANCH  31  32
ENDBRANCH  30  31
ENDBRANCH  29  30
ENDBRANCH   1  29
TORSDOF 16
ENDMDL
MODEL 2
REMARK VINA RESULT:     -12.6      6.660     12.280
REMARK SMILES CSc1ccc(/C=C2\C(C)=C(CC(=O)NCCCCCCNC(=O)c3ccc(-c4c5nc(c(-c6c(F)c(F)c(F)c(F)c6F)c6ccc([nH]6)c(-c6c(F)c(F)c(F)c(F)c6F)c6nc(c(-c7c(F)c(F)c(F)c(F)c7F)c7ccc4[nH]7)C=C6)C=C5)cc3)c3cc(F)ccc32)cc1
REMARK SMILES IDX 18 1 17 2 16 3 15 4 13 5 14 6 12 8 11 9 7 10 8 11 9 12 94 13
REMARK SMILES IDX 10 14 88 15 93 16 89 17 92 18 90 19 91 20 6 21 3 22 4 23
REMARK SMILES IDX 96 24 5 25 95 26 2 27 1 28 19 29 20 30 21 31 22 32 23 33
REMARK SMILES IDX 24 35 25 36 26 37 87 38 27 39 86 40 28 41 29 42 30 43 80 44
REMARK SMILES IDX 31 45 85 46 79 47 81 48 32 49 84 50 78 51 77 52 33 54 65 55
REMARK SMILES IDX 45 56 64 57 46 58 49 59 63 60 82 61 47 62 48 63 62 65 83 66
REMARK SMILES IDX 50 67 34 68 35 69 43 70 36 71 37 72 41 73 44 74 38 75 39 76
REMARK SMILES IDX 42 77 40 78 66 79 67 80 75 81 68 82 69 83 73 84 76 85 70 86
REMARK SMILES IDX 71 87 74 88 72 89 51 90 52 91 60 92 53 93 54 94 58 95 61 96
REMARK SMILES IDX 55 97 56 98 59 99 57 100
REMARK H PARENT 15 7 22 34 81 53 49 64
REMARK Flexibility Score: inf
ROOT
ATOM      1  C   UNL A   1      41.996  21.285  27.139  1.00  0.00     0.002 C 
ENDROOT
BRANCH   1   2
ATOM      2  C   UNL A   1      41.096  21.952  26.099  1.00  0.00     0.021 C 
BRANCH   2   3
ATOM      3  C   UNL A   1      39.617  21.579  26.184  1.00  0.00     0.116 C 
BRANCH   3   4
ATOM      4  N   UNL A   1      38.783  22.758  26.248  1.00  0.00    -0.356 N 
ATOM      5  C   UNL A   1      37.591  22.976  25.621  1.00  0.00     0.224 C 
ATOM      6  O   UNL A   1      37.083  24.097  25.681  1.00  0.00    -0.275 OA
ATOM      7  H   UNL A   1      39.114  23.492  26.814  1.00  0.00     0.163 HD
BRANCH   5   8
ATOM      8  C   UNL A   1      36.916  21.831  24.890  1.00  0.00     0.136 C 
BRANCH   8   9
ATOM      9  C   UNL A   1      35.720  21.315  25.671  1.00  0.00    -0.027 C 
ATOM     10  C   UNL A   1      33.197  23.597  24.928  1.00  0.00     0.017 C 
ATOM     11  C   UNL A   1      33.841  22.454  25.205  1.00  0.00    -0.014 C 
ATOM     12  C   UNL A   1      34.832  22.165  26.263  1.00  0.00    -0.039 C 
ATOM     13  C   UNL A   1      33.698  21.182  24.476  1.00  0.00    -0.010 A 
ATOM     14  C   UNL A   1      34.119  21.645  27.521  1.00  0.00     0.045 C 
ATOM     15  C   UNL A   1      34.833  20.443  24.862  1.00  0.00    -0.011 A 
ATOM     16  C   UNL A   1      32.577  20.564  23.953  1.00  0.00     0.012 A 
ATOM     17  C   UNL A   1      34.870  19.066  24.767  1.00  0.00     0.048 A 
ATOM     18  C   UNL A   1      32.599  19.168  23.868  1.00  0.00     0.040 A 
ATOM     19  C   UNL A   1      33.727  18.439  24.283  1.00  0.00     0.123 A 
ATOM     20  F   UNL A   1      33.663  17.101  24.302  1.00  0.00    -0.207 F 
BRANCH  10  21
ATOM     21  C   UNL A   1      33.053  24.834  25.731  1.00  0.00    -0.025 A 
ATOM     22  C   UNL A   1      32.463  27.542  26.069  1.00  0.00     0.007 A 
ATOM     23  C   UNL A   1      31.509  26.587  26.396  1.00  0.00     0.015 A 
ATOM     24  C   UNL A   1      33.775  27.148  25.808  1.00  0.00     0.015 A 
ATOM     25  C   UNL A   1      31.817  25.237  26.248  1.00  0.00     0.009 A 
ATOM     26  C   UNL A   1      34.069  25.793  25.637  1.00  0.00     0.009 A 
BRANCH  22  27
ATOM     27  S   UNL A   1      31.925  29.184  25.637  1.00  0.00    -0.130 SA
ATOM     28  C   UNL A   1      30.871  28.687  24.232  1.00  0.00     0.091 C 
ENDBRANCH  22  27
ENDBRANCH  10  21
ENDBRANCH   8   9
ENDBRANCH   5   8
ENDBRANCH   3   4
ENDBRANCH   2   3
ENDBRANCH   1   2
BRANCH   1  29
ATOM     29  C   UNL A   1      41.795  19.780  27.305  1.00  0.00     0.002 C 
BRANCH  29  30
ATOM     30  C   UNL A   1      42.259  18.928  26.121  1.00  0.00     0.021 C 
BRANCH  30  31
ATOM     31  C   UNL A   1      43.745  18.596  26.118  1.00  0.00     0.116 C 
BRANCH  31  32
ATOM     32  N   UNL A   1      44.286  18.554  24.772  1.00  0.00    -0.352 N 
ATOM     33  C   UNL A   1      44.646  19.595  23.957  1.00  0.00     0.251 C 
ATOM     34  H   UNL A   1      44.410  17.654  24.393  1.00  0.00     0.163 HD
ATOM     35  O   UNL A   1      44.877  19.401  22.769  1.00  0.00    -0.269 OA
BRANCH  33  36
ATOM     36  C   UNL A   1      44.752  20.961  24.513  1.00  0.00     0.039 A 
ATOM     37  C   UNL A   1      44.181  22.021  23.807  1.00  0.00     0.014 A 
ATOM     38  C   UNL A   1      45.451  21.198  25.702  1.00  0.00     0.014 A 
ATOM     39  C   UNL A   1      44.296  23.322  24.300  1.00  0.00     0.010 A 
ATOM     40  C   UNL A   1      45.509  22.486  26.226  1.00  0.00     0.010 A 
ATOM     41  C   UNL A   1      44.955  23.562  25.516  1.00  0.00    -0.014 A 
BRANCH  41  42
ATOM     42  C   UNL A   1      45.142  24.943  26.023  1.00  0.00     0.031 A 
ATOM     43  C   UNL A   1      46.498  25.586  25.939  1.00  0.00     0.074 A 
ATOM     44  C   UNL A   1      44.111  25.599  26.587  1.00  0.00     0.049 A 
ATOM     45  N   UNL A   1      46.891  26.756  26.375  1.00  0.00    -0.248 NA
ATOM     46  C   UNL A   1      47.564  24.796  25.302  1.00  0.00     0.031 C 
ATOM     47  C   UNL A   1      42.759  25.065  26.757  1.00  0.00     0.029 A 
ATOM     48  N   UNL A   1      44.044  26.857  27.128  1.00  0.00    -0.354 N 
ATOM     49  C   UNL A   1      48.247  26.832  26.083  1.00  0.00     0.074 A 
ATOM     50  C   UNL A   1      48.622  25.572  25.479  1.00  0.00     0.031 C 
ATOM     51  C   UNL A   1      41.991  25.998  27.344  1.00  0.00     0.029 A 
ATOM     52  C   UNL A   1      42.802  27.182  27.614  1.00  0.00     0.049 A 
ATOM     53  H   UNL A   1      44.815  27.469  27.165  1.00  0.00     0.167 HD
ATOM     54  C   UNL A   1      49.096  27.867  26.278  1.00  0.00     0.037 A 
ATOM     55  C   UNL A   1      42.370  28.312  28.206  1.00  0.00     0.037 A 
ATOM     56  C   UNL A   1      48.712  29.131  26.847  1.00  0.00     0.049 A 
ATOM     57  C   UNL A   1      43.330  29.456  28.389  1.00  0.00     0.074 A 
ATOM     58  C   UNL A   1      49.488  30.258  27.057  1.00  0.00     0.029 A 
ATOM     59  N   UNL A   1      47.433  29.437  27.288  1.00  0.00    -0.354 N 
ATOM     60  N   UNL A   1      44.599  29.533  28.068  1.00  0.00    -0.248 NA
ATOM     61  C   UNL A   1      42.792  30.678  29.005  1.00  0.00     0.031 C 
ATOM     62  C   UNL A   1      48.684  31.238  27.649  1.00  0.00     0.029 A 
ATOM     63  C   UNL A   1      47.398  30.735  27.770  1.00  0.00     0.049 A 
ATOM     64  H   UNL A   1      46.665  28.823  27.262  1.00  0.00     0.167 HD
ATOM     65  C   UNL A   1      45.001  30.817  28.408  1.00  0.00     0.074 A 
ATOM     66  C   UNL A   1      43.839  31.488  28.953  1.00  0.00     0.031 C 
ATOM     67  C   UNL A   1      46.223  31.390  28.284  1.00  0.00     0.037 A 
BRANCH  54  68
ATOM     68  C   UNL A   1      50.526  27.675  25.862  1.00  0.00     0.064 A 
ATOM     69  C   UNL A   1      51.524  27.361  26.797  1.00  0.00     0.173 A 
ATOM     70  C   UNL A   1      50.899  27.784  24.515  1.00  0.00     0.173 A 
ATOM     71  F   UNL A   1      51.222  27.261  28.101  1.00  0.00    -0.203 F 
ATOM     72  C   UNL A   1      52.848  27.191  26.402  1.00  0.00     0.198 A 
ATOM     73  C   UNL A   1      52.220  27.586  24.119  1.00  0.00     0.198 A 
ATOM     74  F   UNL A   1      49.983  28.079  23.580  1.00  0.00    -0.203 F 
ATOM     75  F   UNL A   1      53.793  26.942  27.320  1.00  0.00    -0.200 F 
ATOM     76  C   UNL A   1      53.194  27.297  25.063  1.00  0.00     0.200 A 
ATOM     77  F   UNL A   1      52.550  27.678  22.823  1.00  0.00    -0.200 F 
ATOM     78  F   UNL A   1      54.468  27.130  24.683  1.00  0.00    -0.200 F 
ENDBRANCH  54  68
BRANCH  55  79
ATOM     79  C   UNL A   1      40.953  28.435  28.629  1.00  0.00     0.064 A 
ATOM     80  C   UNL A   1      39.979  28.916  27.743  1.00  0.00     0.173 A 
ATOM     81  C   UNL A   1      40.543  28.087  29.924  1.00  0.00     0.173 A 
ATOM     82  F   UNL A   1      40.328  29.279  26.500  1.00  0.00    -0.203 F 
ATOM     83  C   UNL A   1      38.654  29.068  28.143  1.00  0.00     0.198 A 
ATOM     84  C   UNL A   1      39.212  28.215  30.315  1.00  0.00     0.198 A 
ATOM     85  F   UNL A   1      41.435  27.616  30.808  1.00  0.00    -0.203 F 
ATOM     86  F   UNL A   1      37.752  29.574  27.290  1.00  0.00    -0.200 F 
ATOM     87  C   UNL A   1      38.270  28.714  29.427  1.00  0.00     0.200 A 
ATOM     88  F   UNL A   1      38.842  27.862  31.554  1.00  0.00    -0.200 F 
ATOM     89  F   UNL A   1      36.995  28.861  29.812  1.00  0.00    -0.200 F 
ENDBRANCH  55  79
BRANCH  67  90
ATOM     90  C   UNL A   1      46.350  32.828  28.692  1.00  0.00     0.064 A 
ATOM     91  C   UNL A   1      46.703  33.195  29.998  1.00  0.00     0.173 A 
ATOM     92  C   UNL A   1      46.143  33.849  27.752  1.00  0.00     0.173 A 
ATOM     93  F   UNL A   1      46.896  32.255  30.935  1.00  0.00    -0.203 F 
ATOM     94  C   UNL A   1      46.817  34.535  30.356  1.00  0.00     0.198 A 
ATOM     95  C   UNL A   1      46.285  35.187  28.106  1.00  0.00     0.198 A 
ATOM     96  F   UNL A   1      45.810  33.547  26.487  1.00  0.00    -0.203 F 
ATOM     97  F   UNL A   1      47.109  34.866  31.621  1.00  0.00    -0.200 F 
ATOM     98  C   UNL A   1      46.614  35.529  29.409  1.00  0.00     0.200 A 
ATOM     99  F   UNL A   1      46.098  36.145  27.189  1.00  0.00    -0.200 F 
ATOM    100  F   UNL A   1      46.726  36.819  29.756  1.00  0.00    -0.200 F 
ENDBRANCH  67  90
ENDBRANCH  41  42
ENDBRANCH  33  36
ENDBRANCH  31  32
ENDBRANCH  30  31
ENDBRANCH  29  30
ENDBRANCH   1  29
TORSDOF 16
ENDMDL
MODEL 3
REMARK VINA RESULT:     -12.3      2.571      4.538
REMARK SMILES CSc1ccc(/C=C2\C(C)=C(CC(=O)NCCCCCCNC(=O)c3ccc(-c4c5nc(c(-c6c(F)c(F)c(F)c(F)c6F)c6ccc([nH]6)c(-c6c(F)c(F)c(F)c(F)c6F)c6nc(c(-c7c(F)c(F)c(F)c(F)c7F)c7ccc4[nH]7)C=C6)C=C5)cc3)c3cc(F)ccc32)cc1
REMARK SMILES IDX 18 1 17 2 16 3 15 4 13 5 14 6 12 8 11 9 7 10 8 11 9 12 94 13
REMARK SMILES IDX 10 14 88 15 93 16 89 17 92 18 90 19 91 20 6 21 3 22 4 23
REMARK SMILES IDX 96 24 5 25 95 26 2 27 1 28 19 29 20 30 21 31 22 32 23 33
REMARK SMILES IDX 24 35 25 36 26 37 87 38 27 39 86 40 28 41 29 42 30 43 80 44
REMARK SMILES IDX 31 45 85 46 79 47 81 48 32 49 84 50 78 51 77 52 33 54 65 55
REMARK SMILES IDX 45 56 64 57 46 58 49 59 63 60 82 61 47 62 48 63 62 65 83 66
REMARK SMILES IDX 50 67 34 68 35 69 43 70 36 71 37 72 41 73 44 74 38 75 39 76
REMARK SMILES IDX 42 77 40 78 66 79 67 80 75 81 68 82 69 83 73 84 76 85 70 86
REMARK SMILES IDX 71 87 74 88 72 89 51 90 52 91 60 92 53 93 54 94 58 95 61 96
REMARK SMILES IDX 55 97 56 98 59 99 57 100
REMARK H PARENT 15 7 22 34 81 53 49 64
REMARK Flexibility Score: inf
ROOT
ATOM      1  C   UNL A   1      31.775  29.141  26.594  1.00  0.00     0.002 C 
ENDROOT
BRANCH   1   2
ATOM      2  C   UNL A   1      31.434  27.804  25.936  1.00  0.00     0.021 C 
BRANCH   2   3
ATOM      3  C   UNL A   1      32.188  26.596  26.487  1.00  0.00     0.116 C 
BRANCH   3   4
ATOM      4  N   UNL A   1      31.281  25.522  26.826  1.00  0.00    -0.356 N 
ATOM      5  C   UNL A   1      31.549  24.186  26.882  1.00  0.00     0.224 C 
ATOM      6  O   UNL A   1      30.617  23.399  27.055  1.00  0.00    -0.275 OA
ATOM      7  H   UNL A   1      30.358  25.788  27.043  1.00  0.00     0.163 HD
BRANCH   5   8
ATOM      8  C   UNL A   1      32.983  23.709  26.754  1.00  0.00     0.136 C 
BRANCH   8   9
ATOM      9  C   UNL A   1      33.210  23.015  25.423  1.00  0.00    -0.027 C 
ATOM     10  C   UNL A   1      34.337  25.567  23.340  1.00  0.00     0.017 C 
ATOM     11  C   UNL A   1      34.179  24.365  23.911  1.00  0.00    -0.014 C 
ATOM     12  C   UNL A   1      32.936  23.635  24.238  1.00  0.00    -0.039 C 
ATOM     13  C   UNL A   1      35.260  23.474  24.366  1.00  0.00    -0.010 A 
ATOM     14  C   UNL A   1      32.539  22.725  23.064  1.00  0.00     0.045 C 
ATOM     15  C   UNL A   1      34.613  22.573  25.232  1.00  0.00    -0.011 A 
ATOM     16  C   UNL A   1      36.482  23.173  23.791  1.00  0.00     0.012 A 
ATOM     17  C   UNL A   1      35.149  21.333  25.524  1.00  0.00     0.048 A 
ATOM     18  C   UNL A   1      37.026  21.915  24.069  1.00  0.00     0.040 A 
ATOM     19  C   UNL A   1      36.355  21.011  24.912  1.00  0.00     0.123 A 
ATOM     20  F   UNL A   1      36.844  19.772  25.054  1.00  0.00    -0.207 F 
BRANCH  10  21
ATOM     21  C   UNL A   1      33.366  26.417  22.611  1.00  0.00    -0.025 A 
ATOM     22  C   UNL A   1      30.997  27.877  22.383  1.00  0.00     0.007 A 
ATOM     23  C   UNL A   1      32.189  28.541  22.643  1.00  0.00     0.015 A 
ATOM     24  C   UNL A   1      31.022  26.536  22.002  1.00  0.00     0.015 A 
ATOM     25  C   UNL A   1      33.371  27.811  22.732  1.00  0.00     0.009 A 
ATOM     26  C   UNL A   1      32.208  25.805  22.118  1.00  0.00     0.009 A 
BRANCH  22  27
ATOM     27  S   UNL A   1      29.464  28.630  22.887  1.00  0.00    -0.130 SA
ATOM     28  C   UNL A   1      29.685  30.182  21.952  1.00  0.00     0.091 C 
ENDBRANCH  22  27
ENDBRANCH  10  21
ENDBRANCH   8   9
ENDBRANCH   5   8
ENDBRANCH   3   4
ENDBRANCH   2   3
ENDBRANCH   1   2
BRANCH   1  29
ATOM     29  C   UNL A   1      31.463  30.378  25.754  1.00  0.00     0.002 C 
BRANCH  29  30
ATOM     30  C   UNL A   1      31.343  31.685  26.542  1.00  0.00     0.021 C 
BRANCH  30  31
ATOM     31  C   UNL A   1      32.670  32.350  26.880  1.00  0.00     0.116 C 
BRANCH  31  32
ATOM     32  N   UNL A   1      32.490  33.720  27.325  1.00  0.00    -0.352 N 
ATOM     33  C   UNL A   1      33.085  34.368  28.375  1.00  0.00     0.251 C 
ATOM     34  H   UNL A   1      31.851  34.255  26.801  1.00  0.00     0.163 HD
ATOM     35  O   UNL A   1      32.661  35.453  28.753  1.00  0.00    -0.269 OA
BRANCH  33  36
ATOM     36  C   UNL A   1      34.243  33.752  29.057  1.00  0.00     0.039 A 
ATOM     37  C   UNL A   1      35.527  34.199  28.739  1.00  0.00     0.014 A 
ATOM     38  C   UNL A   1      34.065  32.707  29.970  1.00  0.00     0.014 A 
ATOM     39  C   UNL A   1      36.636  33.610  29.350  1.00  0.00     0.010 A 
ATOM     40  C   UNL A   1      35.165  32.165  30.627  1.00  0.00     0.010 A 
ATOM     41  C   UNL A   1      36.461  32.594  30.303  1.00  0.00    -0.014 A 
BRANCH  41  42
ATOM     42  C   UNL A   1      37.628  31.913  30.914  1.00  0.00     0.031 A 
ATOM     43  C   UNL A   1      38.076  32.307  32.295  1.00  0.00     0.074 A 
ATOM     44  C   UNL A   1      38.302  30.976  30.221  1.00  0.00     0.049 A 
ATOM     45  N   UNL A   1      39.103  31.883  32.988  1.00  0.00    -0.248 NA
ATOM     46  C   UNL A   1      37.277  33.336  32.978  1.00  0.00     0.031 C 
ATOM     47  C   UNL A   1      37.984  30.536  28.863  1.00  0.00     0.029 A 
ATOM     48  N   UNL A   1      39.399  30.230  30.566  1.00  0.00    -0.354 N 
ATOM     49  C   UNL A   1      39.081  32.605  34.174  1.00  0.00     0.074 A 
ATOM     50  C   UNL A   1      37.973  33.530  34.088  1.00  0.00     0.031 C 
ATOM     51  C   UNL A   1      38.855  29.583  28.497  1.00  0.00     0.029 A 
ATOM     52  C   UNL A   1      39.806  29.363  29.583  1.00  0.00     0.049 A 
ATOM     53  H   UNL A   1      39.853  30.309  31.437  1.00  0.00     0.167 HD
ATOM     54  C   UNL A   1      39.898  32.490  35.247  1.00  0.00     0.037 A 
ATOM     55  C   UNL A   1      40.830  28.489  29.566  1.00  0.00     0.037 A 
ATOM     56  C   UNL A   1      40.978  31.545  35.343  1.00  0.00     0.049 A 
ATOM     57  C   UNL A   1      41.708  28.365  30.782  1.00  0.00     0.074 A 
ATOM     58  C   UNL A   1      41.844  31.325  36.400  1.00  0.00     0.029 A 
ATOM     59  N   UNL A   1      41.333  30.655  34.341  1.00  0.00    -0.354 N 
ATOM     60  N   UNL A   1      41.651  29.021  31.916  1.00  0.00    -0.248 NA
ATOM     61  C   UNL A   1      42.785  27.366  30.720  1.00  0.00     0.031 C 
ATOM     62  C   UNL A   1      42.739  30.315  36.028  1.00  0.00     0.029 A 
ATOM     63  C   UNL A   1      42.405  29.881  34.754  1.00  0.00     0.049 A 
ATOM     64  H   UNL A   1      40.888  30.582  33.466  1.00  0.00     0.167 HD
ATOM     65  C   UNL A   1      42.657  28.493  32.713  1.00  0.00     0.074 A 
ATOM     66  C   UNL A   1      43.303  27.455  31.936  1.00  0.00     0.031 C 
ATOM     67  C   UNL A   1      43.016  28.837  33.974  1.00  0.00     0.037 A 
BRANCH  54  68
ATOM     68  C   UNL A   1      39.645  33.407  36.408  1.00  0.00     0.064 A 
ATOM     69  C   UNL A   1      40.236  34.677  36.481  1.00  0.00     0.173 A 
ATOM     70  C   UNL A   1      38.786  33.021  37.448  1.00  0.00     0.173 A 
ATOM     71  F   UNL A   1      41.077  35.087  35.519  1.00  0.00    -0.203 F 
ATOM     72  C   UNL A   1      39.999  35.517  37.566  1.00  0.00     0.198 A 
ATOM     73  C   UNL A   1      38.529  33.875  38.519  1.00  0.00     0.198 A 
ATOM     74  F   UNL A   1      38.193  31.819  37.427  1.00  0.00    -0.203 F 
ATOM     75  F   UNL A   1      40.614  36.706  37.638  1.00  0.00    -0.200 F 
ATOM     76  C   UNL A   1      39.141  35.118  38.580  1.00  0.00     0.200 A 
ATOM     77  F   UNL A   1      37.692  33.493  39.493  1.00  0.00    -0.200 F 
ATOM     78  F   UNL A   1      38.911  35.929  39.622  1.00  0.00    -0.200 F 
ENDBRANCH  54  68
BRANCH  55  79
ATOM     79  C   UNL A   1      41.056  27.631  28.376  1.00  0.00     0.064 A 
ATOM     80  C   UNL A   1      41.931  28.034  27.357  1.00  0.00     0.173 A 
ATOM     81  C   UNL A   1      40.399  26.402  28.224  1.00  0.00     0.173 A 
ATOM     82  F   UNL A   1      42.567  29.212  27.450  1.00  0.00    -0.203 F 
ATOM     83  C   UNL A   1      42.122  27.253  26.221  1.00  0.00     0.198 A 
ATOM     84  C   UNL A   1      40.610  25.608  27.099  1.00  0.00     0.198 A 
ATOM     85  F   UNL A   1      39.557  25.969  29.173  1.00  0.00    -0.203 F 
ATOM     86  F   UNL A   1      42.928  27.684  25.241  1.00  0.00    -0.200 F 
ATOM     87  C   UNL A   1      41.464  26.039  26.094  1.00  0.00     0.200 A 
ATOM     88  F   UNL A   1      39.982  24.430  26.984  1.00  0.00    -0.200 F 
ATOM     89  F   UNL A   1      41.648  25.287  25.000  1.00  0.00    -0.200 F 
ENDBRANCH  55  79
BRANCH  67  90
ATOM     90  C   UNL A   1      44.120  28.046  34.611  1.00  0.00     0.064 A 
ATOM     91  C   UNL A   1      45.457  28.461  34.541  1.00  0.00     0.173 A 
ATOM     92  C   UNL A   1      43.828  26.874  35.324  1.00  0.00     0.173 A 
ATOM     93  F   UNL A   1      45.787  29.566  33.857  1.00  0.00    -0.203 F 
ATOM     94  C   UNL A   1      46.468  27.714  35.141  1.00  0.00     0.198 A 
ATOM     95  C   UNL A   1      44.837  26.145  35.946  1.00  0.00     0.198 A 
ATOM     96  F   UNL A   1      42.562  26.441  35.425  1.00  0.00    -0.203 F 
ATOM     97  F   UNL A   1      47.745  28.101  35.022  1.00  0.00    -0.200 F 
ATOM     98  C   UNL A   1      46.156  26.561  35.847  1.00  0.00     0.200 A 
ATOM     99  F   UNL A   1      44.534  25.037  36.636  1.00  0.00    -0.200 F 
ATOM    100  F   UNL A   1      47.130  25.844  36.425  1.00  0.00    -0.200 F 
ENDBRANCH  67  90
ENDBRANCH  41  42
ENDBRANCH  33  36
ENDBRANCH  31  32
ENDBRANCH  30  31
ENDBRANCH  29  30
ENDBRANCH   1  29
TORSDOF 16
ENDMDL
