MODEL 1
REMARK VINA RESULT:     -12.8      0.000      0.000
REMARK SMILES O=C(NCCCCCCNC(=O)[C@H]1CC=CC[C@@H]1c1nc2cc(Cl)ccc2o1)c1ccc(-c2c3nc(c(-c4c(F)c(F)c(F)c(F)c4F)c4ccc([nH]4)c(-c4c(F)c(F)c(F)c(F)c4F)c4nc(c(-c5c(F)c(F)c(F)c(F)c5F)c5ccc2[nH]5)C=C4)C=C3)cc1
REMARK SMILES IDX 6 1 5 2 4 3 3 4 1 5 2 6 29 8 30 9 91 10 31 11 90 12 32 13
REMARK SMILES IDX 33 14 34 15 84 16 35 17 89 18 83 19 85 20 36 21 88 22 82 23
REMARK SMILES IDX 81 24 37 26 69 27 49 28 68 29 50 30 53 31 67 32 86 33 51 34
REMARK SMILES IDX 52 35 66 37 87 38 54 39 38 40 39 41 47 42 40 43 41 44 45 45
REMARK SMILES IDX 48 46 42 47 43 48 46 49 44 50 70 51 71 52 79 53 72 54 73 55
REMARK SMILES IDX 77 56 80 57 74 58 75 59 78 60 76 61 55 62 56 63 64 64 57 65
REMARK SMILES IDX 58 66 62 67 65 68 59 69 60 70 63 71 61 72 7 73 8 74 9 75
REMARK SMILES IDX 10 76 11 77 12 79 13 80 14 81 18 82 15 83 17 84 16 85 19 86
REMARK SMILES IDX 20 87 28 88 21 89 27 90 22 91 26 92 23 93 25 94 24 95
REMARK H PARENT 3 7 85 25 53 36 10 78
REMARK Flexibility Score: inf
ROOT
ATOM      1  C   UNL A   1      41.040  20.396  27.249  1.00  0.00     0.002 C 
ENDROOT
BRANCH   1   2
ATOM      2  C   UNL A   1      41.581  19.700  25.988  1.00  0.00     0.021 C 
BRANCH   2   3
ATOM      3  C   UNL A   1      42.994  19.178  26.157  1.00  0.00     0.116 C 
BRANCH   3   4
ATOM      4  N   UNL A   1      43.830  19.466  24.986  1.00  0.00    -0.352 N 
ATOM      5  O   UNL A   1      44.570  20.748  23.266  1.00  0.00    -0.269 OA
ATOM      6  C   UNL A   1      44.173  20.679  24.417  1.00  0.00     0.251 C 
ATOM      7  H   UNL A   1      44.205  18.674  24.536  1.00  0.00     0.163 HD
BRANCH   6   8
ATOM      8  C   UNL A   1      44.064  21.893  25.241  1.00  0.00     0.039 A 
ATOM      9  C   UNL A   1      44.980  22.213  26.243  1.00  0.00     0.014 A 
ATOM     10  C   UNL A   1      42.995  22.736  24.973  1.00  0.00     0.014 A 
ATOM     11  C   UNL A   1      44.775  23.391  26.955  1.00  0.00     0.010 A 
ATOM     12  C   UNL A   1      43.027  24.024  25.400  1.00  0.00     0.010 A 
ATOM     13  C   UNL A   1      43.775  24.282  26.522  1.00  0.00    -0.014 A 
BRANCH  13  14
ATOM     14  C   UNL A   1      43.501  25.539  27.189  1.00  0.00     0.031 A 
ATOM     15  C   UNL A   1      44.481  26.577  26.833  1.00  0.00     0.074 A 
ATOM     16  C   UNL A   1      42.392  25.772  27.929  1.00  0.00     0.049 A 
ATOM     17  N   UNL A   1      45.463  26.976  27.564  1.00  0.00    -0.248 NA
ATOM     18  C   UNL A   1      44.527  27.051  25.442  1.00  0.00     0.031 C 
ATOM     19  C   UNL A   1      41.202  24.928  28.118  1.00  0.00     0.029 A 
ATOM     20  N   UNL A   1      42.073  26.882  28.649  1.00  0.00    -0.354 N 
ATOM     21  C   UNL A   1      46.123  27.929  26.808  1.00  0.00     0.074 A 
ATOM     22  C   UNL A   1      45.649  27.774  25.458  1.00  0.00     0.031 C 
ATOM     23  C   UNL A   1      40.220  25.637  28.719  1.00  0.00     0.029 A 
ATOM     24  C   UNL A   1      40.761  26.920  29.121  1.00  0.00     0.049 A 
ATOM     25  H   UNL A   1      42.719  27.604  28.823  1.00  0.00     0.167 HD
ATOM     26  C   UNL A   1      46.774  28.945  27.434  1.00  0.00     0.037 A 
ATOM     27  C   UNL A   1      40.184  27.943  29.800  1.00  0.00     0.037 A 
ATOM     28  C   UNL A   1      46.974  28.629  28.831  1.00  0.00     0.049 A 
ATOM     29  C   UNL A   1      41.293  28.733  30.385  1.00  0.00     0.074 A 
ATOM     30  C   UNL A   1      47.678  27.668  29.525  1.00  0.00     0.029 A 
ATOM     31  N   UNL A   1      46.025  29.113  29.697  1.00  0.00    -0.354 N 
ATOM     32  N   UNL A   1      42.081  28.290  31.325  1.00  0.00    -0.248 NA
ATOM     33  C   UNL A   1      41.803  29.856  29.615  1.00  0.00     0.031 C 
ATOM     34  C   UNL A   1      46.866  27.340  30.652  1.00  0.00     0.029 A 
ATOM     35  C   UNL A   1      45.738  28.163  30.641  1.00  0.00     0.049 A 
ATOM     36  H   UNL A   1      45.613  30.006  29.647  1.00  0.00     0.167 HD
ATOM     37  C   UNL A   1      43.336  28.771  30.984  1.00  0.00     0.074 A 
ATOM     38  C   UNL A   1      43.082  29.820  29.998  1.00  0.00     0.031 C 
ATOM     39  C   UNL A   1      44.458  28.066  31.313  1.00  0.00     0.037 A 
BRANCH  26  40
ATOM     40  C   UNL A   1      46.805  30.364  26.920  1.00  0.00     0.064 A 
ATOM     41  C   UNL A   1      48.024  31.071  26.963  1.00  0.00     0.173 A 
ATOM     42  C   UNL A   1      45.658  31.151  26.672  1.00  0.00     0.173 A 
ATOM     43  F   UNL A   1      49.174  30.432  27.220  1.00  0.00    -0.203 F 
ATOM     44  C   UNL A   1      48.075  32.462  26.842  1.00  0.00     0.198 A 
ATOM     45  C   UNL A   1      45.721  32.531  26.498  1.00  0.00     0.198 A 
ATOM     46  F   UNL A   1      44.419  30.649  26.703  1.00  0.00    -0.203 F 
ATOM     47  F   UNL A   1      49.239  33.101  27.017  1.00  0.00    -0.200 F 
ATOM     48  C   UNL A   1      46.923  33.191  26.612  1.00  0.00     0.200 A 
ATOM     49  F   UNL A   1      44.587  33.221  26.305  1.00  0.00    -0.200 F 
ATOM     50  F   UNL A   1      46.962  34.528  26.554  1.00  0.00    -0.200 F 
ENDBRANCH  26  40
BRANCH  27  51
ATOM     51  C   UNL A   1      38.805  28.489  29.701  1.00  0.00     0.064 A 
ATOM     52  C   UNL A   1      38.044  28.726  30.862  1.00  0.00     0.173 A 
ATOM     53  C   UNL A   1      38.340  29.094  28.519  1.00  0.00     0.173 A 
ATOM     54  F   UNL A   1      38.432  28.214  32.040  1.00  0.00    -0.203 F 
ATOM     55  C   UNL A   1      36.926  29.567  30.852  1.00  0.00     0.198 A 
ATOM     56  C   UNL A   1      37.220  29.930  28.510  1.00  0.00     0.198 A 
ATOM     57  F   UNL A   1      39.023  28.972  27.372  1.00  0.00    -0.203 F 
ATOM     58  F   UNL A   1      36.279  29.835  31.996  1.00  0.00    -0.200 F 
ATOM     59  C   UNL A   1      36.525  30.183  29.679  1.00  0.00     0.200 A 
ATOM     60  F   UNL A   1      36.863  30.549  27.375  1.00  0.00    -0.200 F 
ATOM     61  F   UNL A   1      35.504  31.051  29.682  1.00  0.00    -0.200 F 
ENDBRANCH  27  51
BRANCH  39  62
ATOM     62  C   UNL A   1      44.312  26.968  32.335  1.00  0.00     0.064 A 
ATOM     63  C   UNL A   1      44.185  25.601  32.030  1.00  0.00     0.173 A 
ATOM     64  C   UNL A   1      44.447  27.314  33.687  1.00  0.00     0.173 A 
ATOM     65  F   UNL A   1      44.126  25.178  30.762  1.00  0.00    -0.203 F 
ATOM     66  C   UNL A   1      44.171  24.633  33.036  1.00  0.00     0.198 A 
ATOM     67  C   UNL A   1      44.470  26.344  34.685  1.00  0.00     0.198 A 
ATOM     68  F   UNL A   1      44.611  28.599  34.036  1.00  0.00    -0.203 F 
ATOM     69  F   UNL A   1      44.043  23.335  32.721  1.00  0.00    -0.200 F 
ATOM     70  C   UNL A   1      44.327  25.005  34.361  1.00  0.00     0.200 A 
ATOM     71  F   UNL A   1      44.664  26.707  35.960  1.00  0.00    -0.200 F 
ATOM     72  F   UNL A   1      44.362  24.073  35.324  1.00  0.00    -0.200 F 
ENDBRANCH  39  62
ENDBRANCH  13  14
ENDBRANCH   6   8
ENDBRANCH   3   4
ENDBRANCH   2   3
ENDBRANCH   1   2
BRANCH   1  73
ATOM     73  C   UNL A   1      40.287  21.723  27.042  1.00  0.00     0.002 C 
BRANCH  73  74
ATOM     74  C   UNL A   1      39.315  21.755  25.862  1.00  0.00     0.021 C 
BRANCH  74  75
ATOM     75  C   UNL A   1      38.116  22.674  26.081  1.00  0.00     0.116 C 
BRANCH  75  76
ATOM     76  N   UNL A   1      36.881  21.948  26.258  1.00  0.00    -0.356 N 
ATOM     77  C   UNL A   1      35.591  22.160  25.924  1.00  0.00     0.224 C 
ATOM     78  H   UNL A   1      37.011  21.097  26.737  1.00  0.00     0.163 HD
ATOM     79  O   UNL A   1      34.841  21.198  26.154  1.00  0.00    -0.275 OA
BRANCH  77  80
ATOM     80  C   UNL A   1      34.969  23.446  25.366  1.00  0.00     0.095 C 
ATOM     81  C   UNL A   1      35.324  23.523  23.868  1.00  0.00     0.041 C 
ATOM     82  C   UNL A   1      33.503  23.792  25.660  1.00  0.00     0.092 C 
ATOM     83  C   UNL A   1      34.289  22.924  22.970  1.00  0.00    -0.030 C 
ATOM     84  C   UNL A   1      32.473  23.191  24.661  1.00  0.00     0.041 C 
ATOM     85  C   UNL A   1      33.014  22.762  23.334  1.00  0.00    -0.030 C 
BRANCH  82  86
ATOM     86  C   UNL A   1      33.205  25.262  25.725  1.00  0.00     0.199 A 
ATOM     87  N   UNL A   1      34.080  26.222  25.483  1.00  0.00    -0.213 NA
ATOM     88  O   UNL A   1      32.033  25.679  26.292  1.00  0.00    -0.440 OA
ATOM     89  C   UNL A   1      33.505  27.327  26.044  1.00  0.00     0.111 A 
ATOM     90  C   UNL A   1      32.241  27.009  26.513  1.00  0.00     0.154 A 
ATOM     91  C   UNL A   1      34.014  28.613  26.241  1.00  0.00     0.053 A 
ATOM     92  C   UNL A   1      31.390  27.900  27.152  1.00  0.00     0.051 A 
ATOM     93  C   UNL A   1      33.203  29.525  26.923  1.00  0.00     0.043 A 
ATOM     94  C   UNL A   1      31.914  29.184  27.359  1.00  0.00     0.024 A 
ATOM     95  Cl  UNL A   1      33.820  31.098  27.260  1.00  0.00    -0.084 Cl
ENDBRANCH  82  86
ENDBRANCH  77  80
ENDBRANCH  75  76
ENDBRANCH  74  75
ENDBRANCH  73  74
ENDBRANCH   1  73
TORSDOF 14
ENDMDL
MODEL 2
REMARK VINA RESULT:     -12.5      2.483      3.837
REMARK SMILES O=C(NCCCCCCNC(=O)[C@H]1CC=CC[C@@H]1c1nc2cc(Cl)ccc2o1)c1ccc(-c2c3nc(c(-c4c(F)c(F)c(F)c(F)c4F)c4ccc([nH]4)c(-c4c(F)c(F)c(F)c(F)c4F)c4nc(c(-c5c(F)c(F)c(F)c(F)c5F)c5ccc2[nH]5)C=C4)C=C3)cc1
REMARK SMILES IDX 6 1 5 2 4 3 3 4 1 5 2 6 29 8 30 9 91 10 31 11 90 12 32 13
REMARK SMILES IDX 33 14 34 15 84 16 35 17 89 18 83 19 85 20 36 21 88 22 82 23
REMARK SMILES IDX 81 24 37 26 69 27 49 28 68 29 50 30 53 31 67 32 86 33 51 34
REMARK SMILES IDX 52 35 66 37 87 38 54 39 38 40 39 41 47 42 40 43 41 44 45 45
REMARK SMILES IDX 48 46 42 47 43 48 46 49 44 50 70 51 71 52 79 53 72 54 73 55
REMARK SMILES IDX 77 56 80 57 74 58 75 59 78 60 76 61 55 62 56 63 64 64 57 65
REMARK SMILES IDX 58 66 62 67 65 68 59 69 60 70 63 71 61 72 7 73 8 74 9 75
REMARK SMILES IDX 10 76 11 77 12 79 13 80 14 81 18 82 15 83 17 84 16 85 19 86
REMARK SMILES IDX 20 87 28 88 21 89 27 90 22 91 26 92 23 93 25 94 24 95
REMARK H PARENT 3 7 85 25 53 36 10 78
REMARK Flexibility Score: inf
ROOT
ATOM      1  C   UNL A   1      40.532  20.103  26.518  1.00  0.00     0.002 C 
ENDROOT
BRANCH   1   2
ATOM      2  C   UNL A   1      41.748  19.522  25.777  1.00  0.00     0.021 C 
BRANCH   2   3
ATOM      3  C   UNL A   1      43.026  19.583  26.592  1.00  0.00     0.116 C 
BRANCH   3   4
ATOM      4  N   UNL A   1      44.215  19.711  25.742  1.00  0.00    -0.352 N 
ATOM      5  O   UNL A   1      45.489  20.695  24.142  1.00  0.00    -0.269 OA
ATOM      6  C   UNL A   1      44.714  20.817  25.076  1.00  0.00     0.251 C 
ATOM      7  H   UNL A   1      44.738  18.885  25.628  1.00  0.00     0.163 HD
BRANCH   6   8
ATOM      8  C   UNL A   1      44.301  22.153  25.531  1.00  0.00     0.039 A 
ATOM      9  C   UNL A   1      43.302  22.894  24.900  1.00  0.00     0.014 A 
ATOM     10  C   UNL A   1      44.951  22.660  26.647  1.00  0.00     0.014 A 
ATOM     11  C   UNL A   1      42.996  24.145  25.424  1.00  0.00     0.010 A 
ATOM     12  C   UNL A   1      44.393  23.679  27.349  1.00  0.00     0.010 A 
ATOM     13  C   UNL A   1      43.568  24.527  26.651  1.00  0.00    -0.014 A 
BRANCH  13  14
ATOM     14  C   UNL A   1      43.295  25.803  27.284  1.00  0.00     0.031 A 
ATOM     15  C   UNL A   1      44.270  26.832  26.893  1.00  0.00     0.074 A 
ATOM     16  C   UNL A   1      42.190  26.054  28.025  1.00  0.00     0.049 A 
ATOM     17  N   UNL A   1      45.257  27.253  27.605  1.00  0.00    -0.248 NA
ATOM     18  C   UNL A   1      44.306  27.266  25.489  1.00  0.00     0.031 C 
ATOM     19  C   UNL A   1      41.004  25.212  28.245  1.00  0.00     0.029 A 
ATOM     20  N   UNL A   1      41.874  27.183  28.716  1.00  0.00    -0.354 N 
ATOM     21  C   UNL A   1      45.910  28.187  26.819  1.00  0.00     0.074 A 
ATOM     22  C   UNL A   1      45.427  27.993  25.477  1.00  0.00     0.031 C 
ATOM     23  C   UNL A   1      40.024  25.936  28.833  1.00  0.00     0.029 A 
ATOM     24  C   UNL A   1      40.565  27.231  29.195  1.00  0.00     0.049 A 
ATOM     25  H   UNL A   1      42.519  27.911  28.865  1.00  0.00     0.167 HD
ATOM     26  C   UNL A   1      46.562  29.221  27.412  1.00  0.00     0.037 A 
ATOM     27  C   UNL A   1      39.990  28.272  29.850  1.00  0.00     0.037 A 
ATOM     28  C   UNL A   1      46.772  28.945  28.815  1.00  0.00     0.049 A 
ATOM     29  C   UNL A   1      41.101  29.080  30.404  1.00  0.00     0.074 A 
ATOM     30  C   UNL A   1      47.483  28.005  29.531  1.00  0.00     0.029 A 
ATOM     31  N   UNL A   1      45.827  29.451  29.674  1.00  0.00    -0.354 N 
ATOM     32  N   UNL A   1      41.897  28.665  31.351  1.00  0.00    -0.248 NA
ATOM     33  C   UNL A   1      41.604  30.182  29.600  1.00  0.00     0.031 C 
ATOM     34  C   UNL A   1      46.679  27.707  30.673  1.00  0.00     0.029 A 
ATOM     35  C   UNL A   1      45.549  28.527  30.647  1.00  0.00     0.049 A 
ATOM     36  H   UNL A   1      45.413  30.341  29.602  1.00  0.00     0.167 HD
ATOM     37  C   UNL A   1      43.148  29.139  30.988  1.00  0.00     0.074 A 
ATOM     38  C   UNL A   1      42.885  30.160  29.975  1.00  0.00     0.031 C 
ATOM     39  C   UNL A   1      44.274  28.446  31.330  1.00  0.00     0.037 A 
BRANCH  26  40
ATOM     40  C   UNL A   1      46.586  30.625  26.858  1.00  0.00     0.064 A 
ATOM     41  C   UNL A   1      47.809  31.326  26.850  1.00  0.00     0.173 A 
ATOM     42  C   UNL A   1      45.436  31.411  26.618  1.00  0.00     0.173 A 
ATOM     43  F   UNL A   1      48.963  30.688  27.094  1.00  0.00    -0.203 F 
ATOM     44  C   UNL A   1      47.864  32.713  26.689  1.00  0.00     0.198 A 
ATOM     45  C   UNL A   1      45.501  32.786  26.405  1.00  0.00     0.198 A 
ATOM     46  F   UNL A   1      44.196  30.917  26.696  1.00  0.00    -0.203 F 
ATOM     47  F   UNL A   1      49.035  33.350  26.816  1.00  0.00    -0.200 F 
ATOM     48  C   UNL A   1      46.710  33.442  26.469  1.00  0.00     0.200 A 
ATOM     49  F   UNL A   1      44.366  33.476  26.223  1.00  0.00    -0.200 F 
ATOM     50  F   UNL A   1      46.753  34.776  26.373  1.00  0.00    -0.200 F 
ENDBRANCH  26  40
BRANCH  27  51
ATOM     51  C   UNL A   1      38.609  28.811  29.745  1.00  0.00     0.064 A 
ATOM     52  C   UNL A   1      37.853  29.074  30.904  1.00  0.00     0.173 A 
ATOM     53  C   UNL A   1      38.137  29.388  28.551  1.00  0.00     0.173 A 
ATOM     54  F   UNL A   1      38.249  28.590  32.090  1.00  0.00    -0.203 F 
ATOM     55  C   UNL A   1      36.732  29.911  30.879  1.00  0.00     0.198 A 
ATOM     56  C   UNL A   1      37.015  30.221  28.527  1.00  0.00     0.198 A 
ATOM     57  F   UNL A   1      38.815  29.240  27.404  1.00  0.00    -0.203 F 
ATOM     58  F   UNL A   1      36.090  30.204  32.019  1.00  0.00    -0.200 F 
ATOM     59  C   UNL A   1      36.325  30.499  29.694  1.00  0.00     0.200 A 
ATOM     60  F   UNL A   1      36.651  30.812  27.381  1.00  0.00    -0.200 F 
ATOM     61  F   UNL A   1      35.302  31.364  29.682  1.00  0.00    -0.200 F 
ENDBRANCH  27  51
BRANCH  39  62
ATOM     62  C   UNL A   1      44.137  27.377  32.383  1.00  0.00     0.064 A 
ATOM     63  C   UNL A   1      44.039  25.999  32.118  1.00  0.00     0.173 A 
ATOM     64  C   UNL A   1      44.251  27.766  33.724  1.00  0.00     0.173 A 
ATOM     65  F   UNL A   1      44.001  25.537  30.863  1.00  0.00    -0.203 F 
ATOM     66  C   UNL A   1      44.032  25.062  33.153  1.00  0.00     0.198 A 
ATOM     67  C   UNL A   1      44.282  26.827  34.752  1.00  0.00     0.198 A 
ATOM     68  F   UNL A   1      44.388  29.064  34.036  1.00  0.00    -0.203 F 
ATOM     69  F   UNL A   1      43.931  23.753  32.876  1.00  0.00    -0.200 F 
ATOM     70  C   UNL A   1      44.166  25.477  34.467  1.00  0.00     0.200 A 
ATOM     71  F   UNL A   1      44.455  27.232  36.017  1.00  0.00    -0.200 F 
ATOM     72  F   UNL A   1      44.208  24.575  35.459  1.00  0.00    -0.200 F 
ENDBRANCH  39  62
ENDBRANCH  13  14
ENDBRANCH   6   8
ENDBRANCH   3   4
ENDBRANCH   2   3
ENDBRANCH   1   2
BRANCH   1  73
ATOM     73  C   UNL A   1      40.726  21.462  27.215  1.00  0.00     0.002 C 
BRANCH  73  74
ATOM     74  C   UNL A   1      39.767  22.572  26.779  1.00  0.00     0.021 C 
BRANCH  74  75
ATOM     75  C   UNL A   1      38.605  22.074  25.923  1.00  0.00     0.116 C 
BRANCH  75  76
ATOM     76  N   UNL A   1      37.584  23.077  25.731  1.00  0.00    -0.356 N 
ATOM     77  C   UNL A   1      36.237  23.093  25.793  1.00  0.00     0.224 C 
ATOM     78  H   UNL A   1      37.962  23.957  25.499  1.00  0.00     0.163 HD
ATOM     79  O   UNL A   1      35.736  24.223  25.684  1.00  0.00    -0.275 OA
BRANCH  77  80
ATOM     80  C   UNL A   1      35.292  21.891  25.916  1.00  0.00     0.095 C 
ATOM     81  C   UNL A   1      34.669  21.931  27.326  1.00  0.00     0.041 C 
ATOM     82  C   UNL A   1      34.271  21.588  24.810  1.00  0.00     0.092 C 
ATOM     83  C   UNL A   1      33.362  22.654  27.388  1.00  0.00    -0.030 C 
ATOM     84  C   UNL A   1      32.907  22.321  24.956  1.00  0.00     0.041 C 
ATOM     85  C   UNL A   1      32.580  22.841  26.321  1.00  0.00    -0.030 C 
BRANCH  82  86
ATOM     86  C   UNL A   1      33.941  20.132  24.642  1.00  0.00     0.199 A 
ATOM     87  N   UNL A   1      32.760  19.592  24.885  1.00  0.00    -0.213 NA
ATOM     88  O   UNL A   1      34.957  19.237  24.453  1.00  0.00    -0.440 OA
ATOM     89  C   UNL A   1      33.035  18.258  24.992  1.00  0.00     0.111 A 
ATOM     90  C   UNL A   1      34.370  18.031  24.700  1.00  0.00     0.154 A 
ATOM     91  C   UNL A   1      32.221  17.193  25.386  1.00  0.00     0.053 A 
ATOM     92  C   UNL A   1      34.982  16.785  24.728  1.00  0.00     0.051 A 
ATOM     93  C   UNL A   1      32.815  15.931  25.471  1.00  0.00     0.043 A 
ATOM     94  C   UNL A   1      34.162  15.725  25.138  1.00  0.00     0.024 A 
ATOM     95  Cl  UNL A   1      31.871  14.602  26.030  1.00  0.00    -0.084 Cl
ENDBRANCH  82  86
ENDBRANCH  77  80
ENDBRANCH  75  76
ENDBRANCH  74  75
ENDBRANCH  73  74
ENDBRANCH   1  73
TORSDOF 14
ENDMDL
MODEL 3
REMARK VINA RESULT:     -12.4      2.622      3.916
REMARK SMILES O=C(NCCCCCCNC(=O)[C@H]1CC=CC[C@@H]1c1nc2cc(Cl)ccc2o1)c1ccc(-c2c3nc(c(-c4c(F)c(F)c(F)c(F)c4F)c4ccc([nH]4)c(-c4c(F)c(F)c(F)c(F)c4F)c4nc(c(-c5c(F)c(F)c(F)c(F)c5F)c5ccc2[nH]5)C=C4)C=C3)cc1
REMARK SMILES IDX 6 1 5 2 4 3 3 4 1 5 2 6 29 8 30 9 91 10 31 11 90 12 32 13
REMARK SMILES IDX 33 14 34 15 84 16 35 17 89 18 83 19 85 20 36 21 88 22 82 23
REMARK SMILES IDX 81 24 37 26 69 27 49 28 68 29 50 30 53 31 67 32 86 33 51 34
REMARK SMILES IDX 52 35 66 37 87 38 54 39 38 40 39 41 47 42 40 43 41 44 45 45
REMARK SMILES IDX 48 46 42 47 43 48 46 49 44 50 70 51 71 52 79 53 72 54 73 55
REMARK SMILES IDX 77 56 80 57 74 58 75 59 78 60 76 61 55 62 56 63 64 64 57 65
REMARK SMILES IDX 58 66 62 67 65 68 59 69 60 70 63 71 61 72 7 73 8 74 9 75
REMARK SMILES IDX 10 76 11 77 12 79 13 80 14 81 18 82 15 83 17 84 16 85 19 86
REMARK SMILES IDX 20 87 28 88 21 89 27 90 22 91 26 92 23 93 25 94 24 95
REMARK H PARENT 3 7 85 25 53 36 10 78
REMARK Flexibility Score: inf
ROOT
ATOM      1  C   UNL A   1      35.877  22.321  24.813  1.00  0.00     0.002 C 
ENDROOT
BRANCH   1   2
ATOM      2  C   UNL A   1      37.318  21.795  24.918  1.00  0.00     0.021 C 
BRANCH   2   3
ATOM      3  C   UNL A   1      38.249  22.752  25.637  1.00  0.00     0.116 C 
BRANCH   3   4
ATOM      4  N   UNL A   1      39.238  22.044  26.459  1.00  0.00    -0.352 N 
ATOM      5  O   UNL A   1      41.234  21.815  27.513  1.00  0.00    -0.269 OA
ATOM      6  C   UNL A   1      40.311  22.539  27.177  1.00  0.00     0.251 C 
ATOM      7  H   UNL A   1      39.119  21.067  26.506  1.00  0.00     0.163 HD
BRANCH   6   8
ATOM      8  C   UNL A   1      40.309  23.962  27.547  1.00  0.00     0.039 A 
ATOM      9  C   UNL A   1      39.201  24.790  27.368  1.00  0.00     0.014 A 
ATOM     10  C   UNL A   1      41.476  24.464  28.105  1.00  0.00     0.014 A 
ATOM     11  C   UNL A   1      39.318  26.120  27.759  1.00  0.00     0.010 A 
ATOM     12  C   UNL A   1      41.445  25.624  28.809  1.00  0.00     0.010 A 
ATOM     13  C   UNL A   1      40.463  26.522  28.471  1.00  0.00    -0.014 A 
BRANCH  13  14
ATOM     14  C   UNL A   1      40.664  27.881  28.935  1.00  0.00     0.031 A 
ATOM     15  C   UNL A   1      41.849  28.502  28.324  1.00  0.00     0.074 A 
ATOM     16  C   UNL A   1      39.785  28.546  29.719  1.00  0.00     0.049 A 
ATOM     17  N   UNL A   1      42.995  28.669  28.886  1.00  0.00    -0.248 NA
ATOM     18  C   UNL A   1      41.844  28.745  26.873  1.00  0.00     0.031 C 
ATOM     19  C   UNL A   1      38.436  28.149  30.152  1.00  0.00     0.029 A 
ATOM     20  N   UNL A   1      39.908  29.787  30.265  1.00  0.00    -0.354 N 
ATOM     21  C   UNL A   1      43.798  29.257  27.924  1.00  0.00     0.074 A 
ATOM     22  C   UNL A   1      43.121  29.077  26.667  1.00  0.00     0.031 C 
ATOM     23  C   UNL A   1      37.798  29.204  30.708  1.00  0.00     0.029 A 
ATOM     24  C   UNL A   1      38.743  30.296  30.837  1.00  0.00     0.049 A 
ATOM     25  H   UNL A   1      40.755  30.287  30.256  1.00  0.00     0.167 HD
ATOM     26  C   UNL A   1      44.798  30.093  28.309  1.00  0.00     0.037 A 
ATOM     27  C   UNL A   1      38.590  31.530  31.380  1.00  0.00     0.037 A 
ATOM     28  C   UNL A   1      45.083  29.922  29.716  1.00  0.00     0.049 A 
ATOM     29  C   UNL A   1      39.951  32.005  31.722  1.00  0.00     0.074 A 
ATOM     30  C   UNL A   1      45.560  28.892  30.499  1.00  0.00     0.029 A 
ATOM     31  N   UNL A   1      44.446  30.791  30.567  1.00  0.00    -0.354 N 
ATOM     32  N   UNL A   1      40.694  31.469  32.651  1.00  0.00    -0.248 NA
ATOM     33  C   UNL A   1      40.661  32.798  30.731  1.00  0.00     0.031 C 
ATOM     34  C   UNL A   1      44.848  28.990  31.733  1.00  0.00     0.029 A 
ATOM     35  C   UNL A   1      44.022  30.115  31.681  1.00  0.00     0.049 A 
ATOM     36  H   UNL A   1      44.313  31.752  30.403  1.00  0.00     0.167 HD
ATOM     37  C   UNL A   1      41.976  31.483  32.124  1.00  0.00     0.074 A 
ATOM     38  C   UNL A   1      41.912  32.416  31.000  1.00  0.00     0.031 C 
ATOM     39  C   UNL A   1      42.875  30.514  32.469  1.00  0.00     0.037 A 
BRANCH  26  40
ATOM     40  C   UNL A   1      45.176  31.348  27.560  1.00  0.00     0.064 A 
ATOM     41  C   UNL A   1      46.486  31.461  27.051  1.00  0.00     0.173 A 
ATOM     42  C   UNL A   1      44.429  32.547  27.579  1.00  0.00     0.173 A 
ATOM     43  F   UNL A   1      47.297  30.394  27.012  1.00  0.00    -0.203 F 
ATOM     44  C   UNL A   1      47.023  32.691  26.662  1.00  0.00     0.198 A 
ATOM     45  C   UNL A   1      44.951  33.761  27.140  1.00  0.00     0.198 A 
ATOM     46  F   UNL A   1      43.211  32.629  28.126  1.00  0.00    -0.203 F 
ATOM     47  F   UNL A   1      48.311  32.769  26.305  1.00  0.00    -0.200 F 
ATOM     48  C   UNL A   1      46.256  33.840  26.709  1.00  0.00     0.200 A 
ATOM     49  F   UNL A   1      44.198  34.868  27.222  1.00  0.00    -0.200 F 
ATOM     50  F   UNL A   1      46.786  35.028  26.393  1.00  0.00    -0.200 F 
ENDBRANCH  26  40
BRANCH  27  51
ATOM     51  C   UNL A   1      37.433  32.461  31.311  1.00  0.00     0.064 A 
ATOM     52  C   UNL A   1      37.190  33.216  30.147  1.00  0.00     0.173 A 
ATOM     53  C   UNL A   1      36.373  32.380  32.232  1.00  0.00     0.173 A 
ATOM     54  F   UNL A   1      38.135  33.319  29.201  1.00  0.00    -0.203 F 
ATOM     55  C   UNL A   1      35.945  33.799  29.893  1.00  0.00     0.198 A 
ATOM     56  C   UNL A   1      35.130  32.966  31.978  1.00  0.00     0.198 A 
ATOM     57  F   UNL A   1      36.486  31.642  33.345  1.00  0.00    -0.203 F 
ATOM     58  F   UNL A   1      35.728  34.437  28.734  1.00  0.00    -0.200 F 
ATOM     59  C   UNL A   1      34.909  33.658  30.801  1.00  0.00     0.200 A 
ATOM     60  F   UNL A   1      34.124  32.794  32.848  1.00  0.00    -0.200 F 
ATOM     61  F   UNL A   1      33.692  34.146  30.523  1.00  0.00    -0.200 F 
ENDBRANCH  27  51
BRANCH  39  62
ATOM     62  C   UNL A   1      42.551  29.665  33.672  1.00  0.00     0.064 A 
ATOM     63  C   UNL A   1      41.912  28.414  33.620  1.00  0.00     0.173 A 
ATOM     64  C   UNL A   1      43.039  30.086  34.916  1.00  0.00     0.173 A 
ATOM     65  F   UNL A   1      41.482  27.903  32.461  1.00  0.00    -0.203 F 
ATOM     66  C   UNL A   1      41.752  27.635  34.769  1.00  0.00     0.198 A 
ATOM     67  C   UNL A   1      42.912  29.291  36.052  1.00  0.00     0.198 A 
ATOM     68  F   UNL A   1      43.693  31.253  35.019  1.00  0.00    -0.203 F 
ATOM     69  F   UNL A   1      41.133  26.447  34.697  1.00  0.00    -0.200 F 
ATOM     70  C   UNL A   1      42.263  28.070  35.980  1.00  0.00     0.200 A 
ATOM     71  F   UNL A   1      43.447  29.698  37.211  1.00  0.00    -0.200 F 
ATOM     72  F   UNL A   1      42.153  27.302  37.074  1.00  0.00    -0.200 F 
ENDBRANCH  39  62
ENDBRANCH  13  14
ENDBRANCH   6   8
ENDBRANCH   3   4
ENDBRANCH   2   3
ENDBRANCH   1   2
BRANCH   1  73
ATOM     73  C   UNL A   1      35.190  22.736  26.127  1.00  0.00     0.002 C 
BRANCH  73  74
ATOM     74  C   UNL A   1      34.341  21.656  26.799  1.00  0.00     0.021 C 
BRANCH  74  75
ATOM     75  C   UNL A   1      33.381  22.202  27.855  1.00  0.00     0.116 C 
BRANCH  75  76
ATOM     76  N   UNL A   1      32.021  22.289  27.381  1.00  0.00    -0.356 N 
ATOM     77  C   UNL A   1      31.353  23.101  26.536  1.00  0.00     0.224 C 
ATOM     78  H   UNL A   1      31.444  21.590  27.767  1.00  0.00     0.163 HD
ATOM     79  O   UNL A   1      30.189  22.741  26.297  1.00  0.00    -0.275 OA
BRANCH  77  80
ATOM     80  C   UNL A   1      31.849  24.411  25.911  1.00  0.00     0.095 C 
ATOM     81  C   UNL A   1      32.114  24.144  24.416  1.00  0.00     0.041 C 
ATOM     82  C   UNL A   1      31.101  25.727  26.168  1.00  0.00     0.092 C 
ATOM     83  C   UNL A   1      30.947  24.449  23.532  1.00  0.00    -0.030 C 
ATOM     84  C   UNL A   1      29.934  26.023  25.183  1.00  0.00     0.041 C 
ATOM     85  C   UNL A   1      29.963  25.280  23.884  1.00  0.00    -0.030 C 
BRANCH  82  86
ATOM     86  C   UNL A   1      31.967  26.953  26.162  1.00  0.00     0.199 A 
ATOM     87  N   UNL A   1      33.287  26.947  26.232  1.00  0.00    -0.213 NA
ATOM     88  O   UNL A   1      31.386  28.179  26.333  1.00  0.00    -0.440 OA
ATOM     89  C   UNL A   1      33.593  28.227  26.601  1.00  0.00     0.111 A 
ATOM     90  C   UNL A   1      32.439  28.992  26.634  1.00  0.00     0.154 A 
ATOM     91  C   UNL A   1      34.813  28.795  26.975  1.00  0.00     0.053 A 
ATOM     92  C   UNL A   1      32.394  30.335  26.984  1.00  0.00     0.051 A 
ATOM     93  C   UNL A   1      34.799  30.133  27.378  1.00  0.00     0.043 A 
ATOM     94  C   UNL A   1      33.620  30.893  27.372  1.00  0.00     0.024 A 
ATOM     95  Cl  UNL A   1      36.265  30.854  27.925  1.00  0.00    -0.084 Cl
ENDBRANCH  82  86
ENDBRANCH  77  80
ENDBRANCH  75  76
ENDBRANCH  74  75
ENDBRANCH  73  74
ENDBRANCH   1  73
TORSDOF 14
ENDMDL
