MODEL 1
REMARK VINA RESULT:     -12.8      0.000      0.000
REMARK SMILES O=C(COc1ccc2c(=O)c(-c3ccc4c(c3)OCCO4)coc2c1)NCCCCCCNC(=O)c1ccc(-c2c3nc(c(-c4c(F)c(F)c(F)c(F)c4F)c4ccc([nH]4)c(-c4c(F)c(F)c(F)c(F)c4F)c4nc(c(-c5c(F)c(F)c(F)c(F)c5F)c5ccc2[nH]5)C=C4)C=C3)cc1
REMARK SMILES IDX 29 1 28 2 27 3 26 4 1 5 2 6 3 8 4 9 5 10 6 11 25 12 7 13
REMARK SMILES IDX 24 14 8 15 23 16 9 17 22 18 10 19 11 20 12 21 13 22 17 23
REMARK SMILES IDX 14 24 16 25 15 26 18 27 21 28 19 29 20 30 30 31 31 32 32 33
REMARK SMILES IDX 33 34 34 35 35 37 36 38 37 39 98 40 38 41 97 42 39 43 40 44
REMARK SMILES IDX 41 45 91 46 42 47 96 48 90 49 92 50 43 51 95 52 89 53 88 54
REMARK SMILES IDX 44 56 76 57 56 58 75 59 57 60 60 61 74 62 93 63 58 64 59 65
REMARK SMILES IDX 73 67 94 68 61 69 45 70 46 71 54 72 47 73 48 74 52 75 55 76
REMARK SMILES IDX 49 77 50 78 53 79 51 80 77 81 78 82 86 83 79 84 80 85 84 86
REMARK SMILES IDX 87 87 81 88 82 89 85 90 83 91 62 92 63 93 71 94 64 95 65 96
REMARK SMILES IDX 69 97 72 98 66 99 67 100 70 101 68 102
REMARK H PARENT 26 7 33 36 92 55 60 66
REMARK Flexibility Score: inf
ROOT
ATOM      1  C   UNL A   1      34.180  25.147  26.117  1.00  0.00     0.002 C 
ENDROOT
BRANCH   1   2
ATOM      2  C   UNL A   1      35.211  24.293  25.370  1.00  0.00     0.021 C 
BRANCH   2   3
ATOM      3  C   UNL A   1      35.604  23.007  26.087  1.00  0.00     0.116 C 
BRANCH   3   4
ATOM      4  N   UNL A   1      34.909  21.852  25.563  1.00  0.00    -0.353 N 
ATOM      5  O   UNL A   1      33.808  21.292  27.502  1.00  0.00    -0.271 OA
ATOM      6  C   UNL A   1      34.003  21.122  26.303  1.00  0.00     0.257 C 
ATOM      7  H   UNL A   1      35.091  21.575  24.636  1.00  0.00     0.163 HD
BRANCH   6   8
ATOM      8  C   UNL A   1      33.254  20.064  25.489  1.00  0.00     0.329 C 
BRANCH   8   9
ATOM      9  O   UNL A   1      31.908  20.411  25.147  1.00  0.00    -0.484 OA
BRANCH   9  10
ATOM     10  C   UNL A   1      31.792  21.699  24.694  1.00  0.00     0.123 A 
ATOM     11  C   UNL A   1      32.190  22.060  23.405  1.00  0.00     0.047 A 
ATOM     12  C   UNL A   1      31.165  22.630  25.523  1.00  0.00     0.094 A 
ATOM     13  C   UNL A   1      32.000  23.363  22.954  1.00  0.00     0.020 A 
ATOM     14  C   UNL A   1      30.972  23.936  25.068  1.00  0.00     0.141 A 
ATOM     15  C   UNL A   1      31.391  24.298  23.791  1.00  0.00     0.066 A 
ATOM     16  O   UNL A   1      30.357  24.821  25.918  1.00  0.00    -0.463 OA
ATOM     17  C   UNL A   1      31.167  25.671  23.316  1.00  0.00     0.200 A 
ATOM     18  C   UNL A   1      30.127  26.096  25.454  1.00  0.00     0.208 A 
ATOM     19  O   UNL A   1      31.540  26.015  22.200  1.00  0.00    -0.288 OA
ATOM     20  C   UNL A   1      30.470  26.590  24.253  1.00  0.00     0.065 A 
BRANCH  20  21
ATOM     21  C   UNL A   1      30.127  27.968  23.868  1.00  0.00    -0.007 A 
ATOM     22  C   UNL A   1      30.703  29.067  24.522  1.00  0.00     0.013 A 
ATOM     23  C   UNL A   1      29.224  28.195  22.819  1.00  0.00     0.059 A 
ATOM     24  C   UNL A   1      30.367  30.371  24.146  1.00  0.00     0.051 A 
ATOM     25  C   UNL A   1      28.897  29.496  22.440  1.00  0.00     0.161 A 
ATOM     26  C   UNL A   1      29.450  30.585  23.119  1.00  0.00     0.161 A 
ATOM     27  O   UNL A   1      28.013  29.629  21.398  1.00  0.00    -0.486 OA
ATOM     28  O   UNL A   1      29.144  31.888  22.825  1.00  0.00    -0.486 OA
ATOM     29  C   UNL A   1      28.009  30.966  20.885  1.00  0.00     0.271 C 
ATOM     30  C   UNL A   1      27.960  31.973  22.023  1.00  0.00     0.271 C 
ENDBRANCH  20  21
ENDBRANCH   9  10
ENDBRANCH   8   9
ENDBRANCH   6   8
ENDBRANCH   3   4
ENDBRANCH   2   3
ENDBRANCH   1   2
BRANCH   1  31
ATOM     31  C   UNL A   1      33.842  26.494  25.469  1.00  0.00     0.002 C 
BRANCH  31  32
ATOM     32  C   UNL A   1      33.736  27.677  26.433  1.00  0.00     0.021 C 
BRANCH  32  33
ATOM     33  C   UNL A   1      34.299  28.991  25.903  1.00  0.00     0.116 C 
BRANCH  33  34
ATOM     34  N   UNL A   1      33.999  30.120  26.769  1.00  0.00    -0.352 N 
ATOM     35  C   UNL A   1      34.706  30.597  27.846  1.00  0.00     0.251 C 
ATOM     36  H   UNL A   1      33.173  30.611  26.555  1.00  0.00     0.163 HD
ATOM     37  O   UNL A   1      34.233  31.471  28.566  1.00  0.00    -0.269 OA
BRANCH  35  38
ATOM     38  C   UNL A   1      36.037  30.030  28.155  1.00  0.00     0.039 A 
ATOM     39  C   UNL A   1      37.073  30.185  27.231  1.00  0.00     0.014 A 
ATOM     40  C   UNL A   1      36.265  29.363  29.362  1.00  0.00     0.014 A 
ATOM     41  C   UNL A   1      38.357  29.734  27.548  1.00  0.00     0.010 A 
ATOM     42  C   UNL A   1      37.558  28.980  29.706  1.00  0.00     0.010 A 
ATOM     43  C   UNL A   1      38.618  29.162  28.804  1.00  0.00    -0.014 A 
BRANCH  43  44
ATOM     44  C   UNL A   1      39.988  28.743  29.202  1.00  0.00     0.031 A 
ATOM     45  C   UNL A   1      40.841  29.666  30.027  1.00  0.00     0.074 A 
ATOM     46  C   UNL A   1      40.493  27.578  28.749  1.00  0.00     0.049 A 
ATOM     47  N   UNL A   1      42.100  29.548  30.368  1.00  0.00    -0.248 NA
ATOM     48  C   UNL A   1      40.204  30.902  30.512  1.00  0.00     0.031 C 
ATOM     49  C   UNL A   1      39.779  26.612  27.914  1.00  0.00     0.029 A 
ATOM     50  N   UNL A   1      41.736  27.017  28.913  1.00  0.00    -0.354 N 
ATOM     51  C   UNL A   1      42.410  30.701  31.077  1.00  0.00     0.074 A 
ATOM     52  C   UNL A   1      41.221  31.525  31.090  1.00  0.00     0.031 C 
ATOM     53  C   UNL A   1      40.590  25.575  27.646  1.00  0.00     0.029 A 
ATOM     54  C   UNL A   1      41.895  25.823  28.251  1.00  0.00     0.049 A 
ATOM     55  H   UNL A   1      42.447  27.431  29.453  1.00  0.00     0.167 HD
ATOM     56  C   UNL A   1      43.576  31.033  31.679  1.00  0.00     0.037 A 
ATOM     57  C   UNL A   1      42.978  25.029  28.128  1.00  0.00     0.037 A 
ATOM     58  C   UNL A   1      44.742  30.191  31.704  1.00  0.00     0.049 A 
ATOM     59  C   UNL A   1      44.265  25.433  28.802  1.00  0.00     0.074 A 
ATOM     60  C   UNL A   1      45.944  30.404  32.357  1.00  0.00     0.029 A 
ATOM     61  N   UNL A   1      44.853  28.975  31.048  1.00  0.00    -0.354 N 
ATOM     62  N   UNL A   1      44.520  26.488  29.536  1.00  0.00    -0.248 NA
ATOM     63  C   UNL A   1      45.414  24.533  28.632  1.00  0.00     0.031 C 
ATOM     64  C   UNL A   1      46.802  29.346  32.050  1.00  0.00     0.029 A 
ATOM     65  C   UNL A   1      46.115  28.442  31.257  1.00  0.00     0.049 A 
ATOM     66  H   UNL A   1      44.142  28.554  30.512  1.00  0.00     0.167 HD
ATOM     67  C   UNL A   1      45.839  26.355  29.951  1.00  0.00     0.074 A 
ATOM     68  C   UNL A   1      46.330  25.114  29.393  1.00  0.00     0.031 C 
ATOM     69  C   UNL A   1      46.578  27.187  30.724  1.00  0.00     0.037 A 
BRANCH  56  70
ATOM     70  C   UNL A   1      43.664  32.363  32.367  1.00  0.00     0.064 A 
ATOM     71  C   UNL A   1      44.061  33.523  31.685  1.00  0.00     0.173 A 
ATOM     72  C   UNL A   1      43.260  32.495  33.705  1.00  0.00     0.173 A 
ATOM     73  F   UNL A   1      44.464  33.450  30.407  1.00  0.00    -0.203 F 
ATOM     74  C   UNL A   1      44.063  34.761  32.320  1.00  0.00     0.198 A 
ATOM     75  C   UNL A   1      43.237  33.740  34.329  1.00  0.00     0.198 A 
ATOM     76  F   UNL A   1      42.866  31.419  34.402  1.00  0.00    -0.203 F 
ATOM     77  F   UNL A   1      44.476  35.850  31.658  1.00  0.00    -0.200 F 
ATOM     78  C   UNL A   1      43.640  34.871  33.637  1.00  0.00     0.200 A 
ATOM     79  F   UNL A   1      42.812  33.846  35.596  1.00  0.00    -0.200 F 
ATOM     80  F   UNL A   1      43.622  36.068  34.239  1.00  0.00    -0.200 F 
ENDBRANCH  56  70
BRANCH  57  81
ATOM     81  C   UNL A   1      42.909  23.770  27.338  1.00  0.00     0.064 A 
ATOM     82  C   UNL A   1      42.403  22.591  27.905  1.00  0.00     0.173 A 
ATOM     83  C   UNL A   1      43.397  23.702  26.025  1.00  0.00     0.173 A 
ATOM     84  F   UNL A   1      41.945  22.598  29.166  1.00  0.00    -0.203 F 
ATOM     85  C   UNL A   1      42.427  21.386  27.205  1.00  0.00     0.198 A 
ATOM     86  C   UNL A   1      43.387  22.503  25.313  1.00  0.00     0.198 A 
ATOM     87  F   UNL A   1      43.888  24.800  25.431  1.00  0.00    -0.203 F 
ATOM     88  F   UNL A   1      42.003  20.261  27.799  1.00  0.00    -0.200 F 
ATOM     89  C   UNL A   1      42.916  21.343  25.909  1.00  0.00     0.200 A 
ATOM     90  F   UNL A   1      43.847  22.470  24.055  1.00  0.00    -0.200 F 
ATOM     91  F   UNL A   1      42.948  20.183  25.240  1.00  0.00    -0.200 F 
ENDBRANCH  57  81
BRANCH  69  92
ATOM     92  C   UNL A   1      47.973  26.758  31.074  1.00  0.00     0.064 A 
ATOM     93  C   UNL A   1      48.236  25.910  32.160  1.00  0.00     0.173 A 
ATOM     94  C   UNL A   1      49.054  27.155  30.273  1.00  0.00     0.173 A 
ATOM     95  F   UNL A   1      47.239  25.513  32.965  1.00  0.00    -0.203 F 
ATOM     96  C   UNL A   1      49.535  25.494  32.441  1.00  0.00     0.198 A 
ATOM     97  C   UNL A   1      50.345  26.710  30.537  1.00  0.00     0.198 A 
ATOM     98  F   UNL A   1      48.855  27.959  29.218  1.00  0.00    -0.203 F 
ATOM     99  F   UNL A   1      49.770  24.719  33.510  1.00  0.00    -0.200 F 
ATOM    100  C   UNL A   1      50.586  25.884  31.625  1.00  0.00     0.200 A 
ATOM    101  F   UNL A   1      51.357  27.075  29.737  1.00  0.00    -0.200 F 
ATOM    102  F   UNL A   1      51.832  25.469  31.890  1.00  0.00    -0.200 F 
ENDBRANCH  69  92
ENDBRANCH  43  44
ENDBRANCH  35  38
ENDBRANCH  33  34
ENDBRANCH  32  33
ENDBRANCH  31  32
ENDBRANCH   1  31
TORSDOF 16
ENDMDL
MODEL 2
REMARK VINA RESULT:     -12.7      3.831      8.569
REMARK SMILES O=C(COc1ccc2c(=O)c(-c3ccc4c(c3)OCCO4)coc2c1)NCCCCCCNC(=O)c1ccc(-c2c3nc(c(-c4c(F)c(F)c(F)c(F)c4F)c4ccc([nH]4)c(-c4c(F)c(F)c(F)c(F)c4F)c4nc(c(-c5c(F)c(F)c(F)c(F)c5F)c5ccc2[nH]5)C=C4)C=C3)cc1
REMARK SMILES IDX 29 1 28 2 27 3 26 4 1 5 2 6 3 8 4 9 5 10 6 11 25 12 7 13
REMARK SMILES IDX 24 14 8 15 23 16 9 17 22 18 10 19 11 20 12 21 13 22 17 23
REMARK SMILES IDX 14 24 16 25 15 26 18 27 21 28 19 29 20 30 30 31 31 32 32 33
REMARK SMILES IDX 33 34 34 35 35 37 36 38 37 39 98 40 38 41 97 42 39 43 40 44
REMARK SMILES IDX 41 45 91 46 42 47 96 48 90 49 92 50 43 51 95 52 89 53 88 54
REMARK SMILES IDX 44 56 76 57 56 58 75 59 57 60 60 61 74 62 93 63 58 64 59 65
REMARK SMILES IDX 73 67 94 68 61 69 45 70 46 71 54 72 47 73 48 74 52 75 55 76
REMARK SMILES IDX 49 77 50 78 53 79 51 80 77 81 78 82 86 83 79 84 80 85 84 86
REMARK SMILES IDX 87 87 81 88 82 89 85 90 83 91 62 92 63 93 71 94 64 95 65 96
REMARK SMILES IDX 69 97 72 98 66 99 67 100 70 101 68 102
REMARK H PARENT 26 7 33 36 92 55 60 66
REMARK Flexibility Score: inf
ROOT
ATOM      1  C   UNL A   1      41.676  20.921  27.049  1.00  0.00     0.002 C 
ENDROOT
BRANCH   1   2
ATOM      2  C   UNL A   1      40.993  21.944  27.965  1.00  0.00     0.021 C 
BRANCH   2   3
ATOM      3  C   UNL A   1      40.034  22.889  27.251  1.00  0.00     0.116 C 
BRANCH   3   4
ATOM      4  N   UNL A   1      39.109  22.184  26.391  1.00  0.00    -0.353 N 
ATOM      5  O   UNL A   1      37.726  23.970  25.957  1.00  0.00    -0.271 OA
ATOM      6  C   UNL A   1      38.058  22.807  25.751  1.00  0.00     0.257 C 
ATOM      7  H   UNL A   1      39.235  21.217  26.258  1.00  0.00     0.163 HD
BRANCH   6   8
ATOM      8  C   UNL A   1      37.329  21.907  24.749  1.00  0.00     0.329 C 
BRANCH   8   9
ATOM      9  O   UNL A   1      36.042  21.451  25.176  1.00  0.00    -0.484 OA
BRANCH   9  10
ATOM     10  C   UNL A   1      35.111  22.456  25.211  1.00  0.00     0.123 A 
ATOM     11  C   UNL A   1      34.388  22.745  26.371  1.00  0.00     0.047 A 
ATOM     12  C   UNL A   1      34.975  23.261  24.080  1.00  0.00     0.094 A 
ATOM     13  C   UNL A   1      33.496  23.813  26.391  1.00  0.00     0.020 A 
ATOM     14  C   UNL A   1      34.082  24.335  24.102  1.00  0.00     0.141 A 
ATOM     15  C   UNL A   1      33.346  24.605  25.253  1.00  0.00     0.066 A 
ATOM     16  O   UNL A   1      33.975  25.097  22.966  1.00  0.00    -0.463 OA
ATOM     17  C   UNL A   1      32.422  25.748  25.272  1.00  0.00     0.200 A 
ATOM     18  C   UNL A   1      33.129  26.182  23.002  1.00  0.00     0.208 A 
ATOM     19  O   UNL A   1      31.755  25.996  26.269  1.00  0.00    -0.288 OA
ATOM     20  C   UNL A   1      32.359  26.567  24.033  1.00  0.00     0.065 A 
BRANCH  20  21
ATOM     21  C   UNL A   1      31.524  27.777  23.952  1.00  0.00    -0.007 A 
ATOM     22  C   UNL A   1      31.779  28.889  24.768  1.00  0.00     0.013 A 
ATOM     23  C   UNL A   1      30.466  27.834  23.034  1.00  0.00     0.059 A 
ATOM     24  C   UNL A   1      30.977  30.030  24.680  1.00  0.00     0.051 A 
ATOM     25  C   UNL A   1      29.672  28.976  22.942  1.00  0.00     0.161 A 
ATOM     26  C   UNL A   1      29.913  30.066  23.782  1.00  0.00     0.161 A 
ATOM     27  O   UNL A   1      28.664  28.951  22.011  1.00  0.00    -0.486 OA
ATOM     28  O   UNL A   1      29.150  31.205  23.772  1.00  0.00    -0.486 OA
ATOM     29  C   UNL A   1      28.143  30.264  21.773  1.00  0.00     0.271 C 
ATOM     30  C   UNL A   1      27.911  30.991  23.087  1.00  0.00     0.271 C 
ENDBRANCH  20  21
ENDBRANCH   9  10
ENDBRANCH   8   9
ENDBRANCH   6   8
ENDBRANCH   3   4
ENDBRANCH   2   3
ENDBRANCH   1   2
BRANCH   1  31
ATOM     31  C   UNL A   1      41.868  19.523  27.646  1.00  0.00     0.002 C 
BRANCH  31  32
ATOM     32  C   UNL A   1      42.689  18.553  26.796  1.00  0.00     0.021 C 
BRANCH  32  33
ATOM     33  C   UNL A   1      42.727  18.875  25.307  1.00  0.00     0.116 C 
BRANCH  33  34
ATOM     34  N   UNL A   1      44.006  18.550  24.694  1.00  0.00    -0.352 N 
ATOM     35  C   UNL A   1      45.048  19.385  24.370  1.00  0.00     0.251 C 
ATOM     36  H   UNL A   1      44.144  17.598  24.482  1.00  0.00     0.163 HD
ATOM     37  O   UNL A   1      46.000  18.969  23.716  1.00  0.00    -0.269 OA
BRANCH  35  38
ATOM     38  C   UNL A   1      45.005  20.803  24.789  1.00  0.00     0.039 A 
ATOM     39  C   UNL A   1      45.290  21.127  26.118  1.00  0.00     0.014 A 
ATOM     40  C   UNL A   1      44.703  21.809  23.868  1.00  0.00     0.014 A 
ATOM     41  C   UNL A   1      45.342  22.468  26.507  1.00  0.00     0.010 A 
ATOM     42  C   UNL A   1      44.826  23.144  24.240  1.00  0.00     0.010 A 
ATOM     43  C   UNL A   1      45.148  23.489  25.562  1.00  0.00    -0.014 A 
BRANCH  43  44
ATOM     44  C   UNL A   1      45.273  24.925  25.927  1.00  0.00     0.031 A 
ATOM     45  C   UNL A   1      46.617  25.598  25.861  1.00  0.00     0.074 A 
ATOM     46  C   UNL A   1      44.203  25.595  26.398  1.00  0.00     0.049 A 
ATOM     47  N   UNL A   1      46.963  26.797  26.257  1.00  0.00    -0.248 NA
ATOM     48  C   UNL A   1      47.727  24.810  25.301  1.00  0.00     0.031 C 
ATOM     49  C   UNL A   1      42.854  25.044  26.543  1.00  0.00     0.029 A 
ATOM     50  N   UNL A   1      44.085  26.882  26.864  1.00  0.00    -0.354 N 
ATOM     51  C   UNL A   1      48.328  26.893  26.022  1.00  0.00     0.074 A 
ATOM     52  C   UNL A   1      48.757  25.623  25.483  1.00  0.00     0.031 C 
ATOM     53  C   UNL A   1      42.045  25.988  27.051  1.00  0.00     0.029 A 
ATOM     54  C   UNL A   1      42.824  27.195  27.312  1.00  0.00     0.049 A 
ATOM     55  H   UNL A   1      44.834  27.520  26.875  1.00  0.00     0.167 HD
ATOM     56  C   UNL A   1      49.145  27.954  26.222  1.00  0.00     0.037 A 
ATOM     57  C   UNL A   1      42.355  28.319  27.889  1.00  0.00     0.037 A 
ATOM     58  C   UNL A   1      48.706  29.232  26.716  1.00  0.00     0.049 A 
ATOM     59  C   UNL A   1      43.295  29.479  28.106  1.00  0.00     0.074 A 
ATOM     60  C   UNL A   1      49.444  30.393  26.875  1.00  0.00     0.029 A 
ATOM     61  N   UNL A   1      47.415  29.518  27.130  1.00  0.00    -0.354 N 
ATOM     62  N   UNL A   1      44.566  29.584  27.806  1.00  0.00    -0.248 NA
ATOM     63  C   UNL A   1      42.731  30.679  28.742  1.00  0.00     0.031 C 
ATOM     64  C   UNL A   1      48.614  31.364  27.439  1.00  0.00     0.029 A 
ATOM     65  C   UNL A   1      47.343  30.829  27.573  1.00  0.00     0.049 A 
ATOM     66  H   UNL A   1      46.662  28.884  27.113  1.00  0.00     0.167 HD
ATOM     67  C   UNL A   1      44.940  30.870  28.173  1.00  0.00     0.074 A 
ATOM     68  C   UNL A   1      43.761  31.511  28.712  1.00  0.00     0.031 C 
ATOM     69  C   UNL A   1      46.153  31.466  28.073  1.00  0.00     0.037 A 
BRANCH  56  70
ATOM     70  C   UNL A   1      50.604  27.793  25.909  1.00  0.00     0.064 A 
ATOM     71  C   UNL A   1      51.539  27.460  26.900  1.00  0.00     0.173 A 
ATOM     72  C   UNL A   1      51.057  27.885  24.584  1.00  0.00     0.173 A 
ATOM     73  F   UNL A   1      51.159  27.368  28.183  1.00  0.00    -0.203 F 
ATOM     74  C   UNL A   1      52.875  27.240  26.578  1.00  0.00     0.198 A 
ATOM     75  C   UNL A   1      52.388  27.636  24.261  1.00  0.00     0.198 A 
ATOM     76  F   UNL A   1      50.202  28.195  23.597  1.00  0.00    -0.203 F 
ATOM     77  F   UNL A   1      53.757  26.955  27.545  1.00  0.00    -0.200 F 
ATOM     78  C   UNL A   1      53.296  27.316  25.258  1.00  0.00     0.200 A 
ATOM     79  F   UNL A   1      52.789  27.694  22.983  1.00  0.00    -0.200 F 
ATOM     80  F   UNL A   1      54.579  27.082  24.948  1.00  0.00    -0.200 F 
ENDBRANCH  56  70
BRANCH  57  81
ATOM     81  C   UNL A   1      40.931  28.421  28.306  1.00  0.00     0.064 A 
ATOM     82  C   UNL A   1      39.961  28.944  27.439  1.00  0.00     0.173 A 
ATOM     83  C   UNL A   1      40.517  28.051  29.595  1.00  0.00     0.173 A 
ATOM     84  F   UNL A   1      40.309  29.333  26.203  1.00  0.00    -0.203 F 
ATOM     85  C   UNL A   1      38.645  29.133  27.857  1.00  0.00     0.198 A 
ATOM     86  C   UNL A   1      39.193  28.207  30.000  1.00  0.00     0.198 A 
ATOM     87  F   UNL A   1      41.401  27.540  30.465  1.00  0.00    -0.203 F 
ATOM     88  F   UNL A   1      37.758  29.703  27.029  1.00  0.00    -0.200 F 
ATOM     89  C   UNL A   1      38.261  28.762  29.136  1.00  0.00     0.200 A 
ATOM     90  F   UNL A   1      38.823  27.834  31.233  1.00  0.00    -0.200 F 
ATOM     91  F   UNL A   1      36.998  28.954  29.541  1.00  0.00    -0.200 F 
ENDBRANCH  57  81
BRANCH  69  92
ATOM     92  C   UNL A   1      46.259  32.904  28.489  1.00  0.00     0.064 A 
ATOM     93  C   UNL A   1      46.602  33.274  29.797  1.00  0.00     0.173 A 
ATOM     94  C   UNL A   1      46.070  33.926  27.545  1.00  0.00     0.173 A 
ATOM     95  F   UNL A   1      46.780  32.337  30.740  1.00  0.00    -0.203 F 
ATOM     96  C   UNL A   1      46.734  34.615  30.148  1.00  0.00     0.198 A 
ATOM     97  C   UNL A   1      46.235  35.263  27.891  1.00  0.00     0.198 A 
ATOM     98  F   UNL A   1      45.748  33.625  26.278  1.00  0.00    -0.203 F 
ATOM     99  F   UNL A   1      47.020  34.948  31.415  1.00  0.00    -0.200 F 
ATOM    100  C   UNL A   1      46.561  35.607  29.195  1.00  0.00     0.200 A 
ATOM    101  F   UNL A   1      46.084  36.219  26.964  1.00  0.00    -0.200 F 
ATOM    102  F   UNL A   1      46.703  36.896  29.532  1.00  0.00    -0.200 F 
ENDBRANCH  69  92
ENDBRANCH  43  44
ENDBRANCH  35  38
ENDBRANCH  33  34
ENDBRANCH  32  33
ENDBRANCH  31  32
ENDBRANCH   1  31
TORSDOF 16
ENDMDL
MODEL 3
REMARK VINA RESULT:     -12.7      3.422      7.587
REMARK SMILES O=C(COc1ccc2c(=O)c(-c3ccc4c(c3)OCCO4)coc2c1)NCCCCCCNC(=O)c1ccc(-c2c3nc(c(-c4c(F)c(F)c(F)c(F)c4F)c4ccc([nH]4)c(-c4c(F)c(F)c(F)c(F)c4F)c4nc(c(-c5c(F)c(F)c(F)c(F)c5F)c5ccc2[nH]5)C=C4)C=C3)cc1
REMARK SMILES IDX 29 1 28 2 27 3 26 4 1 5 2 6 3 8 4 9 5 10 6 11 25 12 7 13
REMARK SMILES IDX 24 14 8 15 23 16 9 17 22 18 10 19 11 20 12 21 13 22 17 23
REMARK SMILES IDX 14 24 16 25 15 26 18 27 21 28 19 29 20 30 30 31 31 32 32 33
REMARK SMILES IDX 33 34 34 35 35 37 36 38 37 39 98 40 38 41 97 42 39 43 40 44
REMARK SMILES IDX 41 45 91 46 42 47 96 48 90 49 92 50 43 51 95 52 89 53 88 54
REMARK SMILES IDX 44 56 76 57 56 58 75 59 57 60 60 61 74 62 93 63 58 64 59 65
REMARK SMILES IDX 73 67 94 68 61 69 45 70 46 71 54 72 47 73 48 74 52 75 55 76
REMARK SMILES IDX 49 77 50 78 53 79 51 80 77 81 78 82 86 83 79 84 80 85 84 86
REMARK SMILES IDX 87 87 81 88 82 89 85 90 83 91 62 92 63 93 71 94 64 95 65 96
REMARK SMILES IDX 69 97 72 98 66 99 67 100 70 101 68 102
REMARK H PARENT 26 7 33 36 92 55 60 66
REMARK Flexibility Score: inf
ROOT
ATOM      1  C   UNL A   1      37.397  22.050  24.550  1.00  0.00     0.002 C 
ENDROOT
BRANCH   1   2
ATOM      2  C   UNL A   1      36.794  23.185  25.387  1.00  0.00     0.021 C 
BRANCH   2   3
ATOM      3  C   UNL A   1      35.337  22.973  25.781  1.00  0.00     0.116 C 
BRANCH   3   4
ATOM      4  N   UNL A   1      34.434  23.184  24.672  1.00  0.00    -0.353 N 
ATOM      5  O   UNL A   1      33.356  21.157  24.808  1.00  0.00    -0.271 OA
ATOM      6  C   UNL A   1      33.458  22.277  24.316  1.00  0.00     0.257 C 
ATOM      7  H   UNL A   1      34.519  24.012  24.147  1.00  0.00     0.163 HD
BRANCH   6   8
ATOM      8  C   UNL A   1      32.501  22.793  23.237  1.00  0.00     0.329 C 
BRANCH   8   9
ATOM      9  O   UNL A   1      31.200  23.155  23.710  1.00  0.00    -0.484 OA
BRANCH   9  10
ATOM     10  C   UNL A   1      31.200  24.336  24.405  1.00  0.00     0.123 A 
ATOM     11  C   UNL A   1      30.798  24.400  25.741  1.00  0.00     0.047 A 
ATOM     12  C   UNL A   1      31.717  25.466  23.772  1.00  0.00     0.094 A 
ATOM     13  C   UNL A   1      30.871  25.603  26.437  1.00  0.00     0.020 A 
ATOM     14  C   UNL A   1      31.794  26.673  24.472  1.00  0.00     0.141 A 
ATOM     15  C   UNL A   1      31.369  26.738  25.797  1.00  0.00     0.066 A 
ATOM     16  O   UNL A   1      32.303  27.762  23.809  1.00  0.00    -0.463 OA
ATOM     17  C   UNL A   1      31.470  28.008  26.529  1.00  0.00     0.200 A 
ATOM     18  C   UNL A   1      32.419  28.939  24.512  1.00  0.00     0.208 A 
ATOM     19  O   UNL A   1      31.090  28.091  27.691  1.00  0.00    -0.288 OA
ATOM     20  C   UNL A   1      32.056  29.155  25.787  1.00  0.00     0.065 A 
BRANCH  20  21
ATOM     21  C   UNL A   1      32.273  30.459  26.432  1.00  0.00    -0.007 A 
ATOM     22  C   UNL A   1      31.359  31.510  26.266  1.00  0.00     0.013 A 
ATOM     23  C   UNL A   1      33.399  30.658  27.244  1.00  0.00     0.059 A 
ATOM     24  C   UNL A   1      31.579  32.745  26.884  1.00  0.00     0.051 A 
ATOM     25  C   UNL A   1      33.613  31.887  27.866  1.00  0.00     0.161 A 
ATOM     26  C   UNL A   1      32.715  32.938  27.667  1.00  0.00     0.161 A 
ATOM     27  O   UNL A   1      34.734  31.993  28.649  1.00  0.00    -0.486 OA
ATOM     28  O   UNL A   1      32.882  34.183  28.217  1.00  0.00    -0.486 OA
ATOM     29  C   UNL A   1      34.677  33.153  29.487  1.00  0.00     0.271 C 
ATOM     30  C   UNL A   1      34.222  34.364  28.690  1.00  0.00     0.271 C 
ENDBRANCH  20  21
ENDBRANCH   9  10
ENDBRANCH   8   9
ENDBRANCH   6   8
ENDBRANCH   3   4
ENDBRANCH   2   3
ENDBRANCH   1   2
BRANCH   1  31
ATOM     31  C   UNL A   1      37.019  20.631  24.989  1.00  0.00     0.002 C 
BRANCH  31  32
ATOM     32  C   UNL A   1      38.161  19.614  24.974  1.00  0.00     0.021 C 
BRANCH  32  33
ATOM     33  C   UNL A   1      39.392  20.017  25.777  1.00  0.00     0.116 C 
BRANCH  33  34
ATOM     34  N   UNL A   1      40.387  18.957  25.849  1.00  0.00    -0.352 N 
ATOM     35  C   UNL A   1      41.741  19.054  26.061  1.00  0.00     0.251 C 
ATOM     36  H   UNL A   1      40.041  18.043  25.729  1.00  0.00     0.163 HD
ATOM     37  O   UNL A   1      42.463  18.069  25.941  1.00  0.00    -0.269 OA
BRANCH  35  38
ATOM     38  C   UNL A   1      42.334  20.364  26.408  1.00  0.00     0.039 A 
ATOM     39  C   UNL A   1      42.945  21.121  25.405  1.00  0.00     0.014 A 
ATOM     40  C   UNL A   1      42.271  20.850  27.717  1.00  0.00     0.014 A 
ATOM     41  C   UNL A   1      43.429  22.398  25.699  1.00  0.00     0.010 A 
ATOM     42  C   UNL A   1      42.688  22.148  27.991  1.00  0.00     0.010 A 
ATOM     43  C   UNL A   1      43.271  22.937  26.987  1.00  0.00    -0.014 A 
BRANCH  43  44
ATOM     44  C   UNL A   1      43.706  24.321  27.313  1.00  0.00     0.031 A 
ATOM     45  C   UNL A   1      42.699  25.323  27.807  1.00  0.00     0.074 A 
ATOM     46  C   UNL A   1      44.979  24.698  27.081  1.00  0.00     0.049 A 
ATOM     47  N   UNL A   1      42.844  26.607  28.022  1.00  0.00    -0.248 NA
ATOM     48  C   UNL A   1      41.339  24.824  28.068  1.00  0.00     0.031 C 
ATOM     49  C   UNL A   1      46.041  23.830  26.571  1.00  0.00     0.029 A 
ATOM     50  N   UNL A   1      45.592  25.919  27.227  1.00  0.00    -0.354 N 
ATOM     51  C   UNL A   1      41.594  27.068  28.413  1.00  0.00     0.074 A 
ATOM     52  C   UNL A   1      40.692  25.939  28.372  1.00  0.00     0.031 C 
ATOM     53  C   UNL A   1      47.175  24.541  26.455  1.00  0.00     0.029 A 
ATOM     54  C   UNL A   1      46.911  25.925  26.838  1.00  0.00     0.049 A 
ATOM     55  H   UNL A   1      45.131  26.715  27.576  1.00  0.00     0.167 HD
ATOM     56  C   UNL A   1      41.237  28.319  28.790  1.00  0.00     0.037 A 
ATOM     57  C   UNL A   1      47.799  26.937  26.777  1.00  0.00     0.037 A 
ATOM     58  C   UNL A   1      42.148  29.430  28.873  1.00  0.00     0.049 A 
ATOM     59  C   UNL A   1      47.366  28.320  27.194  1.00  0.00     0.074 A 
ATOM     60  C   UNL A   1      41.898  30.715  29.322  1.00  0.00     0.029 A 
ATOM     61  N   UNL A   1      43.482  29.388  28.500  1.00  0.00    -0.354 N 
ATOM     62  N   UNL A   1      46.202  28.726  27.637  1.00  0.00    -0.248 NA
ATOM     63  C   UNL A   1      48.374  29.386  27.103  1.00  0.00     0.031 C 
ATOM     64  C   UNL A   1      43.065  31.466  29.167  1.00  0.00     0.029 A 
ATOM     65  C   UNL A   1      44.059  30.634  28.681  1.00  0.00     0.049 A 
ATOM     66  H   UNL A   1      43.949  28.592  28.157  1.00  0.00     0.167 HD
ATOM     67  C   UNL A   1      46.351  30.077  27.920  1.00  0.00     0.074 A 
ATOM     68  C   UNL A   1      47.719  30.423  27.605  1.00  0.00     0.031 C 
ATOM     69  C   UNL A   1      45.434  30.954  28.397  1.00  0.00     0.037 A 
BRANCH  56  70
ATOM     70  C   UNL A   1      39.801  28.568  29.145  1.00  0.00     0.064 A 
ATOM     71  C   UNL A   1      39.319  28.380  30.448  1.00  0.00     0.173 A 
ATOM     72  C   UNL A   1      38.916  29.088  28.186  1.00  0.00     0.173 A 
ATOM     73  F   UNL A   1      40.122  27.879  31.399  1.00  0.00    -0.203 F 
ATOM     74  C   UNL A   1      38.002  28.690  30.776  1.00  0.00     0.198 A 
ATOM     75  C   UNL A   1      37.608  29.422  28.525  1.00  0.00     0.198 A 
ATOM     76  F   UNL A   1      39.328  29.292  26.926  1.00  0.00    -0.203 F 
ATOM     77  F   UNL A   1      37.555  28.472  32.020  1.00  0.00    -0.200 F 
ATOM     78  C   UNL A   1      37.151  29.221  29.817  1.00  0.00     0.200 A 
ATOM     79  F   UNL A   1      36.793  29.951  27.601  1.00  0.00    -0.200 F 
ATOM     80  F   UNL A   1      35.890  29.539  30.141  1.00  0.00    -0.200 F 
ENDBRANCH  56  70
BRANCH  57  81
ATOM     81  C   UNL A   1      49.190  26.698  26.305  1.00  0.00     0.064 A 
ATOM     82  C   UNL A   1      49.545  26.919  24.967  1.00  0.00     0.173 A 
ATOM     83  C   UNL A   1      50.177  26.191  27.163  1.00  0.00     0.173 A 
ATOM     84  F   UNL A   1      48.631  27.382  24.100  1.00  0.00    -0.203 F 
ATOM     85  C   UNL A   1      50.818  26.605  24.496  1.00  0.00     0.198 A 
ATOM     86  C   UNL A   1      51.461  25.911  26.699  1.00  0.00     0.198 A 
ATOM     87  F   UNL A   1      49.895  25.965  28.455  1.00  0.00    -0.203 F 
ATOM     88  F   UNL A   1      51.106  26.759  23.195  1.00  0.00    -0.200 F 
ATOM     89  C   UNL A   1      51.777  26.103  25.363  1.00  0.00     0.200 A 
ATOM     90  F   UNL A   1      52.388  25.440  27.545  1.00  0.00    -0.200 F 
ATOM     91  F   UNL A   1      52.998  25.791  24.908  1.00  0.00    -0.200 F 
ENDBRANCH  57  81
BRANCH  69  92
ATOM     92  C   UNL A   1      45.891  32.356  28.677  1.00  0.00     0.064 A 
ATOM     93  C   UNL A   1      45.734  33.388  27.740  1.00  0.00     0.173 A 
ATOM     94  C   UNL A   1      46.441  32.681  29.926  1.00  0.00     0.173 A 
ATOM     95  F   UNL A   1      45.226  33.127  26.526  1.00  0.00    -0.203 F 
ATOM     96  C   UNL A   1      46.130  34.689  28.038  1.00  0.00     0.198 A 
ATOM     97  C   UNL A   1      46.804  33.989  30.233  1.00  0.00     0.198 A 
ATOM     98  F   UNL A   1      46.606  31.733  30.861  1.00  0.00    -0.203 F 
ATOM     99  F   UNL A   1      46.011  35.652  27.112  1.00  0.00    -0.200 F 
ATOM    100  C   UNL A   1      46.654  34.991  29.286  1.00  0.00     0.200 A 
ATOM    101  F   UNL A   1      47.295  34.282  31.445  1.00  0.00    -0.200 F 
ATOM    102  F   UNL A   1      47.020  36.247  29.575  1.00  0.00    -0.200 F 
ENDBRANCH  69  92
ENDBRANCH  43  44
ENDBRANCH  35  38
ENDBRANCH  33  34
ENDBRANCH  32  33
ENDBRANCH  31  32
ENDBRANCH   1  31
TORSDOF 16
ENDMDL
