MODEL 1
REMARK VINA RESULT:     -12.9      0.000      0.000
REMARK SMILES O=C(COc1ccccc1/C=C1/SC(=O)N(c2ccc(F)cc2)C1=O)NCCCCCCNC(=O)c1ccc(-c2c3nc(c(-c4c(F)c(F)c(F)c(F)c4F)c4ccc([nH]4)c(-c4c(F)c(F)c(F)c(F)c4F)c4nc(c(-c5c(F)c(F)c(F)c(F)c5F)c5ccc2[nH]5)C=C4)C=C3)cc1
REMARK SMILES IDX 28 1 27 2 26 3 1 4 2 5 3 7 4 8 5 9 6 10 10 11 7 12 9 13 8 14
REMARK SMILES IDX 11 15 12 16 13 17 24 18 14 19 16 20 25 21 15 22 17 23 18 24
REMARK SMILES IDX 23 25 19 26 22 27 20 28 21 29 29 30 30 31 31 32 32 33 33 34
REMARK SMILES IDX 34 35 35 37 36 38 37 39 98 40 38 41 97 42 39 43 40 44 41 45
REMARK SMILES IDX 91 46 42 47 96 48 90 49 92 50 43 51 95 52 89 53 88 54 44 56
REMARK SMILES IDX 76 57 56 58 75 59 57 60 60 61 74 62 93 63 58 64 59 65 73 67
REMARK SMILES IDX 94 68 61 69 45 70 46 71 54 72 47 73 48 74 52 75 55 76 49 77
REMARK SMILES IDX 50 78 53 79 51 80 77 81 78 82 86 83 79 84 80 85 84 86 87 87
REMARK SMILES IDX 81 88 82 89 85 90 83 91 62 92 63 93 71 94 64 95 65 96 69 97
REMARK SMILES IDX 72 98 66 99 67 100 70 101 68 102
REMARK H PARENT 26 6 33 36 92 55 60 66
REMARK Flexibility Score: inf
ROOT
ATOM      1  C   UNL A   1      31.763  32.899  26.875  1.00  0.00     0.021 C 
ENDROOT
BRANCH   1   2
ATOM      2  C   UNL A   1      31.518  31.230  26.691  1.00  0.00     0.116 C 
BRANCH   2   3
ATOM      3  N   UNL A   1      31.638  30.016  24.966  1.00  0.00    -0.353 N 
ATOM      4  O   UNL A   1      33.525  28.695  24.082  1.00  0.00    -0.271 OA
ATOM      5  C   UNL A   1      32.337  28.994  24.142  1.00  0.00     0.257 C 
ATOM      6  H   UNL A   1      30.829  30.238  24.452  1.00  0.00     0.163 HD
BRANCH   5   7
ATOM      7  C   UNL A   1      31.345  28.199  23.297  1.00  0.00     0.329 C 
BRANCH   7   8
ATOM      8  O   UNL A   1      31.785  26.876  23.054  1.00  0.00    -0.483 OA
BRANCH   8   9
ATOM      9  C   UNL A   1      31.640  25.970  24.083  1.00  0.00     0.127 A 
ATOM     10  C   UNL A   1      30.371  26.050  24.668  1.00  0.00     0.047 A 
ATOM     11  C   UNL A   1      32.675  25.224  24.711  1.00  0.00     0.018 A 
ATOM     12  C   UNL A   1      30.112  25.428  25.882  1.00  0.00     0.004 A 
ATOM     13  C   UNL A   1      32.392  24.617  25.945  1.00  0.00     0.012 A 
ATOM     14  C   UNL A   1      31.127  24.730  26.530  1.00  0.00     0.001 A 
BRANCH  11  15
ATOM     15  C   UNL A   1      34.068  25.103  24.233  1.00  0.00     0.033 C 
ATOM     16  C   UNL A   1      34.500  23.921  23.752  1.00  0.00     0.084 C 
ATOM     17  S   UNL A   1      36.662  23.329  24.233  1.00  0.00    -0.022 SA
ATOM     18  C   UNL A   1      33.302  22.362  23.865  1.00  0.00     0.272 C 
ATOM     19  C   UNL A   1      36.002  21.164  24.859  1.00  0.00     0.298 C 
ATOM     20  N   UNL A   1      34.245  20.933  24.461  1.00  0.00    -0.236 N 
ATOM     21  O   UNL A   1      32.148  22.362  23.466  1.00  0.00    -0.268 OA
ATOM     22  O   UNL A   1      36.813  20.413  25.376  1.00  0.00    -0.260 OA
BRANCH  20  23
ATOM     23  C   UNL A   1      33.583  19.668  24.623  1.00  0.00     0.053 A 
ATOM     24  C   UNL A   1      33.568  18.736  23.571  1.00  0.00     0.030 A 
ATOM     25  C   UNL A   1      33.032  19.284  25.851  1.00  0.00     0.030 A 
ATOM     26  C   UNL A   1      33.076  17.441  23.754  1.00  0.00     0.041 A 
ATOM     27  C   UNL A   1      32.528  17.989  26.033  1.00  0.00     0.041 A 
ATOM     28  C   UNL A   1      32.565  17.076  24.987  1.00  0.00     0.123 A 
ATOM     29  F   UNL A   1      32.119  15.828  25.174  1.00  0.00    -0.207 F 
ENDBRANCH  20  23
ENDBRANCH  11  15
ENDBRANCH   8   9
ENDBRANCH   7   8
ENDBRANCH   5   7
ENDBRANCH   2   3
ENDBRANCH   1   2
BRANCH   1  30
ATOM     30  C   UNL A   1      33.185  33.328  27.258  1.00  0.00     0.002 C 
BRANCH  30  31
ATOM     31  C   UNL A   1      33.282  34.104  28.578  1.00  0.00     0.002 C 
BRANCH  31  32
ATOM     32  C   UNL A   1      34.139  33.408  29.626  1.00  0.00     0.021 C 
BRANCH  32  33
ATOM     33  C   UNL A   1      35.100  32.404  29.016  1.00  0.00     0.116 C 
BRANCH  33  34
ATOM     34  N   UNL A   1      34.407  31.202  28.556  1.00  0.00    -0.352 N 
ATOM     35  C   UNL A   1      34.962  30.010  28.182  1.00  0.00     0.251 C 
ATOM     36  H   UNL A   1      33.424  31.257  28.511  1.00  0.00     0.163 HD
ATOM     37  O   UNL A   1      34.320  29.132  27.626  1.00  0.00    -0.269 OA
BRANCH  35  38
ATOM     38  C   UNL A   1      36.384  29.843  28.486  1.00  0.00     0.039 A 
ATOM     39  C   UNL A   1      36.762  29.295  29.708  1.00  0.00     0.014 A 
ATOM     40  C   UNL A   1      37.306  30.074  27.460  1.00  0.00     0.014 A 
ATOM     41  C   UNL A   1      38.093  28.940  29.893  1.00  0.00     0.010 A 
ATOM     42  C   UNL A   1      38.601  29.620  27.609  1.00  0.00     0.010 A 
ATOM     43  C   UNL A   1      39.009  29.076  28.836  1.00  0.00    -0.014 A 
BRANCH  43  44
ATOM     44  C   UNL A   1      40.428  28.705  29.007  1.00  0.00     0.031 A 
ATOM     45  C   UNL A   1      41.366  29.695  29.634  1.00  0.00     0.074 A 
ATOM     46  C   UNL A   1      40.866  27.518  28.551  1.00  0.00     0.049 A 
ATOM     47  N   UNL A   1      42.653  29.602  29.833  1.00  0.00    -0.248 NA
ATOM     48  C   UNL A   1      40.785  30.981  30.060  1.00  0.00     0.031 C 
ATOM     49  C   UNL A   1      40.045  26.512  27.874  1.00  0.00     0.029 A 
ATOM     50  N   UNL A   1      42.116  26.958  28.588  1.00  0.00    -0.354 N 
ATOM     51  C   UNL A   1      43.032  30.815  30.390  1.00  0.00     0.074 A 
ATOM     52  C   UNL A   1      41.860  31.658  30.425  1.00  0.00     0.031 C 
ATOM     53  C   UNL A   1      40.805  25.442  27.592  1.00  0.00     0.029 A 
ATOM     54  C   UNL A   1      42.172  25.704  28.031  1.00  0.00     0.049 A 
ATOM     55  H   UNL A   1      42.899  27.410  28.976  1.00  0.00     0.167 HD
ATOM     56  C   UNL A   1      44.245  31.178  30.866  1.00  0.00     0.037 A 
ATOM     57  C   UNL A   1      43.217  24.868  27.894  1.00  0.00     0.037 A 
ATOM     58  C   UNL A   1      45.393  30.314  30.849  1.00  0.00     0.049 A 
ATOM     59  C   UNL A   1      44.557  25.298  28.427  1.00  0.00     0.074 A 
ATOM     60  C   UNL A   1      46.657  30.551  31.355  1.00  0.00     0.029 A 
ATOM     61  N   UNL A   1      45.412  29.044  30.292  1.00  0.00    -0.354 N 
ATOM     62  N   UNL A   1      44.892  26.416  29.025  1.00  0.00    -0.248 NA
ATOM     63  C   UNL A   1      45.665  24.346  28.274  1.00  0.00     0.031 C 
ATOM     64  C   UNL A   1      47.458  29.445  31.053  1.00  0.00     0.029 A 
ATOM     65  C   UNL A   1      46.676  28.493  30.418  1.00  0.00     0.049 A 
ATOM     66  H   UNL A   1      44.641  28.599  29.869  1.00  0.00     0.167 HD
ATOM     67  C   UNL A   1      46.236  26.291  29.348  1.00  0.00     0.074 A 
ATOM     68  C   UNL A   1      46.650  24.980  28.893  1.00  0.00     0.031 C 
ATOM     69  C   UNL A   1      47.057  27.179  29.963  1.00  0.00     0.037 A 
BRANCH  56  70
ATOM     70  C   UNL A   1      44.379  32.557  31.443  1.00  0.00     0.064 A 
ATOM     71  C   UNL A   1      44.147  32.816  32.803  1.00  0.00     0.173 A 
ATOM     72  C   UNL A   1      44.759  33.633  30.627  1.00  0.00     0.173 A 
ATOM     73  F   UNL A   1      43.764  31.826  33.623  1.00  0.00    -0.203 F 
ATOM     74  C   UNL A   1      44.258  34.105  33.318  1.00  0.00     0.198 A 
ATOM     75  C   UNL A   1      44.906  34.915  31.153  1.00  0.00     0.198 A 
ATOM     76  F   UNL A   1      44.993  33.444  29.320  1.00  0.00    -0.203 F 
ATOM     77  F   UNL A   1      43.972  34.337  34.606  1.00  0.00    -0.200 F 
ATOM     78  C   UNL A   1      44.646  35.150  32.495  1.00  0.00     0.200 A 
ATOM     79  F   UNL A   1      45.292  35.922  30.359  1.00  0.00    -0.200 F 
ATOM     80  F   UNL A   1      44.761  36.390  32.992  1.00  0.00    -0.200 F 
ENDBRANCH  56  70
BRANCH  57  81
ATOM     81  C   UNL A   1      43.031  23.538  27.255  1.00  0.00     0.064 A 
ATOM     82  C   UNL A   1      43.488  23.294  25.952  1.00  0.00     0.173 A 
ATOM     83  C   UNL A   1      42.388  22.488  27.926  1.00  0.00     0.173 A 
ATOM     84  F   UNL A   1      44.096  24.270  25.262  1.00  0.00    -0.203 F 
ATOM     85  C   UNL A   1      43.285  22.060  25.336  1.00  0.00     0.198 A 
ATOM     86  C   UNL A   1      42.214  21.244  27.321  1.00  0.00     0.198 A 
ATOM     87  F   UNL A   1      41.941  22.664  29.179  1.00  0.00    -0.203 F 
ATOM     88  F   UNL A   1      43.686  21.872  24.071  1.00  0.00    -0.200 F 
ATOM     89  C   UNL A   1      42.653  21.035  26.023  1.00  0.00     0.200 A 
ATOM     90  F   UNL A   1      41.620  20.251  27.995  1.00  0.00    -0.200 F 
ATOM     91  F   UNL A   1      42.459  19.849  25.431  1.00  0.00    -0.200 F 
ENDBRANCH  57  81
BRANCH  69  92
ATOM     92  C   UNL A   1      48.471  26.745  30.216  1.00  0.00     0.064 A 
ATOM     93  C   UNL A   1      49.501  27.016  29.304  1.00  0.00     0.173 A 
ATOM     94  C   UNL A   1      48.806  26.091  31.412  1.00  0.00     0.173 A 
ATOM     95  F   UNL A   1      49.229  27.628  28.140  1.00  0.00    -0.203 F 
ATOM     96  C   UNL A   1      50.809  26.622  29.566  1.00  0.00     0.198 A 
ATOM     97  C   UNL A   1      50.121  25.731  31.687  1.00  0.00     0.198 A 
ATOM     98  F   UNL A   1      47.859  25.817  32.321  1.00  0.00    -0.203 F 
ATOM     99  F   UNL A   1      51.768  26.843  28.657  1.00  0.00    -0.200 F 
ATOM    100  C   UNL A   1      51.120  25.988  30.761  1.00  0.00     0.200 A 
ATOM    101  F   UNL A   1      50.422  25.137  32.850  1.00  0.00    -0.200 F 
ATOM    102  F   UNL A   1      52.383  25.619  31.016  1.00  0.00    -0.200 F 
ENDBRANCH  69  92
ENDBRANCH  43  44
ENDBRANCH  35  38
ENDBRANCH  33  34
ENDBRANCH  32  33
ENDBRANCH  31  32
ENDBRANCH  30  31
ENDBRANCH   1  30
TORSDOF 17
ENDMDL
MODEL 2
REMARK VINA RESULT:     -12.7      2.282      3.337
REMARK SMILES O=C(COc1ccccc1/C=C1/SC(=O)N(c2ccc(F)cc2)C1=O)NCCCCCCNC(=O)c1ccc(-c2c3nc(c(-c4c(F)c(F)c(F)c(F)c4F)c4ccc([nH]4)c(-c4c(F)c(F)c(F)c(F)c4F)c4nc(c(-c5c(F)c(F)c(F)c(F)c5F)c5ccc2[nH]5)C=C4)C=C3)cc1
REMARK SMILES IDX 28 1 27 2 26 3 1 4 2 5 3 7 4 8 5 9 6 10 10 11 7 12 9 13 8 14
REMARK SMILES IDX 11 15 12 16 13 17 24 18 14 19 16 20 25 21 15 22 17 23 18 24
REMARK SMILES IDX 23 25 19 26 22 27 20 28 21 29 29 30 30 31 31 32 32 33 33 34
REMARK SMILES IDX 34 35 35 37 36 38 37 39 98 40 38 41 97 42 39 43 40 44 41 45
REMARK SMILES IDX 91 46 42 47 96 48 90 49 92 50 43 51 95 52 89 53 88 54 44 56
REMARK SMILES IDX 76 57 56 58 75 59 57 60 60 61 74 62 93 63 58 64 59 65 73 67
REMARK SMILES IDX 94 68 61 69 45 70 46 71 54 72 47 73 48 74 52 75 55 76 49 77
REMARK SMILES IDX 50 78 53 79 51 80 77 81 78 82 86 83 79 84 80 85 84 86 87 87
REMARK SMILES IDX 81 88 82 89 85 90 83 91 62 92 63 93 71 94 64 95 65 96 69 97
REMARK SMILES IDX 72 98 66 99 67 100 70 101 68 102
REMARK H PARENT 26 6 33 36 92 55 60 66
REMARK Flexibility Score: inf
ROOT
ATOM      1  C   UNL A   1      31.710  29.438  26.999  1.00  0.00     0.021 C 
ENDROOT
BRANCH   1   2
ATOM      2  C   UNL A   1      31.389  29.801  25.372  1.00  0.00     0.116 C 
BRANCH   2   3
ATOM      3  N   UNL A   1      31.412  28.554  23.667  1.00  0.00    -0.353 N 
ATOM      4  O   UNL A   1      33.308  27.776  22.293  1.00  0.00    -0.271 OA
ATOM      5  C   UNL A   1      32.144  27.723  22.675  1.00  0.00     0.257 C 
ATOM      6  H   UNL A   1      30.469  28.495  23.392  1.00  0.00     0.163 HD
BRANCH   5   7
ATOM      7  C   UNL A   1      31.249  26.616  22.121  1.00  0.00     0.329 C 
BRANCH   7   8
ATOM      8  O   UNL A   1      31.757  25.325  22.400  1.00  0.00    -0.483 OA
BRANCH   8   9
ATOM      9  C   UNL A   1      31.781  24.936  23.722  1.00  0.00     0.127 A 
ATOM     10  C   UNL A   1      30.515  25.019  24.310  1.00  0.00     0.047 A 
ATOM     11  C   UNL A   1      32.936  24.737  24.528  1.00  0.00     0.018 A 
ATOM     12  C   UNL A   1      30.369  24.939  25.689  1.00  0.00     0.004 A 
ATOM     13  C   UNL A   1      32.764  24.674  25.920  1.00  0.00     0.012 A 
ATOM     14  C   UNL A   1      31.494  24.788  26.494  1.00  0.00     0.001 A 
BRANCH  11  15
ATOM     15  C   UNL A   1      34.332  24.686  24.044  1.00  0.00     0.033 C 
ATOM     16  C   UNL A   1      34.849  23.508  23.645  1.00  0.00     0.084 C 
ATOM     17  S   UNL A   1      37.052  23.114  24.143  1.00  0.00    -0.022 SA
ATOM     18  C   UNL A   1      33.772  21.876  23.881  1.00  0.00     0.272 C 
ATOM     19  C   UNL A   1      36.559  20.957  24.928  1.00  0.00     0.298 C 
ATOM     20  N   UNL A   1      34.822  20.567  24.567  1.00  0.00    -0.236 N 
ATOM     21  O   UNL A   1      32.618  21.762  23.495  1.00  0.00    -0.268 OA
ATOM     22  O   UNL A   1      37.427  20.307  25.489  1.00  0.00    -0.260 OA
BRANCH  20  23
ATOM     23  C   UNL A   1      34.258  19.272  24.826  1.00  0.00     0.053 A 
ATOM     24  C   UNL A   1      33.103  19.147  25.618  1.00  0.00     0.030 A 
ATOM     25  C   UNL A   1      34.770  18.118  24.220  1.00  0.00     0.030 A 
ATOM     26  C   UNL A   1      32.443  17.923  25.752  1.00  0.00     0.041 A 
ATOM     27  C   UNL A   1      34.114  16.887  24.364  1.00  0.00     0.041 A 
ATOM     28  C   UNL A   1      32.951  16.803  25.118  1.00  0.00     0.123 A 
ATOM     29  F   UNL A   1      32.306  15.635  25.222  1.00  0.00    -0.207 F 
ENDBRANCH  20  23
ENDBRANCH  11  15
ENDBRANCH   8   9
ENDBRANCH   7   8
ENDBRANCH   5   7
ENDBRANCH   2   3
ENDBRANCH   1   2
BRANCH   1  30
ATOM     30  C   UNL A   1      32.577  28.198  27.250  1.00  0.00     0.002 C 
BRANCH  30  31
ATOM     31  C   UNL A   1      34.082  28.421  27.049  1.00  0.00     0.002 C 
BRANCH  31  32
ATOM     32  C   UNL A   1      34.464  29.890  26.934  1.00  0.00     0.021 C 
BRANCH  32  33
ATOM     33  C   UNL A   1      35.387  30.339  28.052  1.00  0.00     0.116 C 
BRANCH  33  34
ATOM     34  N   UNL A   1      34.770  31.374  28.880  1.00  0.00    -0.352 N 
ATOM     35  C   UNL A   1      35.148  31.777  30.131  1.00  0.00     0.251 C 
ATOM     36  H   UNL A   1      33.991  31.834  28.493  1.00  0.00     0.163 HD
ATOM     37  O   UNL A   1      34.456  32.507  30.823  1.00  0.00    -0.269 OA
BRANCH  35  38
ATOM     38  C   UNL A   1      36.442  31.279  30.600  1.00  0.00     0.039 A 
ATOM     39  C   UNL A   1      36.497  30.083  31.311  1.00  0.00     0.014 A 
ATOM     40  C   UNL A   1      37.596  31.932  30.157  1.00  0.00     0.014 A 
ATOM     41  C   UNL A   1      37.740  29.514  31.556  1.00  0.00     0.010 A 
ATOM     42  C   UNL A   1      38.818  31.307  30.307  1.00  0.00     0.010 A 
ATOM     43  C   UNL A   1      38.901  30.109  31.032  1.00  0.00    -0.014 A 
BRANCH  43  44
ATOM     44  C   UNL A   1      40.233  29.522  31.276  1.00  0.00     0.031 A 
ATOM     45  C   UNL A   1      41.056  30.043  32.419  1.00  0.00     0.074 A 
ATOM     46  C   UNL A   1      40.709  28.578  30.445  1.00  0.00     0.049 A 
ATOM     47  N   UNL A   1      42.267  29.713  32.783  1.00  0.00    -0.248 NA
ATOM     48  C   UNL A   1      40.452  31.107  33.240  1.00  0.00     0.031 C 
ATOM     49  C   UNL A   1      40.010  28.048  29.272  1.00  0.00     0.029 A 
ATOM     50  N   UNL A   1      41.898  27.896  30.461  1.00  0.00    -0.354 N 
ATOM     51  C   UNL A   1      42.568  30.535  33.859  1.00  0.00     0.074 A 
ATOM     52  C   UNL A   1      41.452  31.434  34.042  1.00  0.00     0.031 C 
ATOM     53  C   UNL A   1      40.768  27.098  28.702  1.00  0.00     0.029 A 
ATOM     54  C   UNL A   1      42.019  26.981  29.444  1.00  0.00     0.049 A 
ATOM     55  H   UNL A   1      42.598  28.048  31.136  1.00  0.00     0.167 HD
ATOM     56  C   UNL A   1      43.665  30.515  34.650  1.00  0.00     0.037 A 
ATOM     57  C   UNL A   1      43.033  26.147  29.152  1.00  0.00     0.037 A 
ATOM     58  C   UNL A   1      44.753  29.594  34.471  1.00  0.00     0.049 A 
ATOM     59  C   UNL A   1      44.245  26.148  30.044  1.00  0.00     0.074 A 
ATOM     60  C   UNL A   1      45.888  29.440  35.244  1.00  0.00     0.029 A 
ATOM     61  N   UNL A   1      44.837  28.668  33.441  1.00  0.00    -0.354 N 
ATOM     62  N   UNL A   1      44.491  26.873  31.109  1.00  0.00    -0.248 NA
ATOM     63  C   UNL A   1      45.319  25.207  29.700  1.00  0.00     0.031 C 
ATOM     64  C   UNL A   1      46.688  28.461  34.648  1.00  0.00     0.029 A 
ATOM     65  C   UNL A   1      46.021  27.957  33.542  1.00  0.00     0.049 A 
ATOM     66  H   UNL A   1      44.157  28.537  32.741  1.00  0.00     0.167 HD
ATOM     67  C   UNL A   1      45.728  26.457  31.580  1.00  0.00     0.074 A 
ATOM     68  C   UNL A   1      46.175  25.403  30.693  1.00  0.00     0.031 C 
ATOM     69  C   UNL A   1      46.435  26.905  32.647  1.00  0.00     0.037 A 
BRANCH  56  70
ATOM     70  C   UNL A   1      43.730  31.510  35.771  1.00  0.00     0.064 A 
ATOM     71  C   UNL A   1      44.425  32.724  35.644  1.00  0.00     0.173 A 
ATOM     72  C   UNL A   1      43.078  31.255  36.987  1.00  0.00     0.173 A 
ATOM     73  F   UNL A   1      45.082  33.010  34.509  1.00  0.00    -0.203 F 
ATOM     74  C   UNL A   1      44.491  33.628  36.700  1.00  0.00     0.198 A 
ATOM     75  C   UNL A   1      43.115  32.178  38.028  1.00  0.00     0.198 A 
ATOM     76  F   UNL A   1      42.400  30.111  37.165  1.00  0.00    -0.203 F 
ATOM     77  F   UNL A   1      45.211  34.751  36.574  1.00  0.00    -0.200 F 
ATOM     78  C   UNL A   1      43.829  33.359  37.887  1.00  0.00     0.200 A 
ATOM     79  F   UNL A   1      42.465  31.922  39.171  1.00  0.00    -0.200 F 
ATOM     80  F   UNL A   1      43.886  34.233  38.901  1.00  0.00    -0.200 F 
ENDBRANCH  56  70
BRANCH  57  81
ATOM     81  C   UNL A   1      42.933  25.228  27.988  1.00  0.00     0.064 A 
ATOM     82  C   UNL A   1      42.417  23.932  28.135  1.00  0.00     0.173 A 
ATOM     83  C   UNL A   1      43.355  25.618  26.709  1.00  0.00     0.173 A 
ATOM     84  F   UNL A   1      42.013  23.505  29.340  1.00  0.00    -0.203 F 
ATOM     85  C   UNL A   1      42.353  23.054  27.054  1.00  0.00     0.198 A 
ATOM     86  C   UNL A   1      43.260  24.751  25.622  1.00  0.00     0.198 A 
ATOM     87  F   UNL A   1      43.846  26.851  26.510  1.00  0.00    -0.203 F 
ATOM     88  F   UNL A   1      41.904  21.805  27.234  1.00  0.00    -0.200 F 
ATOM     89  C   UNL A   1      42.770  23.467  25.797  1.00  0.00     0.200 A 
ATOM     90  F   UNL A   1      43.647  25.160  24.406  1.00  0.00    -0.200 F 
ATOM     91  F   UNL A   1      42.707  22.623  24.758  1.00  0.00    -0.200 F 
ENDBRANCH  57  81
BRANCH  69  92
ATOM     92  C   UNL A   1      47.743  26.229  32.938  1.00  0.00     0.064 A 
ATOM     93  C   UNL A   1      48.957  26.726  32.443  1.00  0.00     0.173 A 
ATOM     94  C   UNL A   1      47.784  25.094  33.763  1.00  0.00     0.173 A 
ATOM     95  F   UNL A   1      48.969  27.801  31.639  1.00  0.00    -0.203 F 
ATOM     96  C   UNL A   1      50.161  26.095  32.739  1.00  0.00     0.198 A 
ATOM     97  C   UNL A   1      48.993  24.488  34.087  1.00  0.00     0.198 A 
ATOM     98  F   UNL A   1      46.651  24.585  34.270  1.00  0.00    -0.203 F 
ATOM     99  F   UNL A   1      51.303  26.555  32.212  1.00  0.00    -0.200 F 
ATOM    100  C   UNL A   1      50.179  24.982  33.568  1.00  0.00     0.200 A 
ATOM    101  F   UNL A   1      49.010  23.425  34.904  1.00  0.00    -0.200 F 
ATOM    102  F   UNL A   1      51.341  24.382  33.861  1.00  0.00    -0.200 F 
ENDBRANCH  69  92
ENDBRANCH  43  44
ENDBRANCH  35  38
ENDBRANCH  33  34
ENDBRANCH  32  33
ENDBRANCH  31  32
ENDBRANCH  30  31
ENDBRANCH   1  30
TORSDOF 17
ENDMDL
MODEL 3
REMARK VINA RESULT:     -12.7      6.085     10.516
REMARK SMILES O=C(COc1ccccc1/C=C1/SC(=O)N(c2ccc(F)cc2)C1=O)NCCCCCCNC(=O)c1ccc(-c2c3nc(c(-c4c(F)c(F)c(F)c(F)c4F)c4ccc([nH]4)c(-c4c(F)c(F)c(F)c(F)c4F)c4nc(c(-c5c(F)c(F)c(F)c(F)c5F)c5ccc2[nH]5)C=C4)C=C3)cc1
REMARK SMILES IDX 28 1 27 2 26 3 1 4 2 5 3 7 4 8 5 9 6 10 10 11 7 12 9 13 8 14
REMARK SMILES IDX 11 15 12 16 13 17 24 18 14 19 16 20 25 21 15 22 17 23 18 24
REMARK SMILES IDX 23 25 19 26 22 27 20 28 21 29 29 30 30 31 31 32 32 33 33 34
REMARK SMILES IDX 34 35 35 37 36 38 37 39 98 40 38 41 97 42 39 43 40 44 41 45
REMARK SMILES IDX 91 46 42 47 96 48 90 49 92 50 43 51 95 52 89 53 88 54 44 56
REMARK SMILES IDX 76 57 56 58 75 59 57 60 60 61 74 62 93 63 58 64 59 65 73 67
REMARK SMILES IDX 94 68 61 69 45 70 46 71 54 72 47 73 48 74 52 75 55 76 49 77
REMARK SMILES IDX 50 78 53 79 51 80 77 81 78 82 86 83 79 84 80 85 84 86 87 87
REMARK SMILES IDX 81 88 82 89 85 90 83 91 62 92 63 93 71 94 64 95 65 96 69 97
REMARK SMILES IDX 72 98 66 99 67 100 70 101 68 102
REMARK H PARENT 26 6 33 36 92 55 60 66
REMARK Flexibility Score: inf
ROOT
ATOM      1  C   UNL A   1      37.381  33.974  35.704  1.00  0.00     0.021 C 
ENDROOT
BRANCH   1   2
ATOM      2  C   UNL A   1      35.914  33.538  34.969  1.00  0.00     0.116 C 
BRANCH   2   3
ATOM      3  N   UNL A   1      35.457  33.191  32.937  1.00  0.00    -0.353 N 
ATOM      4  O   UNL A   1      33.729  34.211  31.501  1.00  0.00    -0.271 OA
ATOM      5  C   UNL A   1      34.757  33.567  31.679  1.00  0.00     0.257 C 
ATOM      6  H   UNL A   1      35.953  32.372  32.709  1.00  0.00     0.163 HD
BRANCH   5   7
ATOM      7  C   UNL A   1      35.530  33.080  30.455  1.00  0.00     0.329 C 
BRANCH   7   8
ATOM      8  O   UNL A   1      36.804  32.567  30.794  1.00  0.00    -0.483 OA
BRANCH   8   9
ATOM      9  C   UNL A   1      37.870  33.438  30.714  1.00  0.00     0.127 A 
ATOM     10  C   UNL A   1      37.877  34.136  29.502  1.00  0.00     0.047 A 
ATOM     11  C   UNL A   1      39.004  33.475  31.571  1.00  0.00     0.018 A 
ATOM     12  C   UNL A   1      38.999  34.852  29.105  1.00  0.00     0.004 A 
ATOM     13  C   UNL A   1      40.131  34.192  31.141  1.00  0.00     0.012 A 
ATOM     14  C   UNL A   1      40.132  34.862  29.913  1.00  0.00     0.001 A 
BRANCH  11  15
ATOM     15  C   UNL A   1      39.150  32.742  32.847  1.00  0.00     0.033 C 
ATOM     16  C   UNL A   1      39.704  31.515  32.843  1.00  0.00     0.084 C 
ATOM     17  S   UNL A   1      38.828  29.971  34.294  1.00  0.00    -0.022 SA
ATOM     18  C   UNL A   1      40.144  30.683  31.113  1.00  0.00     0.272 C 
ATOM     19  C   UNL A   1      38.751  28.334  32.613  1.00  0.00     0.298 C 
ATOM     20  N   UNL A   1      39.590  28.958  31.126  1.00  0.00    -0.236 N 
ATOM     21  O   UNL A   1      40.802  31.233  30.242  1.00  0.00    -0.268 OA
ATOM     22  O   UNL A   1      38.189  27.272  32.830  1.00  0.00    -0.260 OA
BRANCH  20  23
ATOM     23  C   UNL A   1      39.805  28.137  29.968  1.00  0.00     0.053 A 
ATOM     24  C   UNL A   1      38.942  28.232  28.862  1.00  0.00     0.030 A 
ATOM     25  C   UNL A   1      40.925  27.305  29.859  1.00  0.00     0.030 A 
ATOM     26  C   UNL A   1      39.219  27.567  27.664  1.00  0.00     0.041 A 
ATOM     27  C   UNL A   1      41.198  26.629  28.661  1.00  0.00     0.041 A 
ATOM     28  C   UNL A   1      40.350  26.776  27.572  1.00  0.00     0.123 A 
ATOM     29  F   UNL A   1      40.633  26.161  26.418  1.00  0.00    -0.207 F 
ENDBRANCH  20  23
ENDBRANCH  11  15
ENDBRANCH   8   9
ENDBRANCH   7   8
ENDBRANCH   5   7
ENDBRANCH   2   3
ENDBRANCH   1   2
BRANCH   1  30
ATOM     30  C   UNL A   1      38.133  32.846  36.420  1.00  0.00     0.002 C 
BRANCH  30  31
ATOM     31  C   UNL A   1      37.918  32.803  37.939  1.00  0.00     0.002 C 
BRANCH  31  32
ATOM     32  C   UNL A   1      38.142  34.146  38.619  1.00  0.00     0.021 C 
BRANCH  32  33
ATOM     33  C   UNL A   1      39.591  34.363  39.013  1.00  0.00     0.116 C 
BRANCH  33  34
ATOM     34  N   UNL A   1      39.886  35.778  39.232  1.00  0.00    -0.352 N 
ATOM     35  C   UNL A   1      40.800  36.552  38.572  1.00  0.00     0.251 C 
ATOM     36  H   UNL A   1      39.365  36.227  39.937  1.00  0.00     0.163 HD
ATOM     37  O   UNL A   1      41.115  37.668  38.956  1.00  0.00    -0.269 OA
BRANCH  35  38
ATOM     38  C   UNL A   1      41.388  35.962  37.369  1.00  0.00     0.039 A 
ATOM     39  C   UNL A   1      42.682  35.451  37.420  1.00  0.00     0.014 A 
ATOM     40  C   UNL A   1      40.559  35.771  36.260  1.00  0.00     0.014 A 
ATOM     41  C   UNL A   1      43.143  34.702  36.345  1.00  0.00     0.010 A 
ATOM     42  C   UNL A   1      40.981  34.936  35.244  1.00  0.00     0.010 A 
ATOM     43  C   UNL A   1      42.285  34.420  35.267  1.00  0.00    -0.014 A 
BRANCH  43  44
ATOM     44  C   UNL A   1      42.750  33.625  34.113  1.00  0.00     0.031 A 
ATOM     45  C   UNL A   1      42.879  32.137  34.262  1.00  0.00     0.074 A 
ATOM     46  C   UNL A   1      43.103  34.246  32.974  1.00  0.00     0.049 A 
ATOM     47  N   UNL A   1      43.315  31.254  33.403  1.00  0.00    -0.248 NA
ATOM     48  C   UNL A   1      42.503  31.566  35.569  1.00  0.00     0.031 C 
ATOM     49  C   UNL A   1      43.070  35.693  32.750  1.00  0.00     0.029 A 
ATOM     50  N   UNL A   1      43.560  33.736  31.787  1.00  0.00    -0.354 N 
ATOM     51  C   UNL A   1      43.278  30.038  34.068  1.00  0.00     0.074 A 
ATOM     52  C   UNL A   1      42.856  30.300  35.425  1.00  0.00     0.031 C 
ATOM     53  C   UNL A   1      43.455  35.952  31.491  1.00  0.00     0.029 A 
ATOM     54  C   UNL A   1      43.799  34.695  30.834  1.00  0.00     0.049 A 
ATOM     55  H   UNL A   1      43.704  32.775  31.633  1.00  0.00     0.167 HD
ATOM     56  C   UNL A   1      43.537  28.804  33.577  1.00  0.00     0.037 A 
ATOM     57  C   UNL A   1      44.248  34.563  29.572  1.00  0.00     0.037 A 
ATOM     58  C   UNL A   1      43.928  28.560  32.217  1.00  0.00     0.049 A 
ATOM     59  C   UNL A   1      44.535  33.180  29.052  1.00  0.00     0.074 A 
ATOM     60  C   UNL A   1      44.160  27.349  31.591  1.00  0.00     0.029 A 
ATOM     61  N   UNL A   1      44.146  29.552  31.272  1.00  0.00    -0.354 N 
ATOM     62  N   UNL A   1      44.422  32.024  29.662  1.00  0.00    -0.248 NA
ATOM     63  C   UNL A   1      45.003  33.081  27.664  1.00  0.00     0.031 C 
ATOM     64  C   UNL A   1      44.575  27.612  30.282  1.00  0.00     0.029 A 
ATOM     65  C   UNL A   1      44.537  28.982  30.072  1.00  0.00     0.049 A 
ATOM     66  H   UNL A   1      44.038  30.518  31.430  1.00  0.00     0.167 HD
ATOM     67  C   UNL A   1      44.773  31.061  28.727  1.00  0.00     0.074 A 
ATOM     68  C   UNL A   1      45.087  31.768  27.502  1.00  0.00     0.031 C 
ATOM     69  C   UNL A   1      44.834  29.713  28.865  1.00  0.00     0.037 A 
BRANCH  56  70
ATOM     70  C   UNL A   1      43.400  27.641  34.516  1.00  0.00     0.064 A 
ATOM     71  C   UNL A   1      42.194  26.935  34.648  1.00  0.00     0.173 A 
ATOM     72  C   UNL A   1      44.494  27.217  35.285  1.00  0.00     0.173 A 
ATOM     73  F   UNL A   1      41.111  27.310  33.950  1.00  0.00    -0.203 F 
ATOM     74  C   UNL A   1      42.078  25.870  35.537  1.00  0.00     0.198 A 
ATOM     75  C   UNL A   1      44.385  26.127  36.146  1.00  0.00     0.198 A 
ATOM     76  F   UNL A   1      45.670  27.855  35.200  1.00  0.00    -0.203 F 
ATOM     77  F   UNL A   1      40.899  25.251  35.690  1.00  0.00    -0.200 F 
ATOM     78  C   UNL A   1      43.176  25.462  36.278  1.00  0.00     0.200 A 
ATOM     79  F   UNL A   1      45.450  25.727  36.853  1.00  0.00    -0.200 F 
ATOM     80  F   UNL A   1      43.067  24.431  37.128  1.00  0.00    -0.200 F 
ENDBRANCH  56  70
BRANCH  57  81
ATOM     81  C   UNL A   1      44.423  35.763  28.712  1.00  0.00     0.064 A 
ATOM     82  C   UNL A   1      43.380  36.224  27.897  1.00  0.00     0.173 A 
ATOM     83  C   UNL A   1      45.634  36.469  28.680  1.00  0.00     0.173 A 
ATOM     84  F   UNL A   1      42.206  35.575  27.881  1.00  0.00    -0.203 F 
ATOM     85  C   UNL A   1      43.550  37.327  27.062  1.00  0.00     0.198 A 
ATOM     86  C   UNL A   1      45.793  37.591  27.869  1.00  0.00     0.198 A 
ATOM     87  F   UNL A   1      46.662  36.077  29.448  1.00  0.00    -0.203 F 
ATOM     88  F   UNL A   1      42.553  37.714  26.255  1.00  0.00    -0.200 F 
ATOM     89  C   UNL A   1      44.755  38.013  27.053  1.00  0.00     0.200 A 
ATOM     90  F   UNL A   1      46.953  38.262  27.877  1.00  0.00    -0.200 F 
ATOM     91  F   UNL A   1      44.918  39.075  26.252  1.00  0.00    -0.200 F 
ENDBRANCH  57  81
BRANCH  69  92
ATOM     92  C   UNL A   1      45.214  28.914  27.652  1.00  0.00     0.064 A 
ATOM     93  C   UNL A   1      46.544  28.550  27.395  1.00  0.00     0.173 A 
ATOM     94  C   UNL A   1      44.225  28.468  26.762  1.00  0.00     0.173 A 
ATOM     95  F   UNL A   1      47.527  28.963  28.210  1.00  0.00    -0.203 F 
ATOM     96  C   UNL A   1      46.872  27.794  26.275  1.00  0.00     0.198 A 
ATOM     97  C   UNL A   1      44.554  27.682  25.663  1.00  0.00     0.198 A 
ATOM     98  F   UNL A   1      42.937  28.782  26.968  1.00  0.00    -0.203 F 
ATOM     99  F   UNL A   1      48.155  27.503  26.019  1.00  0.00    -0.200 F 
ATOM    100  C   UNL A   1      45.877  27.353  25.415  1.00  0.00     0.200 A 
ATOM    101  F   UNL A   1      43.588  27.240  24.845  1.00  0.00    -0.200 F 
ATOM    102  F   UNL A   1      46.195  26.615  24.342  1.00  0.00    -0.200 F 
ENDBRANCH  69  92
ENDBRANCH  43  44
ENDBRANCH  35  38
ENDBRANCH  33  34
ENDBRANCH  32  33
ENDBRANCH  31  32
ENDBRANCH  30  31
ENDBRANCH   1  30
TORSDOF 17
ENDMDL
