MODEL 1
REMARK VINA RESULT:     -13.2      0.000      0.000
REMARK SMILES Cc1sc2nc3c(S[C@H](C)C(=O)NCCCCCCNC(=O)c4ccc(-c5c6nc(c(-c7c(F)c(F)c(F)c(F)c7F)c7ccc([nH]7)c(-c7c(F)c(F)c(F)c(F)c7F)c7nc(c(-c8c(F)c(F)c(F)c(F)c8F)c8ccc5[nH]8)C=C7)C=C6)cc4)cc(C(=O)c4ccccc4O)cn3c(=O)c2c1C
REMARK SMILES IDX 15 1 14 2 13 3 11 4 12 5 9 7 10 8 8 9 7 10 1 11 2 12 3 13
REMARK SMILES IDX 102 14 4 15 101 16 103 17 5 18 99 19 6 20 98 21 100 22 97 23
REMARK SMILES IDX 86 24 87 25 88 26 89 27 90 28 91 29 95 30 92 31 94 32 93 33
REMARK SMILES IDX 96 34 16 36 17 37 18 38 19 39 20 40 21 41 22 43 23 44 24 45
REMARK SMILES IDX 85 46 25 47 84 48 26 49 27 50 28 51 78 52 29 53 83 54 77 55
REMARK SMILES IDX 79 56 30 57 82 58 76 59 75 60 31 62 63 63 43 64 62 65 44 66
REMARK SMILES IDX 47 67 61 68 80 69 45 70 46 71 60 73 81 74 48 75 32 76 33 77
REMARK SMILES IDX 41 78 34 79 35 80 39 81 42 82 36 83 37 84 40 85 38 86 64 87
REMARK SMILES IDX 65 88 73 89 66 90 67 91 71 92 74 93 68 94 69 95 72 96 70 97
REMARK SMILES IDX 49 98 50 99 58 100 51 101 52 102 56 103 59 104 53 105 54 106
REMARK SMILES IDX 57 107 55 108
REMARK H PARENT 13 6 96 35 20 42 79 61 47 72
REMARK Flexibility Score: inf
ROOT
ATOM      1  C   UNL A   1      43.312  41.213  25.854  1.00  0.00     0.021 C 
ENDROOT
BRANCH   1   2
ATOM      2  C   UNL A   1      42.859  42.216  24.556  1.00  0.00     0.116 C 
BRANCH   2   3
ATOM      3  N   UNL A   1      43.670  43.987  23.768  1.00  0.00    -0.355 N 
ATOM      4  C   UNL A   1      44.878  44.832  23.719  1.00  0.00     0.233 C 
ATOM      5  O   UNL A   1      44.686  45.899  23.110  1.00  0.00    -0.274 OA
ATOM      6  H   UNL A   1      42.977  44.420  23.218  1.00  0.00     0.163 HD
BRANCH   4   7
ATOM      7  C   UNL A   1      46.389  44.509  24.258  1.00  0.00     0.138 C 
ATOM      8  C   UNL A   1      46.931  44.865  25.656  1.00  0.00     0.030 C 
BRANCH   7   9
ATOM      9  S   UNL A   1      46.919  42.756  23.914  1.00  0.00    -0.109 SA
BRANCH   9  10
ATOM     10  C   UNL A   1      47.487  42.931  22.295  1.00  0.00     0.052 A 
ATOM     11  C   UNL A   1      40.437  44.258  18.192  1.00  0.00     0.057 C 
ATOM     12  C   UNL A   1      41.751  44.229  18.921  1.00  0.00     0.007 A 
ATOM     13  S   UNL A   1      41.988  43.007  20.155  1.00  0.00    -0.120 S 
ATOM     14  C   UNL A   1      42.839  45.041  18.604  1.00  0.00    -0.022 A 
ATOM     15  C   UNL A   1      43.665  43.304  20.308  1.00  0.00     0.131 A 
ATOM     16  C   UNL A   1      43.912  44.783  19.489  1.00  0.00     0.080 A 
ATOM     17  C   UNL A   1      42.951  45.910  17.381  1.00  0.00     0.046 C 
ATOM     18  N   UNL A   1      44.970  42.422  21.138  1.00  0.00    -0.218 NA
ATOM     19  C   UNL A   1      45.573  45.615  19.599  1.00  0.00     0.266 A 
ATOM     20  C   UNL A   1      46.404  43.124  21.305  1.00  0.00     0.155 A 
ATOM     21  N   UNL A   1      46.766  44.704  20.508  1.00  0.00    -0.266 N 
ATOM     22  O   UNL A   1      45.848  46.606  18.930  1.00  0.00    -0.268 OA
ATOM     23  C   UNL A   1      48.093  44.973  20.269  1.00  0.00     0.108 A 
ATOM     24  C   UNL A   1      48.710  43.435  22.037  1.00  0.00     0.032 A 
ATOM     25  C   UNL A   1      49.038  44.221  20.845  1.00  0.00     0.041 A 
BRANCH  25  26
ATOM     26  C   UNL A   1      50.398  44.461  20.284  1.00  0.00     0.198 C 
ATOM     27  O   UNL A   1      50.626  45.281  19.395  1.00  0.00    -0.288 OA
BRANCH  26  28
ATOM     28  C   UNL A   1      51.540  43.779  20.885  1.00  0.00     0.064 A 
ATOM     29  C   UNL A   1      51.979  44.108  22.170  1.00  0.00     0.016 A 
ATOM     30  C   UNL A   1      52.203  42.819  20.120  1.00  0.00     0.126 A 
ATOM     31  C   UNL A   1      53.167  43.562  22.636  1.00  0.00     0.001 A 
ATOM     32  C   UNL A   1      53.391  42.281  20.586  1.00  0.00     0.047 A 
ATOM     33  C   UNL A   1      53.883  42.671  21.835  1.00  0.00     0.004 A 
BRANCH  30  34
ATOM     34  O   UNL A   1      51.739  42.385  18.909  1.00  0.00    -0.507 OA
ATOM     35  H   UNL A   1      51.385  41.521  18.825  1.00  0.00     0.293 HD
ENDBRANCH  30  34
ENDBRANCH  26  28
ENDBRANCH  25  26
ENDBRANCH   9  10
ENDBRANCH   7   9
ENDBRANCH   4   7
ENDBRANCH   2   3
ENDBRANCH   1   2
BRANCH   1  36
ATOM     36  C   UNL A   1      42.142  40.408  26.440  1.00  0.00     0.002 C 
BRANCH  36  37
ATOM     37  C   UNL A   1      42.550  39.102  27.136  1.00  0.00     0.002 C 
BRANCH  37  38
ATOM     38  C   UNL A   1      44.060  39.028  27.293  1.00  0.00     0.021 C 
BRANCH  38  39
ATOM     39  C   UNL A   1      44.462  37.564  27.275  1.00  0.00     0.116 C 
BRANCH  39  40
ATOM     40  N   UNL A   1      43.682  36.834  26.277  1.00  0.00    -0.352 N 
ATOM     41  C   UNL A   1      43.064  35.614  26.428  1.00  0.00     0.251 C 
ATOM     42  H   UNL A   1      43.587  37.265  25.397  1.00  0.00     0.163 HD
ATOM     43  O   UNL A   1      42.680  34.953  25.475  1.00  0.00    -0.269 OA
BRANCH  41  44
ATOM     44  C   UNL A   1      42.974  35.116  27.809  1.00  0.00     0.039 A 
ATOM     45  C   UNL A   1      43.861  34.103  28.185  1.00  0.00     0.014 A 
ATOM     46  C   UNL A   1      41.816  35.390  28.534  1.00  0.00     0.014 A 
ATOM     47  C   UNL A   1      43.438  33.171  29.111  1.00  0.00     0.010 A 
ATOM     48  C   UNL A   1      41.449  34.511  29.543  1.00  0.00     0.010 A 
ATOM     49  C   UNL A   1      42.221  33.358  29.772  1.00  0.00    -0.014 A 
BRANCH  49  50
ATOM     50  C   UNL A   1      42.005  32.447  30.904  1.00  0.00     0.031 A 
ATOM     51  C   UNL A   1      40.610  32.666  31.393  1.00  0.00     0.074 A 
ATOM     52  C   UNL A   1      42.605  31.246  31.060  1.00  0.00     0.049 A 
ATOM     53  N   UNL A   1      39.603  32.147  30.754  1.00  0.00    -0.248 NA
ATOM     54  C   UNL A   1      40.239  33.784  32.260  1.00  0.00     0.031 C 
ATOM     55  C   UNL A   1      43.044  30.396  29.952  1.00  0.00     0.029 A 
ATOM     56  N   UNL A   1      42.745  30.450  32.190  1.00  0.00    -0.354 N 
ATOM     57  C   UNL A   1      38.479  32.871  31.089  1.00  0.00     0.074 A 
ATOM     58  C   UNL A   1      38.914  33.867  32.043  1.00  0.00     0.031 C 
ATOM     59  C   UNL A   1      43.223  29.147  30.424  1.00  0.00     0.029 A 
ATOM     60  C   UNL A   1      43.085  29.123  31.883  1.00  0.00     0.049 A 
ATOM     61  H   UNL A   1      42.620  30.783  33.108  1.00  0.00     0.167 HD
ATOM     62  C   UNL A   1      37.270  32.597  30.534  1.00  0.00     0.037 A 
ATOM     63  C   UNL A   1      42.582  28.045  32.561  1.00  0.00     0.037 A 
ATOM     64  C   UNL A   1      37.275  31.589  29.513  1.00  0.00     0.049 A 
ATOM     65  C   UNL A   1      41.158  28.033  32.063  1.00  0.00     0.074 A 
ATOM     66  C   UNL A   1      37.202  31.523  28.139  1.00  0.00     0.029 A 
ATOM     67  N   UNL A   1      37.438  30.284  29.911  1.00  0.00    -0.354 N 
ATOM     68  N   UNL A   1      40.767  27.653  30.876  1.00  0.00    -0.248 NA
ATOM     69  C   UNL A   1      40.209  28.879  32.788  1.00  0.00     0.031 C 
ATOM     70  C   UNL A   1      37.804  30.271  27.788  1.00  0.00     0.029 A 
ATOM     71  C   UNL A   1      38.213  29.657  28.971  1.00  0.00     0.049 A 
ATOM     72  H   UNL A   1      37.065  29.874  30.726  1.00  0.00     0.167 HD
ATOM     73  C   UNL A   1      39.665  28.456  30.583  1.00  0.00     0.074 A 
ATOM     74  C   UNL A   1      39.371  29.178  31.806  1.00  0.00     0.031 C 
ATOM     75  C   UNL A   1      39.176  28.640  29.322  1.00  0.00     0.037 A 
BRANCH  62  76
ATOM     76  C   UNL A   1      35.981  33.027  31.098  1.00  0.00     0.064 A 
ATOM     77  C   UNL A   1      35.305  34.030  30.383  1.00  0.00     0.173 A 
ATOM     78  C   UNL A   1      35.527  32.704  32.377  1.00  0.00     0.173 A 
ATOM     79  F   UNL A   1      35.726  34.371  29.152  1.00  0.00    -0.203 F 
ATOM     80  C   UNL A   1      34.252  34.732  30.946  1.00  0.00     0.198 A 
ATOM     81  C   UNL A   1      34.453  33.400  32.935  1.00  0.00     0.198 A 
ATOM     82  F   UNL A   1      36.147  31.762  33.102  1.00  0.00    -0.203 F 
ATOM     83  F   UNL A   1      33.679  35.732  30.262  1.00  0.00    -0.200 F 
ATOM     84  C   UNL A   1      33.832  34.424  32.228  1.00  0.00     0.200 A 
ATOM     85  F   UNL A   1      34.038  33.109  34.176  1.00  0.00    -0.200 F 
ATOM     86  F   UNL A   1      32.837  35.127  32.788  1.00  0.00    -0.200 F 
ENDBRANCH  62  76
BRANCH  63  87
ATOM     87  C   UNL A   1      42.929  27.890  34.013  1.00  0.00     0.064 A 
ATOM     88  C   UNL A   1      43.456  26.663  34.462  1.00  0.00     0.173 A 
ATOM     89  C   UNL A   1      42.745  28.872  35.003  1.00  0.00     0.173 A 
ATOM     90  F   UNL A   1      43.566  25.626  33.617  1.00  0.00    -0.203 F 
ATOM     91  C   UNL A   1      43.891  26.477  35.774  1.00  0.00     0.198 A 
ATOM     92  C   UNL A   1      43.215  28.700  36.309  1.00  0.00     0.198 A 
ATOM     93  F   UNL A   1      42.117  30.024  34.728  1.00  0.00    -0.203 F 
ATOM     94  F   UNL A   1      44.414  25.298  36.141  1.00  0.00    -0.200 F 
ATOM     95  C   UNL A   1      43.806  27.509  36.689  1.00  0.00     0.200 A 
ATOM     96  F   UNL A   1      43.113  29.704  37.192  1.00  0.00    -0.200 F 
ATOM     97  F   UNL A   1      44.285  27.355  37.931  1.00  0.00    -0.200 F 
ENDBRANCH  63  87
BRANCH  75  98
ATOM     98  C   UNL A   1      39.849  27.860  28.240  1.00  0.00     0.064 A 
ATOM     99  C   UNL A   1      40.773  28.477  27.386  1.00  0.00     0.173 A 
ATOM    100  C   UNL A   1      39.636  26.479  28.086  1.00  0.00     0.173 A 
ATOM    101  F   UNL A   1      41.020  29.792  27.493  1.00  0.00    -0.203 F 
ATOM    102  C   UNL A   1      41.481  27.738  26.444  1.00  0.00     0.198 A 
ATOM    103  C   UNL A   1      40.371  25.738  27.166  1.00  0.00     0.198 A 
ATOM    104  F   UNL A   1      38.739  25.833  28.849  1.00  0.00    -0.203 F 
ATOM    105  F   UNL A   1      42.373  28.349  25.652  1.00  0.00    -0.200 F 
ATOM    106  C   UNL A   1      41.297  26.367  26.349  1.00  0.00     0.200 A 
ATOM    107  F   UNL A   1      40.210  24.407  27.093  1.00  0.00    -0.200 F 
ATOM    108  F   UNL A   1      42.029  25.648  25.486  1.00  0.00    -0.200 F 
ENDBRANCH  75  98
ENDBRANCH  49  50
ENDBRANCH  41  44
ENDBRANCH  39  40
ENDBRANCH  38  39
ENDBRANCH  37  38
ENDBRANCH  36  37
ENDBRANCH   1  36
TORSDOF 18
ENDMDL
MODEL 2
REMARK VINA RESULT:     -13.1      8.782     15.493
REMARK SMILES Cc1sc2nc3c(S[C@H](C)C(=O)NCCCCCCNC(=O)c4ccc(-c5c6nc(c(-c7c(F)c(F)c(F)c(F)c7F)c7ccc([nH]7)c(-c7c(F)c(F)c(F)c(F)c7F)c7nc(c(-c8c(F)c(F)c(F)c(F)c8F)c8ccc5[nH]8)C=C7)C=C6)cc4)cc(C(=O)c4ccccc4O)cn3c(=O)c2c1C
REMARK SMILES IDX 15 1 14 2 13 3 11 4 12 5 9 7 10 8 8 9 7 10 1 11 2 12 3 13
REMARK SMILES IDX 102 14 4 15 101 16 103 17 5 18 99 19 6 20 98 21 100 22 97 23
REMARK SMILES IDX 86 24 87 25 88 26 89 27 90 28 91 29 95 30 92 31 94 32 93 33
REMARK SMILES IDX 96 34 16 36 17 37 18 38 19 39 20 40 21 41 22 43 23 44 24 45
REMARK SMILES IDX 85 46 25 47 84 48 26 49 27 50 28 51 78 52 29 53 83 54 77 55
REMARK SMILES IDX 79 56 30 57 82 58 76 59 75 60 31 62 63 63 43 64 62 65 44 66
REMARK SMILES IDX 47 67 61 68 80 69 45 70 46 71 60 73 81 74 48 75 32 76 33 77
REMARK SMILES IDX 41 78 34 79 35 80 39 81 42 82 36 83 37 84 40 85 38 86 64 87
REMARK SMILES IDX 65 88 73 89 66 90 67 91 71 92 74 93 68 94 69 95 72 96 70 97
REMARK SMILES IDX 49 98 50 99 58 100 51 101 52 102 56 103 59 104 53 105 54 106
REMARK SMILES IDX 57 107 55 108
REMARK H PARENT 13 6 96 35 20 42 79 61 47 72
REMARK Flexibility Score: inf
ROOT
ATOM      1  C   UNL A   1      34.548  30.071  27.166  1.00  0.00     0.021 C 
ENDROOT
BRANCH   1   2
ATOM      2  C   UNL A   1      33.311  29.458  26.172  1.00  0.00     0.116 C 
BRANCH   2   3
ATOM      3  N   UNL A   1      33.314  28.133  24.541  1.00  0.00    -0.355 N 
ATOM      4  C   UNL A   1      33.691  26.776  24.103  1.00  0.00     0.233 C 
ATOM      5  O   UNL A   1      33.508  26.603  22.885  1.00  0.00    -0.274 OA
ATOM      6  H   UNL A   1      32.906  28.596  23.773  1.00  0.00     0.163 HD
BRANCH   4   7
ATOM      7  C   UNL A   1      34.201  25.504  24.996  1.00  0.00     0.138 C 
ATOM      8  C   UNL A   1      33.323  24.687  25.965  1.00  0.00     0.030 C 
BRANCH   7   9
ATOM      9  S   UNL A   1      35.181  24.269  24.001  1.00  0.00    -0.109 SA
BRANCH   9  10
ATOM     10  C   UNL A   1      36.043  23.484  25.273  1.00  0.00     0.052 A 
ATOM     11  C   UNL A   1      33.027  15.803  24.834  1.00  0.00     0.057 C 
ATOM     12  C   UNL A   1      33.749  17.121  24.813  1.00  0.00     0.007 A 
ATOM     13  S   UNL A   1      32.794  18.587  24.731  1.00  0.00    -0.120 S 
ATOM     14  C   UNL A   1      35.128  17.259  24.966  1.00  0.00    -0.022 A 
ATOM     15  C   UNL A   1      34.116  19.619  25.068  1.00  0.00     0.131 A 
ATOM     16  C   UNL A   1      35.491  18.624  24.878  1.00  0.00     0.080 A 
ATOM     17  C   UNL A   1      36.074  16.164  25.376  1.00  0.00     0.046 C 
ATOM     18  N   UNL A   1      34.216  21.350  25.473  1.00  0.00    -0.218 NA
ATOM     19  C   UNL A   1      37.183  19.397  24.925  1.00  0.00     0.266 A 
ATOM     20  C   UNL A   1      35.649  22.071  25.471  1.00  0.00     0.155 A 
ATOM     21  N   UNL A   1      37.170  21.121  25.248  1.00  0.00    -0.266 N 
ATOM     22  O   UNL A   1      38.206  18.718  24.925  1.00  0.00    -0.268 OA
ATOM     23  C   UNL A   1      38.317  21.685  25.753  1.00  0.00     0.108 A 
ATOM     24  C   UNL A   1      37.286  23.874  25.615  1.00  0.00     0.032 A 
ATOM     25  C   UNL A   1      38.316  22.969  26.131  1.00  0.00     0.041 A 
BRANCH  25  26
ATOM     26  C   UNL A   1      39.536  23.354  26.897  1.00  0.00     0.198 C 
ATOM     27  O   UNL A   1      40.411  22.551  27.220  1.00  0.00    -0.288 OA
BRANCH  26  28
ATOM     28  C   UNL A   1      39.772  24.764  27.187  1.00  0.00     0.064 A 
ATOM     29  C   UNL A   1      39.115  25.400  28.243  1.00  0.00     0.016 A 
ATOM     30  C   UNL A   1      40.643  25.465  26.351  1.00  0.00     0.126 A 
ATOM     31  C   UNL A   1      39.234  26.777  28.379  1.00  0.00     0.001 A 
ATOM     32  C   UNL A   1      40.754  26.839  26.487  1.00  0.00     0.047 A 
ATOM     33  C   UNL A   1      40.031  27.496  27.487  1.00  0.00     0.004 A 
BRANCH  30  34
ATOM     34  O   UNL A   1      41.393  24.858  25.383  1.00  0.00    -0.507 OA
ATOM     35  H   UNL A   1      41.482  25.257  24.540  1.00  0.00     0.293 HD
ENDBRANCH  30  34
ENDBRANCH  26  28
ENDBRANCH  25  26
ENDBRANCH   9  10
ENDBRANCH   7   9
ENDBRANCH   4   7
ENDBRANCH   2   3
ENDBRANCH   1   2
BRANCH   1  36
ATOM     36  C   UNL A   1      34.084  31.215  28.081  1.00  0.00     0.002 C 
BRANCH  36  37
ATOM     37  C   UNL A   1      34.974  32.466  28.042  1.00  0.00     0.002 C 
BRANCH  37  38
ATOM     38  C   UNL A   1      34.206  33.684  28.525  1.00  0.00     0.021 C 
BRANCH  38  39
ATOM     39  C   UNL A   1      34.984  34.304  29.673  1.00  0.00     0.116 C 
BRANCH  39  40
ATOM     40  N   UNL A   1      34.352  33.978  30.950  1.00  0.00    -0.352 N 
ATOM     41  C   UNL A   1      34.754  33.029  31.863  1.00  0.00     0.251 C 
ATOM     42  H   UNL A   1      33.548  34.496  31.185  1.00  0.00     0.163 HD
ATOM     43  O   UNL A   1      34.021  32.630  32.755  1.00  0.00    -0.269 OA
BRANCH  41  44
ATOM     44  C   UNL A   1      36.093  32.464  31.641  1.00  0.00     0.039 A 
ATOM     45  C   UNL A   1      36.171  31.110  31.305  1.00  0.00     0.014 A 
ATOM     46  C   UNL A   1      37.193  33.169  32.125  1.00  0.00     0.014 A 
ATOM     47  C   UNL A   1      37.267  30.389  31.734  1.00  0.00     0.010 A 
ATOM     48  C   UNL A   1      38.339  32.456  32.451  1.00  0.00     0.010 A 
ATOM     49  C   UNL A   1      38.340  31.055  32.331  1.00  0.00    -0.014 A 
BRANCH  49  50
ATOM     50  C   UNL A   1      39.539  30.225  32.508  1.00  0.00     0.031 A 
ATOM     51  C   UNL A   1      40.533  30.651  31.476  1.00  0.00     0.074 A 
ATOM     52  C   UNL A   1      39.954  29.700  33.682  1.00  0.00     0.049 A 
ATOM     53  N   UNL A   1      41.230  31.735  31.647  1.00  0.00    -0.248 NA
ATOM     54  C   UNL A   1      40.470  30.210  30.083  1.00  0.00     0.031 C 
ATOM     55  C   UNL A   1      39.702  30.307  34.989  1.00  0.00     0.029 A 
ATOM     56  N   UNL A   1      40.848  28.668  33.941  1.00  0.00    -0.354 N 
ATOM     57  C   UNL A   1      41.668  32.148  30.407  1.00  0.00     0.074 A 
ATOM     58  C   UNL A   1      41.190  31.162  29.465  1.00  0.00     0.031 C 
ATOM     59  C   UNL A   1      40.560  29.769  35.878  1.00  0.00     0.029 A 
ATOM     60  C   UNL A   1      41.306  28.665  35.268  1.00  0.00     0.049 A 
ATOM     61  H   UNL A   1      41.129  28.010  33.265  1.00  0.00     0.167 HD
ATOM     62  C   UNL A   1      42.384  33.293  30.256  1.00  0.00     0.037 A 
ATOM     63  C   UNL A   1      42.597  28.364  35.613  1.00  0.00     0.037 A 
ATOM     64  C   UNL A   1      42.552  34.077  31.446  1.00  0.00     0.049 A 
ATOM     65  C   UNL A   1      43.317  29.598  35.130  1.00  0.00     0.074 A 
ATOM     66  C   UNL A   1      42.036  35.231  31.992  1.00  0.00     0.029 A 
ATOM     67  N   UNL A   1      43.423  33.606  32.397  1.00  0.00    -0.354 N 
ATOM     68  N   UNL A   1      43.285  30.774  35.699  1.00  0.00    -0.248 NA
ATOM     69  C   UNL A   1      43.737  29.598  33.728  1.00  0.00     0.031 C 
ATOM     70  C   UNL A   1      42.258  35.114  33.403  1.00  0.00     0.029 A 
ATOM     71  C   UNL A   1      42.888  33.891  33.627  1.00  0.00     0.049 A 
ATOM     72  H   UNL A   1      44.277  33.146  32.228  1.00  0.00     0.167 HD
ATOM     73  C   UNL A   1      43.384  31.686  34.649  1.00  0.00     0.074 A 
ATOM     74  C   UNL A   1      43.671  30.896  33.468  1.00  0.00     0.031 C 
ATOM     75  C   UNL A   1      43.037  33.003  34.756  1.00  0.00     0.037 A 
BRANCH  62  76
ATOM     76  C   UNL A   1      43.212  33.605  29.079  1.00  0.00     0.064 A 
ATOM     77  C   UNL A   1      42.730  34.630  28.248  1.00  0.00     0.173 A 
ATOM     78  C   UNL A   1      44.262  32.813  28.616  1.00  0.00     0.173 A 
ATOM     79  F   UNL A   1      41.711  35.403  28.663  1.00  0.00    -0.203 F 
ATOM     80  C   UNL A   1      43.234  34.819  26.971  1.00  0.00     0.198 A 
ATOM     81  C   UNL A   1      44.781  33.018  27.336  1.00  0.00     0.198 A 
ATOM     82  F   UNL A   1      44.747  31.815  29.369  1.00  0.00    -0.203 F 
ATOM     83  F   UNL A   1      42.699  35.759  26.179  1.00  0.00    -0.200 F 
ATOM     84  C   UNL A   1      44.254  34.006  26.510  1.00  0.00     0.200 A 
ATOM     85  F   UNL A   1      45.770  32.236  26.881  1.00  0.00    -0.200 F 
ATOM     86  F   UNL A   1      44.718  34.164  25.263  1.00  0.00    -0.200 F 
ENDBRANCH  62  76
BRANCH  63  87
ATOM     87  C   UNL A   1      43.103  26.978  35.342  1.00  0.00     0.064 A 
ATOM     88  C   UNL A   1      42.204  25.895  35.415  1.00  0.00     0.173 A 
ATOM     89  C   UNL A   1      44.436  26.642  35.043  1.00  0.00     0.173 A 
ATOM     90  F   UNL A   1      40.934  26.097  35.802  1.00  0.00    -0.203 F 
ATOM     91  C   UNL A   1      42.579  24.594  35.082  1.00  0.00     0.198 A 
ATOM     92  C   UNL A   1      44.805  25.345  34.673  1.00  0.00     0.198 A 
ATOM     93  F   UNL A   1      45.409  27.562  35.089  1.00  0.00    -0.203 F 
ATOM     94  F   UNL A   1      41.675  23.605  35.139  1.00  0.00    -0.200 F 
ATOM     95  C   UNL A   1      43.871  24.325  34.674  1.00  0.00     0.200 A 
ATOM     96  F   UNL A   1      46.066  25.093  34.293  1.00  0.00    -0.200 F 
ATOM     97  F   UNL A   1      44.217  23.088  34.289  1.00  0.00    -0.200 F 
ENDBRANCH  63  87
BRANCH  75  98
ATOM     98  C   UNL A   1      42.600  33.455  36.111  1.00  0.00     0.064 A 
ATOM     99  C   UNL A   1      41.238  33.538  36.430  1.00  0.00     0.173 A 
ATOM    100  C   UNL A   1      43.529  33.745  37.125  1.00  0.00     0.173 A 
ATOM    101  F   UNL A   1      40.308  33.266  35.501  1.00  0.00    -0.203 F 
ATOM    102  C   UNL A   1      40.824  33.858  37.718  1.00  0.00     0.198 A 
ATOM    103  C   UNL A   1      43.110  34.032  38.421  1.00  0.00     0.198 A 
ATOM    104  F   UNL A   1      44.849  33.718  36.877  1.00  0.00    -0.203 F 
ATOM    105  F   UNL A   1      39.515  33.912  38.003  1.00  0.00    -0.200 F 
ATOM    106  C   UNL A   1      41.758  34.083  38.718  1.00  0.00     0.200 A 
ATOM    107  F   UNL A   1      44.016  34.223  39.393  1.00  0.00    -0.200 F 
ATOM    108  F   UNL A   1      41.355  34.326  39.973  1.00  0.00    -0.200 F 
ENDBRANCH  75  98
ENDBRANCH  49  50
ENDBRANCH  41  44
ENDBRANCH  39  40
ENDBRANCH  38  39
ENDBRANCH  37  38
ENDBRANCH  36  37
ENDBRANCH   1  36
TORSDOF 18
ENDMDL
MODEL 3
REMARK VINA RESULT:     -13.0      8.362     13.457
REMARK SMILES Cc1sc2nc3c(S[C@H](C)C(=O)NCCCCCCNC(=O)c4ccc(-c5c6nc(c(-c7c(F)c(F)c(F)c(F)c7F)c7ccc([nH]7)c(-c7c(F)c(F)c(F)c(F)c7F)c7nc(c(-c8c(F)c(F)c(F)c(F)c8F)c8ccc5[nH]8)C=C7)C=C6)cc4)cc(C(=O)c4ccccc4O)cn3c(=O)c2c1C
REMARK SMILES IDX 15 1 14 2 13 3 11 4 12 5 9 7 10 8 8 9 7 10 1 11 2 12 3 13
REMARK SMILES IDX 102 14 4 15 101 16 103 17 5 18 99 19 6 20 98 21 100 22 97 23
REMARK SMILES IDX 86 24 87 25 88 26 89 27 90 28 91 29 95 30 92 31 94 32 93 33
REMARK SMILES IDX 96 34 16 36 17 37 18 38 19 39 20 40 21 41 22 43 23 44 24 45
REMARK SMILES IDX 85 46 25 47 84 48 26 49 27 50 28 51 78 52 29 53 83 54 77 55
REMARK SMILES IDX 79 56 30 57 82 58 76 59 75 60 31 62 63 63 43 64 62 65 44 66
REMARK SMILES IDX 47 67 61 68 80 69 45 70 46 71 60 73 81 74 48 75 32 76 33 77
REMARK SMILES IDX 41 78 34 79 35 80 39 81 42 82 36 83 37 84 40 85 38 86 64 87
REMARK SMILES IDX 65 88 73 89 66 90 67 91 71 92 74 93 68 94 69 95 72 96 70 97
REMARK SMILES IDX 49 98 50 99 58 100 51 101 52 102 56 103 59 104 53 105 54 106
REMARK SMILES IDX 57 107 55 108
REMARK H PARENT 13 6 96 35 20 42 79 61 47 72
REMARK Flexibility Score: inf
ROOT
ATOM      1  C   UNL A   1      40.025  33.291  33.321  1.00  0.00     0.021 C 
ENDROOT
BRANCH   1   2
ATOM      2  C   UNL A   1      39.072  32.568  32.111  1.00  0.00     0.116 C 
BRANCH   2   3
ATOM      3  N   UNL A   1      38.118  30.701  31.968  1.00  0.00    -0.355 N 
ATOM      4  C   UNL A   1      37.703  29.638  31.034  1.00  0.00     0.233 C 
ATOM      5  O   UNL A   1      37.032  28.752  31.592  1.00  0.00    -0.274 OA
ATOM      6  H   UNL A   1      37.843  30.431  32.874  1.00  0.00     0.163 HD
BRANCH   4   7
ATOM      7  C   UNL A   1      38.082  29.442  29.454  1.00  0.00     0.138 C 
ATOM      8  C   UNL A   1      37.787  28.181  28.618  1.00  0.00     0.030 C 
BRANCH   7   9
ATOM      9  S   UNL A   1      37.584  30.900  28.405  1.00  0.00    -0.109 SA
BRANCH   9  10
ATOM     10  C   UNL A   1      35.867  30.763  28.507  1.00  0.00     0.052 A 
ATOM     11  C   UNL A   1      34.021  36.834  33.801  1.00  0.00     0.057 C 
ATOM     12  C   UNL A   1      34.288  35.864  32.684  1.00  0.00     0.007 A 
ATOM     13  S   UNL A   1      35.602  34.721  32.877  1.00  0.00    -0.120 S 
ATOM     14  C   UNL A   1      33.488  35.740  31.549  1.00  0.00    -0.022 A 
ATOM     15  C   UNL A   1      35.155  33.785  31.517  1.00  0.00     0.131 A 
ATOM     16  C   UNL A   1      34.022  34.755  30.685  1.00  0.00     0.080 A 
ATOM     17  C   UNL A   1      32.145  36.388  31.354  1.00  0.00     0.046 C 
ATOM     18  N   UNL A   1      35.689  32.191  30.928  1.00  0.00    -0.218 NA
ATOM     19  C   UNL A   1      33.435  34.223  29.002  1.00  0.00     0.266 A 
ATOM     20  C   UNL A   1      35.252  31.714  29.460  1.00  0.00     0.155 A 
ATOM     21  N   UNL A   1      34.083  32.679  28.476  1.00  0.00    -0.266 N 
ATOM     22  O   UNL A   1      32.529  34.808  28.416  1.00  0.00    -0.268 OA
ATOM     23  C   UNL A   1      33.389  31.990  27.511  1.00  0.00     0.108 A 
ATOM     24  C   UNL A   1      35.141  30.317  27.463  1.00  0.00     0.032 A 
ATOM     25  C   UNL A   1      33.775  30.756  27.168  1.00  0.00     0.041 A 
BRANCH  25  26
ATOM     26  C   UNL A   1      32.778  30.046  26.316  1.00  0.00     0.198 C 
ATOM     27  O   UNL A   1      31.718  30.556  25.952  1.00  0.00    -0.288 OA
BRANCH  26  28
ATOM     28  C   UNL A   1      33.110  28.727  25.789  1.00  0.00     0.064 A 
ATOM     29  C   UNL A   1      33.056  27.593  26.603  1.00  0.00     0.016 A 
ATOM     30  C   UNL A   1      33.522  28.641  24.458  1.00  0.00     0.126 A 
ATOM     31  C   UNL A   1      33.543  26.389  26.114  1.00  0.00     0.001 A 
ATOM     32  C   UNL A   1      34.012  27.439  23.976  1.00  0.00     0.047 A 
ATOM     33  C   UNL A   1      34.044  26.319  24.813  1.00  0.00     0.004 A 
BRANCH  30  34
ATOM     34  O   UNL A   1      33.476  29.702  23.596  1.00  0.00    -0.507 OA
ATOM     35  H   UNL A   1      34.218  30.268  23.511  1.00  0.00     0.293 HD
ENDBRANCH  30  34
ENDBRANCH  26  28
ENDBRANCH  25  26
ENDBRANCH   9  10
ENDBRANCH   7   9
ENDBRANCH   4   7
ENDBRANCH   2   3
ENDBRANCH   1   2
BRANCH   1  36
ATOM     36  C   UNL A   1      41.380  33.801  32.807  1.00  0.00     0.002 C 
BRANCH  36  37
ATOM     37  C   UNL A   1      42.287  34.407  33.888  1.00  0.00     0.002 C 
BRANCH  37  38
ATOM     38  C   UNL A   1      43.535  33.561  34.075  1.00  0.00     0.021 C 
BRANCH  38  39
ATOM     39  C   UNL A   1      43.212  32.462  35.072  1.00  0.00     0.116 C 
BRANCH  39  40
ATOM     40  N   UNL A   1      44.383  32.158  35.892  1.00  0.00    -0.352 N 
ATOM     41  C   UNL A   1      45.078  30.971  35.950  1.00  0.00     0.251 C 
ATOM     42  H   UNL A   1      44.714  32.886  36.466  1.00  0.00     0.163 HD
ATOM     43  O   UNL A   1      45.856  30.714  36.855  1.00  0.00    -0.269 OA
BRANCH  41  44
ATOM     44  C   UNL A   1      44.755  29.996  34.897  1.00  0.00     0.039 A 
ATOM     45  C   UNL A   1      45.398  30.144  33.666  1.00  0.00     0.014 A 
ATOM     46  C   UNL A   1      43.596  29.235  35.039  1.00  0.00     0.014 A 
ATOM     47  C   UNL A   1      44.719  29.777  32.522  1.00  0.00     0.010 A 
ATOM     48  C   UNL A   1      42.973  28.769  33.890  1.00  0.00     0.010 A 
ATOM     49  C   UNL A   1      43.494  29.113  32.630  1.00  0.00    -0.014 A 
BRANCH  49  50
ATOM     50  C   UNL A   1      42.999  28.555  31.365  1.00  0.00     0.031 A 
ATOM     51  C   UNL A   1      42.889  29.683  30.391  1.00  0.00     0.074 A 
ATOM     52  C   UNL A   1      43.225  27.295  30.931  1.00  0.00     0.049 A 
ATOM     53  N   UNL A   1      43.951  30.142  29.799  1.00  0.00    -0.248 NA
ATOM     54  C   UNL A   1      41.764  30.619  30.384  1.00  0.00     0.031 C 
ATOM     55  C   UNL A   1      44.415  26.512  31.265  1.00  0.00     0.029 A 
ATOM     56  N   UNL A   1      42.578  26.550  29.953  1.00  0.00    -0.354 N 
ATOM     57  C   UNL A   1      43.669  31.422  29.372  1.00  0.00     0.074 A 
ATOM     58  C   UNL A   1      42.293  31.673  29.739  1.00  0.00     0.031 C 
ATOM     59  C   UNL A   1      44.517  25.500  30.381  1.00  0.00     0.029 A 
ATOM     60  C   UNL A   1      43.329  25.443  29.526  1.00  0.00     0.049 A 
ATOM     61  H   UNL A   1      41.687  26.775  29.599  1.00  0.00     0.167 HD
ATOM     62  C   UNL A   1      44.611  32.186  28.760  1.00  0.00     0.037 A 
ATOM     63  C   UNL A   1      43.375  25.029  28.221  1.00  0.00     0.037 A 
ATOM     64  C   UNL A   1      45.923  31.610  28.689  1.00  0.00     0.049 A 
ATOM     65  C   UNL A   1      44.214  26.121  27.605  1.00  0.00     0.074 A 
ATOM     66  C   UNL A   1      47.139  31.753  29.319  1.00  0.00     0.029 A 
ATOM     67  N   UNL A   1      46.115  30.580  27.800  1.00  0.00    -0.354 N 
ATOM     68  N   UNL A   1      45.502  26.272  27.755  1.00  0.00    -0.248 NA
ATOM     69  C   UNL A   1      43.497  27.316  27.155  1.00  0.00     0.031 C 
ATOM     70  C   UNL A   1      47.818  30.508  29.118  1.00  0.00     0.029 A 
ATOM     71  C   UNL A   1      46.968  29.681  28.386  1.00  0.00     0.049 A 
ATOM     72  H   UNL A   1      45.713  30.502  26.905  1.00  0.00     0.167 HD
ATOM     73  C   UNL A   1      45.712  27.650  27.715  1.00  0.00     0.074 A 
ATOM     74  C   UNL A   1      44.440  28.229  27.333  1.00  0.00     0.031 C 
ATOM     75  C   UNL A   1      46.843  28.256  28.183  1.00  0.00     0.037 A 
BRANCH  62  76
ATOM     76  C   UNL A   1      44.312  33.371  27.938  1.00  0.00     0.064 A 
ATOM     77  C   UNL A   1      44.118  34.570  28.643  1.00  0.00     0.173 A 
ATOM     78  C   UNL A   1      43.972  33.332  26.586  1.00  0.00     0.173 A 
ATOM     79  F   UNL A   1      44.427  34.634  29.950  1.00  0.00    -0.203 F 
ATOM     80  C   UNL A   1      43.543  35.677  28.039  1.00  0.00     0.198 A 
ATOM     81  C   UNL A   1      43.410  34.455  25.974  1.00  0.00     0.198 A 
ATOM     82  F   UNL A   1      44.129  32.207  25.875  1.00  0.00    -0.203 F 
ATOM     83  F   UNL A   1      43.304  36.779  28.762  1.00  0.00    -0.200 F 
ATOM     84  C   UNL A   1      43.179  35.616  26.705  1.00  0.00     0.200 A 
ATOM     85  F   UNL A   1      43.055  34.407  24.682  1.00  0.00    -0.200 F 
ATOM     86  F   UNL A   1      42.590  36.672  26.128  1.00  0.00    -0.200 F 
ENDBRANCH  62  76
BRANCH  63  87
ATOM     87  C   UNL A   1      42.111  24.528  27.586  1.00  0.00     0.064 A 
ATOM     88  C   UNL A   1      42.124  23.280  26.933  1.00  0.00     0.173 A 
ATOM     89  C   UNL A   1      40.887  25.219  27.555  1.00  0.00     0.173 A 
ATOM     90  F   UNL A   1      43.271  22.593  26.810  1.00  0.00    -0.203 F 
ATOM     91  C   UNL A   1      40.967  22.706  26.404  1.00  0.00     0.198 A 
ATOM     92  C   UNL A   1      39.719  24.629  27.060  1.00  0.00     0.198 A 
ATOM     93  F   UNL A   1      40.788  26.475  28.012  1.00  0.00    -0.203 F 
ATOM     94  F   UNL A   1      41.029  21.501  25.819  1.00  0.00    -0.200 F 
ATOM     95  C   UNL A   1      39.756  23.364  26.502  1.00  0.00     0.200 A 
ATOM     96  F   UNL A   1      38.552  25.285  27.147  1.00  0.00    -0.200 F 
ATOM     97  F   UNL A   1      38.632  22.786  26.056  1.00  0.00    -0.200 F 
ENDBRANCH  63  87
BRANCH  75  98
ATOM     98  C   UNL A   1      47.913  27.344  28.687  1.00  0.00     0.064 A 
ATOM     99  C   UNL A   1      48.043  27.090  30.060  1.00  0.00     0.173 A 
ATOM    100  C   UNL A   1      48.774  26.662  27.811  1.00  0.00     0.173 A 
ATOM    101  F   UNL A   1      47.243  27.710  30.942  1.00  0.00    -0.203 F 
ATOM    102  C   UNL A   1      48.967  26.164  30.531  1.00  0.00     0.198 A 
ATOM    103  C   UNL A   1      49.673  25.711  28.284  1.00  0.00     0.198 A 
ATOM    104  F   UNL A   1      48.724  26.885  26.487  1.00  0.00    -0.203 F 
ATOM    105  F   UNL A   1      49.059  25.924  31.847  1.00  0.00    -0.200 F 
ATOM    106  C   UNL A   1      49.766  25.459  29.642  1.00  0.00     0.200 A 
ATOM    107  F   UNL A   1      50.427  25.012  27.421  1.00  0.00    -0.200 F 
ATOM    108  F   UNL A   1      50.609  24.520  30.096  1.00  0.00    -0.200 F 
ENDBRANCH  75  98
ENDBRANCH  49  50
ENDBRANCH  41  44
ENDBRANCH  39  40
ENDBRANCH  38  39
ENDBRANCH  37  38
ENDBRANCH  36  37
ENDBRANCH   1  36
TORSDOF 18
ENDMDL
