MODEL 1
REMARK VINA RESULT:     -13.0      0.000      0.000
REMARK SMILES CC1=NN(c2ccccc2)C(=O)/C1=C\c1ccc(-c2cc(C(=O)NCCCCCCNC(=O)c3ccc(-c4c5nc(c(-c6c(F)c(F)c(F)c(F)c6F)c6ccc([nH]6)c(-c6c(F)c(F)c(F)c(F)c6F)c6nc(c(-c7c(F)c(F)c(F)c(F)c7F)c7ccc4[nH]7)C=C6)C=C5)cc3)ccc2Cl)o1
REMARK SMILES IDX 27 1 26 2 25 3 24 4 22 5 23 6 21 8 19 9 20 10 99 11 98 12
REMARK SMILES IDX 100 13 97 14 18 15 15 16 16 17 101 18 17 19 14 20 1 21 2 22
REMARK SMILES IDX 3 23 13 24 4 25 11 26 12 27 5 28 6 29 10 30 7 31 9 32 8 33
REMARK SMILES IDX 28 34 29 35 30 36 31 37 32 38 33 40 34 41 35 42 96 43 36 44
REMARK SMILES IDX 95 45 37 46 38 47 39 48 89 49 40 50 94 51 88 52 90 53 41 54
REMARK SMILES IDX 93 55 87 56 86 57 42 59 74 60 54 61 73 62 55 63 58 64 72 65
REMARK SMILES IDX 91 66 56 67 57 68 71 70 92 71 59 72 43 73 44 74 52 75 45 76
REMARK SMILES IDX 46 77 50 78 53 79 47 80 48 81 51 82 49 83 75 84 76 85 84 86
REMARK SMILES IDX 77 87 78 88 82 89 85 90 79 91 80 92 83 93 81 94 60 95 61 96
REMARK SMILES IDX 69 97 62 98 63 99 67 100 70 101 64 102 65 103 68 104 66 105
REMARK H PARENT 24 7 31 39 90 58 58 69
REMARK Flexibility Score: inf
ROOT
ATOM      1  C   UNL A   1      34.367  31.891  27.623  1.00  0.00     0.002 C 
ENDROOT
BRANCH   1   2
ATOM      2  C   UNL A   1      33.597  30.573  27.705  1.00  0.00     0.021 C 
BRANCH   2   3
ATOM      3  C   UNL A   1      32.778  30.197  26.477  1.00  0.00     0.116 C 
BRANCH   3   4
ATOM      4  N   UNL A   1      33.574  29.919  25.293  1.00  0.00    -0.352 N 
ATOM      5  C   UNL A   1      33.323  29.096  24.215  1.00  0.00     0.251 C 
ATOM      6  O   UNL A   1      34.176  28.982  23.339  1.00  0.00    -0.269 OA
ATOM      7  H   UNL A   1      34.433  30.397  25.254  1.00  0.00     0.163 HD
BRANCH   5   8
ATOM      8  C   UNL A   1      32.060  28.313  24.115  1.00  0.00     0.040 A 
ATOM      9  C   UNL A   1      30.702  26.428  24.868  1.00  0.00     0.037 A 
ATOM     10  C   UNL A   1      31.916  27.138  24.876  1.00  0.00     0.027 A 
ATOM     11  C   UNL A   1      29.614  26.969  24.152  1.00  0.00     0.052 A 
ATOM     12  C   UNL A   1      29.789  28.077  23.326  1.00  0.00     0.022 A 
ATOM     13  Cl  UNL A   1      28.007  26.328  24.250  1.00  0.00    -0.084 Cl
ATOM     14  C   UNL A   1      31.029  28.701  23.257  1.00  0.00     0.015 A 
BRANCH   9  15
ATOM     15  C   UNL A   1      30.612  25.096  25.455  1.00  0.00     0.136 A 
ATOM     16  C   UNL A   1      31.021  22.921  25.597  1.00  0.00     0.128 A 
ATOM     17  C   UNL A   1      30.199  23.275  26.663  1.00  0.00     0.051 A 
ATOM     18  O   UNL A   1      31.303  24.067  24.879  1.00  0.00    -0.457 OA
ATOM     19  C   UNL A   1      29.894  24.636  26.537  1.00  0.00     0.051 A 
BRANCH  16  20
ATOM     20  C   UNL A   1      31.500  21.615  25.297  1.00  0.00     0.063 C 
ATOM     21  C   UNL A   1      32.820  19.038  24.101  1.00  0.00     0.069 C 
ATOM     22  C   UNL A   1      33.515  20.233  24.662  1.00  0.00     0.071 C 
ATOM     23  N   UNL A   1      34.811  20.410  24.615  1.00  0.00    -0.169 NA
ATOM     24  C   UNL A   1      32.817  21.367  25.294  1.00  0.00     0.068 C 
ATOM     25  N   UNL A   1      35.054  21.591  25.311  1.00  0.00    -0.196 N 
ATOM     26  C   UNL A   1      33.911  22.231  25.803  1.00  0.00     0.280 C 
ATOM     27  O   UNL A   1      33.801  23.239  26.470  1.00  0.00    -0.267 OA
BRANCH  25  28
ATOM     28  C   UNL A   1      36.377  22.005  25.548  1.00  0.00     0.069 A 
ATOM     29  C   UNL A   1      36.667  23.338  25.858  1.00  0.00     0.028 A 
ATOM     30  C   UNL A   1      37.426  21.075  25.504  1.00  0.00     0.028 A 
ATOM     31  C   UNL A   1      37.978  23.721  26.161  1.00  0.00     0.002 A 
ATOM     32  C   UNL A   1      38.741  21.468  25.755  1.00  0.00     0.002 A 
ATOM     33  C   UNL A   1      39.013  22.788  26.099  1.00  0.00     0.000 A 
ENDBRANCH  25  28
ENDBRANCH  16  20
ENDBRANCH   9  15
ENDBRANCH   5   8
ENDBRANCH   3   4
ENDBRANCH   2   3
ENDBRANCH   1   2
BRANCH   1  34
ATOM     34  C   UNL A   1      34.113  32.892  28.752  1.00  0.00     0.002 C 
BRANCH  34  35
ATOM     35  C   UNL A   1      33.160  34.043  28.426  1.00  0.00     0.021 C 
BRANCH  35  36
ATOM     36  C   UNL A   1      33.613  35.420  28.895  1.00  0.00     0.116 C 
BRANCH  36  37
ATOM     37  N   UNL A   1      32.729  35.993  29.896  1.00  0.00    -0.352 N 
ATOM     38  C   UNL A   1      32.732  35.813  31.259  1.00  0.00     0.251 C 
ATOM     39  H   UNL A   1      32.030  36.594  29.550  1.00  0.00     0.163 HD
ATOM     40  O   UNL A   1      31.816  36.247  31.950  1.00  0.00    -0.269 OA
BRANCH  38  41
ATOM     41  C   UNL A   1      33.839  35.064  31.888  1.00  0.00     0.039 A 
ATOM     42  C   UNL A   1      33.593  33.790  32.405  1.00  0.00     0.014 A 
ATOM     43  C   UNL A   1      35.124  35.609  31.935  1.00  0.00     0.014 A 
ATOM     44  C   UNL A   1      34.654  33.029  32.901  1.00  0.00     0.010 A 
ATOM     45  C   UNL A   1      36.190  34.822  32.357  1.00  0.00     0.010 A 
ATOM     46  C   UNL A   1      35.967  33.522  32.841  1.00  0.00    -0.014 A 
BRANCH  46  47
ATOM     47  C   UNL A   1      37.133  32.710  33.272  1.00  0.00     0.031 A 
ATOM     48  C   UNL A   1      37.828  33.031  34.566  1.00  0.00     0.074 A 
ATOM     49  C   UNL A   1      37.627  31.757  32.458  1.00  0.00     0.049 A 
ATOM     50  N   UNL A   1      38.949  32.558  35.046  1.00  0.00    -0.248 NA
ATOM     51  C   UNL A   1      37.188  34.045  35.419  1.00  0.00     0.031 C 
ATOM     52  C   UNL A   1      37.059  31.368  31.166  1.00  0.00     0.029 A 
ATOM     53  N   UNL A   1      38.737  30.957  32.585  1.00  0.00    -0.354 N 
ATOM     54  C   UNL A   1      39.159  33.230  36.243  1.00  0.00     0.074 A 
ATOM     55  C   UNL A   1      38.078  34.180  36.390  1.00  0.00     0.031 C 
ATOM     56  C   UNL A   1      37.816  30.399  30.627  1.00  0.00     0.029 A 
ATOM     57  C   UNL A   1      38.952  30.136  31.505  1.00  0.00     0.049 A 
ATOM     58  H   UNL A   1      39.323  30.971  33.376  1.00  0.00     0.167 HD
ATOM     59  C   UNL A   1      40.153  33.056  37.146  1.00  0.00     0.037 A 
ATOM     60  C   UNL A   1      39.963  29.286  31.241  1.00  0.00     0.037 A 
ATOM     61  C   UNL A   1      41.217  32.097  36.999  1.00  0.00     0.049 A 
ATOM     62  C   UNL A   1      41.079  29.140  32.242  1.00  0.00     0.074 A 
ATOM     63  C   UNL A   1      42.247  31.810  37.878  1.00  0.00     0.029 A 
ATOM     64  N   UNL A   1      41.390  31.272  35.897  1.00  0.00    -0.354 N 
ATOM     65  N   UNL A   1      41.242  29.742  33.395  1.00  0.00    -0.248 NA
ATOM     66  C   UNL A   1      42.151  28.193  31.907  1.00  0.00     0.031 C 
ATOM     67  C   UNL A   1      43.077  30.858  37.282  1.00  0.00     0.029 A 
ATOM     68  C   UNL A   1      42.526  30.495  36.063  1.00  0.00     0.049 A 
ATOM     69  H   UNL A   1      40.795  31.243  35.113  1.00  0.00     0.167 HD
ATOM     70  C   UNL A   1      42.406  29.219  33.940  1.00  0.00     0.074 A 
ATOM     71  C   UNL A   1      42.909  28.246  32.993  1.00  0.00     0.031 C 
ATOM     72  C   UNL A   1      43.002  29.512  35.122  1.00  0.00     0.037 A 
BRANCH  59  73
ATOM     73  C   UNL A   1      40.143  33.926  38.370  1.00  0.00     0.064 A 
ATOM     74  C   UNL A   1      40.836  35.146  38.415  1.00  0.00     0.173 A 
ATOM     75  C   UNL A   1      39.402  33.554  39.502  1.00  0.00     0.173 A 
ATOM     76  F   UNL A   1      41.569  35.546  37.364  1.00  0.00    -0.203 F 
ATOM     77  C   UNL A   1      40.816  35.941  39.558  1.00  0.00     0.198 A 
ATOM     78  C   UNL A   1      39.354  34.369  40.629  1.00  0.00     0.198 A 
ATOM     79  F   UNL A   1      38.714  32.402  39.512  1.00  0.00    -0.203 F 
ATOM     80  F   UNL A   1      41.532  37.073  39.597  1.00  0.00    -0.200 F 
ATOM     81  C   UNL A   1      40.069  35.556  40.660  1.00  0.00     0.200 A 
ATOM     82  F   UNL A   1      38.617  34.004  41.688  1.00  0.00    -0.200 F 
ATOM     83  F   UNL A   1      40.043  36.328  41.756  1.00  0.00    -0.200 F 
ENDBRANCH  59  73
BRANCH  60  84
ATOM     84  C   UNL A   1      39.966  28.501  29.977  1.00  0.00     0.064 A 
ATOM     85  C   UNL A   1      39.385  27.226  29.922  1.00  0.00     0.173 A 
ATOM     86  C   UNL A   1      40.560  28.996  28.807  1.00  0.00     0.173 A 
ATOM     87  F   UNL A   1      38.822  26.699  31.019  1.00  0.00    -0.203 F 
ATOM     88  C   UNL A   1      39.419  26.468  28.754  1.00  0.00     0.198 A 
ATOM     89  C   UNL A   1      40.564  28.250  27.630  1.00  0.00     0.198 A 
ATOM     90  F   UNL A   1      41.126  30.211  28.803  1.00  0.00    -0.203 F 
ATOM     91  F   UNL A   1      38.903  25.231  28.745  1.00  0.00    -0.200 F 
ATOM     92  C   UNL A   1      40.003  26.983  27.606  1.00  0.00     0.200 A 
ATOM     93  F   UNL A   1      41.114  28.760  26.519  1.00  0.00    -0.200 F 
ATOM     94  F   UNL A   1      40.033  26.255  26.482  1.00  0.00    -0.200 F 
ENDBRANCH  60  84
BRANCH  72  95
ATOM     95  C   UNL A   1      44.229  28.732  35.499  1.00  0.00     0.064 A 
ATOM     96  C   UNL A   1      45.520  29.169  35.168  1.00  0.00     0.173 A 
ATOM     97  C   UNL A   1      44.108  27.560  36.263  1.00  0.00     0.173 A 
ATOM     98  F   UNL A   1      45.690  30.274  34.428  1.00  0.00    -0.203 F 
ATOM     99  C   UNL A   1      46.643  28.451  35.574  1.00  0.00     0.198 A 
ATOM    100  C   UNL A   1      45.233  26.865  36.695  1.00  0.00     0.198 A 
ATOM    101  F   UNL A   1      42.896  27.103  36.613  1.00  0.00    -0.203 F 
ATOM    102  F   UNL A   1      47.865  28.864  35.210  1.00  0.00    -0.200 F 
ATOM    103  C   UNL A   1      46.499  27.308  36.345  1.00  0.00     0.200 A 
ATOM    104  F   UNL A   1      45.092  25.771  37.456  1.00  0.00    -0.200 F 
ATOM    105  F   UNL A   1      47.582  26.629  36.749  1.00  0.00    -0.200 F 
ENDBRANCH  72  95
ENDBRANCH  46  47
ENDBRANCH  38  41
ENDBRANCH  36  37
ENDBRANCH  35  36
ENDBRANCH  34  35
ENDBRANCH   1  34
TORSDOF 16
ENDMDL
MODEL 2
REMARK VINA RESULT:     -12.8      1.138      2.638
REMARK SMILES CC1=NN(c2ccccc2)C(=O)/C1=C\c1ccc(-c2cc(C(=O)NCCCCCCNC(=O)c3ccc(-c4c5nc(c(-c6c(F)c(F)c(F)c(F)c6F)c6ccc([nH]6)c(-c6c(F)c(F)c(F)c(F)c6F)c6nc(c(-c7c(F)c(F)c(F)c(F)c7F)c7ccc4[nH]7)C=C6)C=C5)cc3)ccc2Cl)o1
REMARK SMILES IDX 27 1 26 2 25 3 24 4 22 5 23 6 21 8 19 9 20 10 99 11 98 12
REMARK SMILES IDX 100 13 97 14 18 15 15 16 16 17 101 18 17 19 14 20 1 21 2 22
REMARK SMILES IDX 3 23 13 24 4 25 11 26 12 27 5 28 6 29 10 30 7 31 9 32 8 33
REMARK SMILES IDX 28 34 29 35 30 36 31 37 32 38 33 40 34 41 35 42 96 43 36 44
REMARK SMILES IDX 95 45 37 46 38 47 39 48 89 49 40 50 94 51 88 52 90 53 41 54
REMARK SMILES IDX 93 55 87 56 86 57 42 59 74 60 54 61 73 62 55 63 58 64 72 65
REMARK SMILES IDX 91 66 56 67 57 68 71 70 92 71 59 72 43 73 44 74 52 75 45 76
REMARK SMILES IDX 46 77 50 78 53 79 47 80 48 81 51 82 49 83 75 84 76 85 84 86
REMARK SMILES IDX 77 87 78 88 82 89 85 90 79 91 80 92 83 93 81 94 60 95 61 96
REMARK SMILES IDX 69 97 62 98 63 99 67 100 70 101 64 102 65 103 68 104 66 105
REMARK H PARENT 24 7 31 39 90 58 58 69
REMARK Flexibility Score: inf
ROOT
ATOM      1  C   UNL A   1      34.843  32.311  28.933  1.00  0.00     0.002 C 
ENDROOT
BRANCH   1   2
ATOM      2  C   UNL A   1      35.298  31.182  28.009  1.00  0.00     0.021 C 
BRANCH   2   3
ATOM      3  C   UNL A   1      34.202  30.477  27.221  1.00  0.00     0.116 C 
BRANCH   3   4
ATOM      4  N   UNL A   1      32.936  31.189  27.193  1.00  0.00    -0.352 N 
ATOM      5  C   UNL A   1      31.755  30.898  26.542  1.00  0.00     0.251 C 
ATOM      6  O   UNL A   1      30.815  31.685  26.629  1.00  0.00    -0.269 OA
ATOM      7  H   UNL A   1      32.917  32.016  27.727  1.00  0.00     0.163 HD
BRANCH   5   8
ATOM      8  C   UNL A   1      31.613  29.676  25.704  1.00  0.00     0.040 A 
ATOM      9  C   UNL A   1      31.868  27.259  25.468  1.00  0.00     0.037 A 
ATOM     10  C   UNL A   1      32.070  28.442  26.202  1.00  0.00     0.027 A 
ATOM     11  C   UNL A   1      31.126  27.330  24.272  1.00  0.00     0.052 A 
ATOM     12  C   UNL A   1      30.761  28.563  23.736  1.00  0.00     0.022 A 
ATOM     13  Cl  UNL A   1      30.604  25.926  23.399  1.00  0.00    -0.084 Cl
ATOM     14  C   UNL A   1      31.068  29.734  24.419  1.00  0.00     0.015 A 
BRANCH   9  15
ATOM     15  C   UNL A   1      32.535  26.019  25.853  1.00  0.00     0.136 A 
ATOM     16  C   UNL A   1      34.206  24.564  25.918  1.00  0.00     0.128 A 
ATOM     17  C   UNL A   1      33.148  24.036  26.651  1.00  0.00     0.051 A 
ATOM     18  O   UNL A   1      33.829  25.812  25.463  1.00  0.00    -0.457 OA
ATOM     19  C   UNL A   1      32.073  24.930  26.558  1.00  0.00     0.051 A 
BRANCH  16  20
ATOM     20  C   UNL A   1      35.464  23.940  25.682  1.00  0.00     0.063 C 
ATOM     21  C   UNL A   1      38.066  22.196  25.692  1.00  0.00     0.069 C 
ATOM     22  C   UNL A   1      36.676  21.743  25.396  1.00  0.00     0.071 C 
ATOM     23  N   UNL A   1      36.341  20.492  25.212  1.00  0.00    -0.169 NA
ATOM     24  C   UNL A   1      35.516  22.651  25.319  1.00  0.00     0.068 C 
ATOM     25  N   UNL A   1      34.988  20.509  24.886  1.00  0.00    -0.196 N 
ATOM     26  C   UNL A   1      34.398  21.778  24.880  1.00  0.00     0.280 C 
ATOM     27  O   UNL A   1      33.267  22.118  24.604  1.00  0.00    -0.267 OA
BRANCH  25  28
ATOM     28  C   UNL A   1      34.343  19.317  24.507  1.00  0.00     0.069 A 
ATOM     29  C   UNL A   1      32.982  19.309  24.186  1.00  0.00     0.028 A 
ATOM     30  C   UNL A   1      35.068  18.120  24.419  1.00  0.00     0.028 A 
ATOM     31  C   UNL A   1      32.371  18.132  23.743  1.00  0.00     0.002 A 
ATOM     32  C   UNL A   1      34.446  16.935  24.028  1.00  0.00     0.002 A 
ATOM     33  C   UNL A   1      33.100  16.945  23.675  1.00  0.00     0.000 A 
ENDBRANCH  25  28
ENDBRANCH  16  20
ENDBRANCH   9  15
ENDBRANCH   5   8
ENDBRANCH   3   4
ENDBRANCH   2   3
ENDBRANCH   1   2
BRANCH   1  34
ATOM     34  C   UNL A   1      35.484  33.680  28.692  1.00  0.00     0.002 C 
BRANCH  34  35
ATOM     35  C   UNL A   1      34.543  34.884  28.769  1.00  0.00     0.021 C 
BRANCH  35  36
ATOM     36  C   UNL A   1      33.132  34.580  29.255  1.00  0.00     0.116 C 
BRANCH  36  37
ATOM     37  N   UNL A   1      32.630  35.578  30.187  1.00  0.00    -0.352 N 
ATOM     38  C   UNL A   1      32.965  35.777  31.505  1.00  0.00     0.251 C 
ATOM     39  H   UNL A   1      31.956  36.196  29.822  1.00  0.00     0.163 HD
ATOM     40  O   UNL A   1      32.332  36.566  32.199  1.00  0.00    -0.269 OA
BRANCH  38  41
ATOM     41  C   UNL A   1      34.081  35.009  32.092  1.00  0.00     0.039 A 
ATOM     42  C   UNL A   1      33.845  33.716  32.565  1.00  0.00     0.014 A 
ATOM     43  C   UNL A   1      35.365  35.557  32.145  1.00  0.00     0.014 A 
ATOM     44  C   UNL A   1      34.915  32.941  33.020  1.00  0.00     0.010 A 
ATOM     45  C   UNL A   1      36.438  34.758  32.525  1.00  0.00     0.010 A 
ATOM     46  C   UNL A   1      36.225  33.441  32.963  1.00  0.00    -0.014 A 
BRANCH  46  47
ATOM     47  C   UNL A   1      37.399  32.617  33.350  1.00  0.00     0.031 A 
ATOM     48  C   UNL A   1      38.122  32.908  34.635  1.00  0.00     0.074 A 
ATOM     49  C   UNL A   1      37.873  31.682  32.504  1.00  0.00     0.049 A 
ATOM     50  N   UNL A   1      39.253  32.423  35.080  1.00  0.00    -0.248 NA
ATOM     51  C   UNL A   1      37.503  33.903  35.525  1.00  0.00     0.031 C 
ATOM     52  C   UNL A   1      37.276  31.324  31.217  1.00  0.00     0.029 A 
ATOM     53  N   UNL A   1      38.984  30.878  32.589  1.00  0.00    -0.354 N 
ATOM     54  C   UNL A   1      39.489  33.067  36.287  1.00  0.00     0.074 A 
ATOM     55  C   UNL A   1      38.415  34.015  36.480  1.00  0.00     0.031 C 
ATOM     56  C   UNL A   1      38.020  30.366  30.639  1.00  0.00     0.029 A 
ATOM     57  C   UNL A   1      39.174  30.081  31.486  1.00  0.00     0.049 A 
ATOM     58  H   UNL A   1      39.587  30.873  33.367  1.00  0.00     0.167 HD
ATOM     59  C   UNL A   1      40.503  32.870  37.165  1.00  0.00     0.037 A 
ATOM     60  C   UNL A   1      40.178  29.236  31.181  1.00  0.00     0.037 A 
ATOM     61  C   UNL A   1      41.562  31.913  36.972  1.00  0.00     0.049 A 
ATOM     62  C   UNL A   1      41.315  29.066  32.154  1.00  0.00     0.074 A 
ATOM     63  C   UNL A   1      42.610  31.606  37.822  1.00  0.00     0.029 A 
ATOM     64  N   UNL A   1      41.709  31.114  35.849  1.00  0.00    -0.354 N 
ATOM     65  N   UNL A   1      41.503  29.642  33.317  1.00  0.00    -0.248 NA
ATOM     66  C   UNL A   1      42.377  28.125  31.774  1.00  0.00     0.031 C 
ATOM     67  C   UNL A   1      43.425  30.666  37.187  1.00  0.00     0.029 A 
ATOM     68  C   UNL A   1      42.847  30.331  35.972  1.00  0.00     0.049 A 
ATOM     69  H   UNL A   1      41.097  31.103  35.077  1.00  0.00     0.167 HD
ATOM     70  C   UNL A   1      42.679  29.104  33.824  1.00  0.00     0.074 A 
ATOM     71  C   UNL A   1      43.159  28.152  32.844  1.00  0.00     0.031 C 
ATOM     72  C   UNL A   1      43.300  29.370  34.999  1.00  0.00     0.037 A 
BRANCH  59  73
ATOM     73  C   UNL A   1      40.522  33.713  38.408  1.00  0.00     0.064 A 
ATOM     74  C   UNL A   1      39.774  33.370  39.545  1.00  0.00     0.173 A 
ATOM     75  C   UNL A   1      41.325  34.862  38.476  1.00  0.00     0.173 A 
ATOM     76  F   UNL A   1      38.981  32.287  39.531  1.00  0.00    -0.203 F 
ATOM     77  C   UNL A   1      39.804  34.162  40.689  1.00  0.00     0.198 A 
ATOM     78  C   UNL A   1      41.381  35.631  39.635  1.00  0.00     0.198 A 
ATOM     79  F   UNL A   1      42.067  35.233  37.421  1.00  0.00    -0.203 F 
ATOM     80  F   UNL A   1      39.038  33.845  41.742  1.00  0.00    -0.200 F 
ATOM     81  C   UNL A   1      40.613  35.287  40.737  1.00  0.00     0.200 A 
ATOM     82  F   UNL A   1      42.177  36.708  39.685  1.00  0.00    -0.200 F 
ATOM     83  F   UNL A   1      40.647  36.043  41.842  1.00  0.00    -0.200 F 
ENDBRANCH  59  73
BRANCH  60  84
ATOM     84  C   UNL A   1      40.152  28.480  29.900  1.00  0.00     0.064 A 
ATOM     85  C   UNL A   1      39.503  27.240  29.810  1.00  0.00     0.173 A 
ATOM     86  C   UNL A   1      40.783  28.967  28.747  1.00  0.00     0.173 A 
ATOM     87  F   UNL A   1      38.902  26.720  30.891  1.00  0.00    -0.203 F 
ATOM     88  C   UNL A   1      39.509  26.506  28.626  1.00  0.00     0.198 A 
ATOM     89  C   UNL A   1      40.760  28.249  27.553  1.00  0.00     0.198 A 
ATOM     90  F   UNL A   1      41.414  30.151  28.776  1.00  0.00    -0.203 F 
ATOM     91  F   UNL A   1      38.927  25.300  28.585  1.00  0.00    -0.200 F 
ATOM     92  C   UNL A   1      40.132  27.015  27.496  1.00  0.00     0.200 A 
ATOM     93  F   UNL A   1      41.348  28.752  26.459  1.00  0.00    -0.200 F 
ATOM     94  F   UNL A   1      40.135  26.311  26.356  1.00  0.00    -0.200 F 
ENDBRANCH  60  84
BRANCH  72  95
ATOM     95  C   UNL A   1      44.534  28.579  35.331  1.00  0.00     0.064 A 
ATOM     96  C   UNL A   1      44.473  27.355  36.012  1.00  0.00     0.173 A 
ATOM     97  C   UNL A   1      45.792  29.028  34.899  1.00  0.00     0.173 A 
ATOM     98  F   UNL A   1      43.297  26.888  36.459  1.00  0.00    -0.203 F 
ATOM     99  C   UNL A   1      45.628  26.619  36.264  1.00  0.00     0.198 A 
ATOM    100  C   UNL A   1      46.939  28.273  35.122  1.00  0.00     0.198 A 
ATOM    101  F   UNL A   1      45.906  30.190  34.237  1.00  0.00    -0.203 F 
ATOM    102  F   UNL A   1      45.551  25.472  36.953  1.00  0.00    -0.200 F 
ATOM    103  C   UNL A   1      46.857  27.072  35.810  1.00  0.00     0.200 A 
ATOM    104  F   UNL A   1      48.124  28.705  34.666  1.00  0.00    -0.200 F 
ATOM    105  F   UNL A   1      47.965  26.353  36.037  1.00  0.00    -0.200 F 
ENDBRANCH  72  95
ENDBRANCH  46  47
ENDBRANCH  38  41
ENDBRANCH  36  37
ENDBRANCH  35  36
ENDBRANCH  34  35
ENDBRANCH   1  34
TORSDOF 16
ENDMDL
MODEL 3
REMARK VINA RESULT:     -12.5      0.771      2.053
REMARK SMILES CC1=NN(c2ccccc2)C(=O)/C1=C\c1ccc(-c2cc(C(=O)NCCCCCCNC(=O)c3ccc(-c4c5nc(c(-c6c(F)c(F)c(F)c(F)c6F)c6ccc([nH]6)c(-c6c(F)c(F)c(F)c(F)c6F)c6nc(c(-c7c(F)c(F)c(F)c(F)c7F)c7ccc4[nH]7)C=C6)C=C5)cc3)ccc2Cl)o1
REMARK SMILES IDX 27 1 26 2 25 3 24 4 22 5 23 6 21 8 19 9 20 10 99 11 98 12
REMARK SMILES IDX 100 13 97 14 18 15 15 16 16 17 101 18 17 19 14 20 1 21 2 22
REMARK SMILES IDX 3 23 13 24 4 25 11 26 12 27 5 28 6 29 10 30 7 31 9 32 8 33
REMARK SMILES IDX 28 34 29 35 30 36 31 37 32 38 33 40 34 41 35 42 96 43 36 44
REMARK SMILES IDX 95 45 37 46 38 47 39 48 89 49 40 50 94 51 88 52 90 53 41 54
REMARK SMILES IDX 93 55 87 56 86 57 42 59 74 60 54 61 73 62 55 63 58 64 72 65
REMARK SMILES IDX 91 66 56 67 57 68 71 70 92 71 59 72 43 73 44 74 52 75 45 76
REMARK SMILES IDX 46 77 50 78 53 79 47 80 48 81 51 82 49 83 75 84 76 85 84 86
REMARK SMILES IDX 77 87 78 88 82 89 85 90 79 91 80 92 83 93 81 94 60 95 61 96
REMARK SMILES IDX 69 97 62 98 63 99 67 100 70 101 64 102 65 103 68 104 66 105
REMARK H PARENT 24 7 31 39 90 58 58 69
REMARK Flexibility Score: inf
ROOT
ATOM      1  C   UNL A   1      34.940  30.977  27.467  1.00  0.00     0.002 C 
ENDROOT
BRANCH   1   2
ATOM      2  C   UNL A   1      34.287  29.644  27.104  1.00  0.00     0.021 C 
BRANCH   2   3
ATOM      3  C   UNL A   1      33.238  29.688  26.001  1.00  0.00     0.116 C 
BRANCH   3   4
ATOM      4  N   UNL A   1      33.780  29.574  24.658  1.00  0.00    -0.352 N 
ATOM      5  C   UNL A   1      33.299  28.913  23.548  1.00  0.00     0.251 C 
ATOM      6  O   UNL A   1      33.963  28.918  22.515  1.00  0.00    -0.269 OA
ATOM      7  H   UNL A   1      34.632  30.047  24.517  1.00  0.00     0.163 HD
BRANCH   5   8
ATOM      8  C   UNL A   1      32.015  28.160  23.590  1.00  0.00     0.040 A 
ATOM      9  C   UNL A   1      30.664  26.381  24.578  1.00  0.00     0.037 A 
ATOM     10  C   UNL A   1      31.893  27.055  24.453  1.00  0.00     0.027 A 
ATOM     11  C   UNL A   1      29.546  26.892  23.888  1.00  0.00     0.052 A 
ATOM     12  C   UNL A   1      29.693  27.924  22.964  1.00  0.00     0.022 A 
ATOM     13  Cl  UNL A   1      27.934  26.306  24.137  1.00  0.00    -0.084 Cl
ATOM     14  C   UNL A   1      30.941  28.506  22.768  1.00  0.00     0.015 A 
BRANCH   9  15
ATOM     15  C   UNL A   1      30.581  25.104  25.278  1.00  0.00     0.136 A 
ATOM     16  C   UNL A   1      30.928  22.932  25.563  1.00  0.00     0.128 A 
ATOM     17  C   UNL A   1      30.214  23.401  26.661  1.00  0.00     0.051 A 
ATOM     18  O   UNL A   1      31.185  24.006  24.732  1.00  0.00    -0.457 OA
ATOM     19  C   UNL A   1      29.945  24.760  26.450  1.00  0.00     0.051 A 
BRANCH  16  20
ATOM     20  C   UNL A   1      31.335  21.588  25.331  1.00  0.00     0.063 C 
ATOM     21  C   UNL A   1      32.504  18.883  24.267  1.00  0.00     0.069 C 
ATOM     22  C   UNL A   1      33.268  20.070  24.751  1.00  0.00     0.071 C 
ATOM     23  N   UNL A   1      34.571  20.178  24.679  1.00  0.00    -0.169 NA
ATOM     24  C   UNL A   1      32.638  21.273  25.327  1.00  0.00     0.068 C 
ATOM     25  N   UNL A   1      34.883  21.382  25.304  1.00  0.00    -0.196 N 
ATOM     26  C   UNL A   1      33.782  22.106  25.773  1.00  0.00     0.280 C 
ATOM     27  O   UNL A   1      33.733  23.154  26.382  1.00  0.00    -0.267 OA
BRANCH  25  28
ATOM     28  C   UNL A   1      36.230  21.739  25.502  1.00  0.00     0.069 A 
ATOM     29  C   UNL A   1      37.245  20.781  25.421  1.00  0.00     0.028 A 
ATOM     30  C   UNL A   1      36.575  23.075  25.756  1.00  0.00     0.028 A 
ATOM     31  C   UNL A   1      38.584  21.163  25.549  1.00  0.00     0.002 A 
ATOM     32  C   UNL A   1      37.907  23.446  25.936  1.00  0.00     0.002 A 
ATOM     33  C   UNL A   1      38.913  22.492  25.816  1.00  0.00     0.000 A 
ENDBRANCH  25  28
ENDBRANCH  16  20
ENDBRANCH   9  15
ENDBRANCH   5   8
ENDBRANCH   3   4
ENDBRANCH   2   3
ENDBRANCH   1   2
BRANCH   1  34
ATOM     34  C   UNL A   1      34.206  31.826  28.507  1.00  0.00     0.002 C 
BRANCH  34  35
ATOM     35  C   UNL A   1      33.093  32.729  27.972  1.00  0.00     0.021 C 
BRANCH  35  36
ATOM     36  C   UNL A   1      33.507  34.159  27.654  1.00  0.00     0.116 C 
BRANCH  36  37
ATOM     37  N   UNL A   1      32.841  35.139  28.497  1.00  0.00    -0.352 N 
ATOM     38  C   UNL A   1      33.029  35.402  29.833  1.00  0.00     0.251 C 
ATOM     39  H   UNL A   1      32.160  35.691  28.048  1.00  0.00     0.163 HD
ATOM     40  O   UNL A   1      32.272  36.157  30.435  1.00  0.00    -0.269 OA
BRANCH  38  41
ATOM     41  C   UNL A   1      34.139  34.745  30.551  1.00  0.00     0.039 A 
ATOM     42  C   UNL A   1      33.851  33.910  31.634  1.00  0.00     0.014 A 
ATOM     43  C   UNL A   1      35.459  34.929  30.133  1.00  0.00     0.014 A 
ATOM     44  C   UNL A   1      34.883  33.197  32.250  1.00  0.00     0.010 A 
ATOM     45  C   UNL A   1      36.472  34.160  30.696  1.00  0.00     0.010 A 
ATOM     46  C   UNL A   1      36.195  33.283  31.757  1.00  0.00    -0.014 A 
BRANCH  46  47
ATOM     47  C   UNL A   1      37.303  32.472  32.323  1.00  0.00     0.031 A 
ATOM     48  C   UNL A   1      37.913  32.861  33.641  1.00  0.00     0.074 A 
ATOM     49  C   UNL A   1      37.824  31.456  31.610  1.00  0.00     0.049 A 
ATOM     50  N   UNL A   1      38.983  32.393  34.231  1.00  0.00    -0.248 NA
ATOM     51  C   UNL A   1      37.245  33.944  34.378  1.00  0.00     0.031 C 
ATOM     52  C   UNL A   1      37.339  30.997  30.308  1.00  0.00     0.029 A 
ATOM     53  N   UNL A   1      38.898  30.638  31.869  1.00  0.00    -0.354 N 
ATOM     54  C   UNL A   1      39.126  33.137  35.394  1.00  0.00     0.074 A 
ATOM     55  C   UNL A   1      38.067  34.121  35.401  1.00  0.00     0.031 C 
ATOM     56  C   UNL A   1      38.103  29.975  29.888  1.00  0.00     0.029 A 
ATOM     57  C   UNL A   1      39.165  29.743  30.862  1.00  0.00     0.049 A 
ATOM     58  H   UNL A   1      39.427  30.690  32.698  1.00  0.00     0.167 HD
ATOM     59  C   UNL A   1      40.048  32.997  36.377  1.00  0.00     0.037 A 
ATOM     60  C   UNL A   1      40.167  28.852  30.727  1.00  0.00     0.037 A 
ATOM     61  C   UNL A   1      41.091  32.004  36.369  1.00  0.00     0.049 A 
ATOM     62  C   UNL A   1      41.204  28.744  31.814  1.00  0.00     0.074 A 
ATOM     63  C   UNL A   1      42.047  31.751  37.338  1.00  0.00     0.029 A 
ATOM     64  N   UNL A   1      41.318  31.105  35.338  1.00  0.00    -0.354 N 
ATOM     65  N   UNL A   1      41.302  29.417  32.935  1.00  0.00    -0.248 NA
ATOM     66  C   UNL A   1      42.269  27.751  31.619  1.00  0.00     0.031 C 
ATOM     67  C   UNL A   1      42.889  30.741  36.866  1.00  0.00     0.029 A 
ATOM     68  C   UNL A   1      42.415  30.312  35.636  1.00  0.00     0.049 A 
ATOM     69  H   UNL A   1      40.779  31.038  34.516  1.00  0.00     0.167 HD
ATOM     70  C   UNL A   1      42.409  28.902  33.596  1.00  0.00     0.074 A 
ATOM     71  C   UNL A   1      42.949  27.857  32.752  1.00  0.00     0.031 C 
ATOM     72  C   UNL A   1      42.927  29.258  34.796  1.00  0.00     0.037 A 
BRANCH  59  73
ATOM     73  C   UNL A   1      39.978  33.947  37.539  1.00  0.00     0.064 A 
ATOM     74  C   UNL A   1      39.180  33.682  38.662  1.00  0.00     0.173 A 
ATOM     75  C   UNL A   1      40.746  35.121  37.545  1.00  0.00     0.173 A 
ATOM     76  F   UNL A   1      38.417  32.578  38.705  1.00  0.00    -0.203 F 
ATOM     77  C   UNL A   1      39.127  34.573  39.731  1.00  0.00     0.198 A 
ATOM     78  C   UNL A   1      40.719  35.991  38.631  1.00  0.00     0.198 A 
ATOM     79  F   UNL A   1      41.533  35.421  36.500  1.00  0.00    -0.203 F 
ATOM     80  F   UNL A   1      38.313  34.327  40.767  1.00  0.00    -0.200 F 
ATOM     81  C   UNL A   1      39.902  35.722  39.718  1.00  0.00     0.200 A 
ATOM     82  F   UNL A   1      41.482  37.093  38.624  1.00  0.00    -0.200 F 
ATOM     83  F   UNL A   1      39.856  36.574  40.751  1.00  0.00    -0.200 F 
ENDBRANCH  59  73
BRANCH  60  84
ATOM     84  C   UNL A   1      40.237  27.985  29.520  1.00  0.00     0.064 A 
ATOM     85  C   UNL A   1      41.002  28.362  28.407  1.00  0.00     0.173 A 
ATOM     86  C   UNL A   1      39.533  26.774  29.445  1.00  0.00     0.173 A 
ATOM     87  F   UNL A   1      41.677  29.521  28.421  1.00  0.00    -0.203 F 
ATOM     88  C   UNL A   1      41.041  27.575  27.258  1.00  0.00     0.198 A 
ATOM     89  C   UNL A   1      39.599  25.971  28.308  1.00  0.00     0.198 A 
ATOM     90  F   UNL A   1      38.790  26.363  30.483  1.00  0.00    -0.203 F 
ATOM     91  F   UNL A   1      41.737  27.987  26.190  1.00  0.00    -0.200 F 
ATOM     92  C   UNL A   1      40.344  26.377  27.212  1.00  0.00     0.200 A 
ATOM     93  F   UNL A   1      38.939  24.805  28.275  1.00  0.00    -0.200 F 
ATOM     94  F   UNL A   1      40.384  25.619  26.108  1.00  0.00    -0.200 F 
ENDBRANCH  60  84
BRANCH  72  95
ATOM     95  C   UNL A   1      44.101  28.473  35.311  1.00  0.00     0.064 A 
ATOM     96  C   UNL A   1      43.941  27.323  36.097  1.00  0.00     0.173 A 
ATOM     97  C   UNL A   1      45.406  28.847  34.953  1.00  0.00     0.173 A 
ATOM     98  F   UNL A   1      42.716  26.931  36.479  1.00  0.00    -0.203 F 
ATOM     99  C   UNL A   1      45.045  26.587  36.519  1.00  0.00     0.198 A 
ATOM    100  C   UNL A   1      46.504  28.090  35.348  1.00  0.00     0.198 A 
ATOM    101  F   UNL A   1      45.614  29.936  34.196  1.00  0.00    -0.203 F 
ATOM    102  F   UNL A   1      44.872  25.515  37.305  1.00  0.00    -0.200 F 
ATOM    103  C   UNL A   1      46.323  26.964  36.136  1.00  0.00     0.200 A 
ATOM    104  F   UNL A   1      47.737  28.446  34.960  1.00  0.00    -0.200 F 
ATOM    105  F   UNL A   1      47.383  26.243  36.528  1.00  0.00    -0.200 F 
ENDBRANCH  72  95
ENDBRANCH  46  47
ENDBRANCH  38  41
ENDBRANCH  36  37
ENDBRANCH  35  36
ENDBRANCH  34  35
ENDBRANCH   1  34
TORSDOF 16
ENDMDL
