MODEL 1
REMARK VINA RESULT:     -11.4      0.000      0.000
REMARK SMILES C[C@H](C(=O)NCCCCCCNC(=O)c1ccc(-c2c3nc(c(-c4c(F)c(F)c(F)c(F)c4F)c4ccc([nH]4)c(-c4c(F)c(F)c(F)c(F)c4F)c4nc(c(-c5c(F)c(F)c(F)c(F)c5F)c5ccc2[nH]5)C=C4)C=C3)cc1)c1ccc(C(=O)c2ccccc2)s1
REMARK SMILES IDX 8 1 7 2 6 3 5 4 3 5 4 6 2 8 1 9 78 10 79 11 90 12 80 13
REMARK SMILES IDX 81 14 82 15 83 16 84 17 85 18 89 19 86 20 88 21 87 22 9 23
REMARK SMILES IDX 10 24 11 25 12 26 13 27 14 29 15 30 16 31 77 32 17 33 76 34
REMARK SMILES IDX 18 35 19 36 20 37 70 38 21 39 75 40 69 41 71 42 22 43 74 44
REMARK SMILES IDX 68 45 67 46 23 48 55 49 35 50 54 51 36 52 39 53 53 54 72 55
REMARK SMILES IDX 37 56 38 57 52 59 73 60 40 61 24 62 25 63 33 64 26 65 27 66
REMARK SMILES IDX 31 67 34 68 28 69 29 70 32 71 30 72 56 73 57 74 65 75 58 76
REMARK SMILES IDX 59 77 63 78 66 79 60 80 61 81 64 82 62 83 41 84 42 85 50 86
REMARK SMILES IDX 43 87 44 88 48 89 51 90 45 91 46 92 49 93 47 94
REMARK H PARENT 5 7 12 28 71 47 39 58
REMARK Flexibility Score: inf
ROOT
ATOM      1  C   UNL A   1      33.688  23.480  22.786  1.00  0.00     0.002 C 
ENDROOT
BRANCH   1   2
ATOM      2  C   UNL A   1      32.616  24.416  22.218  1.00  0.00     0.021 C 
BRANCH   2   3
ATOM      3  C   UNL A   1      33.154  25.768  21.741  1.00  0.00     0.116 C 
BRANCH   3   4
ATOM      4  N   UNL A   1      32.073  26.716  21.546  1.00  0.00    -0.356 N 
ATOM      5  C   UNL A   1      31.447  27.543  22.435  1.00  0.00     0.228 C 
ATOM      6  O   UNL A   1      30.467  28.169  22.020  1.00  0.00    -0.274 OA
ATOM      7  H   UNL A   1      31.736  26.772  20.623  1.00  0.00     0.163 HD
BRANCH   5   8
ATOM      8  C   UNL A   1      31.962  27.692  23.876  1.00  0.00     0.115 C 
ATOM      9  C   UNL A   1      31.760  29.137  24.341  1.00  0.00     0.024 C 
BRANCH   8  10
ATOM     10  C   UNL A   1      31.242  26.698  24.763  1.00  0.00     0.017 A 
ATOM     11  C   UNL A   1      29.906  26.350  24.826  1.00  0.00     0.017 A 
ATOM     12  S   UNL A   1      32.123  25.817  25.938  1.00  0.00    -0.136 S 
ATOM     13  C   UNL A   1      29.685  25.207  25.657  1.00  0.00     0.024 A 
ATOM     14  C   UNL A   1      30.863  24.695  26.172  1.00  0.00     0.075 A 
BRANCH  14  15
ATOM     15  C   UNL A   1      31.042  23.405  26.829  1.00  0.00     0.202 C 
ATOM     16  O   UNL A   1      30.263  22.980  27.682  1.00  0.00    -0.288 OA
BRANCH  15  17
ATOM     17  C   UNL A   1      32.088  22.452  26.364  1.00  0.00     0.023 A 
ATOM     18  C   UNL A   1      31.780  21.615  25.281  1.00  0.00     0.012 A 
ATOM     19  C   UNL A   1      33.335  22.344  26.991  1.00  0.00     0.012 A 
ATOM     20  C   UNL A   1      32.721  20.698  24.814  1.00  0.00     0.001 A 
ATOM     21  C   UNL A   1      34.280  21.435  26.510  1.00  0.00     0.001 A 
ATOM     22  C   UNL A   1      33.968  20.610  25.430  1.00  0.00     0.000 A 
ENDBRANCH  15  17
ENDBRANCH  14  15
ENDBRANCH   8  10
ENDBRANCH   5   8
ENDBRANCH   3   4
ENDBRANCH   2   3
ENDBRANCH   1   2
BRANCH   1  23
ATOM     23  C   UNL A   1      34.789  24.171  23.595  1.00  0.00     0.002 C 
BRANCH  23  24
ATOM     24  C   UNL A   1      36.043  23.327  23.837  1.00  0.00     0.021 C 
BRANCH  24  25
ATOM     25  C   UNL A   1      36.813  23.689  25.103  1.00  0.00     0.116 C 
BRANCH  25  26
ATOM     26  N   UNL A   1      37.823  22.696  25.437  1.00  0.00    -0.352 N 
ATOM     27  C   UNL A   1      39.037  22.853  26.060  1.00  0.00     0.251 C 
ATOM     28  H   UNL A   1      37.602  21.773  25.178  1.00  0.00     0.163 HD
ATOM     29  O   UNL A   1      39.840  21.928  26.088  1.00  0.00    -0.269 OA
BRANCH  27  30
ATOM     30  C   UNL A   1      39.384  24.147  26.685  1.00  0.00     0.039 A 
ATOM     31  C   UNL A   1      39.004  24.387  28.006  1.00  0.00     0.014 A 
ATOM     32  C   UNL A   1      40.068  25.128  25.963  1.00  0.00     0.014 A 
ATOM     33  C   UNL A   1      39.367  25.586  28.623  1.00  0.00     0.010 A 
ATOM     34  C   UNL A   1      40.502  26.286  26.603  1.00  0.00     0.010 A 
ATOM     35  C   UNL A   1      40.151  26.530  27.940  1.00  0.00    -0.014 A 
BRANCH  35  36
ATOM     36  C   UNL A   1      40.613  27.773  28.611  1.00  0.00     0.031 A 
ATOM     37  C   UNL A   1      42.048  27.920  29.037  1.00  0.00     0.074 A 
ATOM     38  C   UNL A   1      39.728  28.750  28.886  1.00  0.00     0.049 A 
ATOM     39  N   UNL A   1      42.627  28.911  29.671  1.00  0.00    -0.248 NA
ATOM     40  C   UNL A   1      42.946  26.795  28.737  1.00  0.00     0.031 C 
ATOM     41  C   UNL A   1      38.299  28.708  28.566  1.00  0.00     0.029 A 
ATOM     42  N   UNL A   1      39.894  29.966  29.500  1.00  0.00    -0.354 N 
ATOM     43  C   UNL A   1      43.948  28.522  29.852  1.00  0.00     0.074 A 
ATOM     44  C   UNL A   1      44.070  27.182  29.320  1.00  0.00     0.031 C 
ATOM     45  C   UNL A   1      37.729  29.857  28.958  1.00  0.00     0.029 A 
ATOM     46  C   UNL A   1      38.738  30.699  29.594  1.00  0.00     0.049 A 
ATOM     47  H   UNL A   1      40.762  30.282  29.842  1.00  0.00     0.167 HD
ATOM     48  C   UNL A   1      44.972  29.228  30.390  1.00  0.00     0.037 A 
ATOM     49  C   UNL A   1      38.512  31.912  30.137  1.00  0.00     0.037 A 
ATOM     50  C   UNL A   1      44.849  30.568  30.905  1.00  0.00     0.049 A 
ATOM     51  C   UNL A   1      39.661  32.666  30.749  1.00  0.00     0.074 A 
ATOM     52  C   UNL A   1      45.837  31.390  31.416  1.00  0.00     0.029 A 
ATOM     53  N   UNL A   1      43.659  31.277  30.986  1.00  0.00    -0.354 N 
ATOM     54  N   UNL A   1      40.921  32.320  30.848  1.00  0.00    -0.248 NA
ATOM     55  C   UNL A   1      39.354  33.984  31.322  1.00  0.00     0.031 C 
ATOM     56  C   UNL A   1      45.237  32.573  31.861  1.00  0.00     0.029 A 
ATOM     57  C   UNL A   1      43.884  32.516  31.567  1.00  0.00     0.049 A 
ATOM     58  H   UNL A   1      42.784  30.950  30.674  1.00  0.00     0.167 HD
ATOM     59  C   UNL A   1      41.564  33.386  31.464  1.00  0.00     0.074 A 
ATOM     60  C   UNL A   1      40.555  34.398  31.703  1.00  0.00     0.031 C 
ATOM     61  C   UNL A   1      42.871  33.515  31.799  1.00  0.00     0.037 A 
BRANCH  48  62
ATOM     62  C   UNL A   1      46.317  28.558  30.454  1.00  0.00     0.064 A 
ATOM     63  C   UNL A   1      46.718  27.812  31.574  1.00  0.00     0.173 A 
ATOM     64  C   UNL A   1      47.209  28.646  29.373  1.00  0.00     0.173 A 
ATOM     65  F   UNL A   1      45.910  27.702  32.638  1.00  0.00    -0.203 F 
ATOM     66  C   UNL A   1      47.976  27.215  31.626  1.00  0.00     0.198 A 
ATOM     67  C   UNL A   1      48.451  28.016  29.414  1.00  0.00     0.198 A 
ATOM     68  F   UNL A   1      46.875  29.338  28.275  1.00  0.00    -0.203 F 
ATOM     69  F   UNL A   1      48.361  26.563  32.731  1.00  0.00    -0.200 F 
ATOM     70  C   UNL A   1      48.838  27.312  30.544  1.00  0.00     0.200 A 
ATOM     71  F   UNL A   1      49.276  28.097  28.362  1.00  0.00    -0.200 F 
ATOM     72  F   UNL A   1      50.047  26.735  30.594  1.00  0.00    -0.200 F 
ENDBRANCH  48  62
BRANCH  49  73
ATOM     73  C   UNL A   1      37.147  32.497  30.099  1.00  0.00     0.064 A 
ATOM     74  C   UNL A   1      36.719  33.257  29.001  1.00  0.00     0.173 A 
ATOM     75  C   UNL A   1      36.240  32.306  31.151  1.00  0.00     0.173 A 
ATOM     76  F   UNL A   1      37.556  33.484  27.978  1.00  0.00    -0.203 F 
ATOM     77  C   UNL A   1      35.444  33.818  28.966  1.00  0.00     0.198 A 
ATOM     78  C   UNL A   1      34.955  32.843  31.102  1.00  0.00     0.198 A 
ATOM     79  F   UNL A   1      36.597  31.582  32.223  1.00  0.00    -0.203 F 
ATOM     80  F   UNL A   1      35.078  34.576  27.924  1.00  0.00    -0.200 F 
ATOM     81  C   UNL A   1      34.560  33.605  30.012  1.00  0.00     0.200 A 
ATOM     82  F   UNL A   1      34.098  32.619  32.108  1.00  0.00    -0.200 F 
ATOM     83  F   UNL A   1      33.332  34.137  29.975  1.00  0.00    -0.200 F 
ENDBRANCH  49  73
BRANCH  61  84
ATOM     84  C   UNL A   1      43.297  34.811  32.431  1.00  0.00     0.064 A 
ATOM     85  C   UNL A   1      43.696  35.914  31.663  1.00  0.00     0.173 A 
ATOM     86  C   UNL A   1      43.268  34.960  33.827  1.00  0.00     0.173 A 
ATOM     87  F   UNL A   1      43.757  35.819  30.325  1.00  0.00    -0.203 F 
ATOM     88  C   UNL A   1      44.077  37.109  32.269  1.00  0.00     0.198 A 
ATOM     89  C   UNL A   1      43.616  36.168  34.427  1.00  0.00     0.198 A 
ATOM     90  F   UNL A   1      42.887  33.941  34.610  1.00  0.00    -0.203 F 
ATOM     91  F   UNL A   1      44.507  38.132  31.516  1.00  0.00    -0.200 F 
ATOM     92  C   UNL A   1      44.029  37.238  33.648  1.00  0.00     0.200 A 
ATOM     93  F   UNL A   1      43.551  36.295  35.760  1.00  0.00    -0.200 F 
ATOM     94  F   UNL A   1      44.388  38.391  34.229  1.00  0.00    -0.200 F 
ENDBRANCH  61  84
ENDBRANCH  35  36
ENDBRANCH  27  30
ENDBRANCH  25  26
ENDBRANCH  24  25
ENDBRANCH  23  24
ENDBRANCH   1  23
TORSDOF 16
ENDMDL
MODEL 2
REMARK VINA RESULT:     -11.1      2.720      3.998
REMARK SMILES C[C@H](C(=O)NCCCCCCNC(=O)c1ccc(-c2c3nc(c(-c4c(F)c(F)c(F)c(F)c4F)c4ccc([nH]4)c(-c4c(F)c(F)c(F)c(F)c4F)c4nc(c(-c5c(F)c(F)c(F)c(F)c5F)c5ccc2[nH]5)C=C4)C=C3)cc1)c1ccc(C(=O)c2ccccc2)s1
REMARK SMILES IDX 8 1 7 2 6 3 5 4 3 5 4 6 2 8 1 9 78 10 79 11 90 12 80 13
REMARK SMILES IDX 81 14 82 15 83 16 84 17 85 18 89 19 86 20 88 21 87 22 9 23
REMARK SMILES IDX 10 24 11 25 12 26 13 27 14 29 15 30 16 31 77 32 17 33 76 34
REMARK SMILES IDX 18 35 19 36 20 37 70 38 21 39 75 40 69 41 71 42 22 43 74 44
REMARK SMILES IDX 68 45 67 46 23 48 55 49 35 50 54 51 36 52 39 53 53 54 72 55
REMARK SMILES IDX 37 56 38 57 52 59 73 60 40 61 24 62 25 63 33 64 26 65 27 66
REMARK SMILES IDX 31 67 34 68 28 69 29 70 32 71 30 72 56 73 57 74 65 75 58 76
REMARK SMILES IDX 59 77 63 78 66 79 60 80 61 81 64 82 62 83 41 84 42 85 50 86
REMARK SMILES IDX 43 87 44 88 48 89 51 90 45 91 46 92 49 93 47 94
REMARK H PARENT 5 7 12 28 71 47 39 58
REMARK Flexibility Score: inf
ROOT
ATOM      1  C   UNL A   1      35.358  23.950  25.485  1.00  0.00     0.002 C 
ENDROOT
BRANCH   1   2
ATOM      2  C   UNL A   1      34.080  24.693  25.888  1.00  0.00     0.021 C 
BRANCH   2   3
ATOM      3  C   UNL A   1      33.905  26.054  25.208  1.00  0.00     0.116 C 
BRANCH   3   4
ATOM      4  N   UNL A   1      32.509  26.449  25.192  1.00  0.00    -0.356 N 
ATOM      5  C   UNL A   1      31.630  26.560  24.152  1.00  0.00     0.228 C 
ATOM      6  O   UNL A   1      30.519  27.035  24.407  1.00  0.00    -0.274 OA
ATOM      7  H   UNL A   1      32.134  26.675  26.073  1.00  0.00     0.163 HD
BRANCH   5   8
ATOM      8  C   UNL A   1      32.012  26.090  22.738  1.00  0.00     0.115 C 
ATOM      9  C   UNL A   1      33.204  26.909  22.236  1.00  0.00     0.024 C 
BRANCH   8  10
ATOM     10  C   UNL A   1      32.311  24.605  22.776  1.00  0.00     0.017 A 
ATOM     11  C   UNL A   1      33.386  23.891  22.282  1.00  0.00     0.017 A 
ATOM     12  S   UNL A   1      31.192  23.534  23.505  1.00  0.00    -0.136 S 
ATOM     13  C   UNL A   1      33.380  22.532  22.726  1.00  0.00     0.024 A 
ATOM     14  C   UNL A   1      32.322  22.261  23.577  1.00  0.00     0.075 A 
BRANCH  14  15
ATOM     15  C   UNL A   1      32.154  21.078  24.414  1.00  0.00     0.202 C 
ATOM     16  O   UNL A   1      31.439  21.069  25.416  1.00  0.00    -0.288 OA
BRANCH  15  17
ATOM     17  C   UNL A   1      32.705  19.760  23.991  1.00  0.00     0.023 A 
ATOM     18  C   UNL A   1      32.153  19.153  22.853  1.00  0.00     0.012 A 
ATOM     19  C   UNL A   1      33.715  19.106  24.705  1.00  0.00     0.012 A 
ATOM     20  C   UNL A   1      32.626  17.914  22.421  1.00  0.00     0.001 A 
ATOM     21  C   UNL A   1      34.197  17.873  24.260  1.00  0.00     0.001 A 
ATOM     22  C   UNL A   1      33.647  17.277  23.126  1.00  0.00     0.000 A 
ENDBRANCH  15  17
ENDBRANCH  14  15
ENDBRANCH   8  10
ENDBRANCH   5   8
ENDBRANCH   3   4
ENDBRANCH   2   3
ENDBRANCH   1   2
BRANCH   1  23
ATOM     23  C   UNL A   1      35.456  22.509  25.992  1.00  0.00     0.002 C 
BRANCH  23  24
ATOM     24  C   UNL A   1      36.222  21.550  25.077  1.00  0.00     0.021 C 
BRANCH  24  25
ATOM     25  C   UNL A   1      37.722  21.815  24.998  1.00  0.00     0.116 C 
BRANCH  25  26
ATOM     26  N   UNL A   1      38.495  20.825  25.731  1.00  0.00    -0.352 N 
ATOM     27  C   UNL A   1      39.621  20.985  26.503  1.00  0.00     0.251 C 
ATOM     28  H   UNL A   1      38.162  19.902  25.666  1.00  0.00     0.163 HD
ATOM     29  O   UNL A   1      40.247  20.007  26.892  1.00  0.00    -0.269 OA
BRANCH  27  30
ATOM     30  C   UNL A   1      40.089  22.343  26.853  1.00  0.00     0.039 A 
ATOM     31  C   UNL A   1      41.106  22.490  27.797  1.00  0.00     0.014 A 
ATOM     32  C   UNL A   1      39.513  23.471  26.263  1.00  0.00     0.014 A 
ATOM     33  C   UNL A   1      41.590  23.764  28.101  1.00  0.00     0.010 A 
ATOM     34  C   UNL A   1      40.051  24.733  26.503  1.00  0.00     0.010 A 
ATOM     35  C   UNL A   1      41.093  24.894  27.429  1.00  0.00    -0.014 A 
BRANCH  35  36
ATOM     36  C   UNL A   1      41.655  26.246  27.683  1.00  0.00     0.031 A 
ATOM     37  C   UNL A   1      43.036  26.599  27.203  1.00  0.00     0.074 A 
ATOM     38  C   UNL A   1      40.943  27.139  28.395  1.00  0.00     0.049 A 
ATOM     39  N   UNL A   1      43.710  27.711  27.365  1.00  0.00    -0.248 NA
ATOM     40  C   UNL A   1      43.767  25.557  26.467  1.00  0.00     0.031 C 
ATOM     41  C   UNL A   1      39.612  26.903  28.957  1.00  0.00     0.029 A 
ATOM     42  N   UNL A   1      41.238  28.425  28.773  1.00  0.00    -0.354 N 
ATOM     43  C   UNL A   1      44.943  27.496  26.762  1.00  0.00     0.074 A 
ATOM     44  C   UNL A   1      44.947  26.129  26.288  1.00  0.00     0.031 C 
ATOM     45  C   UNL A   1      39.194  28.015  29.579  1.00  0.00     0.029 A 
ATOM     46  C   UNL A   1      40.241  29.030  29.499  1.00  0.00     0.049 A 
ATOM     47  H   UNL A   1      42.085  28.873  28.546  1.00  0.00     0.167 HD
ATOM     48  C   UNL A   1      45.968  28.367  26.596  1.00  0.00     0.037 A 
ATOM     49  C   UNL A   1      40.178  30.260  30.044  1.00  0.00     0.037 A 
ATOM     50  C   UNL A   1      45.953  29.731  27.057  1.00  0.00     0.049 A 
ATOM     51  C   UNL A   1      41.339  31.201  29.866  1.00  0.00     0.074 A 
ATOM     52  C   UNL A   1      46.915  30.711  26.887  1.00  0.00     0.029 A 
ATOM     53  N   UNL A   1      44.925  30.307  27.791  1.00  0.00    -0.354 N 
ATOM     54  N   UNL A   1      42.469  31.012  29.230  1.00  0.00    -0.248 NA
ATOM     55  C   UNL A   1      41.211  32.529  30.481  1.00  0.00     0.031 C 
ATOM     56  C   UNL A   1      46.498  31.859  27.568  1.00  0.00     0.029 A 
ATOM     57  C   UNL A   1      45.245  31.618  28.108  1.00  0.00     0.049 A 
ATOM     58  H   UNL A   1      44.091  29.851  28.047  1.00  0.00     0.167 HD
ATOM     59  C   UNL A   1      43.173  32.204  29.339  1.00  0.00     0.074 A 
ATOM     60  C   UNL A   1      42.334  33.115  30.091  1.00  0.00     0.031 C 
ATOM     61  C   UNL A   1      44.401  32.516  28.857  1.00  0.00     0.037 A 
BRANCH  48  62
ATOM     62  C   UNL A   1      47.197  27.864  25.890  1.00  0.00     0.064 A 
ATOM     63  C   UNL A   1      47.281  27.824  24.489  1.00  0.00     0.173 A 
ATOM     64  C   UNL A   1      48.315  27.437  26.624  1.00  0.00     0.173 A 
ATOM     65  F   UNL A   1      46.239  28.212  23.739  1.00  0.00    -0.203 F 
ATOM     66  C   UNL A   1      48.419  27.335  23.851  1.00  0.00     0.198 A 
ATOM     67  C   UNL A   1      49.465  26.984  25.983  1.00  0.00     0.198 A 
ATOM     68  F   UNL A   1      48.294  27.462  27.965  1.00  0.00    -0.203 F 
ATOM     69  F   UNL A   1      48.450  27.246  22.515  1.00  0.00    -0.200 F 
ATOM     70  C   UNL A   1      49.512  26.923  24.598  1.00  0.00     0.200 A 
ATOM     71  F   UNL A   1      50.527  26.601  26.705  1.00  0.00    -0.200 F 
ATOM     72  F   UNL A   1      50.608  26.455  23.984  1.00  0.00    -0.200 F 
ENDBRANCH  48  62
BRANCH  49  73
ATOM     73  C   UNL A   1      38.960  30.679  30.785  1.00  0.00     0.064 A 
ATOM     74  C   UNL A   1      37.885  31.286  30.120  1.00  0.00     0.173 A 
ATOM     75  C   UNL A   1      38.840  30.479  32.168  1.00  0.00     0.173 A 
ATOM     76  F   UNL A   1      37.960  31.517  28.801  1.00  0.00    -0.203 F 
ATOM     77  C   UNL A   1      36.746  31.693  30.812  1.00  0.00     0.198 A 
ATOM     78  C   UNL A   1      37.688  30.859  32.854  1.00  0.00     0.198 A 
ATOM     79  F   UNL A   1      39.837  29.897  32.852  1.00  0.00    -0.203 F 
ATOM     80  F   UNL A   1      35.753  32.310  30.158  1.00  0.00    -0.200 F 
ATOM     81  C   UNL A   1      36.645  31.472  32.177  1.00  0.00     0.200 A 
ATOM     82  F   UNL A   1      37.588  30.627  34.171  1.00  0.00    -0.200 F 
ATOM     83  F   UNL A   1      35.547  31.855  32.841  1.00  0.00    -0.200 F 
ENDBRANCH  49  73
BRANCH  61  84
ATOM     84  C   UNL A   1      44.904  33.912  29.099  1.00  0.00     0.064 A 
ATOM     85  C   UNL A   1      45.700  34.230  30.209  1.00  0.00     0.173 A 
ATOM     86  C   UNL A   1      44.615  34.936  28.184  1.00  0.00     0.173 A 
ATOM     87  F   UNL A   1      45.991  33.291  31.123  1.00  0.00    -0.203 F 
ATOM     88  C   UNL A   1      46.163  35.528  30.409  1.00  0.00     0.198 A 
ATOM     89  C   UNL A   1      45.111  36.224  28.369  1.00  0.00     0.198 A 
ATOM     90  F   UNL A   1      43.866  34.686  27.101  1.00  0.00    -0.203 F 
ATOM     91  F   UNL A   1      46.876  35.821  31.506  1.00  0.00    -0.200 F 
ATOM     92  C   UNL A   1      45.876  36.521  29.486  1.00  0.00     0.200 A 
ATOM     93  F   UNL A   1      44.845  37.178  27.465  1.00  0.00    -0.200 F 
ATOM     94  F   UNL A   1      46.331  37.768  29.676  1.00  0.00    -0.200 F 
ENDBRANCH  61  84
ENDBRANCH  35  36
ENDBRANCH  27  30
ENDBRANCH  25  26
ENDBRANCH  24  25
ENDBRANCH  23  24
ENDBRANCH   1  23
TORSDOF 16
ENDMDL
MODEL 3
REMARK VINA RESULT:     -11.1      3.837      6.241
REMARK SMILES C[C@H](C(=O)NCCCCCCNC(=O)c1ccc(-c2c3nc(c(-c4c(F)c(F)c(F)c(F)c4F)c4ccc([nH]4)c(-c4c(F)c(F)c(F)c(F)c4F)c4nc(c(-c5c(F)c(F)c(F)c(F)c5F)c5ccc2[nH]5)C=C4)C=C3)cc1)c1ccc(C(=O)c2ccccc2)s1
REMARK SMILES IDX 8 1 7 2 6 3 5 4 3 5 4 6 2 8 1 9 78 10 79 11 90 12 80 13
REMARK SMILES IDX 81 14 82 15 83 16 84 17 85 18 89 19 86 20 88 21 87 22 9 23
REMARK SMILES IDX 10 24 11 25 12 26 13 27 14 29 15 30 16 31 77 32 17 33 76 34
REMARK SMILES IDX 18 35 19 36 20 37 70 38 21 39 75 40 69 41 71 42 22 43 74 44
REMARK SMILES IDX 68 45 67 46 23 48 55 49 35 50 54 51 36 52 39 53 53 54 72 55
REMARK SMILES IDX 37 56 38 57 52 59 73 60 40 61 24 62 25 63 33 64 26 65 27 66
REMARK SMILES IDX 31 67 34 68 28 69 29 70 32 71 30 72 56 73 57 74 65 75 58 76
REMARK SMILES IDX 59 77 63 78 66 79 60 80 61 81 64 82 62 83 41 84 42 85 50 86
REMARK SMILES IDX 43 87 44 88 48 89 51 90 45 91 46 92 49 93 47 94
REMARK H PARENT 5 7 12 28 71 47 39 58
REMARK Flexibility Score: inf
ROOT
ATOM      1  C   UNL A   1      41.251  21.468  26.658  1.00  0.00     0.002 C 
ENDROOT
BRANCH   1   2
ATOM      2  C   UNL A   1      40.479  22.621  27.308  1.00  0.00     0.021 C 
BRANCH   2   3
ATOM      3  C   UNL A   1      39.206  23.025  26.559  1.00  0.00     0.116 C 
BRANCH   3   4
ATOM      4  N   UNL A   1      38.532  21.861  26.016  1.00  0.00    -0.356 N 
ATOM      5  C   UNL A   1      37.431  21.765  25.214  1.00  0.00     0.228 C 
ATOM      6  O   UNL A   1      36.996  20.631  24.994  1.00  0.00    -0.274 OA
ATOM      7  H   UNL A   1      38.934  20.998  26.268  1.00  0.00     0.163 HD
BRANCH   5   8
ATOM      8  C   UNL A   1      36.785  23.020  24.603  1.00  0.00     0.115 C 
ATOM      9  C   UNL A   1      36.653  22.837  23.089  1.00  0.00     0.024 C 
BRANCH   8  10
ATOM     10  C   UNL A   1      35.447  23.262  25.271  1.00  0.00     0.017 A 
ATOM     11  C   UNL A   1      34.998  22.926  26.533  1.00  0.00     0.017 A 
ATOM     12  S   UNL A   1      34.199  24.051  24.405  1.00  0.00    -0.136 S 
ATOM     13  C   UNL A   1      33.741  23.537  26.838  1.00  0.00     0.024 A 
ATOM     14  C   UNL A   1      33.288  24.349  25.813  1.00  0.00     0.075 A 
BRANCH  14  15
ATOM     15  C   UNL A   1      32.199  25.317  25.880  1.00  0.00     0.202 C 
ATOM     16  O   UNL A   1      31.017  24.997  25.758  1.00  0.00    -0.288 OA
BRANCH  15  17
ATOM     17  C   UNL A   1      32.457  26.728  26.283  1.00  0.00     0.023 A 
ATOM     18  C   UNL A   1      33.740  27.249  26.062  1.00  0.00     0.012 A 
ATOM     19  C   UNL A   1      31.482  27.522  26.899  1.00  0.00     0.012 A 
ATOM     20  C   UNL A   1      34.036  28.562  26.431  1.00  0.00     0.001 A 
ATOM     21  C   UNL A   1      31.778  28.840  27.253  1.00  0.00     0.001 A 
ATOM     22  C   UNL A   1      33.054  29.353  27.025  1.00  0.00     0.000 A 
ENDBRANCH  15  17
ENDBRANCH  14  15
ENDBRANCH   8  10
ENDBRANCH   5   8
ENDBRANCH   3   4
ENDBRANCH   2   3
ENDBRANCH   1   2
BRANCH   1  23
ATOM     23  C   UNL A   1      41.751  20.395  27.628  1.00  0.00     0.002 C 
BRANCH  23  24
ATOM     24  C   UNL A   1      42.320  19.137  26.967  1.00  0.00     0.021 C 
BRANCH  24  25
ATOM     25  C   UNL A   1      42.283  19.153  25.443  1.00  0.00     0.116 C 
BRANCH  25  26
ATOM     26  N   UNL A   1      43.561  18.777  24.857  1.00  0.00    -0.352 N 
ATOM     27  C   UNL A   1      44.648  19.557  24.544  1.00  0.00     0.251 C 
ATOM     28  H   UNL A   1      43.662  17.818  24.656  1.00  0.00     0.163 HD
ATOM     29  O   UNL A   1      45.568  19.095  23.880  1.00  0.00    -0.269 OA
BRANCH  27  30
ATOM     30  C   UNL A   1      44.700  20.964  24.993  1.00  0.00     0.039 A 
ATOM     31  C   UNL A   1      45.167  21.250  26.277  1.00  0.00     0.014 A 
ATOM     32  C   UNL A   1      44.273  21.997  24.157  1.00  0.00     0.014 A 
ATOM     33  C   UNL A   1      45.266  22.578  26.697  1.00  0.00     0.010 A 
ATOM     34  C   UNL A   1      44.450  23.324  24.544  1.00  0.00     0.010 A 
ATOM     35  C   UNL A   1      44.944  23.628  25.821  1.00  0.00    -0.014 A 
BRANCH  35  36
ATOM     36  C   UNL A   1      45.122  25.047  26.227  1.00  0.00     0.031 A 
ATOM     37  C   UNL A   1      46.471  25.704  26.127  1.00  0.00     0.074 A 
ATOM     38  C   UNL A   1      44.079  25.730  26.736  1.00  0.00     0.049 A 
ATOM     39  N   UNL A   1      46.830  26.917  26.470  1.00  0.00    -0.248 NA
ATOM     40  C   UNL A   1      47.570  24.882  25.598  1.00  0.00     0.031 C 
ATOM     41  C   UNL A   1      42.731  25.192  26.928  1.00  0.00     0.029 A 
ATOM     42  N   UNL A   1      43.988  27.021  27.191  1.00  0.00    -0.354 N 
ATOM     43  C   UNL A   1      48.192  26.996  26.208  1.00  0.00     0.074 A 
ATOM     44  C   UNL A   1      48.607  25.692  25.739  1.00  0.00     0.031 C 
ATOM     45  C   UNL A   1      41.942  26.153  27.431  1.00  0.00     0.029 A 
ATOM     46  C   UNL A   1      42.735  27.362  27.637  1.00  0.00     0.049 A 
ATOM     47  H   UNL A   1      44.750  27.646  27.197  1.00  0.00     0.167 HD
ATOM     48  C   UNL A   1      49.015  28.066  26.324  1.00  0.00     0.037 A 
ATOM     49  C   UNL A   1      42.275  28.516  28.158  1.00  0.00     0.037 A 
ATOM     50  C   UNL A   1      48.594  29.366  26.779  1.00  0.00     0.049 A 
ATOM     51  C   UNL A   1      43.216  29.683  28.299  1.00  0.00     0.074 A 
ATOM     52  C   UNL A   1      49.337  30.530  26.876  1.00  0.00     0.029 A 
ATOM     53  N   UNL A   1      47.316  29.672  27.225  1.00  0.00    -0.354 N 
ATOM     54  N   UNL A   1      44.483  29.769  27.978  1.00  0.00    -0.248 NA
ATOM     55  C   UNL A   1      42.657  30.915  28.872  1.00  0.00     0.031 C 
ATOM     56  C   UNL A   1      48.526  31.522  27.436  1.00  0.00     0.029 A 
ATOM     57  C   UNL A   1      47.259  30.997  27.627  1.00  0.00     0.049 A 
ATOM     58  H   UNL A   1      46.561  29.040  27.249  1.00  0.00     0.167 HD
ATOM     59  C   UNL A   1      44.866  31.070  28.280  1.00  0.00     0.074 A 
ATOM     60  C   UNL A   1      43.691  31.740  28.795  1.00  0.00     0.031 C 
ATOM     61  C   UNL A   1      46.081  31.655  28.139  1.00  0.00     0.037 A 
BRANCH  48  62
ATOM     62  C   UNL A   1      50.461  27.870  25.960  1.00  0.00     0.064 A 
ATOM     63  C   UNL A   1      51.450  27.674  26.936  1.00  0.00     0.173 A 
ATOM     64  C   UNL A   1      50.861  27.857  24.613  1.00  0.00     0.173 A 
ATOM     65  F   UNL A   1      51.126  27.686  28.238  1.00  0.00    -0.203 F 
ATOM     66  C   UNL A   1      52.788  27.515  26.583  1.00  0.00     0.198 A 
ATOM     67  C   UNL A   1      52.194  27.661  24.262  1.00  0.00     0.198 A 
ATOM     68  F   UNL A   1      49.957  28.031  23.637  1.00  0.00    -0.203 F 
ATOM     69  F   UNL A   1      53.722  27.394  27.535  1.00  0.00    -0.200 F 
ATOM     70  C   UNL A   1      53.158  27.502  25.246  1.00  0.00     0.200 A 
ATOM     71  F   UNL A   1      52.547  27.632  22.970  1.00  0.00    -0.200 F 
ATOM     72  F   UNL A   1      54.445  27.346  24.906  1.00  0.00    -0.200 F 
ENDBRANCH  48  62
BRANCH  49  73
ATOM     73  C   UNL A   1      40.849  28.631  28.559  1.00  0.00     0.064 A 
ATOM     74  C   UNL A   1      39.873  29.041  27.641  1.00  0.00     0.173 A 
ATOM     75  C   UNL A   1      40.430  28.328  29.863  1.00  0.00     0.173 A 
ATOM     76  F   UNL A   1      40.227  29.360  26.387  1.00  0.00    -0.203 F 
ATOM     77  C   UNL A   1      38.536  29.162  28.015  1.00  0.00     0.198 A 
ATOM     78  C   UNL A   1      39.088  28.421  30.228  1.00  0.00     0.198 A 
ATOM     79  F   UNL A   1      41.322  27.925  30.780  1.00  0.00    -0.203 F 
ATOM     80  F   UNL A   1      37.632  29.599  27.128  1.00  0.00    -0.200 F 
ATOM     81  C   UNL A   1      38.144  28.845  29.306  1.00  0.00     0.200 A 
ATOM     82  F   UNL A   1      38.710  28.096  31.473  1.00  0.00    -0.200 F 
ATOM     83  F   UNL A   1      36.858  28.953  29.663  1.00  0.00    -0.200 F 
ENDBRANCH  49  73
BRANCH  61  84
ATOM     84  C   UNL A   1      46.197  33.105  28.517  1.00  0.00     0.064 A 
ATOM     85  C   UNL A   1      45.932  34.133  27.600  1.00  0.00     0.173 A 
ATOM     86  C   UNL A   1      46.542  33.469  29.829  1.00  0.00     0.173 A 
ATOM     87  F   UNL A   1      45.614  33.839  26.330  1.00  0.00    -0.203 F 
ATOM     88  C   UNL A   1      46.036  35.470  27.975  1.00  0.00     0.198 A 
ATOM     89  C   UNL A   1      46.610  34.807  30.208  1.00  0.00     0.198 A 
ATOM     90  F   UNL A   1      46.798  32.527  30.748  1.00  0.00    -0.203 F 
ATOM     91  F   UNL A   1      45.831  36.435  27.067  1.00  0.00    -0.200 F 
ATOM     92  C   UNL A   1      46.366  35.806  29.279  1.00  0.00     0.200 A 
ATOM     93  F   UNL A   1      46.912  35.128  31.474  1.00  0.00    -0.200 F 
ATOM     94  F   UNL A   1      46.457  37.094  29.639  1.00  0.00    -0.200 F 
ENDBRANCH  61  84
ENDBRANCH  35  36
ENDBRANCH  27  30
ENDBRANCH  25  26
ENDBRANCH  24  25
ENDBRANCH  23  24
ENDBRANCH   1  23
TORSDOF 16
ENDMDL
