MODEL 1
REMARK VINA RESULT:     -12.2      0.000      0.000
REMARK SMILES O=C(NCCCCCCNC(=O)[C@H]1C[C@](O)(c2ccccc2Cl)[C@@H](c2ccccc2Cl)O1)c1ccc(-c2c3nc(c(-c4c(F)c(F)c(F)c(F)c4F)c4ccc([nH]4)c(-c4c(F)c(F)c(F)c(F)c4F)c4nc(c(-c5c(F)c(F)c(F)c(F)c5F)c5ccc2[nH]5)C=C4)C=C3)cc1
REMARK SMILES IDX 6 1 5 2 4 3 3 4 1 5 2 6 33 8 34 9 95 10 35 11 94 12 36 13
REMARK SMILES IDX 37 14 38 15 88 16 39 17 93 18 87 19 89 20 40 21 92 22 86 23
REMARK SMILES IDX 85 24 41 26 73 27 53 28 72 29 54 30 57 31 71 32 90 33 55 34
REMARK SMILES IDX 56 35 70 37 91 38 58 39 42 40 43 41 51 42 44 43 45 44 49 45
REMARK SMILES IDX 52 46 46 47 47 48 50 49 48 50 74 51 75 52 83 53 76 54 77 55
REMARK SMILES IDX 81 56 84 57 78 58 79 59 82 60 80 61 59 62 60 63 68 64 61 65
REMARK SMILES IDX 62 66 66 67 69 68 63 69 64 70 67 71 65 72 7 73 8 74 9 75
REMARK SMILES IDX 10 76 11 77 12 79 13 80 14 81 32 82 15 83 24 84 17 85 18 86
REMARK SMILES IDX 22 87 19 88 21 89 23 90 20 91 16 92 25 94 26 95 30 96 27 97
REMARK SMILES IDX 29 98 31 99 28 100
REMARK H PARENT 3 7 89 25 57 36 10 78 16 93
REMARK Flexibility Score: inf
ROOT
ATOM      1  C   UNL A   1      41.785  19.837  27.418  1.00  0.00     0.002 C 
ENDROOT
BRANCH   1   2
ATOM      2  C   UNL A   1      42.195  18.954  26.240  1.00  0.00     0.021 C 
BRANCH   2   3
ATOM      3  C   UNL A   1      43.666  18.573  26.211  1.00  0.00     0.116 C 
BRANCH   3   4
ATOM      4  N   UNL A   1      44.185  18.459  24.858  1.00  0.00    -0.352 N 
ATOM      5  O   UNL A   1      44.851  19.205  22.834  1.00  0.00    -0.269 OA
ATOM      6  C   UNL A   1      44.602  19.454  24.005  1.00  0.00     0.251 C 
ATOM      7  H   UNL A   1      44.246  17.543  24.503  1.00  0.00     0.163 HD
BRANCH   6   8
ATOM      8  C   UNL A   1      44.735  20.839  24.511  1.00  0.00     0.039 A 
ATOM      9  C   UNL A   1      45.436  21.099  25.690  1.00  0.00     0.014 A 
ATOM     10  C   UNL A   1      44.169  21.891  23.785  1.00  0.00     0.014 A 
ATOM     11  C   UNL A   1      45.462  22.386  26.211  1.00  0.00     0.010 A 
ATOM     12  C   UNL A   1      44.277  23.202  24.262  1.00  0.00     0.010 A 
ATOM     13  C   UNL A   1      44.915  23.457  25.486  1.00  0.00    -0.014 A 
BRANCH  13  14
ATOM     14  C   UNL A   1      45.134  24.841  25.973  1.00  0.00     0.031 A 
ATOM     15  C   UNL A   1      44.024  25.650  26.578  1.00  0.00     0.074 A 
ATOM     16  C   UNL A   1      46.375  25.358  25.867  1.00  0.00     0.049 A 
ATOM     17  N   UNL A   1      44.060  26.871  27.050  1.00  0.00    -0.248 NA
ATOM     18  C   UNL A   1      42.699  25.016  26.662  1.00  0.00     0.031 C 
ATOM     19  C   UNL A   1      47.525  24.666  25.277  1.00  0.00     0.029 A 
ATOM     20  N   UNL A   1      46.884  26.569  26.257  1.00  0.00    -0.354 N 
ATOM     21  C   UNL A   1      42.769  27.159  27.470  1.00  0.00     0.074 A 
ATOM     22  C   UNL A   1      41.963  25.991  27.182  1.00  0.00     0.031 C 
ATOM     23  C   UNL A   1      48.609  25.446  25.376  1.00  0.00     0.029 A 
ATOM     24  C   UNL A   1      48.220  26.718  25.970  1.00  0.00     0.049 A 
ATOM     25  H   UNL A   1      46.346  27.265  26.699  1.00  0.00     0.167 HD
ATOM     26  C   UNL A   1      42.307  28.295  28.046  1.00  0.00     0.037 A 
ATOM     27  C   UNL A   1      49.036  27.775  26.137  1.00  0.00     0.037 A 
ATOM     28  C   UNL A   1      43.126  29.445  28.344  1.00  0.00     0.049 A 
ATOM     29  C   UNL A   1      48.482  29.027  26.751  1.00  0.00     0.074 A 
ATOM     30  C   UNL A   1      42.761  30.619  28.982  1.00  0.00     0.029 A 
ATOM     31  N   UNL A   1      44.468  29.571  28.016  1.00  0.00    -0.354 N 
ATOM     32  N   UNL A   1      47.273  29.263  27.200  1.00  0.00    -0.248 NA
ATOM     33  C   UNL A   1      49.403  30.164  26.879  1.00  0.00     0.031 C 
ATOM     34  C   UNL A   1      43.865  31.477  28.985  1.00  0.00     0.029 A 
ATOM     35  C   UNL A   1      44.934  30.817  28.404  1.00  0.00     0.049 A 
ATOM     36  H   UNL A   1      45.007  28.877  27.572  1.00  0.00     0.167 HD
ATOM     37  C   UNL A   1      47.292  30.566  27.676  1.00  0.00     0.074 A 
ATOM     38  C   UNL A   1      48.640  31.058  27.490  1.00  0.00     0.031 C 
ATOM     39  C   UNL A   1      46.281  31.293  28.211  1.00  0.00     0.037 A 
BRANCH  26  40
ATOM     40  C   UNL A   1      40.848  28.379  28.388  1.00  0.00     0.064 A 
ATOM     41  C   UNL A   1      40.362  27.999  29.647  1.00  0.00     0.173 A 
ATOM     42  C   UNL A   1      39.941  28.944  27.477  1.00  0.00     0.173 A 
ATOM     43  F   UNL A   1      41.185  27.448  30.551  1.00  0.00    -0.203 F 
ATOM     44  C   UNL A   1      39.020  28.179  29.981  1.00  0.00     0.198 A 
ATOM     45  C   UNL A   1      38.606  29.145  27.823  1.00  0.00     0.198 A 
ATOM     46  F   UNL A   1      40.356  29.331  26.262  1.00  0.00    -0.203 F 
ATOM     47  F   UNL A   1      38.573  27.790  31.183  1.00  0.00    -0.200 F 
ATOM     48  C   UNL A   1      38.147  28.760  29.073  1.00  0.00     0.200 A 
ATOM     49  F   UNL A   1      37.769  29.722  26.951  1.00  0.00    -0.200 F 
ATOM     50  F   UNL A   1      36.863  28.954  29.405  1.00  0.00    -0.200 F 
ENDBRANCH  26  40
BRANCH  27  51
ATOM     51  C   UNL A   1      50.450  27.703  25.684  1.00  0.00     0.064 A 
ATOM     52  C   UNL A   1      50.788  27.861  24.334  1.00  0.00     0.173 A 
ATOM     53  C   UNL A   1      51.491  27.452  26.591  1.00  0.00     0.173 A 
ATOM     54  F   UNL A   1      49.827  28.085  23.424  1.00  0.00    -0.203 F 
ATOM     55  C   UNL A   1      52.108  27.742  23.904  1.00  0.00     0.198 A 
ATOM     56  C   UNL A   1      52.814  27.370  26.167  1.00  0.00     0.198 A 
ATOM     57  F   UNL A   1      51.223  27.298  27.897  1.00  0.00    -0.203 F 
ATOM     58  F   UNL A   1      52.395  27.837  22.599  1.00  0.00    -0.200 F 
ATOM     59  C   UNL A   1      53.121  27.502  24.821  1.00  0.00     0.200 A 
ATOM     60  F   UNL A   1      53.790  27.158  27.059  1.00  0.00    -0.200 F 
ATOM     61  F   UNL A   1      54.389  27.386  24.408  1.00  0.00    -0.200 F 
ENDBRANCH  27  51
BRANCH  39  62
ATOM     62  C   UNL A   1      46.608  32.689  28.652  1.00  0.00     0.064 A 
ATOM     63  C   UNL A   1      47.084  32.957  29.944  1.00  0.00     0.173 A 
ATOM     64  C   UNL A   1      46.462  33.767  27.767  1.00  0.00     0.173 A 
ATOM     65  F   UNL A   1      47.222  31.963  30.833  1.00  0.00    -0.203 F 
ATOM     66  C   UNL A   1      47.371  34.259  30.344  1.00  0.00     0.198 A 
ATOM     67  C   UNL A   1      46.784  35.063  28.160  1.00  0.00     0.198 A 
ATOM     68  F   UNL A   1      46.017  33.563  26.519  1.00  0.00    -0.203 F 
ATOM     69  F   UNL A   1      47.768  34.500  31.601  1.00  0.00    -0.200 F 
ATOM     70  C   UNL A   1      47.229  35.309  29.449  1.00  0.00     0.200 A 
ATOM     71  F   UNL A   1      46.658  36.075  27.289  1.00  0.00    -0.200 F 
ATOM     72  F   UNL A   1      47.510  36.561  29.834  1.00  0.00    -0.200 F 
ENDBRANCH  39  62
ENDBRANCH  13  14
ENDBRANCH   6   8
ENDBRANCH   3   4
ENDBRANCH   2   3
ENDBRANCH   1   2
BRANCH   1  73
ATOM     73  C   UNL A   1      41.797  21.346  27.153  1.00  0.00     0.002 C 
BRANCH  73  74
ATOM     74  C   UNL A   1      40.934  21.837  25.982  1.00  0.00     0.021 C 
BRANCH  74  75
ATOM     75  C   UNL A   1      39.438  21.547  26.094  1.00  0.00     0.116 C 
BRANCH  75  76
ATOM     76  N   UNL A   1      38.650  22.727  26.374  1.00  0.00    -0.354 N 
ATOM     77  C   UNL A   1      37.369  22.999  25.992  1.00  0.00     0.249 C 
ATOM     78  H   UNL A   1      39.095  23.423  26.909  1.00  0.00     0.163 HD
ATOM     79  O   UNL A   1      36.850  24.030  26.427  1.00  0.00    -0.272 OA
BRANCH  77  80
ATOM     80  C   UNL A   1      36.632  22.024  25.047  1.00  0.00     0.211 C 
ATOM     81  C   UNL A   1      35.454  21.338  25.728  1.00  0.00     0.085 C 
ATOM     82  O   UNL A   1      36.148  22.708  23.892  1.00  0.00    -0.357 OA
ATOM     83  C   UNL A   1      34.249  21.521  24.796  1.00  0.00     0.124 C 
ATOM     84  C   UNL A   1      34.707  22.680  23.865  1.00  0.00     0.187 C 
BRANCH  83  85
ATOM     85  C   UNL A   1      33.829  20.139  24.246  1.00  0.00     0.005 A 
ATOM     86  C   UNL A   1      34.617  19.041  24.704  1.00  0.00     0.008 A 
ATOM     87  C   UNL A   1      32.777  19.807  23.372  1.00  0.00     0.047 A 
ATOM     88  C   UNL A   1      34.353  17.713  24.363  1.00  0.00     0.001 A 
ATOM     89  C   UNL A   1      32.489  18.460  23.066  1.00  0.00     0.021 A 
ATOM     90  Cl  UNL A   1      31.785  20.930  22.514  1.00  0.00    -0.084 Cl
ATOM     91  C   UNL A   1      33.267  17.418  23.559  1.00  0.00     0.002 A 
ENDBRANCH  83  85
BRANCH  83  92
ATOM     92  O   UNL A   1      33.105  21.932  25.577  1.00  0.00    -0.382 OA
ATOM     93  H   UNL A   1      33.127  22.893  25.701  1.00  0.00     0.212 HD
ENDBRANCH  83  92
BRANCH  84  94
ATOM     94  C   UNL A   1      34.208  24.103  24.120  1.00  0.00     0.003 A 
ATOM     95  C   UNL A   1      34.384  24.724  25.372  1.00  0.00     0.008 A 
ATOM     96  C   UNL A   1      33.600  24.869  23.103  1.00  0.00     0.046 A 
ATOM     97  C   UNL A   1      34.021  26.056  25.590  1.00  0.00     0.000 A 
ATOM     98  C   UNL A   1      33.240  26.206  23.324  1.00  0.00     0.021 A 
ATOM     99  Cl  UNL A   1      33.256  24.241  21.527  1.00  0.00    -0.084 Cl
ATOM    100  C   UNL A   1      33.459  26.802  24.562  1.00  0.00     0.002 A 
ENDBRANCH  84  94
ENDBRANCH  77  80
ENDBRANCH  75  76
ENDBRANCH  74  75
ENDBRANCH  73  74
ENDBRANCH   1  73
TORSDOF 16
ENDMDL
MODEL 2
REMARK VINA RESULT:     -12.2      0.354      7.089
REMARK SMILES O=C(NCCCCCCNC(=O)[C@H]1C[C@](O)(c2ccccc2Cl)[C@@H](c2ccccc2Cl)O1)c1ccc(-c2c3nc(c(-c4c(F)c(F)c(F)c(F)c4F)c4ccc([nH]4)c(-c4c(F)c(F)c(F)c(F)c4F)c4nc(c(-c5c(F)c(F)c(F)c(F)c5F)c5ccc2[nH]5)C=C4)C=C3)cc1
REMARK SMILES IDX 6 1 5 2 4 3 3 4 1 5 2 6 33 8 34 9 95 10 35 11 94 12 36 13
REMARK SMILES IDX 37 14 38 15 88 16 39 17 93 18 87 19 89 20 40 21 92 22 86 23
REMARK SMILES IDX 85 24 41 26 73 27 53 28 72 29 54 30 57 31 71 32 90 33 55 34
REMARK SMILES IDX 56 35 70 37 91 38 58 39 42 40 43 41 51 42 44 43 45 44 49 45
REMARK SMILES IDX 52 46 46 47 47 48 50 49 48 50 74 51 75 52 83 53 76 54 77 55
REMARK SMILES IDX 81 56 84 57 78 58 79 59 82 60 80 61 59 62 60 63 68 64 61 65
REMARK SMILES IDX 62 66 66 67 69 68 63 69 64 70 67 71 65 72 7 73 8 74 9 75
REMARK SMILES IDX 10 76 11 77 12 79 13 80 14 81 32 82 15 83 24 84 17 85 18 86
REMARK SMILES IDX 22 87 19 88 21 89 23 90 20 91 16 92 25 94 26 95 30 96 27 97
REMARK SMILES IDX 29 98 31 99 28 100
REMARK H PARENT 3 7 89 25 57 36 10 78 16 93
REMARK Flexibility Score: inf
ROOT
ATOM      1  C   UNL A   1      41.820  19.798  27.428  1.00  0.00     0.002 C 
ENDROOT
BRANCH   1   2
ATOM      2  C   UNL A   1      42.241  18.960  26.222  1.00  0.00     0.021 C 
BRANCH   2   3
ATOM      3  C   UNL A   1      43.732  18.680  26.129  1.00  0.00     0.116 C 
BRANCH   3   4
ATOM      4  N   UNL A   1      44.200  18.603  24.755  1.00  0.00    -0.352 N 
ATOM      5  O   UNL A   1      44.796  19.402  22.730  1.00  0.00    -0.269 OA
ATOM      6  C   UNL A   1      44.593  19.619  23.916  1.00  0.00     0.251 C 
ATOM      7  H   UNL A   1      44.240  17.697  24.371  1.00  0.00     0.163 HD
BRANCH   6   8
ATOM      8  C   UNL A   1      44.756  20.987  24.456  1.00  0.00     0.039 A 
ATOM      9  C   UNL A   1      45.527  21.212  25.598  1.00  0.00     0.014 A 
ATOM     10  C   UNL A   1      44.146  22.060  23.800  1.00  0.00     0.014 A 
ATOM     11  C   UNL A   1      45.585  22.482  26.156  1.00  0.00     0.010 A 
ATOM     12  C   UNL A   1      44.282  23.356  24.310  1.00  0.00     0.010 A 
ATOM     13  C   UNL A   1      44.994  23.574  25.500  1.00  0.00    -0.014 A 
BRANCH  13  14
ATOM     14  C   UNL A   1      45.241  24.943  26.017  1.00  0.00     0.031 A 
ATOM     15  C   UNL A   1      46.604  25.570  25.969  1.00  0.00     0.074 A 
ATOM     16  C   UNL A   1      44.194  25.624  26.526  1.00  0.00     0.049 A 
ATOM     17  N   UNL A   1      46.977  26.757  26.379  1.00  0.00    -0.248 NA
ATOM     18  C   UNL A   1      47.695  24.766  25.396  1.00  0.00     0.031 C 
ATOM     19  C   UNL A   1      42.829  25.102  26.638  1.00  0.00     0.029 A 
ATOM     20  N   UNL A   1      44.104  26.894  27.032  1.00  0.00    -0.354 N 
ATOM     21  C   UNL A   1      48.341  26.838  26.131  1.00  0.00     0.074 A 
ATOM     22  C   UNL A   1      48.738  25.572  25.550  1.00  0.00     0.031 C 
ATOM     23  C   UNL A   1      42.033  26.054  27.143  1.00  0.00     0.029 A 
ATOM     24  C   UNL A   1      42.840  27.225  27.456  1.00  0.00     0.049 A 
ATOM     25  H   UNL A   1      44.871  27.510  27.085  1.00  0.00     0.167 HD
ATOM     26  C   UNL A   1      49.176  27.878  26.366  1.00  0.00     0.037 A 
ATOM     27  C   UNL A   1      42.386  28.338  28.061  1.00  0.00     0.037 A 
ATOM     28  C   UNL A   1      48.763  29.140  26.929  1.00  0.00     0.049 A 
ATOM     29  C   UNL A   1      43.347  29.458  28.333  1.00  0.00     0.074 A 
ATOM     30  C   UNL A   1      49.525  30.276  27.149  1.00  0.00     0.029 A 
ATOM     31  N   UNL A   1      47.480  29.430  27.372  1.00  0.00    -0.354 N 
ATOM     32  N   UNL A   1      44.621  29.544  28.036  1.00  0.00    -0.248 NA
ATOM     33  C   UNL A   1      42.810  30.636  29.027  1.00  0.00     0.031 C 
ATOM     34  C   UNL A   1      48.719  31.229  27.778  1.00  0.00     0.029 A 
ATOM     35  C   UNL A   1      47.441  30.713  27.897  1.00  0.00     0.049 A 
ATOM     36  H   UNL A   1      46.713  28.816  27.320  1.00  0.00     0.167 HD
ATOM     37  C   UNL A   1      45.034  30.787  28.493  1.00  0.00     0.074 A 
ATOM     38  C   UNL A   1      43.868  31.432  29.057  1.00  0.00     0.031 C 
ATOM     39  C   UNL A   1      46.271  31.341  28.456  1.00  0.00     0.037 A 
BRANCH  26  40
ATOM     40  C   UNL A   1      50.631  27.712  26.036  1.00  0.00     0.064 A 
ATOM     41  C   UNL A   1      51.567  27.315  27.002  1.00  0.00     0.173 A 
ATOM     42  C   UNL A   1      51.074  27.851  24.712  1.00  0.00     0.173 A 
ATOM     43  F   UNL A   1      51.196  27.174  28.284  1.00  0.00    -0.203 F 
ATOM     44  C   UNL A   1      52.894  27.068  26.655  1.00  0.00     0.198 A 
ATOM     45  C   UNL A   1      52.396  27.580  24.364  1.00  0.00     0.198 A 
ATOM     46  F   UNL A   1      50.218  28.221  23.748  1.00  0.00    -0.203 F 
ATOM     47  F   UNL A   1      53.776  26.710  27.598  1.00  0.00    -0.200 F 
ATOM     48  C   UNL A   1      53.304  27.191  25.335  1.00  0.00     0.200 A 
ATOM     49  F   UNL A   1      52.786  27.683  23.086  1.00  0.00    -0.200 F 
ATOM     50  F   UNL A   1      54.576  26.930  25.000  1.00  0.00    -0.200 F 
ENDBRANCH  26  40
BRANCH  27  51
ATOM     51  C   UNL A   1      40.963  28.429  28.481  1.00  0.00     0.064 A 
ATOM     52  C   UNL A   1      39.988  28.965  27.630  1.00  0.00     0.173 A 
ATOM     53  C   UNL A   1      40.553  28.001  29.753  1.00  0.00     0.173 A 
ATOM     54  F   UNL A   1      40.332  29.405  26.409  1.00  0.00    -0.203 F 
ATOM     55  C   UNL A   1      38.664  29.098  28.044  1.00  0.00     0.198 A 
ATOM     56  C   UNL A   1      39.223  28.099  30.154  1.00  0.00     0.198 A 
ATOM     57  F   UNL A   1      41.444  27.474  30.606  1.00  0.00    -0.203 F 
ATOM     58  F   UNL A   1      37.765  29.671  27.233  1.00  0.00    -0.200 F 
ATOM     59  C   UNL A   1      38.282  28.660  29.304  1.00  0.00     0.200 A 
ATOM     60  F   UNL A   1      38.856  27.656  31.363  1.00  0.00    -0.200 F 
ATOM     61  F   UNL A   1      37.010  28.789  29.703  1.00  0.00    -0.200 F 
ENDBRANCH  27  51
BRANCH  39  62
ATOM     62  C   UNL A   1      46.413  32.722  29.024  1.00  0.00     0.064 A 
ATOM     63  C   UNL A   1      46.207  33.864  28.236  1.00  0.00     0.173 A 
ATOM     64  C   UNL A   1      46.739  32.906  30.376  1.00  0.00     0.173 A 
ATOM     65  F   UNL A   1      45.912  33.741  26.933  1.00  0.00    -0.203 F 
ATOM     66  C   UNL A   1      46.355  35.140  28.773  1.00  0.00     0.198 A 
ATOM     67  C   UNL A   1      46.852  34.183  30.917  1.00  0.00     0.198 A 
ATOM     68  F   UNL A   1      46.940  31.847  31.173  1.00  0.00    -0.203 F 
ATOM     69  F   UNL A   1      46.211  36.216  27.987  1.00  0.00    -0.200 F 
ATOM     70  C   UNL A   1      46.669  35.298  30.114  1.00  0.00     0.200 A 
ATOM     71  F   UNL A   1      47.143  34.334  32.217  1.00  0.00    -0.200 F 
ATOM     72  F   UNL A   1      46.806  36.527  30.631  1.00  0.00    -0.200 F 
ENDBRANCH  39  62
ENDBRANCH  13  14
ENDBRANCH   6   8
ENDBRANCH   3   4
ENDBRANCH   2   3
ENDBRANCH   1   2
BRANCH   1  73
ATOM     73  C   UNL A   1      41.817  21.316  27.215  1.00  0.00     0.002 C 
BRANCH  73  74
ATOM     74  C   UNL A   1      40.998  21.833  26.025  1.00  0.00     0.021 C 
BRANCH  74  75
ATOM     75  C   UNL A   1      39.493  21.575  26.094  1.00  0.00     0.116 C 
BRANCH  75  76
ATOM     76  N   UNL A   1      38.720  22.778  26.315  1.00  0.00    -0.354 N 
ATOM     77  C   UNL A   1      37.448  23.053  25.907  1.00  0.00     0.249 C 
ATOM     78  H   UNL A   1      39.171  23.490  26.825  1.00  0.00     0.163 HD
ATOM     79  O   UNL A   1      36.940  24.109  26.292  1.00  0.00    -0.272 OA
BRANCH  77  80
ATOM     80  C   UNL A   1      36.706  22.050  24.996  1.00  0.00     0.211 C 
ATOM     81  C   UNL A   1      35.557  21.355  25.717  1.00  0.00     0.085 C 
ATOM     82  O   UNL A   1      36.183  22.705  23.842  1.00  0.00    -0.357 OA
ATOM     83  C   UNL A   1      34.327  21.502  24.811  1.00  0.00     0.124 C 
ATOM     84  C   UNL A   1      34.742  22.652  23.850  1.00  0.00     0.187 C 
BRANCH  83  85
ATOM     85  C   UNL A   1      33.919  20.104  24.294  1.00  0.00     0.005 A 
ATOM     86  C   UNL A   1      34.717  19.024  24.775  1.00  0.00     0.008 A 
ATOM     87  C   UNL A   1      32.867  19.742  23.431  1.00  0.00     0.047 A 
ATOM     88  C   UNL A   1      34.465  17.685  24.466  1.00  0.00     0.001 A 
ATOM     89  C   UNL A   1      32.590  18.386  23.158  1.00  0.00     0.021 A 
ATOM     90  Cl  UNL A   1      31.862  20.835  22.550  1.00  0.00    -0.084 Cl
ATOM     91  C   UNL A   1      33.380  17.363  23.672  1.00  0.00     0.002 A 
ENDBRANCH  83  85
BRANCH  83  92
ATOM     92  O   UNL A   1      33.195  21.906  25.612  1.00  0.00    -0.382 OA
ATOM     93  H   UNL A   1      33.488  22.082  26.519  1.00  0.00     0.212 HD
ENDBRANCH  83  92
BRANCH  84  94
ATOM     94  C   UNL A   1      34.225  24.071  24.093  1.00  0.00     0.003 A 
ATOM     95  C   UNL A   1      34.422  24.717  25.329  1.00  0.00     0.008 A 
ATOM     96  C   UNL A   1      33.578  24.808  23.078  1.00  0.00     0.046 A 
ATOM     97  C   UNL A   1      34.041  26.046  25.533  1.00  0.00     0.000 A 
ATOM     98  C   UNL A   1      33.200  26.142  23.286  1.00  0.00     0.021 A 
ATOM     99  Cl  UNL A   1      33.206  24.146  21.523  1.00  0.00    -0.084 Cl
ATOM    100  C   UNL A   1      33.440  26.764  24.508  1.00  0.00     0.002 A 
ENDBRANCH  84  94
ENDBRANCH  77  80
ENDBRANCH  75  76
ENDBRANCH  74  75
ENDBRANCH  73  74
ENDBRANCH   1  73
TORSDOF 16
ENDMDL
MODEL 3
REMARK VINA RESULT:     -12.1      0.879      3.203
REMARK SMILES O=C(NCCCCCCNC(=O)[C@H]1C[C@](O)(c2ccccc2Cl)[C@@H](c2ccccc2Cl)O1)c1ccc(-c2c3nc(c(-c4c(F)c(F)c(F)c(F)c4F)c4ccc([nH]4)c(-c4c(F)c(F)c(F)c(F)c4F)c4nc(c(-c5c(F)c(F)c(F)c(F)c5F)c5ccc2[nH]5)C=C4)C=C3)cc1
REMARK SMILES IDX 6 1 5 2 4 3 3 4 1 5 2 6 33 8 34 9 95 10 35 11 94 12 36 13
REMARK SMILES IDX 37 14 38 15 88 16 39 17 93 18 87 19 89 20 40 21 92 22 86 23
REMARK SMILES IDX 85 24 41 26 73 27 53 28 72 29 54 30 57 31 71 32 90 33 55 34
REMARK SMILES IDX 56 35 70 37 91 38 58 39 42 40 43 41 51 42 44 43 45 44 49 45
REMARK SMILES IDX 52 46 46 47 47 48 50 49 48 50 74 51 75 52 83 53 76 54 77 55
REMARK SMILES IDX 81 56 84 57 78 58 79 59 82 60 80 61 59 62 60 63 68 64 61 65
REMARK SMILES IDX 62 66 66 67 69 68 63 69 64 70 67 71 65 72 7 73 8 74 9 75
REMARK SMILES IDX 10 76 11 77 12 79 13 80 14 81 32 82 15 83 24 84 17 85 18 86
REMARK SMILES IDX 22 87 19 88 21 89 23 90 20 91 16 92 25 94 26 95 30 96 27 97
REMARK SMILES IDX 29 98 31 99 28 100
REMARK H PARENT 3 7 89 25 57 36 10 78 16 93
REMARK Flexibility Score: inf
ROOT
ATOM      1  C   UNL A   1      41.848  20.755  26.234  1.00  0.00     0.002 C 
ENDROOT
BRANCH   1   2
ATOM      2  C   UNL A   1      42.022  19.317  25.747  1.00  0.00     0.021 C 
BRANCH   2   3
ATOM      3  C   UNL A   1      43.383  18.705  26.039  1.00  0.00     0.116 C 
BRANCH   3   4
ATOM      4  N   UNL A   1      44.174  18.510  24.836  1.00  0.00    -0.352 N 
ATOM      5  O   UNL A   1      45.316  19.136  22.991  1.00  0.00    -0.269 OA
ATOM      6  C   UNL A   1      44.837  19.444  24.074  1.00  0.00     0.251 C 
ATOM      7  H   UNL A   1      44.246  17.579  24.522  1.00  0.00     0.163 HD
BRANCH   6   8
ATOM      8  C   UNL A   1      44.955  20.834  24.567  1.00  0.00     0.039 A 
ATOM      9  C   UNL A   1      45.572  21.103  25.791  1.00  0.00     0.014 A 
ATOM     10  C   UNL A   1      44.461  21.883  23.786  1.00  0.00     0.014 A 
ATOM     11  C   UNL A   1      45.582  22.397  26.292  1.00  0.00     0.010 A 
ATOM     12  C   UNL A   1      44.555  23.199  24.250  1.00  0.00     0.010 A 
ATOM     13  C   UNL A   1      45.107  23.465  25.513  1.00  0.00    -0.014 A 
BRANCH  13  14
ATOM     14  C   UNL A   1      45.312  24.853  25.993  1.00  0.00     0.031 A 
ATOM     15  C   UNL A   1      44.196  25.650  26.603  1.00  0.00     0.074 A 
ATOM     16  C   UNL A   1      46.546  25.385  25.877  1.00  0.00     0.049 A 
ATOM     17  N   UNL A   1      44.221  26.874  27.071  1.00  0.00    -0.248 NA
ATOM     18  C   UNL A   1      42.880  25.001  26.699  1.00  0.00     0.031 C 
ATOM     19  C   UNL A   1      47.700  24.705  25.281  1.00  0.00     0.029 A 
ATOM     20  N   UNL A   1      47.043  26.603  26.259  1.00  0.00    -0.354 N 
ATOM     21  C   UNL A   1      42.929  27.148  27.499  1.00  0.00     0.074 A 
ATOM     22  C   UNL A   1      42.135  25.969  27.221  1.00  0.00     0.031 C 
ATOM     23  C   UNL A   1      48.775  25.499  25.371  1.00  0.00     0.029 A 
ATOM     24  C   UNL A   1      48.374  26.768  25.963  1.00  0.00     0.049 A 
ATOM     25  H   UNL A   1      46.499  27.294  26.703  1.00  0.00     0.167 HD
ATOM     26  C   UNL A   1      42.458  28.280  28.074  1.00  0.00     0.037 A 
ATOM     27  C   UNL A   1      49.179  27.835  26.120  1.00  0.00     0.037 A 
ATOM     28  C   UNL A   1      43.264  29.441  28.362  1.00  0.00     0.049 A 
ATOM     29  C   UNL A   1      48.614  29.083  26.734  1.00  0.00     0.074 A 
ATOM     30  C   UNL A   1      42.890  30.613  28.999  1.00  0.00     0.029 A 
ATOM     31  N   UNL A   1      44.602  29.582  28.024  1.00  0.00    -0.354 N 
ATOM     32  N   UNL A   1      47.405  29.305  27.190  1.00  0.00    -0.248 NA
ATOM     33  C   UNL A   1      49.522  30.231  26.851  1.00  0.00     0.031 C 
ATOM     34  C   UNL A   1      43.983  31.484  28.991  1.00  0.00     0.029 A 
ATOM     35  C   UNL A   1      45.056  30.835  28.405  1.00  0.00     0.049 A 
ATOM     36  H   UNL A   1      45.147  28.893  27.579  1.00  0.00     0.167 HD
ATOM     37  C   UNL A   1      47.411  30.610  27.662  1.00  0.00     0.074 A 
ATOM     38  C   UNL A   1      48.752  31.118  27.465  1.00  0.00     0.031 C 
ATOM     39  C   UNL A   1      46.395  31.326  28.201  1.00  0.00     0.037 A 
BRANCH  26  40
ATOM     40  C   UNL A   1      40.999  28.347  28.426  1.00  0.00     0.064 A 
ATOM     41  C   UNL A   1      40.523  27.940  29.680  1.00  0.00     0.173 A 
ATOM     42  C   UNL A   1      40.084  28.924  27.532  1.00  0.00     0.173 A 
ATOM     43  F   UNL A   1      41.356  27.377  30.569  1.00  0.00    -0.203 F 
ATOM     44  C   UNL A   1      39.183  28.104  30.025  1.00  0.00     0.198 A 
ATOM     45  C   UNL A   1      38.750  29.108  27.889  1.00  0.00     0.198 A 
ATOM     46  F   UNL A   1      40.489  29.336  26.322  1.00  0.00    -0.203 F 
ATOM     47  F   UNL A   1      38.745  27.689  31.222  1.00  0.00    -0.200 F 
ATOM     48  C   UNL A   1      38.301  28.697  29.134  1.00  0.00     0.200 A 
ATOM     49  F   UNL A   1      37.903  29.697  27.033  1.00  0.00    -0.200 F 
ATOM     50  F   UNL A   1      37.017  28.875  29.477  1.00  0.00    -0.200 F 
ENDBRANCH  26  40
BRANCH  27  51
ATOM     51  C   UNL A   1      50.590  27.779  25.658  1.00  0.00     0.064 A 
ATOM     52  C   UNL A   1      51.640  27.552  26.557  1.00  0.00     0.173 A 
ATOM     53  C   UNL A   1      50.920  27.972  24.307  1.00  0.00     0.173 A 
ATOM     54  F   UNL A   1      51.379  27.379  27.862  1.00  0.00    -0.203 F 
ATOM     55  C   UNL A   1      52.966  27.552  26.130  1.00  0.00     0.198 A 
ATOM     56  C   UNL A   1      52.241  27.934  23.874  1.00  0.00     0.198 A 
ATOM     57  F   UNL A   1      49.952  28.187  23.403  1.00  0.00    -0.203 F 
ATOM     58  F   UNL A   1      53.954  27.394  27.021  1.00  0.00    -0.200 F 
ATOM     59  C   UNL A   1      53.266  27.738  24.788  1.00  0.00     0.200 A 
ATOM     60  F   UNL A   1      52.524  28.094  22.575  1.00  0.00    -0.200 F 
ATOM     61  F   UNL A   1      54.541  27.739  24.377  1.00  0.00    -0.200 F 
ENDBRANCH  27  51
BRANCH  39  62
ATOM     62  C   UNL A   1      46.708  32.728  28.635  1.00  0.00     0.064 A 
ATOM     63  C   UNL A   1      46.475  33.826  27.794  1.00  0.00     0.173 A 
ATOM     64  C   UNL A   1      47.228  32.977  29.914  1.00  0.00     0.173 A 
ATOM     65  F   UNL A   1      45.996  33.638  26.555  1.00  0.00    -0.203 F 
ATOM     66  C   UNL A   1      46.782  35.120  28.206  1.00  0.00     0.198 A 
ATOM     67  C   UNL A   1      47.501  34.275  30.335  1.00  0.00     0.198 A 
ATOM     68  F   UNL A   1      47.463  31.962  30.758  1.00  0.00    -0.203 F 
ATOM     69  F   UNL A   1      46.606  36.148  27.364  1.00  0.00    -0.200 F 
ATOM     70  C   UNL A   1      47.287  35.344  29.478  1.00  0.00     0.200 A 
ATOM     71  F   UNL A   1      47.977  34.491  31.569  1.00  0.00    -0.200 F 
ATOM     72  F   UNL A   1      47.577  36.590  29.874  1.00  0.00    -0.200 F 
ENDBRANCH  39  62
ENDBRANCH  13  14
ENDBRANCH   6   8
ENDBRANCH   3   4
ENDBRANCH   2   3
ENDBRANCH   1   2
BRANCH   1  73
ATOM     73  C   UNL A   1      40.511  21.070  26.913  1.00  0.00     0.002 C 
BRANCH  73  74
ATOM     74  C   UNL A   1      40.253  22.543  27.256  1.00  0.00     0.021 C 
BRANCH  74  75
ATOM     75  C   UNL A   1      39.021  23.170  26.604  1.00  0.00     0.116 C 
BRANCH  75  76
ATOM     76  N   UNL A   1      38.559  22.439  25.444  1.00  0.00    -0.354 N 
ATOM     77  C   UNL A   1      37.390  22.593  24.758  1.00  0.00     0.249 C 
ATOM     78  H   UNL A   1      39.166  21.742  25.106  1.00  0.00     0.163 HD
ATOM     79  O   UNL A   1      37.239  21.929  23.730  1.00  0.00    -0.272 OA
BRANCH  77  80
ATOM     80  C   UNL A   1      36.320  23.575  25.286  1.00  0.00     0.211 C 
ATOM     81  C   UNL A   1      35.506  24.201  24.161  1.00  0.00     0.085 C 
ATOM     82  O   UNL A   1      35.424  22.915  26.177  1.00  0.00    -0.357 OA
ATOM     83  C   UNL A   1      34.030  24.011  24.538  1.00  0.00     0.124 C 
ATOM     84  C   UNL A   1      34.093  22.898  25.623  1.00  0.00     0.187 C 
BRANCH  83  85
ATOM     85  C   UNL A   1      33.403  25.396  24.814  1.00  0.00     0.005 A 
ATOM     86  C   UNL A   1      32.856  25.563  26.121  1.00  0.00     0.008 A 
ATOM     87  C   UNL A   1      33.307  26.518  23.970  1.00  0.00     0.047 A 
ATOM     88  C   UNL A   1      32.301  26.763  26.574  1.00  0.00     0.001 A 
ATOM     89  C   UNL A   1      32.786  27.739  24.446  1.00  0.00     0.021 A 
ATOM     90  Cl  UNL A   1      33.704  26.554  22.290  1.00  0.00    -0.084 Cl
ATOM     91  C   UNL A   1      32.289  27.865  25.739  1.00  0.00     0.002 A 
ENDBRANCH  83  85
BRANCH  83  92
ATOM     92  O   UNL A   1      33.303  23.539  23.382  1.00  0.00    -0.382 OA
ATOM     93  H   UNL A   1      33.098  24.288  22.802  1.00  0.00     0.212 HD
ENDBRANCH  83  92
BRANCH  84  94
ATOM     94  C   UNL A   1      33.761  21.452  25.250  1.00  0.00     0.003 A 
ATOM     95  C   UNL A   1      34.777  20.527  24.941  1.00  0.00     0.008 A 
ATOM     96  C   UNL A   1      32.434  20.972  25.251  1.00  0.00     0.046 A 
ATOM     97  C   UNL A   1      34.496  19.181  24.694  1.00  0.00     0.000 A 
ATOM     98  C   UNL A   1      32.156  19.621  25.005  1.00  0.00     0.021 A 
ATOM     99  Cl  UNL A   1      31.064  21.988  25.551  1.00  0.00    -0.084 Cl
ATOM    100  C   UNL A   1      33.185  18.724  24.736  1.00  0.00     0.002 A 
ENDBRANCH  84  94
ENDBRANCH  77  80
ENDBRANCH  75  76
ENDBRANCH  74  75
ENDBRANCH  73  74
ENDBRANCH   1  73
TORSDOF 16
ENDMDL
