MODEL 1
REMARK VINA RESULT:     -11.4      0.000      0.000
REMARK SMILES CCC[NH2+][C@@]1(C(=O)NCCCCCCNC(=O)c2ccc(-c3c4nc(c(-c5c(F)c(F)c(F)c(F)c5F)c5ccc([nH]5)c(-c5c(F)c(F)c(F)c(F)c5F)c5nc(c(-c6c(F)c(F)c(F)c(F)c6F)c6ccc3[nH]6)C=C5)C=C4)cc2)CC[C@@H](SC2CCCC2)C1
REMARK SMILES IDX 11 1 10 2 9 3 8 4 6 5 7 6 5 8 81 9 90 10 82 11 83 12 4 13
REMARK SMILES IDX 3 16 2 17 1 18 84 19 85 20 86 21 89 22 87 23 88 24 12 25
REMARK SMILES IDX 13 26 14 27 15 28 16 29 17 31 18 32 19 33 80 34 20 35 79 36
REMARK SMILES IDX 21 37 22 38 23 39 73 40 24 41 78 42 72 43 74 44 25 45 77 46
REMARK SMILES IDX 71 47 70 48 26 50 58 51 38 52 57 53 39 54 42 55 56 56 75 57
REMARK SMILES IDX 40 58 41 59 55 61 76 62 43 63 27 64 28 65 36 66 29 67 30 68
REMARK SMILES IDX 34 69 37 70 31 71 32 72 35 73 33 74 59 75 60 76 68 77 61 78
REMARK SMILES IDX 62 79 66 80 69 81 63 82 64 83 67 84 65 85 44 86 45 87 53 88
REMARK SMILES IDX 46 89 47 90 51 91 54 92 48 93 49 94 52 95 50 96
REMARK H PARENT 8 7 4 14 4 15 15 30 74 49 42 60
REMARK Flexibility Score: inf
ROOT
ATOM      1  C   UNL A   1      32.514  30.045  27.151  1.00  0.00     0.002 C 
ENDROOT
BRANCH   1   2
ATOM      2  C   UNL A   1      32.437  28.528  27.061  1.00  0.00     0.021 C 
BRANCH   2   3
ATOM      3  C   UNL A   1      33.310  27.947  25.962  1.00  0.00     0.116 C 
BRANCH   3   4
ATOM      4  N   UNL A   1      33.343  26.519  25.980  1.00  0.00    -0.351 N 
ATOM      5  C   UNL A   1      32.607  25.624  25.270  1.00  0.00     0.281 C 
ATOM      6  O   UNL A   1      32.567  24.499  25.788  1.00  0.00    -0.268 OA
ATOM      7  H   UNL A   1      33.996  26.123  26.601  1.00  0.00     0.163 HD
BRANCH   5   8
ATOM      8  C   UNL A   1      31.851  25.974  23.903  1.00  0.00     0.176 C 
ATOM      9  C   UNL A   1      32.448  27.118  23.053  1.00  0.00     0.080 C 
ATOM     10  C   UNL A   1      30.385  26.407  24.168  1.00  0.00     0.093 C 
ATOM     11  C   UNL A   1      31.600  28.374  23.251  1.00  0.00     0.022 C 
ATOM     12  C   UNL A   1      30.266  27.903  23.827  1.00  0.00     0.054 C 
BRANCH   8  13
ATOM     13  N   UNL A   1      31.831  24.723  23.079  1.00  0.00    -0.334 N 
ATOM     14  H   UNL A   1      31.785  23.925  23.713  1.00  0.00     0.347 HD
ATOM     15  H   UNL A   1      31.019  24.794  22.466  1.00  0.00     0.347 HD
BRANCH  13  16
ATOM     16  C   UNL A   1      32.999  24.547  22.203  1.00  0.00     0.261 C 
BRANCH  16  17
ATOM     17  C   UNL A   1      33.646  23.172  22.399  1.00  0.00     0.058 C 
ATOM     18  C   UNL A   1      32.718  22.163  23.054  1.00  0.00     0.010 C 
ENDBRANCH  16  17
ENDBRANCH  13  16
ENDBRANCH   8  13
BRANCH  12  19
ATOM     19  S   UNL A   1      28.717  28.521  23.076  1.00  0.00    -0.155 SA
BRANCH  19  20
ATOM     20  C   UNL A   1      28.965  30.263  22.611  1.00  0.00     0.047 C 
ATOM     21  C   UNL A   1      28.119  30.857  21.499  1.00  0.00     0.014 C 
ATOM     22  C   UNL A   1      28.868  31.281  23.738  1.00  0.00     0.014 C 
ATOM     23  C   UNL A   1      28.478  32.331  21.554  1.00  0.00     0.001 C 
ATOM     24  C   UNL A   1      28.648  32.627  23.042  1.00  0.00     0.001 C 
ENDBRANCH  19  20
ENDBRANCH  12  19
ENDBRANCH   5   8
ENDBRANCH   3   4
ENDBRANCH   2   3
ENDBRANCH   1   2
BRANCH   1  25
ATOM     25  C   UNL A   1      31.453  30.782  26.324  1.00  0.00     0.002 C 
BRANCH  25  26
ATOM     26  C   UNL A   1      31.446  32.304  26.490  1.00  0.00     0.021 C 
BRANCH  26  27
ATOM     27  C   UNL A   1      32.588  32.844  27.341  1.00  0.00     0.116 C 
BRANCH  27  28
ATOM     28  N   UNL A   1      32.403  34.251  27.655  1.00  0.00    -0.352 N 
ATOM     29  C   UNL A   1      32.994  34.997  28.638  1.00  0.00     0.251 C 
ATOM     30  H   UNL A   1      31.766  34.733  27.080  1.00  0.00     0.163 HD
ATOM     31  O   UNL A   1      32.560  36.107  28.931  1.00  0.00    -0.269 OA
BRANCH  29  32
ATOM     32  C   UNL A   1      34.162  34.446  29.345  1.00  0.00     0.039 A 
ATOM     33  C   UNL A   1      33.977  33.769  30.551  1.00  0.00     0.014 A 
ATOM     34  C   UNL A   1      35.441  34.601  28.801  1.00  0.00     0.014 A 
ATOM     35  C   UNL A   1      35.078  33.207  31.197  1.00  0.00     0.010 A 
ATOM     36  C   UNL A   1      36.521  33.972  29.402  1.00  0.00     0.010 A 
ATOM     37  C   UNL A   1      36.353  33.285  30.614  1.00  0.00    -0.014 A 
BRANCH  37  38
ATOM     38  C   UNL A   1      37.549  32.706  31.268  1.00  0.00     0.031 A 
ATOM     39  C   UNL A   1      38.277  31.578  30.592  1.00  0.00     0.074 A 
ATOM     40  C   UNL A   1      37.920  33.124  32.492  1.00  0.00     0.049 A 
ATOM     41  N   UNL A   1      39.239  30.818  31.048  1.00  0.00    -0.248 NA
ATOM     42  C   UNL A   1      37.837  31.236  29.229  1.00  0.00     0.031 C 
ATOM     43  C   UNL A   1      37.275  34.195  33.253  1.00  0.00     0.029 A 
ATOM     44  N   UNL A   1      38.918  32.680  33.321  1.00  0.00    -0.354 N 
ATOM     45  C   UNL A   1      39.498  29.898  30.042  1.00  0.00     0.074 A 
ATOM     46  C   UNL A   1      38.558  30.155  28.975  1.00  0.00     0.031 C 
ATOM     47  C   UNL A   1      37.902  34.332  34.433  1.00  0.00     0.029 A 
ATOM     48  C   UNL A   1      38.956  33.327  34.532  1.00  0.00     0.049 A 
ATOM     49  H   UNL A   1      39.548  31.966  33.073  1.00  0.00     0.167 HD
ATOM     50  C   UNL A   1      40.452  28.938  30.004  1.00  0.00     0.037 A 
ATOM     51  C   UNL A   1      39.740  33.116  35.606  1.00  0.00     0.037 A 
ATOM     52  C   UNL A   1      41.398  28.707  31.063  1.00  0.00     0.049 A 
ATOM     53  C   UNL A   1      40.775  32.021  35.552  1.00  0.00     0.074 A 
ATOM     54  C   UNL A   1      42.433  27.790  31.111  1.00  0.00     0.029 A 
ATOM     55  N   UNL A   1      41.420  29.401  32.264  1.00  0.00    -0.354 N 
ATOM     56  N   UNL A   1      41.045  31.186  34.579  1.00  0.00    -0.248 NA
ATOM     57  C   UNL A   1      41.615  31.842  36.745  1.00  0.00     0.031 C 
ATOM     58  C   UNL A   1      43.047  27.892  32.361  1.00  0.00     0.029 A 
ATOM     59  C   UNL A   1      42.440  28.919  33.067  1.00  0.00     0.049 A 
ATOM     60  H   UNL A   1      40.802  30.128  32.509  1.00  0.00     0.167 HD
ATOM     61  C   UNL A   1      42.114  30.417  35.021  1.00  0.00     0.074 A 
ATOM     62  C   UNL A   1      42.441  30.882  36.352  1.00  0.00     0.031 C 
ATOM     63  C   UNL A   1      42.771  29.420  34.377  1.00  0.00     0.037 A 
BRANCH  50  64
ATOM     64  C   UNL A   1      40.513  28.065  28.784  1.00  0.00     0.064 A 
ATOM     65  C   UNL A   1      41.277  28.420  27.660  1.00  0.00     0.173 A 
ATOM     66  C   UNL A   1      39.823  26.845  28.746  1.00  0.00     0.173 A 
ATOM     67  F   UNL A   1      41.948  29.581  27.639  1.00  0.00    -0.203 F 
ATOM     68  C   UNL A   1      41.317  27.603  26.533  1.00  0.00     0.198 A 
ATOM     69  C   UNL A   1      39.895  26.013  27.631  1.00  0.00     0.198 A 
ATOM     70  F   UNL A   1      39.083  26.453  29.794  1.00  0.00    -0.203 F 
ATOM     71  F   UNL A   1      42.005  27.992  25.451  1.00  0.00    -0.200 F 
ATOM     72  C   UNL A   1      40.633  26.397  26.523  1.00  0.00     0.200 A 
ATOM     73  F   UNL A   1      39.246  24.840  27.630  1.00  0.00    -0.200 F 
ATOM     74  F   UNL A   1      40.678  25.608  25.440  1.00  0.00    -0.200 F 
ENDBRANCH  50  64
BRANCH  51  75
ATOM     75  C   UNL A   1      39.592  33.967  36.816  1.00  0.00     0.064 A 
ATOM     76  C   UNL A   1      40.244  35.205  36.907  1.00  0.00     0.173 A 
ATOM     77  C   UNL A   1      38.806  33.563  37.906  1.00  0.00     0.173 A 
ATOM     78  F   UNL A   1      41.020  35.628  35.899  1.00  0.00    -0.203 F 
ATOM     79  C   UNL A   1      40.136  35.994  38.051  1.00  0.00     0.198 A 
ATOM     80  C   UNL A   1      38.674  34.368  39.036  1.00  0.00     0.198 A 
ATOM     81  F   UNL A   1      38.155  32.392  37.867  1.00  0.00    -0.203 F 
ATOM     82  F   UNL A   1      40.811  37.149  38.130  1.00  0.00    -0.200 F 
ATOM     83  C   UNL A   1      39.347  35.577  39.112  1.00  0.00     0.200 A 
ATOM     84  F   UNL A   1      37.897  33.970  40.052  1.00  0.00    -0.200 F 
ATOM     85  F   UNL A   1      39.243  36.337  40.210  1.00  0.00    -0.200 F 
ENDBRANCH  51  75
BRANCH  63  86
ATOM     86  C   UNL A   1      43.960  28.811  35.061  1.00  0.00     0.064 A 
ATOM     87  C   UNL A   1      45.248  29.346  34.933  1.00  0.00     0.173 A 
ATOM     88  C   UNL A   1      43.782  27.721  35.929  1.00  0.00     0.173 A 
ATOM     89  F   UNL A   1      45.471  30.378  34.105  1.00  0.00    -0.203 F 
ATOM     90  C   UNL A   1      46.319  28.806  35.640  1.00  0.00     0.198 A 
ATOM     91  C   UNL A   1      44.849  27.205  36.658  1.00  0.00     0.198 A 
ATOM     92  F   UNL A   1      42.567  27.176  36.091  1.00  0.00    -0.203 F 
ATOM     93  F   UNL A   1      47.549  29.312  35.477  1.00  0.00    -0.200 F 
ATOM     94  C   UNL A   1      46.116  27.745  36.511  1.00  0.00     0.200 A 
ATOM     95  F   UNL A   1      44.646  26.192  37.513  1.00  0.00    -0.200 F 
ATOM     96  F   UNL A   1      47.145  27.242  37.208  1.00  0.00    -0.200 F 
ENDBRANCH  63  86
ENDBRANCH  37  38
ENDBRANCH  29  32
ENDBRANCH  27  28
ENDBRANCH  26  27
ENDBRANCH  25  26
ENDBRANCH   1  25
TORSDOF 18
ENDMDL
MODEL 2
REMARK VINA RESULT:     -11.4      2.665      4.587
REMARK SMILES CCC[NH2+][C@@]1(C(=O)NCCCCCCNC(=O)c2ccc(-c3c4nc(c(-c5c(F)c(F)c(F)c(F)c5F)c5ccc([nH]5)c(-c5c(F)c(F)c(F)c(F)c5F)c5nc(c(-c6c(F)c(F)c(F)c(F)c6F)c6ccc3[nH]6)C=C5)C=C4)cc2)CC[C@@H](SC2CCCC2)C1
REMARK SMILES IDX 11 1 10 2 9 3 8 4 6 5 7 6 5 8 81 9 90 10 82 11 83 12 4 13
REMARK SMILES IDX 3 16 2 17 1 18 84 19 85 20 86 21 89 22 87 23 88 24 12 25
REMARK SMILES IDX 13 26 14 27 15 28 16 29 17 31 18 32 19 33 80 34 20 35 79 36
REMARK SMILES IDX 21 37 22 38 23 39 73 40 24 41 78 42 72 43 74 44 25 45 77 46
REMARK SMILES IDX 71 47 70 48 26 50 58 51 38 52 57 53 39 54 42 55 56 56 75 57
REMARK SMILES IDX 40 58 41 59 55 61 76 62 43 63 27 64 28 65 36 66 29 67 30 68
REMARK SMILES IDX 34 69 37 70 31 71 32 72 35 73 33 74 59 75 60 76 68 77 61 78
REMARK SMILES IDX 62 79 66 80 69 81 63 82 64 83 67 84 65 85 44 86 45 87 53 88
REMARK SMILES IDX 46 89 47 90 51 91 54 92 48 93 49 94 52 95 50 96
REMARK H PARENT 8 7 4 14 4 15 15 30 74 49 42 60
REMARK Flexibility Score: inf
ROOT
ATOM      1  C   UNL A   1      31.046  27.193  26.477  1.00  0.00     0.002 C 
ENDROOT
BRANCH   1   2
ATOM      2  C   UNL A   1      30.321  26.671  25.245  1.00  0.00     0.021 C 
BRANCH   2   3
ATOM      3  C   UNL A   1      30.352  25.157  25.128  1.00  0.00     0.116 C 
BRANCH   3   4
ATOM      4  N   UNL A   1      30.055  24.502  26.362  1.00  0.00    -0.351 N 
ATOM      5  C   UNL A   1      30.504  23.313  26.845  1.00  0.00     0.281 C 
ATOM      6  O   UNL A   1      29.773  22.831  27.721  1.00  0.00    -0.268 OA
ATOM      7  H   UNL A   1      29.432  24.984  26.952  1.00  0.00     0.163 HD
BRANCH   5   8
ATOM      8  C   UNL A   1      31.837  22.589  26.336  1.00  0.00     0.176 C 
ATOM      9  C   UNL A   1      32.766  22.002  27.421  1.00  0.00     0.080 C 
ATOM     10  C   UNL A   1      32.738  23.567  25.537  1.00  0.00     0.093 C 
ATOM     11  C   UNL A   1      33.957  22.940  27.612  1.00  0.00     0.022 C 
ATOM     12  C   UNL A   1      34.006  23.827  26.369  1.00  0.00     0.054 C 
BRANCH   8  13
ATOM     13  N   UNL A   1      31.413  21.483  25.417  1.00  0.00    -0.334 N 
ATOM     14  H   UNL A   1      31.347  20.624  25.962  1.00  0.00     0.347 HD
ATOM     15  H   UNL A   1      30.520  21.770  25.013  1.00  0.00     0.347 HD
BRANCH  13  16
ATOM     16  C   UNL A   1      32.322  21.242  24.287  1.00  0.00     0.261 C 
BRANCH  16  17
ATOM     17  C   UNL A   1      32.529  19.744  24.042  1.00  0.00     0.058 C 
ATOM     18  C   UNL A   1      33.239  19.044  25.188  1.00  0.00     0.010 C 
ENDBRANCH  16  17
ENDBRANCH  13  16
ENDBRANCH   8  13
BRANCH  12  19
ATOM     19  S   UNL A   1      35.604  24.042  25.505  1.00  0.00    -0.155 SA
BRANCH  19  20
ATOM     20  C   UNL A   1      36.553  22.498  25.669  1.00  0.00     0.047 C 
ATOM     21  C   UNL A   1      36.326  21.382  24.665  1.00  0.00     0.014 C 
ATOM     22  C   UNL A   1      38.067  22.641  25.733  1.00  0.00     0.014 C 
ATOM     23  C   UNL A   1      37.415  20.385  25.018  1.00  0.00     0.001 C 
ATOM     24  C   UNL A   1      38.613  21.249  25.403  1.00  0.00     0.001 C 
ENDBRANCH  19  20
ENDBRANCH  12  19
ENDBRANCH   5   8
ENDBRANCH   3   4
ENDBRANCH   2   3
ENDBRANCH   1   2
BRANCH   1  25
ATOM     25  C   UNL A   1      32.572  27.248  26.338  1.00  0.00     0.002 C 
BRANCH  25  26
ATOM     26  C   UNL A   1      33.080  27.739  24.979  1.00  0.00     0.021 C 
BRANCH  26  27
ATOM     27  C   UNL A   1      33.917  29.010  25.051  1.00  0.00     0.116 C 
BRANCH  27  28
ATOM     28  N   UNL A   1      33.157  30.121  25.599  1.00  0.00    -0.352 N 
ATOM     29  C   UNL A   1      33.347  30.795  26.774  1.00  0.00     0.251 C 
ATOM     30  H   UNL A   1      32.402  30.431  25.048  1.00  0.00     0.163 HD
ATOM     31  O   UNL A   1      32.483  31.549  27.213  1.00  0.00    -0.269 OA
BRANCH  29  32
ATOM     32  C   UNL A   1      34.608  30.603  27.509  1.00  0.00     0.039 A 
ATOM     33  C   UNL A   1      35.517  31.659  27.599  1.00  0.00     0.014 A 
ATOM     34  C   UNL A   1      34.881  29.373  28.114  1.00  0.00     0.014 A 
ATOM     35  C   UNL A   1      36.690  31.492  28.335  1.00  0.00     0.010 A 
ATOM     36  C   UNL A   1      36.007  29.236  28.912  1.00  0.00     0.010 A 
ATOM     37  C   UNL A   1      36.930  30.288  29.015  1.00  0.00    -0.014 A 
BRANCH  37  38
ATOM     38  C   UNL A   1      38.164  30.068  29.805  1.00  0.00     0.031 A 
ATOM     39  C   UNL A   1      39.226  29.155  29.261  1.00  0.00     0.074 A 
ATOM     40  C   UNL A   1      38.287  30.608  31.031  1.00  0.00     0.049 A 
ATOM     41  N   UNL A   1      40.302  28.692  29.843  1.00  0.00    -0.248 NA
ATOM     42  C   UNL A   1      39.031  28.666  27.885  1.00  0.00     0.031 C 
ATOM     43  C   UNL A   1      37.311  31.492  31.669  1.00  0.00     0.029 A 
ATOM     44  N   UNL A   1      39.278  30.471  31.969  1.00  0.00    -0.354 N 
ATOM     45  C   UNL A   1      40.894  27.844  28.917  1.00  0.00     0.074 A 
ATOM     46  C   UNL A   1      40.032  27.809  27.758  1.00  0.00     0.031 C 
ATOM     47  C   UNL A   1      37.758  31.827  32.891  1.00  0.00     0.029 A 
ATOM     48  C   UNL A   1      39.022  31.142  33.141  1.00  0.00     0.049 A 
ATOM     49  H   UNL A   1      40.094  29.942  31.819  1.00  0.00     0.167 HD
ATOM     50  C   UNL A   1      42.064  27.171  29.018  1.00  0.00     0.037 A 
ATOM     51  C   UNL A   1      39.722  31.180  34.290  1.00  0.00     0.037 A 
ATOM     52  C   UNL A   1      42.926  27.233  30.169  1.00  0.00     0.049 A 
ATOM     53  C   UNL A   1      41.007  30.399  34.390  1.00  0.00     0.074 A 
ATOM     54  C   UNL A   1      44.154  26.627  30.361  1.00  0.00     0.029 A 
ATOM     55  N   UNL A   1      42.644  27.945  31.327  1.00  0.00    -0.354 N 
ATOM     56  N   UNL A   1      41.583  29.636  33.494  1.00  0.00    -0.248 NA
ATOM     57  C   UNL A   1      41.740  30.486  35.662  1.00  0.00     0.031 C 
ATOM     58  C   UNL A   1      44.591  26.926  31.654  1.00  0.00     0.029 A 
ATOM     59  C   UNL A   1      43.668  27.777  32.243  1.00  0.00     0.049 A 
ATOM     60  H   UNL A   1      41.836  28.488  31.474  1.00  0.00     0.167 HD
ATOM     61  C   UNL A   1      42.766  29.193  34.072  1.00  0.00     0.074 A 
ATOM     62  C   UNL A   1      42.823  29.769  35.399  1.00  0.00     0.031 C 
ATOM     63  C   UNL A   1      43.722  28.387  33.547  1.00  0.00     0.037 A 
BRANCH  50  64
ATOM     64  C   UNL A   1      42.475  26.309  27.860  1.00  0.00     0.064 A 
ATOM     65  C   UNL A   1      43.377  26.764  26.885  1.00  0.00     0.173 A 
ATOM     66  C   UNL A   1      41.983  25.001  27.736  1.00  0.00     0.173 A 
ATOM     67  F   UNL A   1      43.869  28.010  26.948  1.00  0.00    -0.203 F 
ATOM     68  C   UNL A   1      43.741  25.955  25.812  1.00  0.00     0.198 A 
ATOM     69  C   UNL A   1      42.379  24.182  26.682  1.00  0.00     0.198 A 
ATOM     70  F   UNL A   1      41.124  24.513  28.643  1.00  0.00    -0.203 F 
ATOM     71  F   UNL A   1      44.557  26.433  24.861  1.00  0.00    -0.200 F 
ATOM     72  C   UNL A   1      43.249  24.663  25.716  1.00  0.00     0.200 A 
ATOM     73  F   UNL A   1      41.914  22.927  26.600  1.00  0.00    -0.200 F 
ATOM     74  F   UNL A   1      43.606  23.882  24.687  1.00  0.00    -0.200 F 
ENDBRANCH  50  64
BRANCH  51  75
ATOM     75  C   UNL A   1      39.234  31.998  35.432  1.00  0.00     0.064 A 
ATOM     76  C   UNL A   1      39.591  33.348  35.552  1.00  0.00     0.173 A 
ATOM     77  C   UNL A   1      38.411  31.451  36.429  1.00  0.00     0.173 A 
ATOM     78  F   UNL A   1      40.390  33.912  34.635  1.00  0.00    -0.203 F 
ATOM     79  C   UNL A   1      39.166  34.113  36.637  1.00  0.00     0.198 A 
ATOM     80  C   UNL A   1      37.960  32.226  37.496  1.00  0.00     0.198 A 
ATOM     81  F   UNL A   1      38.033  30.166  36.358  1.00  0.00    -0.203 F 
ATOM     82  F   UNL A   1      39.565  35.387  36.752  1.00  0.00    -0.200 F 
ATOM     83  C   UNL A   1      38.346  33.552  37.604  1.00  0.00     0.200 A 
ATOM     84  F   UNL A   1      37.154  31.685  38.419  1.00  0.00    -0.200 F 
ATOM     85  F   UNL A   1      37.936  34.288  38.645  1.00  0.00    -0.200 F 
ENDBRANCH  51  75
BRANCH  63  86
ATOM     86  C   UNL A   1      44.954  28.137  34.368  1.00  0.00     0.064 A 
ATOM     87  C   UNL A   1      46.035  29.028  34.378  1.00  0.00     0.173 A 
ATOM     88  C   UNL A   1      45.008  27.025  35.224  1.00  0.00     0.173 A 
ATOM     89  F   UNL A   1      46.037  30.097  33.568  1.00  0.00    -0.203 F 
ATOM     90  C   UNL A   1      47.132  28.809  35.208  1.00  0.00     0.198 A 
ATOM     91  C   UNL A   1      46.091  26.828  36.075  1.00  0.00     0.198 A 
ATOM     92  F   UNL A   1      43.995  26.146  35.256  1.00  0.00    -0.203 F 
ATOM     93  F   UNL A   1      48.170  29.656  35.177  1.00  0.00    -0.200 F 
ATOM     94  C   UNL A   1      47.153  27.718  36.063  1.00  0.00     0.200 A 
ATOM     95  F   UNL A   1      46.099  25.782  36.914  1.00  0.00    -0.200 F 
ATOM     96  F   UNL A   1      48.200  27.523  36.878  1.00  0.00    -0.200 F 
ENDBRANCH  63  86
ENDBRANCH  37  38
ENDBRANCH  29  32
ENDBRANCH  27  28
ENDBRANCH  26  27
ENDBRANCH  25  26
ENDBRANCH   1  25
TORSDOF 18
ENDMDL
MODEL 3
REMARK VINA RESULT:     -11.4      0.676      2.160
REMARK SMILES CCC[NH2+][C@@]1(C(=O)NCCCCCCNC(=O)c2ccc(-c3c4nc(c(-c5c(F)c(F)c(F)c(F)c5F)c5ccc([nH]5)c(-c5c(F)c(F)c(F)c(F)c5F)c5nc(c(-c6c(F)c(F)c(F)c(F)c6F)c6ccc3[nH]6)C=C5)C=C4)cc2)CC[C@@H](SC2CCCC2)C1
REMARK SMILES IDX 11 1 10 2 9 3 8 4 6 5 7 6 5 8 81 9 90 10 82 11 83 12 4 13
REMARK SMILES IDX 3 16 2 17 1 18 84 19 85 20 86 21 89 22 87 23 88 24 12 25
REMARK SMILES IDX 13 26 14 27 15 28 16 29 17 31 18 32 19 33 80 34 20 35 79 36
REMARK SMILES IDX 21 37 22 38 23 39 73 40 24 41 78 42 72 43 74 44 25 45 77 46
REMARK SMILES IDX 71 47 70 48 26 50 58 51 38 52 57 53 39 54 42 55 56 56 75 57
REMARK SMILES IDX 40 58 41 59 55 61 76 62 43 63 27 64 28 65 36 66 29 67 30 68
REMARK SMILES IDX 34 69 37 70 31 71 32 72 35 73 33 74 59 75 60 76 68 77 61 78
REMARK SMILES IDX 62 79 66 80 69 81 63 82 64 83 67 84 65 85 44 86 45 87 53 88
REMARK SMILES IDX 46 89 47 90 51 91 54 92 48 93 49 94 52 95 50 96
REMARK H PARENT 8 7 4 14 4 15 15 30 74 49 42 60
REMARK Flexibility Score: inf
ROOT
ATOM      1  C   UNL A   1      31.889  29.838  26.917  1.00  0.00     0.002 C 
ENDROOT
BRANCH   1   2
ATOM      2  C   UNL A   1      33.343  29.419  26.756  1.00  0.00     0.021 C 
BRANCH   2   3
ATOM      3  C   UNL A   1      33.616  28.686  25.454  1.00  0.00     0.116 C 
BRANCH   3   4
ATOM      4  N   UNL A   1      34.063  27.344  25.659  1.00  0.00    -0.351 N 
ATOM      5  C   UNL A   1      33.480  26.170  25.303  1.00  0.00     0.281 C 
ATOM      6  O   UNL A   1      33.882  25.201  25.962  1.00  0.00    -0.268 OA
ATOM      7  H   UNL A   1      34.924  27.258  26.129  1.00  0.00     0.163 HD
BRANCH   5   8
ATOM      8  C   UNL A   1      32.372  26.035  24.156  1.00  0.00     0.176 C 
ATOM      9  C   UNL A   1      32.700  26.686  22.794  1.00  0.00     0.080 C 
ATOM     10  C   UNL A   1      31.033  26.688  24.589  1.00  0.00     0.093 C 
ATOM     11  C   UNL A   1      31.930  28.001  22.676  1.00  0.00     0.022 C 
ATOM     12  C   UNL A   1      30.812  27.935  23.715  1.00  0.00     0.054 C 
BRANCH   8  13
ATOM     13  N   UNL A   1      32.134  24.570  23.944  1.00  0.00    -0.334 N 
ATOM     14  H   UNL A   1      32.235  24.372  22.949  1.00  0.00     0.347 HD
ATOM     15  H   UNL A   1      32.819  24.080  24.521  1.00  0.00     0.347 HD
BRANCH  13  16
ATOM     16  C   UNL A   1      30.811  24.095  24.375  1.00  0.00     0.261 C 
BRANCH  16  17
ATOM     17  C   UNL A   1      30.924  22.886  25.309  1.00  0.00     0.058 C 
ATOM     18  C   UNL A   1      31.026  23.272  26.775  1.00  0.00     0.010 C 
ENDBRANCH  16  17
ENDBRANCH  13  16
ENDBRANCH   8  13
BRANCH  12  19
ATOM     19  S   UNL A   1      29.109  28.369  23.203  1.00  0.00    -0.155 SA
BRANCH  19  20
ATOM     20  C   UNL A   1      29.104  30.105  22.659  1.00  0.00     0.047 C 
ATOM     21  C   UNL A   1      28.455  30.460  21.333  1.00  0.00     0.014 C 
ATOM     22  C   UNL A   1      28.528  31.117  23.639  1.00  0.00     0.014 C 
ATOM     23  C   UNL A   1      28.481  31.978  21.341  1.00  0.00     0.001 C 
ATOM     24  C   UNL A   1      28.216  32.356  22.796  1.00  0.00     0.001 C 
ENDBRANCH  19  20
ENDBRANCH  12  19
ENDBRANCH   5   8
ENDBRANCH   3   4
ENDBRANCH   2   3
ENDBRANCH   1   2
BRANCH   1  25
ATOM     25  C   UNL A   1      31.427  30.912  25.924  1.00  0.00     0.002 C 
BRANCH  25  26
ATOM     26  C   UNL A   1      31.271  32.316  26.516  1.00  0.00     0.021 C 
BRANCH  26  27
ATOM     27  C   UNL A   1      32.514  32.834  27.226  1.00  0.00     0.116 C 
BRANCH  27  28
ATOM     28  N   UNL A   1      32.353  34.217  27.646  1.00  0.00    -0.352 N 
ATOM     29  C   UNL A   1      32.995  34.890  28.649  1.00  0.00     0.251 C 
ATOM     30  H   UNL A   1      31.691  34.739  27.139  1.00  0.00     0.163 HD
ATOM     31  O   UNL A   1      32.582  35.979  29.040  1.00  0.00    -0.269 OA
BRANCH  29  32
ATOM     32  C   UNL A   1      34.193  34.289  29.257  1.00  0.00     0.039 A 
ATOM     33  C   UNL A   1      35.452  34.597  28.739  1.00  0.00     0.014 A 
ATOM     34  C   UNL A   1      34.061  33.424  30.348  1.00  0.00     0.014 A 
ATOM     35  C   UNL A   1      36.591  34.065  29.344  1.00  0.00     0.010 A 
ATOM     36  C   UNL A   1      35.196  32.962  30.996  1.00  0.00     0.010 A 
ATOM     37  C   UNL A   1      36.470  33.264  30.490  1.00  0.00    -0.014 A 
BRANCH  37  38
ATOM     38  C   UNL A   1      37.653  32.675  31.162  1.00  0.00     0.031 A 
ATOM     39  C   UNL A   1      38.381  31.541  30.498  1.00  0.00     0.074 A 
ATOM     40  C   UNL A   1      38.010  33.093  32.390  1.00  0.00     0.049 A 
ATOM     41  N   UNL A   1      39.330  30.774  30.968  1.00  0.00    -0.248 NA
ATOM     42  C   UNL A   1      37.957  31.200  29.129  1.00  0.00     0.031 C 
ATOM     43  C   UNL A   1      37.364  34.171  33.139  1.00  0.00     0.029 A 
ATOM     44  N   UNL A   1      38.993  32.642  33.233  1.00  0.00    -0.354 N 
ATOM     45  C   UNL A   1      39.596  29.850  29.967  1.00  0.00     0.074 A 
ATOM     46  C   UNL A   1      38.673  30.113  28.887  1.00  0.00     0.031 C 
ATOM     47  C   UNL A   1      37.975  34.305  34.328  1.00  0.00     0.029 A 
ATOM     48  C   UNL A   1      39.019  33.291  34.444  1.00  0.00     0.049 A 
ATOM     49  H   UNL A   1      39.621  31.922  32.995  1.00  0.00     0.167 HD
ATOM     50  C   UNL A   1      40.542  28.882  29.944  1.00  0.00     0.037 A 
ATOM     51  C   UNL A   1      39.786  33.076  35.529  1.00  0.00     0.037 A 
ATOM     52  C   UNL A   1      41.472  28.646  31.016  1.00  0.00     0.049 A 
ATOM     53  C   UNL A   1      40.813  31.973  35.491  1.00  0.00     0.074 A 
ATOM     54  C   UNL A   1      42.498  27.721  31.080  1.00  0.00     0.029 A 
ATOM     55  N   UNL A   1      41.483  29.341  32.217  1.00  0.00    -0.354 N 
ATOM     56  N   UNL A   1      41.090  31.133  34.523  1.00  0.00    -0.248 NA
ATOM     57  C   UNL A   1      41.635  31.789  36.696  1.00  0.00     0.031 C 
ATOM     58  C   UNL A   1      43.096  27.820  32.339  1.00  0.00     0.029 A 
ATOM     59  C   UNL A   1      42.487  28.853  33.034  1.00  0.00     0.049 A 
ATOM     60  H   UNL A   1      40.867  30.074  32.452  1.00  0.00     0.167 HD
ATOM     61  C   UNL A   1      42.146  30.357  34.981  1.00  0.00     0.074 A 
ATOM     62  C   UNL A   1      42.458  30.822  36.316  1.00  0.00     0.031 C 
ATOM     63  C   UNL A   1      42.804  29.354  34.348  1.00  0.00     0.037 A 
BRANCH  50  64
ATOM     64  C   UNL A   1      40.614  28.007  28.726  1.00  0.00     0.064 A 
ATOM     65  C   UNL A   1      39.908  26.796  28.645  1.00  0.00     0.173 A 
ATOM     66  C   UNL A   1      41.376  28.396  27.614  1.00  0.00     0.173 A 
ATOM     67  F   UNL A   1      39.173  26.372  29.683  1.00  0.00    -0.203 F 
ATOM     68  C   UNL A   1      39.992  25.992  27.511  1.00  0.00     0.198 A 
ATOM     69  C   UNL A   1      41.428  27.606  26.467  1.00  0.00     0.198 A 
ATOM     70  F   UNL A   1      42.065  29.546  27.634  1.00  0.00    -0.203 F 
ATOM     71  F   UNL A   1      39.357  24.812  27.481  1.00  0.00    -0.200 F 
ATOM     72  C   UNL A   1      40.745  26.401  26.421  1.00  0.00     0.200 A 
ATOM     73  F   UNL A   1      42.143  28.012  25.409  1.00  0.00    -0.200 F 
ATOM     74  F   UNL A   1      40.818  25.630  25.328  1.00  0.00    -0.200 F 
ENDBRANCH  50  64
BRANCH  51  75
ATOM     75  C   UNL A   1      39.628  33.930  36.735  1.00  0.00     0.064 A 
ATOM     76  C   UNL A   1      38.841  33.508  37.816  1.00  0.00     0.173 A 
ATOM     77  C   UNL A   1      40.250  35.184  36.833  1.00  0.00     0.173 A 
ATOM     78  F   UNL A   1      38.212  32.325  37.763  1.00  0.00    -0.203 F 
ATOM     79  C   UNL A   1      38.661  34.317  38.936  1.00  0.00     0.198 A 
ATOM     80  C   UNL A   1      40.094  35.979  37.968  1.00  0.00     0.198 A 
ATOM     81  F   UNL A   1      41.020  35.633  35.831  1.00  0.00    -0.203 F 
ATOM     82  F   UNL A   1      37.862  33.909  39.932  1.00  0.00    -0.200 F 
ATOM     83  C   UNL A   1      39.292  35.549  39.013  1.00  0.00     0.200 A 
ATOM     84  F   UNL A   1      40.720  37.161  38.046  1.00  0.00    -0.200 F 
ATOM     85  F   UNL A   1      39.120  36.325  40.091  1.00  0.00    -0.200 F 
ENDBRANCH  51  75
BRANCH  63  86
ATOM     86  C   UNL A   1      43.978  28.735  35.050  1.00  0.00     0.064 A 
ATOM     87  C   UNL A   1      43.842  27.620  35.887  1.00  0.00     0.173 A 
ATOM     88  C   UNL A   1      45.272  29.222  34.804  1.00  0.00     0.173 A 
ATOM     89  F   UNL A   1      42.626  27.128  36.164  1.00  0.00    -0.203 F 
ATOM     90  C   UNL A   1      44.959  27.021  36.464  1.00  0.00     0.198 A 
ATOM     91  C   UNL A   1      46.388  28.600  35.356  1.00  0.00     0.198 A 
ATOM     92  F   UNL A   1      45.457  30.282  34.004  1.00  0.00    -0.203 F 
ATOM     93  F   UNL A   1      44.804  25.977  37.289  1.00  0.00    -0.200 F 
ATOM     94  C   UNL A   1      46.230  27.503  36.188  1.00  0.00     0.200 A 
ATOM     95  F   UNL A   1      47.616  29.057  35.073  1.00  0.00    -0.200 F 
ATOM     96  F   UNL A   1      47.305  26.909  36.726  1.00  0.00    -0.200 F 
ENDBRANCH  63  86
ENDBRANCH  37  38
ENDBRANCH  29  32
ENDBRANCH  27  28
ENDBRANCH  26  27
ENDBRANCH  25  26
ENDBRANCH   1  25
TORSDOF 18
ENDMDL
