MODEL 1
REMARK VINA RESULT:     -11.6      0.000      0.000
REMARK SMILES Cc1ccsc1[C@@H]1[NH2+][C@@H](C(=O)NCCCCCCNC(=O)c2ccc(-c3c4nc(c(-c5c(F)c(F)c(F)c(F)c5F)c5ccc([nH]5)c(-c5c(F)c(F)c(F)c(F)c5F)c5nc(c(-c6c(F)c(F)c(F)c(F)c6F)c6ccc3[nH]6)C=C5)C=C4)cc2)CS1
REMARK SMILES IDX 16 1 15 2 14 3 13 4 12 5 10 6 11 7 9 9 7 10 8 11 86 12 85 15
REMARK SMILES IDX 6 16 1 17 2 18 3 19 4 20 5 21 17 22 18 23 19 24 20 25 21 27
REMARK SMILES IDX 22 28 23 29 84 30 24 31 83 32 25 33 26 34 27 35 77 36 28 37
REMARK SMILES IDX 82 38 76 39 78 40 29 41 81 42 75 43 74 44 30 46 62 47 42 48
REMARK SMILES IDX 61 49 43 50 46 51 60 52 79 53 44 54 45 55 59 57 80 58 47 59
REMARK SMILES IDX 31 60 32 61 40 62 33 63 34 64 38 65 41 66 35 67 36 68 39 69
REMARK SMILES IDX 37 70 63 71 64 72 72 73 65 74 66 75 70 76 73 77 67 78 68 79
REMARK SMILES IDX 71 80 69 81 48 82 49 83 57 84 50 85 51 86 55 87 58 88 52 89
REMARK SMILES IDX 53 90 56 91 54 92
REMARK H PARENT 12 8 8 13 8 14 19 26 78 45 46 56
REMARK Flexibility Score: inf
ROOT
ATOM      1  C   UNL A   1      31.666  30.777  26.090  1.00  0.00     0.002 C 
ENDROOT
BRANCH   1   2
ATOM      2  C   UNL A   1      32.160  29.610  26.951  1.00  0.00     0.002 C 
BRANCH   2   3
ATOM      3  C   UNL A   1      33.333  28.801  26.365  1.00  0.00     0.021 C 
BRANCH   3   4
ATOM      4  C   UNL A   1      33.386  28.760  24.834  1.00  0.00     0.116 C 
BRANCH   4   5
ATOM      5  N   UNL A   1      32.449  27.776  24.342  1.00  0.00    -0.351 N 
ATOM      6  C   UNL A   1      32.582  26.475  23.985  1.00  0.00     0.279 C 
ATOM      7  O   UNL A   1      31.568  25.960  23.507  1.00  0.00    -0.268 OA
ATOM      8  H   UNL A   1      31.531  28.119  24.246  1.00  0.00     0.163 HD
BRANCH   6   9
ATOM      9  C   UNL A   1      33.882  25.678  24.261  1.00  0.00     0.283 C 
ATOM     10  C   UNL A   1      33.805  23.241  24.081  1.00  0.00     0.284 C 
ATOM     11  N   UNL A   1      34.079  24.499  23.355  1.00  0.00    -0.320 N 
ATOM     12  S   UNL A   1      32.988  23.658  25.638  1.00  0.00    -0.087 SA
ATOM     13  H   UNL A   1      33.443  24.575  22.562  1.00  0.00     0.348 HD
ATOM     14  H   UNL A   1      35.046  24.489  23.029  1.00  0.00     0.348 HD
ATOM     15  C   UNL A   1      33.871  25.229  25.723  1.00  0.00     0.151 C 
BRANCH  10  16
ATOM     16  C   UNL A   1      35.044  22.354  24.264  1.00  0.00     0.075 A 
ATOM     17  C   UNL A   1      33.972  20.106  24.955  1.00  0.00     0.046 C 
ATOM     18  C   UNL A   1      35.117  21.035  24.718  1.00  0.00    -0.030 A 
ATOM     19  C   UNL A   1      36.471  20.650  25.020  1.00  0.00     0.015 A 
ATOM     20  C   UNL A   1      37.387  21.619  24.698  1.00  0.00     0.065 A 
ATOM     21  S   UNL A   1      36.644  22.952  23.959  1.00  0.00    -0.141 S 
ENDBRANCH  10  16
ENDBRANCH   6   9
ENDBRANCH   4   5
ENDBRANCH   3   4
ENDBRANCH   2   3
ENDBRANCH   1   2
BRANCH   1  22
ATOM     22  C   UNL A   1      31.405  32.074  26.854  1.00  0.00     0.021 C 
BRANCH  22  23
ATOM     23  C   UNL A   1      32.661  32.829  27.274  1.00  0.00     0.116 C 
BRANCH  23  24
ATOM     24  N   UNL A   1      32.391  34.217  27.613  1.00  0.00    -0.352 N 
ATOM     25  C   UNL A   1      32.976  35.001  28.576  1.00  0.00     0.251 C 
ATOM     26  H   UNL A   1      31.692  34.656  27.076  1.00  0.00     0.163 HD
ATOM     27  O   UNL A   1      32.512  36.107  28.845  1.00  0.00    -0.269 OA
BRANCH  25  28
ATOM     28  C   UNL A   1      34.154  34.499  29.315  1.00  0.00     0.039 A 
ATOM     29  C   UNL A   1      33.965  33.889  30.558  1.00  0.00     0.014 A 
ATOM     30  C   UNL A   1      35.439  34.617  28.779  1.00  0.00     0.014 A 
ATOM     31  C   UNL A   1      35.056  33.337  31.232  1.00  0.00     0.010 A 
ATOM     32  C   UNL A   1      36.512  33.998  29.413  1.00  0.00     0.010 A 
ATOM     33  C   UNL A   1      36.333  33.353  30.646  1.00  0.00    -0.014 A 
BRANCH  33  34
ATOM     34  C   UNL A   1      37.492  32.697  31.305  1.00  0.00     0.031 A 
ATOM     35  C   UNL A   1      38.193  31.550  30.634  1.00  0.00     0.074 A 
ATOM     36  C   UNL A   1      37.870  33.090  32.538  1.00  0.00     0.049 A 
ATOM     37  N   UNL A   1      39.169  30.799  31.080  1.00  0.00    -0.248 NA
ATOM     38  C   UNL A   1      37.718  31.179  29.292  1.00  0.00     0.031 C 
ATOM     39  C   UNL A   1      37.243  34.161  33.314  1.00  0.00     0.029 A 
ATOM     40  N   UNL A   1      38.864  32.623  33.363  1.00  0.00    -0.354 N 
ATOM     41  C   UNL A   1      39.412  29.863  30.083  1.00  0.00     0.074 A 
ATOM     42  C   UNL A   1      38.446  30.103  29.033  1.00  0.00     0.031 C 
ATOM     43  C   UNL A   1      37.878  34.284  34.490  1.00  0.00     0.029 A 
ATOM     44  C   UNL A   1      38.928  33.273  34.572  1.00  0.00     0.049 A 
ATOM     45  H   UNL A   1      39.475  31.893  33.110  1.00  0.00     0.167 HD
ATOM     46  C   UNL A   1      40.369  28.906  30.038  1.00  0.00     0.037 A 
ATOM     47  C   UNL A   1      39.732  33.066  35.633  1.00  0.00     0.037 A 
ATOM     48  C   UNL A   1      41.341  28.683  31.077  1.00  0.00     0.049 A 
ATOM     49  C   UNL A   1      40.773  31.981  35.565  1.00  0.00     0.074 A 
ATOM     50  C   UNL A   1      42.387  27.778  31.100  1.00  0.00     0.029 A 
ATOM     51  N   UNL A   1      41.380  29.369  32.282  1.00  0.00    -0.354 N 
ATOM     52  N   UNL A   1      41.039  31.149  34.588  1.00  0.00    -0.248 NA
ATOM     53  C   UNL A   1      41.631  31.811  36.746  1.00  0.00     0.031 C 
ATOM     54  C   UNL A   1      43.022  27.873  32.341  1.00  0.00     0.029 A 
ATOM     55  C   UNL A   1      42.416  28.885  33.067  1.00  0.00     0.049 A 
ATOM     56  H   UNL A   1      40.765  30.092  32.542  1.00  0.00     0.167 HD
ATOM     57  C   UNL A   1      42.111  30.380  35.022  1.00  0.00     0.074 A 
ATOM     58  C   UNL A   1      42.457  30.855  36.346  1.00  0.00     0.031 C 
ATOM     59  C   UNL A   1      42.753  29.374  34.380  1.00  0.00     0.037 A 
BRANCH  46  60
ATOM     60  C   UNL A   1      40.412  28.019  28.824  1.00  0.00     0.064 A 
ATOM     61  C   UNL A   1      41.167  28.357  27.690  1.00  0.00     0.173 A 
ATOM     62  C   UNL A   1      39.724  26.796  28.813  1.00  0.00     0.173 A 
ATOM     63  F   UNL A   1      41.835  29.519  27.644  1.00  0.00    -0.203 F 
ATOM     64  C   UNL A   1      41.205  27.518  26.578  1.00  0.00     0.198 A 
ATOM     65  C   UNL A   1      39.794  25.944  27.714  1.00  0.00     0.198 A 
ATOM     66  F   UNL A   1      38.994  26.420  29.873  1.00  0.00    -0.203 F 
ATOM     67  F   UNL A   1      41.888  27.887  25.486  1.00  0.00    -0.200 F 
ATOM     68  C   UNL A   1      40.525  26.309  26.594  1.00  0.00     0.200 A 
ATOM     69  F   UNL A   1      39.149  24.769  27.738  1.00  0.00    -0.200 F 
ATOM     70  F   UNL A   1      40.572  25.499  25.529  1.00  0.00    -0.200 F 
ENDBRANCH  46  60
BRANCH  47  71
ATOM     71  C   UNL A   1      39.593  33.915  36.846  1.00  0.00     0.064 A 
ATOM     72  C   UNL A   1      38.800  33.506  37.927  1.00  0.00     0.173 A 
ATOM     73  C   UNL A   1      40.239  35.157  36.947  1.00  0.00     0.173 A 
ATOM     74  F   UNL A   1      38.146  32.336  37.872  1.00  0.00    -0.203 F 
ATOM     75  C   UNL A   1      38.638  34.314  39.051  1.00  0.00     0.198 A 
ATOM     76  C   UNL A   1      40.102  35.950  38.084  1.00  0.00     0.198 A 
ATOM     77  F   UNL A   1      41.014  35.595  35.943  1.00  0.00    -0.203 F 
ATOM     78  F   UNL A   1      37.832  33.920  40.046  1.00  0.00    -0.200 F 
ATOM     79  C   UNL A   1      39.294  35.533  39.131  1.00  0.00     0.200 A 
ATOM     80  F   UNL A   1      40.752  37.119  38.165  1.00  0.00    -0.200 F 
ATOM     81  F   UNL A   1      39.142  36.309  40.212  1.00  0.00    -0.200 F 
ENDBRANCH  47  71
BRANCH  59  82
ATOM     82  C   UNL A   1      43.924  28.741  35.080  1.00  0.00     0.064 A 
ATOM     83  C   UNL A   1      45.229  29.233  34.932  1.00  0.00     0.173 A 
ATOM     84  C   UNL A   1      43.726  27.655  35.947  1.00  0.00     0.173 A 
ATOM     85  F   UNL A   1      45.475  30.259  34.103  1.00  0.00    -0.203 F 
ATOM     86  C   UNL A   1      46.296  28.644  35.605  1.00  0.00     0.198 A 
ATOM     87  C   UNL A   1      44.790  27.092  36.646  1.00  0.00     0.198 A 
ATOM     88  F   UNL A   1      42.496  27.151  36.131  1.00  0.00    -0.203 F 
ATOM     89  F   UNL A   1      47.542  29.098  35.409  1.00  0.00    -0.200 F 
ATOM     90  C   UNL A   1      46.075  27.580  36.469  1.00  0.00     0.200 A 
ATOM     91  F   UNL A   1      44.570  26.077  37.493  1.00  0.00    -0.200 F 
ATOM     92  F   UNL A   1      47.101  27.023  37.126  1.00  0.00    -0.200 F 
ENDBRANCH  59  82
ENDBRANCH  33  34
ENDBRANCH  25  28
ENDBRANCH  23  24
ENDBRANCH  22  23
ENDBRANCH   1  22
TORSDOF 14
ENDMDL
MODEL 2
REMARK VINA RESULT:     -11.5      0.976      2.122
REMARK SMILES Cc1ccsc1[C@@H]1[NH2+][C@@H](C(=O)NCCCCCCNC(=O)c2ccc(-c3c4nc(c(-c5c(F)c(F)c(F)c(F)c5F)c5ccc([nH]5)c(-c5c(F)c(F)c(F)c(F)c5F)c5nc(c(-c6c(F)c(F)c(F)c(F)c6F)c6ccc3[nH]6)C=C5)C=C4)cc2)CS1
REMARK SMILES IDX 16 1 15 2 14 3 13 4 12 5 10 6 11 7 9 9 7 10 8 11 86 12 85 15
REMARK SMILES IDX 6 16 1 17 2 18 3 19 4 20 5 21 17 22 18 23 19 24 20 25 21 27
REMARK SMILES IDX 22 28 23 29 84 30 24 31 83 32 25 33 26 34 27 35 77 36 28 37
REMARK SMILES IDX 82 38 76 39 78 40 29 41 81 42 75 43 74 44 30 46 62 47 42 48
REMARK SMILES IDX 61 49 43 50 46 51 60 52 79 53 44 54 45 55 59 57 80 58 47 59
REMARK SMILES IDX 31 60 32 61 40 62 33 63 34 64 38 65 41 66 35 67 36 68 39 69
REMARK SMILES IDX 37 70 63 71 64 72 72 73 65 74 66 75 70 76 73 77 67 78 68 79
REMARK SMILES IDX 71 80 69 81 48 82 49 83 57 84 50 85 51 86 55 87 58 88 52 89
REMARK SMILES IDX 53 90 56 91 54 92
REMARK H PARENT 12 8 8 13 8 14 19 26 78 45 46 56
REMARK Flexibility Score: inf
ROOT
ATOM      1  C   UNL A   1      31.692  30.605  26.264  1.00  0.00     0.002 C 
ENDROOT
BRANCH   1   2
ATOM      2  C   UNL A   1      31.028  30.090  24.983  1.00  0.00     0.002 C 
BRANCH   2   3
ATOM      3  C   UNL A   1      31.909  29.199  24.088  1.00  0.00     0.021 C 
BRANCH   3   4
ATOM      4  C   UNL A   1      31.170  28.522  22.927  1.00  0.00     0.116 C 
BRANCH   4   5
ATOM      5  N   UNL A   1      32.120  27.834  22.083  1.00  0.00    -0.351 N 
ATOM      6  C   UNL A   1      32.777  26.655  22.208  1.00  0.00     0.279 C 
ATOM      7  O   UNL A   1      33.605  26.424  21.321  1.00  0.00    -0.268 OA
ATOM      8  H   UNL A   1      32.333  28.318  21.252  1.00  0.00     0.163 HD
BRANCH   6   9
ATOM      9  C   UNL A   1      32.431  25.637  23.323  1.00  0.00     0.283 C 
ATOM     10  C   UNL A   1      34.255  24.758  24.694  1.00  0.00     0.284 C 
ATOM     11  N   UNL A   1      33.228  25.815  24.581  1.00  0.00    -0.320 N 
ATOM     12  S   UNL A   1      34.374  23.919  23.098  1.00  0.00    -0.087 SA
ATOM     13  H   UNL A   1      33.684  26.727  24.564  1.00  0.00     0.348 HD
ATOM     14  H   UNL A   1      32.600  25.752  25.383  1.00  0.00     0.348 HD
ATOM     15  C   UNL A   1      32.628  24.226  22.765  1.00  0.00     0.151 C 
BRANCH  10  16
ATOM     16  C   UNL A   1      34.024  23.799  25.869  1.00  0.00     0.075 A 
ATOM     17  C   UNL A   1      36.361  22.724  26.125  1.00  0.00     0.046 C 
ATOM     18  C   UNL A   1      34.905  22.869  26.427  1.00  0.00    -0.030 A 
ATOM     19  C   UNL A   1      34.230  21.965  27.321  1.00  0.00     0.015 A 
ATOM     20  C   UNL A   1      32.908  22.282  27.503  1.00  0.00     0.065 A 
ATOM     21  S   UNL A   1      32.492  23.703  26.678  1.00  0.00    -0.141 S 
ENDBRANCH  10  16
ENDBRANCH   6   9
ENDBRANCH   4   5
ENDBRANCH   3   4
ENDBRANCH   2   3
ENDBRANCH   1   2
BRANCH   1  22
ATOM     22  C   UNL A   1      31.519  32.102  26.521  1.00  0.00     0.021 C 
BRANCH  22  23
ATOM     23  C   UNL A   1      32.675  32.757  27.268  1.00  0.00     0.116 C 
BRANCH  23  24
ATOM     24  N   UNL A   1      32.409  34.148  27.599  1.00  0.00    -0.352 N 
ATOM     25  C   UNL A   1      32.988  34.932  28.566  1.00  0.00     0.251 C 
ATOM     26  H   UNL A   1      31.718  34.589  27.054  1.00  0.00     0.163 HD
ATOM     27  O   UNL A   1      32.528  36.042  28.825  1.00  0.00    -0.269 OA
BRANCH  25  28
ATOM     28  C   UNL A   1      34.156  34.426  29.319  1.00  0.00     0.039 A 
ATOM     29  C   UNL A   1      33.949  33.809  30.555  1.00  0.00     0.014 A 
ATOM     30  C   UNL A   1      35.448  34.548  28.801  1.00  0.00     0.014 A 
ATOM     31  C   UNL A   1      35.032  33.254  31.241  1.00  0.00     0.010 A 
ATOM     32  C   UNL A   1      36.513  33.927  29.447  1.00  0.00     0.010 A 
ATOM     33  C   UNL A   1      36.317  33.274  30.674  1.00  0.00    -0.014 A 
BRANCH  33  34
ATOM     34  C   UNL A   1      37.467  32.615  31.345  1.00  0.00     0.031 A 
ATOM     35  C   UNL A   1      38.170  31.463  30.684  1.00  0.00     0.074 A 
ATOM     36  C   UNL A   1      37.834  33.009  32.581  1.00  0.00     0.049 A 
ATOM     37  N   UNL A   1      39.138  30.709  31.141  1.00  0.00    -0.248 NA
ATOM     38  C   UNL A   1      37.706  31.091  29.338  1.00  0.00     0.031 C 
ATOM     39  C   UNL A   1      37.204  34.084  33.348  1.00  0.00     0.029 A 
ATOM     40  N   UNL A   1      38.818  32.540  33.416  1.00  0.00    -0.354 N 
ATOM     41  C   UNL A   1      39.387  29.770  30.149  1.00  0.00     0.074 A 
ATOM     42  C   UNL A   1      38.432  30.011  29.089  1.00  0.00     0.031 C 
ATOM     43  C   UNL A   1      37.828  34.208  34.530  1.00  0.00     0.029 A 
ATOM     44  C   UNL A   1      38.873  33.192  34.624  1.00  0.00     0.049 A 
ATOM     45  H   UNL A   1      39.428  31.807  33.172  1.00  0.00     0.167 HD
ATOM     46  C   UNL A   1      40.340  28.809  30.115  1.00  0.00     0.037 A 
ATOM     47  C   UNL A   1      39.666  32.985  35.694  1.00  0.00     0.037 A 
ATOM     48  C   UNL A   1      41.301  28.585  31.163  1.00  0.00     0.049 A 
ATOM     49  C   UNL A   1      40.703  31.896  35.638  1.00  0.00     0.074 A 
ATOM     50  C   UNL A   1      42.343  27.675  31.198  1.00  0.00     0.029 A 
ATOM     51  N   UNL A   1      41.331  29.274  32.368  1.00  0.00    -0.354 N 
ATOM     52  N   UNL A   1      40.975  31.060  34.666  1.00  0.00    -0.248 NA
ATOM     53  C   UNL A   1      41.549  31.725  36.828  1.00  0.00     0.031 C 
ATOM     54  C   UNL A   1      42.967  27.770  32.446  1.00  0.00     0.029 A 
ATOM     55  C   UNL A   1      42.357  28.787  33.164  1.00  0.00     0.049 A 
ATOM     56  H   UNL A   1      40.716  30.000  32.620  1.00  0.00     0.167 HD
ATOM     57  C   UNL A   1      42.040  30.288  35.112  1.00  0.00     0.074 A 
ATOM     58  C   UNL A   1      42.375  30.765  36.438  1.00  0.00     0.031 C 
ATOM     59  C   UNL A   1      42.684  29.278  34.479  1.00  0.00     0.037 A 
BRANCH  46  60
ATOM     60  C   UNL A   1      40.391  27.919  28.904  1.00  0.00     0.064 A 
ATOM     61  C   UNL A   1      39.652  26.728  28.831  1.00  0.00     0.173 A 
ATOM     62  C   UNL A   1      41.155  28.286  27.785  1.00  0.00     0.173 A 
ATOM     63  F   UNL A   1      38.914  26.326  29.876  1.00  0.00    -0.203 F 
ATOM     64  C   UNL A   1      39.703  25.921  27.696  1.00  0.00     0.198 A 
ATOM     65  C   UNL A   1      41.174  27.494  26.639  1.00  0.00     0.198 A 
ATOM     66  F   UNL A   1      41.874  29.417  27.797  1.00  0.00    -0.203 F 
ATOM     67  F   UNL A   1      39.032  24.761  27.672  1.00  0.00    -0.200 F 
ATOM     68  C   UNL A   1      40.457  26.308  26.599  1.00  0.00     0.200 A 
ATOM     69  F   UNL A   1      41.891  27.879  25.574  1.00  0.00    -0.200 F 
ATOM     70  F   UNL A   1      40.495  25.537  25.505  1.00  0.00    -0.200 F 
ENDBRANCH  46  60
BRANCH  47  71
ATOM     71  C   UNL A   1      39.519  33.837  36.904  1.00  0.00     0.064 A 
ATOM     72  C   UNL A   1      38.741  33.419  37.992  1.00  0.00     0.173 A 
ATOM     73  C   UNL A   1      40.142  35.092  36.994  1.00  0.00     0.173 A 
ATOM     74  F   UNL A   1      38.108  32.237  37.946  1.00  0.00    -0.203 F 
ATOM     75  C   UNL A   1      38.571  34.230  39.112  1.00  0.00     0.198 A 
ATOM     76  C   UNL A   1      39.998  35.888  38.128  1.00  0.00     0.198 A 
ATOM     77  F   UNL A   1      40.903  35.539  35.983  1.00  0.00    -0.203 F 
ATOM     78  F   UNL A   1      37.778  33.826  40.114  1.00  0.00    -0.200 F 
ATOM     79  C   UNL A   1      39.204  35.461  39.182  1.00  0.00     0.200 A 
ATOM     80  F   UNL A   1      40.626  37.069  38.199  1.00  0.00    -0.200 F 
ATOM     81  F   UNL A   1      39.044  36.240  40.261  1.00  0.00    -0.200 F 
ENDBRANCH  47  71
BRANCH  59  82
ATOM     82  C   UNL A   1      43.845  28.642  35.191  1.00  0.00     0.064 A 
ATOM     83  C   UNL A   1      43.684  27.518  36.014  1.00  0.00     0.173 A 
ATOM     84  C   UNL A   1      45.145  29.140  35.008  1.00  0.00     0.173 A 
ATOM     85  F   UNL A   1      42.462  27.011  36.234  1.00  0.00    -0.203 F 
ATOM     86  C   UNL A   1      44.778  26.933  36.649  1.00  0.00     0.198 A 
ATOM     87  C   UNL A   1      46.240  28.532  35.615  1.00  0.00     0.198 A 
ATOM     88  F   UNL A   1      45.356  30.209  34.224  1.00  0.00    -0.203 F 
ATOM     89  F   UNL A   1      44.593  25.891  37.470  1.00  0.00    -0.200 F 
ATOM     90  C   UNL A   1      46.055  27.434  36.441  1.00  0.00     0.200 A 
ATOM     91  F   UNL A   1      47.474  29.007  35.398  1.00  0.00    -0.200 F 
ATOM     92  F   UNL A   1      47.107  26.862  37.042  1.00  0.00    -0.200 F 
ENDBRANCH  59  82
ENDBRANCH  33  34
ENDBRANCH  25  28
ENDBRANCH  23  24
ENDBRANCH  22  23
ENDBRANCH   1  22
TORSDOF 14
ENDMDL
MODEL 3
REMARK VINA RESULT:     -11.5      5.654     11.404
REMARK SMILES Cc1ccsc1[C@@H]1[NH2+][C@@H](C(=O)NCCCCCCNC(=O)c2ccc(-c3c4nc(c(-c5c(F)c(F)c(F)c(F)c5F)c5ccc([nH]5)c(-c5c(F)c(F)c(F)c(F)c5F)c5nc(c(-c6c(F)c(F)c(F)c(F)c6F)c6ccc3[nH]6)C=C5)C=C4)cc2)CS1
REMARK SMILES IDX 16 1 15 2 14 3 13 4 12 5 10 6 11 7 9 9 7 10 8 11 86 12 85 15
REMARK SMILES IDX 6 16 1 17 2 18 3 19 4 20 5 21 17 22 18 23 19 24 20 25 21 27
REMARK SMILES IDX 22 28 23 29 84 30 24 31 83 32 25 33 26 34 27 35 77 36 28 37
REMARK SMILES IDX 82 38 76 39 78 40 29 41 81 42 75 43 74 44 30 46 62 47 42 48
REMARK SMILES IDX 61 49 43 50 46 51 60 52 79 53 44 54 45 55 59 57 80 58 47 59
REMARK SMILES IDX 31 60 32 61 40 62 33 63 34 64 38 65 41 66 35 67 36 68 39 69
REMARK SMILES IDX 37 70 63 71 64 72 72 73 65 74 66 75 70 76 73 77 67 78 68 79
REMARK SMILES IDX 71 80 69 81 48 82 49 83 57 84 50 85 51 86 55 87 58 88 52 89
REMARK SMILES IDX 53 90 56 91 54 92
REMARK H PARENT 12 8 8 13 8 14 19 26 78 45 46 56
REMARK Flexibility Score: inf
ROOT
ATOM      1  C   UNL A   1      37.025  20.902  24.645  1.00  0.00     0.002 C 
ENDROOT
BRANCH   1   2
ATOM      2  C   UNL A   1      35.617  20.756  25.232  1.00  0.00     0.002 C 
BRANCH   2   3
ATOM      3  C   UNL A   1      35.148  21.914  26.132  1.00  0.00     0.021 C 
BRANCH   3   4
ATOM      4  C   UNL A   1      34.061  21.541  27.147  1.00  0.00     0.116 C 
BRANCH   4   5
ATOM      5  N   UNL A   1      32.767  21.560  26.501  1.00  0.00    -0.351 N 
ATOM      6  C   UNL A   1      31.890  22.556  26.228  1.00  0.00     0.279 C 
ATOM      7  O   UNL A   1      30.817  22.185  25.743  1.00  0.00    -0.268 OA
ATOM      8  H   UNL A   1      32.463  20.673  26.202  1.00  0.00     0.163 HD
BRANCH   6   9
ATOM      9  C   UNL A   1      32.259  24.049  26.415  1.00  0.00     0.283 C 
ATOM     10  C   UNL A   1      30.861  25.732  25.324  1.00  0.00     0.284 C 
ATOM     11  N   UNL A   1      31.075  24.957  26.564  1.00  0.00    -0.320 N 
ATOM     12  S   UNL A   1      31.874  24.998  24.021  1.00  0.00    -0.087 SA
ATOM     13  H   UNL A   1      30.245  24.397  26.759  1.00  0.00     0.348 HD
ATOM     14  H   UNL A   1      31.249  25.605  27.333  1.00  0.00     0.348 HD
ATOM     15  C   UNL A   1      33.116  24.486  25.225  1.00  0.00     0.151 C 
BRANCH  10  16
ATOM     16  C   UNL A   1      31.089  27.240  25.494  1.00  0.00     0.075 A 
ATOM     17  C   UNL A   1      29.984  28.174  23.352  1.00  0.00     0.046 C 
ATOM     18  C   UNL A   1      30.786  28.277  24.608  1.00  0.00    -0.030 A 
ATOM     19  C   UNL A   1      31.408  29.514  25.002  1.00  0.00     0.015 A 
ATOM     20  C   UNL A   1      32.066  29.422  26.202  1.00  0.00     0.065 A 
ATOM     21  S   UNL A   1      31.871  27.889  26.900  1.00  0.00    -0.141 S 
ENDBRANCH  10  16
ENDBRANCH   6   9
ENDBRANCH   4   5
ENDBRANCH   3   4
ENDBRANCH   2   3
ENDBRANCH   1   2
BRANCH   1  22
ATOM     22  C   UNL A   1      37.991  19.772  25.002  1.00  0.00     0.021 C 
BRANCH  22  23
ATOM     23  C   UNL A   1      39.230  20.215  25.771  1.00  0.00     0.116 C 
BRANCH  23  24
ATOM     24  N   UNL A   1      40.211  19.150  25.910  1.00  0.00    -0.352 N 
ATOM     25  C   UNL A   1      41.563  19.243  26.128  1.00  0.00     0.251 C 
ATOM     26  H   UNL A   1      39.856  18.235  25.838  1.00  0.00     0.163 HD
ATOM     27  O   UNL A   1      42.276  18.245  26.052  1.00  0.00    -0.269 OA
BRANCH  25  28
ATOM     28  C   UNL A   1      42.169  20.558  26.428  1.00  0.00     0.039 A 
ATOM     29  C   UNL A   1      42.640  21.344  25.373  1.00  0.00     0.014 A 
ATOM     30  C   UNL A   1      42.260  21.021  27.743  1.00  0.00     0.014 A 
ATOM     31  C   UNL A   1      43.140  22.622  25.631  1.00  0.00     0.010 A 
ATOM     32  C   UNL A   1      42.685  22.323  27.991  1.00  0.00     0.010 A 
ATOM     33  C   UNL A   1      43.131  23.137  26.938  1.00  0.00    -0.014 A 
BRANCH  33  34
ATOM     34  C   UNL A   1      43.579  24.525  27.223  1.00  0.00     0.031 A 
ATOM     35  C   UNL A   1      42.605  25.539  27.753  1.00  0.00     0.074 A 
ATOM     36  C   UNL A   1      44.846  24.889  26.941  1.00  0.00     0.049 A 
ATOM     37  N   UNL A   1      42.783  26.815  27.989  1.00  0.00    -0.248 NA
ATOM     38  C   UNL A   1      41.240  25.064  28.029  1.00  0.00     0.031 C 
ATOM     39  C   UNL A   1      45.874  24.010  26.384  1.00  0.00     0.029 A 
ATOM     40  N   UNL A   1      45.480  26.100  27.072  1.00  0.00    -0.354 N 
ATOM     41  C   UNL A   1      41.554  27.293  28.426  1.00  0.00     0.074 A 
ATOM     42  C   UNL A   1      40.624  26.186  28.369  1.00  0.00     0.031 C 
ATOM     43  C   UNL A   1      47.015  24.702  26.240  1.00  0.00     0.029 A 
ATOM     44  C   UNL A   1      46.789  26.084  26.651  1.00  0.00     0.049 A 
ATOM     45  H   UNL A   1      45.040  26.902  27.434  1.00  0.00     0.167 HD
ATOM     46  C   UNL A   1      41.237  28.537  28.857  1.00  0.00     0.037 A 
ATOM     47  C   UNL A   1      47.698  27.076  26.590  1.00  0.00     0.037 A 
ATOM     48  C   UNL A   1      42.170  29.631  28.930  1.00  0.00     0.049 A 
ATOM     49  C   UNL A   1      47.313  28.455  27.056  1.00  0.00     0.074 A 
ATOM     50  C   UNL A   1      41.961  30.913  29.408  1.00  0.00     0.029 A 
ATOM     51  N   UNL A   1      43.490  29.573  28.506  1.00  0.00    -0.354 N 
ATOM     52  N   UNL A   1      46.168  28.878  27.534  1.00  0.00    -0.248 NA
ATOM     53  C   UNL A   1      48.350  29.494  26.979  1.00  0.00     0.031 C 
ATOM     54  C   UNL A   1      43.134  31.649  29.217  1.00  0.00     0.029 A 
ATOM     55  C   UNL A   1      44.097  30.808  28.683  1.00  0.00     0.049 A 
ATOM     56  H   UNL A   1      43.930  28.776  28.133  1.00  0.00     0.167 HD
ATOM     57  C   UNL A   1      46.355  30.219  27.844  1.00  0.00     0.074 A 
ATOM     58  C   UNL A   1      47.729  30.536  27.513  1.00  0.00     0.031 C 
ATOM     59  C   UNL A   1      45.469  31.106  28.358  1.00  0.00     0.037 A 
BRANCH  46  60
ATOM     60  C   UNL A   1      39.817  28.787  29.282  1.00  0.00     0.064 A 
ATOM     61  C   UNL A   1      39.401  28.607  30.611  1.00  0.00     0.173 A 
ATOM     62  C   UNL A   1      38.870  29.254  28.357  1.00  0.00     0.173 A 
ATOM     63  F   UNL A   1      40.263  28.153  31.533  1.00  0.00    -0.203 F 
ATOM     64  C   UNL A   1      38.083  28.854  30.990  1.00  0.00     0.198 A 
ATOM     65  C   UNL A   1      37.562  29.533  28.748  1.00  0.00     0.198 A 
ATOM     66  F   UNL A   1      39.214  29.450  27.076  1.00  0.00    -0.203 F 
ATOM     67  F   UNL A   1      37.697  28.623  32.253  1.00  0.00    -0.200 F 
ATOM     68  C   UNL A   1      37.168  29.324  30.061  1.00  0.00     0.200 A 
ATOM     69  F   UNL A   1      36.684  30.004  27.852  1.00  0.00    -0.200 F 
ATOM     70  F   UNL A   1      35.904  29.572  30.429  1.00  0.00    -0.200 F 
ENDBRANCH  46  60
BRANCH  47  71
ATOM     71  C   UNL A   1      49.067  26.799  26.081  1.00  0.00     0.064 A 
ATOM     72  C   UNL A   1      49.387  26.988  24.729  1.00  0.00     0.173 A 
ATOM     73  C   UNL A   1      50.081  26.326  26.929  1.00  0.00     0.173 A 
ATOM     74  F   UNL A   1      48.448  27.419  23.874  1.00  0.00    -0.203 F 
ATOM     75  C   UNL A   1      50.659  26.695  24.240  1.00  0.00     0.198 A 
ATOM     76  C   UNL A   1      51.361  26.064  26.445  1.00  0.00     0.198 A 
ATOM     77  F   UNL A   1      49.830  26.132  28.232  1.00  0.00    -0.203 F 
ATOM     78  F   UNL A   1      50.920  26.836  22.933  1.00  0.00    -0.200 F 
ATOM     79  C   UNL A   1      51.646  26.238  25.100  1.00  0.00     0.200 A 
ATOM     80  F   UNL A   1      52.317  25.640  27.283  1.00  0.00    -0.200 F 
ATOM     81  F   UNL A   1      52.870  25.959  24.631  1.00  0.00    -0.200 F 
ENDBRANCH  47  71
BRANCH  59  82
ATOM     82  C   UNL A   1      45.965  32.497  28.637  1.00  0.00     0.064 A 
ATOM     83  C   UNL A   1      46.570  32.837  29.856  1.00  0.00     0.173 A 
ATOM     84  C   UNL A   1      45.872  33.492  27.650  1.00  0.00     0.173 A 
ATOM     85  F   UNL A   1      46.670  31.929  30.837  1.00  0.00    -0.203 F 
ATOM     86  C   UNL A   1      47.040  34.128  30.086  1.00  0.00     0.198 A 
ATOM     87  C   UNL A   1      46.375  34.771  27.870  1.00  0.00     0.198 A 
ATOM     88  F   UNL A   1      45.309  33.217  26.464  1.00  0.00    -0.203 F 
ATOM     89  F   UNL A   1      47.569  34.444  31.275  1.00  0.00    -0.200 F 
ATOM     90  C   UNL A   1      46.951  35.091  29.090  1.00  0.00     0.200 A 
ATOM     91  F   UNL A   1      46.304  35.693  26.900  1.00  0.00    -0.200 F 
ATOM     92  F   UNL A   1      47.416  36.329  29.308  1.00  0.00    -0.200 F 
ENDBRANCH  59  82
ENDBRANCH  33  34
ENDBRANCH  25  28
ENDBRANCH  23  24
ENDBRANCH  22  23
ENDBRANCH   1  22
TORSDOF 14
ENDMDL
