MODEL 1
REMARK VINA RESULT:     -14.4      0.000      0.000
REMARK SMILES Cc1ccc([C@@H](C)Nc2ccc(N)cc2C(=O)NCCCCCCNC(=O)c2ccc(-c3c4nc(c(-c5c(F)c(F)c(F)c(F)c5F)c5ccc([nH]5)c(-c5c(F)c(F)c(F)c(F)c5F)c5nc(c(-c6c(F)c(F)c(F)c(F)c6F)c6ccc3[nH]6)C=C5)C=C4)cc2)cc1F
REMARK SMILES IDX 21 1 20 2 19 3 18 4 16 5 17 6 15 8 9 9 10 10 11 11 14 12
REMARK SMILES IDX 12 13 8 14 6 16 7 17 5 18 1 19 2 20 3 21 92 22 4 23 91 24
REMARK SMILES IDX 93 25 13 26 22 29 23 30 24 31 25 32 26 33 27 35 28 36 29 37
REMARK SMILES IDX 90 38 30 39 89 40 31 41 32 42 33 43 83 44 34 45 88 46 82 47
REMARK SMILES IDX 84 48 35 49 87 50 81 51 80 52 36 54 68 55 48 56 67 57 49 58
REMARK SMILES IDX 52 59 66 60 85 61 50 62 51 63 65 65 86 66 53 67 37 68 38 69
REMARK SMILES IDX 46 70 39 71 40 72 44 73 47 74 41 75 42 76 45 77 43 78 69 79
REMARK SMILES IDX 70 80 78 81 71 82 72 83 76 84 79 85 73 86 74 87 77 88 75 89
REMARK SMILES IDX 54 90 55 91 63 92 56 93 57 94 61 95 64 96 58 97 59 98 62 99
REMARK SMILES IDX 60 100
REMARK H PARENT 18 7 8 15 13 27 13 28 25 34 84 53 52 64
REMARK Flexibility Score: inf
ROOT
ATOM      1  C   UNL A   1      33.733  27.935  26.500  1.00  0.00     0.002 C 
ENDROOT
BRANCH   1   2
ATOM      2  C   UNL A   1      33.541  25.870  25.772  1.00  0.00     0.021 C 
BRANCH   2   3
ATOM      3  C   UNL A   1      33.765  24.262  26.371  1.00  0.00     0.116 C 
BRANCH   3   4
ATOM      4  N   UNL A   1      35.060  23.602  26.302  1.00  0.00    -0.352 N 
ATOM      5  C   UNL A   1      35.479  22.535  25.546  1.00  0.00     0.253 C 
ATOM      6  O   UNL A   1      36.675  22.246  25.522  1.00  0.00    -0.269 OA
ATOM      7  H   UNL A   1      35.749  23.984  26.894  1.00  0.00     0.163 HD
BRANCH   5   8
ATOM      8  C   UNL A   1      34.491  21.645  24.903  1.00  0.00     0.065 A 
ATOM      9  C   UNL A   1      33.619  22.021  23.874  1.00  0.00     0.048 A 
ATOM     10  C   UNL A   1      32.400  21.315  23.851  1.00  0.00     0.028 A 
ATOM     11  C   UNL A   1      32.152  20.203  24.677  1.00  0.00     0.027 A 
ATOM     12  C   UNL A   1      34.314  20.436  25.613  1.00  0.00     0.041 A 
ATOM     13  C   UNL A   1      33.156  19.684  25.481  1.00  0.00     0.032 A 
BRANCH   9  14
ATOM     14  N   UNL A   1      33.806  23.009  22.920  1.00  0.00    -0.378 N 
ATOM     15  H   UNL A   1      34.719  23.377  22.896  1.00  0.00     0.161 HD
BRANCH  14  16
ATOM     16  C   UNL A   1      32.890  23.608  21.937  1.00  0.00     0.106 C 
ATOM     17  C   UNL A   1      33.242  23.325  20.483  1.00  0.00     0.036 C 
BRANCH  16  18
ATOM     18  C   UNL A   1      32.463  25.009  22.366  1.00  0.00    -0.023 A 
ATOM     19  C   UNL A   1      30.745  29.469  24.209  1.00  0.00     0.047 C 
ATOM     20  C   UNL A   1      31.272  28.172  23.687  1.00  0.00    -0.015 A 
ATOM     21  C   UNL A   1      30.271  26.685  23.869  1.00  0.00     0.007 A 
ATOM     22  C   UNL A   1      32.855  28.089  22.826  1.00  0.00     0.126 A 
ATOM     23  C   UNL A   1      30.874  25.110  23.228  1.00  0.00     0.006 A 
ATOM     24  C   UNL A   1      33.441  26.518  22.140  1.00  0.00     0.045 A 
ATOM     25  F   UNL A   1      33.617  29.185  22.732  1.00  0.00    -0.207 F 
ENDBRANCH  16  18
ENDBRANCH  14  16
ENDBRANCH   9  14
BRANCH  13  26
ATOM     26  N   UNL A   1      32.941  18.580  26.289  1.00  0.00    -0.399 N 
ATOM     27  H   UNL A   1      33.223  17.686  25.987  1.00  0.00     0.156 HD
ATOM     28  H   UNL A   1      32.505  18.688  27.165  1.00  0.00     0.156 HD
ENDBRANCH  13  26
ENDBRANCH   5   8
ENDBRANCH   3   4
ENDBRANCH   2   3
ENDBRANCH   1   2
BRANCH   1  29
ATOM     29  C   UNL A   1      32.752  29.140  27.224  1.00  0.00     0.002 C 
BRANCH  29  30
ATOM     30  C   UNL A   1      33.031  30.654  27.159  1.00  0.00     0.021 C 
BRANCH  30  31
ATOM     31  C   UNL A   1      34.240  31.194  27.905  1.00  0.00     0.116 C 
BRANCH  31  32
ATOM     32  N   UNL A   1      34.022  32.507  28.499  1.00  0.00    -0.352 N 
ATOM     33  C   UNL A   1      34.631  32.944  29.657  1.00  0.00     0.251 C 
ATOM     34  H   UNL A   1      33.402  33.122  28.044  1.00  0.00     0.163 HD
ATOM     35  O   UNL A   1      34.065  33.674  30.458  1.00  0.00    -0.269 OA
BRANCH  33  36
ATOM     36  C   UNL A   1      36.046  32.590  29.840  1.00  0.00     0.039 A 
ATOM     37  C   UNL A   1      37.063  33.067  29.002  1.00  0.00     0.014 A 
ATOM     38  C   UNL A   1      36.300  31.639  30.827  1.00  0.00     0.014 A 
ATOM     39  C   UNL A   1      38.342  32.540  29.134  1.00  0.00     0.010 A 
ATOM     40  C   UNL A   1      37.570  31.224  31.050  1.00  0.00     0.010 A 
ATOM     41  C   UNL A   1      38.551  31.590  30.130  1.00  0.00    -0.014 A 
BRANCH  41  42
ATOM     42  C   UNL A   1      39.758  30.824  30.316  1.00  0.00     0.031 A 
ATOM     43  C   UNL A   1      39.784  29.480  29.746  1.00  0.00     0.074 A 
ATOM     44  C   UNL A   1      40.800  31.573  30.748  1.00  0.00     0.049 A 
ATOM     45  N   UNL A   1      40.554  28.538  30.147  1.00  0.00    -0.248 NA
ATOM     46  C   UNL A   1      38.863  29.049  28.690  1.00  0.00     0.031 C 
ATOM     47  C   UNL A   1      42.236  31.380  30.661  1.00  0.00     0.029 A 
ATOM     48  N   UNL A   1      40.677  32.761  31.495  1.00  0.00    -0.354 N 
ATOM     49  C   UNL A   1      40.547  27.590  29.146  1.00  0.00     0.074 A 
ATOM     50  C   UNL A   1      39.332  27.828  28.409  1.00  0.00     0.031 C 
ATOM     51  C   UNL A   1      42.828  32.165  31.588  1.00  0.00     0.029 A 
ATOM     52  C   UNL A   1      41.771  32.778  32.379  1.00  0.00     0.049 A 
ATOM     53  H   UNL A   1      39.969  33.442  31.414  1.00  0.00     0.167 HD
ATOM     54  C   UNL A   1      41.703  26.901  28.918  1.00  0.00     0.037 A 
ATOM     55  C   UNL A   1      41.508  32.533  33.700  1.00  0.00     0.037 A 
ATOM     56  C   UNL A   1      42.736  27.391  29.838  1.00  0.00     0.049 A 
ATOM     57  C   UNL A   1      41.991  31.164  34.132  1.00  0.00     0.074 A 
ATOM     58  C   UNL A   1      43.761  28.313  29.716  1.00  0.00     0.029 A 
ATOM     59  N   UNL A   1      42.533  27.233  31.192  1.00  0.00    -0.354 N 
ATOM     60  N   UNL A   1      42.351  30.219  33.307  1.00  0.00    -0.248 NA
ATOM     61  C   UNL A   1      42.061  30.741  35.526  1.00  0.00     0.031 C 
ATOM     62  C   UNL A   1      44.160  28.703  31.033  1.00  0.00     0.029 A 
ATOM     63  C   UNL A   1      43.374  28.021  31.945  1.00  0.00     0.049 A 
ATOM     64  H   UNL A   1      41.862  26.624  31.578  1.00  0.00     0.167 HD
ATOM     65  C   UNL A   1      42.729  29.108  34.003  1.00  0.00     0.074 A 
ATOM     66  C   UNL A   1      42.466  29.466  35.391  1.00  0.00     0.031 C 
ATOM     67  C   UNL A   1      43.230  27.989  33.392  1.00  0.00     0.037 A 
BRANCH  54  68
ATOM     68  C   UNL A   1      42.028  26.013  27.739  1.00  0.00     0.064 A 
ATOM     69  C   UNL A   1      41.376  24.764  27.608  1.00  0.00     0.173 A 
ATOM     70  C   UNL A   1      42.936  26.307  26.703  1.00  0.00     0.173 A 
ATOM     71  F   UNL A   1      40.431  24.372  28.472  1.00  0.00    -0.203 F 
ATOM     72  C   UNL A   1      41.654  23.867  26.576  1.00  0.00     0.198 A 
ATOM     73  C   UNL A   1      43.229  25.398  25.677  1.00  0.00     0.198 A 
ATOM     74  F   UNL A   1      43.540  27.495  26.606  1.00  0.00    -0.203 F 
ATOM     75  F   UNL A   1      41.000  22.698  26.521  1.00  0.00    -0.200 F 
ATOM     76  C   UNL A   1      42.592  24.178  25.616  1.00  0.00     0.200 A 
ATOM     77  F   UNL A   1      44.132  25.724  24.739  1.00  0.00    -0.200 F 
ATOM     78  F   UNL A   1      42.862  23.316  24.627  1.00  0.00    -0.200 F 
ENDBRANCH  54  68
BRANCH  55  79
ATOM     79  C   UNL A   1      40.215  33.176  34.115  1.00  0.00     0.064 A 
ATOM     80  C   UNL A   1      39.139  32.310  34.421  1.00  0.00     0.173 A 
ATOM     81  C   UNL A   1      40.189  34.456  34.687  1.00  0.00     0.173 A 
ATOM     82  F   UNL A   1      39.095  31.083  33.877  1.00  0.00    -0.203 F 
ATOM     83  C   UNL A   1      38.213  32.629  35.411  1.00  0.00     0.198 A 
ATOM     84  C   UNL A   1      39.226  34.789  35.644  1.00  0.00     0.198 A 
ATOM     85  F   UNL A   1      41.166  35.336  34.427  1.00  0.00    -0.203 F 
ATOM     86  F   UNL A   1      37.323  31.710  35.814  1.00  0.00    -0.200 F 
ATOM     87  C   UNL A   1      38.279  33.855  36.046  1.00  0.00     0.200 A 
ATOM     88  F   UNL A   1      39.274  35.985  36.249  1.00  0.00    -0.200 F 
ATOM     89  F   UNL A   1      37.455  34.124  37.068  1.00  0.00    -0.200 F 
ENDBRANCH  55  79
BRANCH  67  90
ATOM     90  C   UNL A   1      43.596  26.729  34.133  1.00  0.00     0.064 A 
ATOM     91  C   UNL A   1      42.632  25.896  34.713  1.00  0.00     0.173 A 
ATOM     92  C   UNL A   1      44.941  26.335  34.338  1.00  0.00     0.173 A 
ATOM     93  F   UNL A   1      41.342  26.257  34.753  1.00  0.00    -0.203 F 
ATOM     94  C   UNL A   1      42.974  24.675  35.294  1.00  0.00     0.198 A 
ATOM     95  C   UNL A   1      45.284  25.156  34.987  1.00  0.00     0.198 A 
ATOM     96  F   UNL A   1      45.982  27.052  33.897  1.00  0.00    -0.203 F 
ATOM     97  F   UNL A   1      42.007  23.856  35.726  1.00  0.00    -0.200 F 
ATOM     98  C   UNL A   1      44.299  24.301  35.423  1.00  0.00     0.200 A 
ATOM     99  F   UNL A   1      46.579  24.851  35.159  1.00  0.00    -0.200 F 
ATOM    100  F   UNL A   1      44.628  23.127  35.975  1.00  0.00    -0.200 F 
ENDBRANCH  67  90
ENDBRANCH  41  42
ENDBRANCH  33  36
ENDBRANCH  31  32
ENDBRANCH  30  31
ENDBRANCH  29  30
ENDBRANCH   1  29
TORSDOF 17
ENDMDL
MODEL 2
REMARK VINA RESULT:     -13.9      2.188      3.987
REMARK SMILES Cc1ccc([C@@H](C)Nc2ccc(N)cc2C(=O)NCCCCCCNC(=O)c2ccc(-c3c4nc(c(-c5c(F)c(F)c(F)c(F)c5F)c5ccc([nH]5)c(-c5c(F)c(F)c(F)c(F)c5F)c5nc(c(-c6c(F)c(F)c(F)c(F)c6F)c6ccc3[nH]6)C=C5)C=C4)cc2)cc1F
REMARK SMILES IDX 21 1 20 2 19 3 18 4 16 5 17 6 15 8 9 9 10 10 11 11 14 12
REMARK SMILES IDX 12 13 8 14 6 16 7 17 5 18 1 19 2 20 3 21 92 22 4 23 91 24
REMARK SMILES IDX 93 25 13 26 22 29 23 30 24 31 25 32 26 33 27 35 28 36 29 37
REMARK SMILES IDX 90 38 30 39 89 40 31 41 32 42 33 43 83 44 34 45 88 46 82 47
REMARK SMILES IDX 84 48 35 49 87 50 81 51 80 52 36 54 68 55 48 56 67 57 49 58
REMARK SMILES IDX 52 59 66 60 85 61 50 62 51 63 65 65 86 66 53 67 37 68 38 69
REMARK SMILES IDX 46 70 39 71 40 72 44 73 47 74 41 75 42 76 45 77 43 78 69 79
REMARK SMILES IDX 70 80 78 81 71 82 72 83 76 84 79 85 73 86 74 87 77 88 75 89
REMARK SMILES IDX 54 90 55 91 63 92 56 93 57 94 61 95 64 96 58 97 59 98 62 99
REMARK SMILES IDX 60 100
REMARK H PARENT 18 7 8 15 13 27 13 28 25 34 84 53 52 64
REMARK Flexibility Score: inf
ROOT
ATOM      1  C   UNL A   1      35.560  30.971  28.351  1.00  0.00     0.002 C 
ENDROOT
BRANCH   1   2
ATOM      2  C   UNL A   1      35.146  29.082  27.308  1.00  0.00     0.021 C 
BRANCH   2   3
ATOM      3  C   UNL A   1      33.777  28.203  26.720  1.00  0.00     0.116 C 
BRANCH   3   4
ATOM      4  N   UNL A   1      33.741  27.674  25.365  1.00  0.00    -0.352 N 
ATOM      5  C   UNL A   1      33.188  26.518  24.872  1.00  0.00     0.253 C 
ATOM      6  O   UNL A   1      33.129  26.349  23.655  1.00  0.00    -0.269 OA
ATOM      7  H   UNL A   1      34.186  28.238  24.691  1.00  0.00     0.163 HD
BRANCH   5   8
ATOM      8  C   UNL A   1      32.820  25.419  25.788  1.00  0.00     0.065 A 
ATOM      9  C   UNL A   1      33.623  24.308  26.075  1.00  0.00     0.048 A 
ATOM     10  C   UNL A   1      32.909  23.138  26.402  1.00  0.00     0.028 A 
ATOM     11  C   UNL A   1      31.517  23.130  26.601  1.00  0.00     0.027 A 
ATOM     12  C   UNL A   1      31.453  25.452  26.146  1.00  0.00     0.041 A 
ATOM     13  C   UNL A   1      30.795  24.315  26.589  1.00  0.00     0.032 A 
BRANCH   9  14
ATOM     14  N   UNL A   1      35.006  24.228  26.042  1.00  0.00    -0.378 N 
ATOM     15  H   UNL A   1      35.437  24.349  26.919  1.00  0.00     0.161 HD
BRANCH  14  16
ATOM     16  C   UNL A   1      35.949  23.995  24.937  1.00  0.00     0.106 C 
ATOM     17  C   UNL A   1      35.299  23.592  23.621  1.00  0.00     0.036 C 
BRANCH  16  18
ATOM     18  C   UNL A   1      37.204  23.278  25.426  1.00  0.00    -0.023 A 
ATOM     19  C   UNL A   1      41.389  21.191  27.517  1.00  0.00     0.047 C 
ATOM     20  C   UNL A   1      40.152  21.776  26.918  1.00  0.00    -0.015 A 
ATOM     21  C   UNL A   1      39.736  23.493  27.276  1.00  0.00     0.007 A 
ATOM     22  C   UNL A   1      39.113  20.815  25.799  1.00  0.00     0.126 A 
ATOM     23  C   UNL A   1      38.259  24.232  26.548  1.00  0.00     0.006 A 
ATOM     24  C   UNL A   1      37.656  21.569  25.030  1.00  0.00     0.045 A 
ATOM     25  F   UNL A   1      39.399  19.528  25.570  1.00  0.00    -0.207 F 
ENDBRANCH  16  18
ENDBRANCH  14  16
ENDBRANCH   9  14
BRANCH  13  26
ATOM     26  N   UNL A   1      29.427  24.333  26.801  1.00  0.00    -0.399 N 
ATOM     27  H   UNL A   1      28.868  23.590  26.475  1.00  0.00     0.156 HD
ATOM     28  H   UNL A   1      29.011  25.090  27.275  1.00  0.00     0.156 HD
ENDBRANCH  13  26
ENDBRANCH   5   8
ENDBRANCH   3   4
ENDBRANCH   2   3
ENDBRANCH   1   2
BRANCH   1  29
ATOM     29  C   UNL A   1      35.774  32.629  27.973  1.00  0.00     0.002 C 
BRANCH  29  30
ATOM     30  C   UNL A   1      34.712  33.724  28.195  1.00  0.00     0.021 C 
BRANCH  30  31
ATOM     31  C   UNL A   1      34.069  33.833  29.568  1.00  0.00     0.116 C 
BRANCH  31  32
ATOM     32  N   UNL A   1      34.606  34.917  30.380  1.00  0.00    -0.352 N 
ATOM     33  C   UNL A   1      35.383  34.730  31.505  1.00  0.00     0.251 C 
ATOM     34  H   UNL A   1      34.401  35.841  30.109  1.00  0.00     0.163 HD
ATOM     35  O   UNL A   1      35.319  35.472  32.474  1.00  0.00    -0.269 OA
BRANCH  33  36
ATOM     36  C   UNL A   1      36.390  33.661  31.448  1.00  0.00     0.039 A 
ATOM     37  C   UNL A   1      36.273  32.468  32.175  1.00  0.00     0.014 A 
ATOM     38  C   UNL A   1      37.540  33.963  30.721  1.00  0.00     0.014 A 
ATOM     39  C   UNL A   1      37.353  31.593  32.205  1.00  0.00     0.010 A 
ATOM     40  C   UNL A   1      38.540  33.052  30.636  1.00  0.00     0.010 A 
ATOM     41  C   UNL A   1      38.483  31.936  31.468  1.00  0.00    -0.014 A 
BRANCH  41  42
ATOM     42  C   UNL A   1      39.745  31.240  31.500  1.00  0.00     0.031 A 
ATOM     43  C   UNL A   1      39.854  30.026  30.695  1.00  0.00     0.074 A 
ATOM     44  C   UNL A   1      40.741  31.973  32.051  1.00  0.00     0.049 A 
ATOM     45  N   UNL A   1      40.697  29.087  30.912  1.00  0.00    -0.248 NA
ATOM     46  C   UNL A   1      38.942  29.726  29.588  1.00  0.00     0.031 C 
ATOM     47  C   UNL A   1      42.185  31.906  31.917  1.00  0.00     0.029 A 
ATOM     48  N   UNL A   1      40.552  32.995  33.003  1.00  0.00    -0.354 N 
ATOM     49  C   UNL A   1      40.734  28.337  29.755  1.00  0.00     0.074 A 
ATOM     50  C   UNL A   1      39.490  28.614  29.086  1.00  0.00     0.031 C 
ATOM     51  C   UNL A   1      42.741  32.552  32.966  1.00  0.00     0.029 A 
ATOM     52  C   UNL A   1      41.661  32.932  33.865  1.00  0.00     0.049 A 
ATOM     53  H   UNL A   1      39.796  33.625  33.053  1.00  0.00     0.167 HD
ATOM     54  C   UNL A   1      41.930  27.787  29.396  1.00  0.00     0.037 A 
ATOM     55  C   UNL A   1      41.446  32.434  35.122  1.00  0.00     0.037 A 
ATOM     56  C   UNL A   1      42.946  28.177  30.379  1.00  0.00     0.049 A 
ATOM     57  C   UNL A   1      42.034  31.050  35.294  1.00  0.00     0.074 A 
ATOM     58  C   UNL A   1      43.901  29.179  30.418  1.00  0.00     0.029 A 
ATOM     59  N   UNL A   1      42.785  27.763  31.685  1.00  0.00    -0.354 N 
ATOM     60  N   UNL A   1      42.441  30.298  34.308  1.00  0.00    -0.248 NA
ATOM     61  C   UNL A   1      42.164  30.389  36.587  1.00  0.00     0.031 C 
ATOM     62  C   UNL A   1      44.301  29.354  31.780  1.00  0.00     0.029 A 
ATOM     63  C   UNL A   1      43.586  28.462  32.560  1.00  0.00     0.049 A 
ATOM     64  H   UNL A   1      42.168  27.047  31.960  1.00  0.00     0.167 HD
ATOM     65  C   UNL A   1      42.912  29.111  34.788  1.00  0.00     0.074 A 
ATOM     66  C   UNL A   1      42.655  29.192  36.219  1.00  0.00     0.031 C 
ATOM     67  C   UNL A   1      43.477  28.160  33.979  1.00  0.00     0.037 A 
BRANCH  54  68
ATOM     68  C   UNL A   1      42.291  27.152  28.072  1.00  0.00     0.064 A 
ATOM     69  C   UNL A   1      42.595  25.771  28.023  1.00  0.00     0.173 A 
ATOM     70  C   UNL A   1      42.347  27.805  26.826  1.00  0.00     0.173 A 
ATOM     71  F   UNL A   1      42.514  24.996  29.112  1.00  0.00    -0.203 F 
ATOM     72  C   UNL A   1      42.982  25.120  26.851  1.00  0.00     0.198 A 
ATOM     73  C   UNL A   1      42.754  27.155  25.652  1.00  0.00     0.198 A 
ATOM     74  F   UNL A   1      41.967  29.076  26.674  1.00  0.00    -0.203 F 
ATOM     75  F   UNL A   1      43.262  23.809  26.884  1.00  0.00    -0.200 F 
ATOM     76  C   UNL A   1      43.075  25.815  25.667  1.00  0.00     0.200 A 
ATOM     77  F   UNL A   1      42.822  27.843  24.502  1.00  0.00    -0.200 F 
ATOM     78  F   UNL A   1      43.450  25.192  24.541  1.00  0.00    -0.200 F 
ENDBRANCH  54  68
BRANCH  55  79
ATOM     79  C   UNL A   1      40.120  32.896  35.658  1.00  0.00     0.064 A 
ATOM     80  C   UNL A   1      39.121  31.909  35.829  1.00  0.00     0.173 A 
ATOM     81  C   UNL A   1      40.015  34.055  36.440  1.00  0.00     0.173 A 
ATOM     82  F   UNL A   1      39.154  30.791  35.085  1.00  0.00    -0.203 F 
ATOM     83  C   UNL A   1      38.202  31.984  36.872  1.00  0.00     0.198 A 
ATOM     84  C   UNL A   1      39.056  34.147  37.453  1.00  0.00     0.198 A 
ATOM     85  F   UNL A   1      40.916  35.040  36.319  1.00  0.00    -0.203 F 
ATOM     86  F   UNL A   1      37.394  30.944  37.127  1.00  0.00    -0.200 F 
ATOM     87  C   UNL A   1      38.193  33.088  37.705  1.00  0.00     0.200 A 
ATOM     88  F   UNL A   1      39.031  35.225  38.251  1.00  0.00    -0.200 F 
ATOM     89  F   UNL A   1      37.380  33.116  38.769  1.00  0.00    -0.200 F 
ENDBRANCH  55  79
BRANCH  67  90
ATOM     90  C   UNL A   1      43.947  26.818  34.476  1.00  0.00     0.064 A 
ATOM     91  C   UNL A   1      45.305  26.487  34.565  1.00  0.00     0.173 A 
ATOM     92  C   UNL A   1      43.047  25.785  34.834  1.00  0.00     0.173 A 
ATOM     93  F   UNL A   1      46.248  27.307  34.078  1.00  0.00    -0.203 F 
ATOM     94  C   UNL A   1      45.730  25.287  35.135  1.00  0.00     0.198 A 
ATOM     95  C   UNL A   1      43.474  24.559  35.328  1.00  0.00     0.198 A 
ATOM     96  F   UNL A   1      41.718  25.920  34.751  1.00  0.00    -0.203 F 
ATOM     97  F   UNL A   1      47.040  25.068  35.311  1.00  0.00    -0.200 F 
ATOM     98  C   UNL A   1      44.815  24.327  35.525  1.00  0.00     0.200 A 
ATOM     99  F   UNL A   1      42.567  23.619  35.635  1.00  0.00    -0.200 F 
ATOM    100  F   UNL A   1      45.223  23.178  36.078  1.00  0.00    -0.200 F 
ENDBRANCH  67  90
ENDBRANCH  41  42
ENDBRANCH  33  36
ENDBRANCH  31  32
ENDBRANCH  30  31
ENDBRANCH  29  30
ENDBRANCH   1  29
TORSDOF 17
ENDMDL
MODEL 3
REMARK VINA RESULT:     -13.9      3.985      9.649
REMARK SMILES Cc1ccc([C@@H](C)Nc2ccc(N)cc2C(=O)NCCCCCCNC(=O)c2ccc(-c3c4nc(c(-c5c(F)c(F)c(F)c(F)c5F)c5ccc([nH]5)c(-c5c(F)c(F)c(F)c(F)c5F)c5nc(c(-c6c(F)c(F)c(F)c(F)c6F)c6ccc3[nH]6)C=C5)C=C4)cc2)cc1F
REMARK SMILES IDX 21 1 20 2 19 3 18 4 16 5 17 6 15 8 9 9 10 10 11 11 14 12
REMARK SMILES IDX 12 13 8 14 6 16 7 17 5 18 1 19 2 20 3 21 92 22 4 23 91 24
REMARK SMILES IDX 93 25 13 26 22 29 23 30 24 31 25 32 26 33 27 35 28 36 29 37
REMARK SMILES IDX 90 38 30 39 89 40 31 41 32 42 33 43 83 44 34 45 88 46 82 47
REMARK SMILES IDX 84 48 35 49 87 50 81 51 80 52 36 54 68 55 48 56 67 57 49 58
REMARK SMILES IDX 52 59 66 60 85 61 50 62 51 63 65 65 86 66 53 67 37 68 38 69
REMARK SMILES IDX 46 70 39 71 40 72 44 73 47 74 41 75 42 76 45 77 43 78 69 79
REMARK SMILES IDX 70 80 78 81 71 82 72 83 76 84 79 85 73 86 74 87 77 88 75 89
REMARK SMILES IDX 54 90 55 91 63 92 56 93 57 94 61 95 64 96 58 97 59 98 62 99
REMARK SMILES IDX 60 100
REMARK H PARENT 18 7 8 15 13 27 13 28 25 34 84 53 52 64
REMARK Flexibility Score: inf
ROOT
ATOM      1  C   UNL A   1      40.408  23.331  27.420  1.00  0.00     0.002 C 
ENDROOT
BRANCH   1   2
ATOM      2  C   UNL A   1      38.499  24.102  26.652  1.00  0.00     0.021 C 
BRANCH   2   3
ATOM      3  C   UNL A   1      37.075  23.492  25.881  1.00  0.00     0.116 C 
BRANCH   3   4
ATOM      4  N   UNL A   1      37.053  23.196  24.456  1.00  0.00    -0.352 N 
ATOM      5  C   UNL A   1      35.997  23.007  23.600  1.00  0.00     0.253 C 
ATOM      6  O   UNL A   1      36.207  22.933  22.390  1.00  0.00    -0.269 OA
ATOM      7  H   UNL A   1      37.942  23.120  24.038  1.00  0.00     0.163 HD
BRANCH   5   8
ATOM      8  C   UNL A   1      34.647  22.730  24.133  1.00  0.00     0.065 A 
ATOM      9  C   UNL A   1      33.651  23.692  24.340  1.00  0.00     0.048 A 
ATOM     10  C   UNL A   1      32.756  23.393  25.387  1.00  0.00     0.028 A 
ATOM     11  C   UNL A   1      32.752  22.152  26.049  1.00  0.00     0.027 A 
ATOM     12  C   UNL A   1      34.541  21.430  24.677  1.00  0.00     0.041 A 
ATOM     13  C   UNL A   1      33.569  21.118  25.616  1.00  0.00     0.032 A 
BRANCH   9  14
ATOM     14  N   UNL A   1      33.473  24.890  23.666  1.00  0.00    -0.378 N 
ATOM     15  H   UNL A   1      33.349  24.790  22.695  1.00  0.00     0.161 HD
BRANCH  14  16
ATOM     16  C   UNL A   1      33.436  26.283  24.137  1.00  0.00     0.106 C 
ATOM     17  C   UNL A   1      34.160  26.530  25.453  1.00  0.00     0.036 C 
BRANCH  16  18
ATOM     18  C   UNL A   1      32.070  26.914  23.880  1.00  0.00    -0.023 A 
ATOM     19  C   UNL A   1      27.709  29.259  22.569  1.00  0.00     0.047 C 
ATOM     20  C   UNL A   1      28.971  28.549  22.938  1.00  0.00    -0.015 A 
ATOM     21  C   UNL A   1      30.552  29.294  22.500  1.00  0.00     0.007 A 
ATOM     22  C   UNL A   1      28.933  27.003  23.865  1.00  0.00     0.126 A 
ATOM     23  C   UNL A   1      32.092  28.469  22.953  1.00  0.00     0.006 A 
ATOM     24  C   UNL A   1      30.477  26.197  24.362  1.00  0.00     0.045 A 
ATOM     25  F   UNL A   1      27.758  26.428  24.150  1.00  0.00    -0.207 F 
ENDBRANCH  16  18
ENDBRANCH  14  16
ENDBRANCH   9  14
BRANCH  13  26
ATOM     26  N   UNL A   1      33.568  19.882  26.241  1.00  0.00    -0.399 N 
ATOM     27  H   UNL A   1      34.381  19.325  26.234  1.00  0.00     0.156 HD
ATOM     28  H   UNL A   1      32.755  19.559  26.693  1.00  0.00     0.156 HD
ENDBRANCH  13  26
ENDBRANCH   5   8
ENDBRANCH   3   4
ENDBRANCH   2   3
ENDBRANCH   1   2
BRANCH   1  29
ATOM     29  C   UNL A   1      41.074  21.844  27.953  1.00  0.00     0.002 C 
BRANCH  29  30
ATOM     30  C   UNL A   1      41.447  20.669  27.029  1.00  0.00     0.021 C 
BRANCH  30  31
ATOM     31  C   UNL A   1      42.380  20.942  25.860  1.00  0.00     0.116 C 
BRANCH  31  32
ATOM     32  N   UNL A   1      43.791  20.781  26.189  1.00  0.00    -0.352 N 
ATOM     33  C   UNL A   1      44.726  21.792  26.108  1.00  0.00     0.251 C 
ATOM     34  H   UNL A   1      44.096  19.894  26.490  1.00  0.00     0.163 HD
ATOM     35  O   UNL A   1      45.884  21.586  25.775  1.00  0.00    -0.269 OA
BRANCH  33  36
ATOM     36  C   UNL A   1      44.302  23.128  26.553  1.00  0.00     0.039 A 
ATOM     37  C   UNL A   1      43.996  24.164  25.661  1.00  0.00     0.014 A 
ATOM     38  C   UNL A   1      44.350  23.339  27.930  1.00  0.00     0.014 A 
ATOM     39  C   UNL A   1      43.782  25.442  26.166  1.00  0.00     0.010 A 
ATOM     40  C   UNL A   1      44.009  24.549  28.436  1.00  0.00     0.010 A 
ATOM     41  C   UNL A   1      43.843  25.609  27.547  1.00  0.00    -0.014 A 
BRANCH  41  42
ATOM     42  C   UNL A   1      43.804  26.873  28.239  1.00  0.00     0.031 A 
ATOM     43  C   UNL A   1      42.503  27.529  28.348  1.00  0.00     0.074 A 
ATOM     44  C   UNL A   1      44.935  27.132  28.936  1.00  0.00     0.049 A 
ATOM     45  N   UNL A   1      42.339  28.785  28.537  1.00  0.00    -0.248 NA
ATOM     46  C   UNL A   1      41.237  26.811  28.175  1.00  0.00     0.031 C 
ATOM     47  C   UNL A   1      45.198  27.992  30.076  1.00  0.00     0.029 A 
ATOM     48  N   UNL A   1      46.208  26.619  28.618  1.00  0.00    -0.354 N 
ATOM     49  C   UNL A   1      41.033  28.938  28.950  1.00  0.00     0.074 A 
ATOM     50  C   UNL A   1      40.348  27.761  28.482  1.00  0.00     0.031 C 
ATOM     51  C   UNL A   1      46.527  28.228  30.134  1.00  0.00     0.029 A 
ATOM     52  C   UNL A   1      47.128  27.629  28.950  1.00  0.00     0.049 A 
ATOM     53  H   UNL A   1      46.411  25.732  28.239  1.00  0.00     0.167 HD
ATOM     54  C   UNL A   1      40.768  29.919  29.861  1.00  0.00     0.037 A 
ATOM     55  C   UNL A   1      47.713  28.306  27.914  1.00  0.00     0.037 A 
ATOM     56  C   UNL A   1      42.024  30.590  30.214  1.00  0.00     0.049 A 
ATOM     57  C   UNL A   1      47.177  29.716  27.780  1.00  0.00     0.074 A 
ATOM     58  C   UNL A   1      42.920  30.449  31.260  1.00  0.00     0.029 A 
ATOM     59  N   UNL A   1      42.710  31.256  29.220  1.00  0.00    -0.354 N 
ATOM     60  N   UNL A   1      46.101  30.151  28.376  1.00  0.00    -0.248 NA
ATOM     61  C   UNL A   1      47.788  30.728  26.928  1.00  0.00     0.031 C 
ATOM     62  C   UNL A   1      44.158  31.043  30.861  1.00  0.00     0.029 A 
ATOM     63  C   UNL A   1      44.010  31.538  29.578  1.00  0.00     0.049 A 
ATOM     64  H   UNL A   1      42.316  31.503  28.352  1.00  0.00     0.167 HD
ATOM     65  C   UNL A   1      45.881  31.458  28.052  1.00  0.00     0.074 A 
ATOM     66  C   UNL A   1      46.932  31.754  27.087  1.00  0.00     0.031 C 
ATOM     67  C   UNL A   1      44.862  32.193  28.599  1.00  0.00     0.037 A 
BRANCH  54  68
ATOM     68  C   UNL A   1      39.496  30.123  30.652  1.00  0.00     0.064 A 
ATOM     69  C   UNL A   1      38.737  31.302  30.457  1.00  0.00     0.173 A 
ATOM     70  C   UNL A   1      38.948  29.227  31.590  1.00  0.00     0.173 A 
ATOM     71  F   UNL A   1      39.087  32.218  29.545  1.00  0.00    -0.203 F 
ATOM     72  C   UNL A   1      37.578  31.586  31.179  1.00  0.00     0.198 A 
ATOM     73  C   UNL A   1      37.794  29.522  32.329  1.00  0.00     0.198 A 
ATOM     74  F   UNL A   1      39.468  28.015  31.798  1.00  0.00    -0.203 F 
ATOM     75  F   UNL A   1      36.915  32.728  30.944  1.00  0.00    -0.200 F 
ATOM     76  C   UNL A   1      37.112  30.702  32.126  1.00  0.00     0.200 A 
ATOM     77  F   UNL A   1      37.342  28.641  33.235  1.00  0.00    -0.200 F 
ATOM     78  F   UNL A   1      36.001  30.976  32.823  1.00  0.00    -0.200 F 
ENDBRANCH  54  68
BRANCH  55  79
ATOM     79  C   UNL A   1      48.020  27.374  26.776  1.00  0.00     0.064 A 
ATOM     80  C   UNL A   1      47.266  27.542  25.591  1.00  0.00     0.173 A 
ATOM     81  C   UNL A   1      49.277  26.764  26.653  1.00  0.00     0.173 A 
ATOM     82  F   UNL A   1      46.042  28.092  25.651  1.00  0.00    -0.203 F 
ATOM     83  C   UNL A   1      47.828  27.312  24.338  1.00  0.00     0.198 A 
ATOM     84  C   UNL A   1      49.816  26.490  25.393  1.00  0.00     0.198 A 
ATOM     85  F   UNL A   1      50.039  26.557  27.736  1.00  0.00    -0.203 F 
ATOM     86  F   UNL A   1      47.157  27.663  23.230  1.00  0.00    -0.200 F 
ATOM     87  C   UNL A   1      49.116  26.819  24.240  1.00  0.00     0.200 A 
ATOM     88  F   UNL A   1      51.058  25.992  25.295  1.00  0.00    -0.200 F 
ATOM     89  F   UNL A   1      49.695  26.695  23.038  1.00  0.00    -0.200 F 
ENDBRANCH  55  79
BRANCH  67  90
ATOM     90  C   UNL A   1      44.563  33.618  28.210  1.00  0.00     0.064 A 
ATOM     91  C   UNL A   1      44.801  34.694  29.073  1.00  0.00     0.173 A 
ATOM     92  C   UNL A   1      43.972  33.956  26.968  1.00  0.00     0.173 A 
ATOM     93  F   UNL A   1      45.180  34.490  30.343  1.00  0.00    -0.203 F 
ATOM     94  C   UNL A   1      44.630  36.016  28.660  1.00  0.00     0.198 A 
ATOM     95  C   UNL A   1      43.729  35.270  26.589  1.00  0.00     0.198 A 
ATOM     96  F   UNL A   1      43.630  33.040  26.055  1.00  0.00    -0.203 F 
ATOM     97  F   UNL A   1      44.987  37.014  29.478  1.00  0.00    -0.200 F 
ATOM     98  C   UNL A   1      44.102  36.303  27.415  1.00  0.00     0.200 A 
ATOM     99  F   UNL A   1      43.153  35.518  25.403  1.00  0.00    -0.200 F 
ATOM    100  F   UNL A   1      43.944  37.571  27.016  1.00  0.00    -0.200 F 
ENDBRANCH  67  90
ENDBRANCH  41  42
ENDBRANCH  33  36
ENDBRANCH  31  32
ENDBRANCH  30  31
ENDBRANCH  29  30
ENDBRANCH   1  29
TORSDOF 17
ENDMDL
