MODEL 1
REMARK VINA RESULT:     -10.6      0.000      0.000
REMARK SMILES CC[C@@](C)(NC(=O)N(C)CCO)C(=O)NCCCCCCNC(=O)c1ccc(-c2c3nc(c(-c4c(F)c(F)c(F)c(F)c4F)c4ccc([nH]4)c(-c4c(F)c(F)c(F)c(F)c4F)c4nc(c(-c5c(F)c(F)c(F)c(F)c5F)c5ccc2[nH]5)C=C4)C=C3)cc1
REMARK SMILES IDX 17 1 16 2 15 3 13 4 14 5 3 7 4 8 2 9 1 10 5 11 6 12 7 14
REMARK SMILES IDX 8 15 9 16 10 17 11 18 12 19 18 21 19 22 20 23 21 24 22 25
REMARK SMILES IDX 23 26 24 28 25 29 26 30 87 31 27 32 86 33 28 34 29 35 30 36
REMARK SMILES IDX 80 37 31 38 85 39 79 40 81 41 32 42 84 43 78 44 77 45 33 47
REMARK SMILES IDX 65 48 45 49 64 50 46 51 49 52 63 53 82 54 47 55 48 56 62 58
REMARK SMILES IDX 83 59 50 60 34 61 35 62 43 63 36 64 37 65 41 66 44 67 38 68
REMARK SMILES IDX 39 69 42 70 40 71 66 72 67 73 75 74 68 75 69 76 73 77 76 78
REMARK SMILES IDX 70 79 71 80 74 81 72 82 51 83 52 84 60 85 53 86 54 87 58 88
REMARK SMILES IDX 61 89 55 90 56 91 59 92 57 93
REMARK H PARENT 15 6 5 13 12 20 22 27 81 46 49 57
REMARK Flexibility Score: inf
ROOT
ATOM      1  C   UNL A   1      33.631  28.860  26.392  1.00  0.00     0.021 C 
ENDROOT
BRANCH   1   2
ATOM      2  C   UNL A   1      33.364  27.406  26.043  1.00  0.00     0.116 C 
BRANCH   2   3
ATOM      3  N   UNL A   1      33.415  27.160  24.615  1.00  0.00    -0.354 N 
ATOM      4  C   UNL A   1      33.714  26.051  23.881  1.00  0.00     0.245 C 
ATOM      5  O   UNL A   1      33.666  26.201  22.656  1.00  0.00    -0.272 OA
ATOM      6  H   UNL A   1      33.189  27.948  24.069  1.00  0.00     0.163 HD
BRANCH   4   7
ATOM      7  C   UNL A   1      33.977  24.654  24.528  1.00  0.00     0.117 C 
ATOM      8  C   UNL A   1      34.205  23.674  23.337  1.00  0.00     0.045 C 
BRANCH   7   9
ATOM      9  C   UNL A   1      35.260  24.553  25.412  1.00  0.00     0.035 C 
ATOM     10  C   UNL A   1      36.349  23.587  24.950  1.00  0.00     0.007 C 
ENDBRANCH   7   9
BRANCH   7  11
ATOM     11  N   UNL A   1      32.816  24.144  25.315  1.00  0.00    -0.324 N 
ATOM     12  C   UNL A   1      32.383  23.012  25.899  1.00  0.00     0.318 C 
ATOM     13  H   UNL A   1      32.159  24.865  25.449  1.00  0.00     0.166 HD
ATOM     14  O   UNL A   1      31.200  23.058  26.258  1.00  0.00    -0.249 OA
BRANCH  12  15
ATOM     15  N   UNL A   1      33.169  21.942  26.215  1.00  0.00    -0.326 N 
ATOM     16  C   UNL A   1      34.025  21.809  27.381  1.00  0.00     0.148 C 
BRANCH  15  17
ATOM     17  C   UNL A   1      33.354  20.850  25.223  1.00  0.00     0.149 C 
BRANCH  17  18
ATOM     18  C   UNL A   1      34.770  20.274  25.010  1.00  0.00     0.177 C 
BRANCH  18  19
ATOM     19  O   UNL A   1      34.788  18.864  24.833  1.00  0.00    -0.395 OA
ATOM     20  H   UNL A   1      34.566  18.652  23.913  1.00  0.00     0.210 HD
ENDBRANCH  18  19
ENDBRANCH  17  18
ENDBRANCH  15  17
ENDBRANCH  12  15
ENDBRANCH   7  11
ENDBRANCH   4   7
ENDBRANCH   2   3
ENDBRANCH   1   2
BRANCH   1  21
ATOM     21  C   UNL A   1      32.469  29.614  27.039  1.00  0.00     0.002 C 
BRANCH  21  22
ATOM     22  C   UNL A   1      31.791  30.635  26.127  1.00  0.00     0.002 C 
BRANCH  22  23
ATOM     23  C   UNL A   1      31.499  31.985  26.787  1.00  0.00     0.021 C 
BRANCH  23  24
ATOM     24  C   UNL A   1      32.729  32.706  27.331  1.00  0.00     0.116 C 
BRANCH  24  25
ATOM     25  N   UNL A   1      32.461  34.109  27.602  1.00  0.00    -0.352 N 
ATOM     26  C   UNL A   1      33.017  34.925  28.555  1.00  0.00     0.251 C 
ATOM     27  H   UNL A   1      31.790  34.533  27.020  1.00  0.00     0.163 HD
ATOM     28  O   UNL A   1      32.525  36.024  28.800  1.00  0.00    -0.269 OA
BRANCH  26  29
ATOM     29  C   UNL A   1      34.197  34.461  29.313  1.00  0.00     0.039 A 
ATOM     30  C   UNL A   1      34.010  33.880  30.568  1.00  0.00     0.014 A 
ATOM     31  C   UNL A   1      35.482  34.581  28.773  1.00  0.00     0.014 A 
ATOM     32  C   UNL A   1      35.104  33.349  31.251  1.00  0.00     0.010 A 
ATOM     33  C   UNL A   1      36.560  33.984  29.422  1.00  0.00     0.010 A 
ATOM     34  C   UNL A   1      36.381  33.356  30.664  1.00  0.00    -0.014 A 
BRANCH  34  35
ATOM     35  C   UNL A   1      37.528  32.677  31.318  1.00  0.00     0.031 A 
ATOM     36  C   UNL A   1      38.200  31.507  30.660  1.00  0.00     0.074 A 
ATOM     37  C   UNL A   1      37.917  33.073  32.546  1.00  0.00     0.049 A 
ATOM     38  N   UNL A   1      39.171  30.750  31.106  1.00  0.00    -0.248 NA
ATOM     39  C   UNL A   1      37.698  31.121  29.333  1.00  0.00     0.031 C 
ATOM     40  C   UNL A   1      37.308  34.160  33.313  1.00  0.00     0.029 A 
ATOM     41  N   UNL A   1      38.904  32.595  33.372  1.00  0.00    -0.354 N 
ATOM     42  C   UNL A   1      39.394  29.800  30.120  1.00  0.00     0.074 A 
ATOM     43  C   UNL A   1      38.415  30.036  29.079  1.00  0.00     0.031 C 
ATOM     44  C   UNL A   1      37.941  34.274  34.490  1.00  0.00     0.029 A 
ATOM     45  C   UNL A   1      38.970  33.242  34.581  1.00  0.00     0.049 A 
ATOM     46  H   UNL A   1      39.509  31.858  33.121  1.00  0.00     0.167 HD
ATOM     47  C   UNL A   1      40.342  28.833  30.074  1.00  0.00     0.037 A 
ATOM     48  C   UNL A   1      39.755  33.018  35.652  1.00  0.00     0.037 A 
ATOM     49  C   UNL A   1      41.311  28.599  31.115  1.00  0.00     0.049 A 
ATOM     50  C   UNL A   1      40.780  31.921  35.594  1.00  0.00     0.074 A 
ATOM     51  C   UNL A   1      42.346  27.682  31.142  1.00  0.00     0.029 A 
ATOM     52  N   UNL A   1      41.351  29.281  32.324  1.00  0.00    -0.354 N 
ATOM     53  N   UNL A   1      41.036  31.078  34.622  1.00  0.00    -0.248 NA
ATOM     54  C   UNL A   1      41.631  31.744  36.779  1.00  0.00     0.031 C 
ATOM     55  C   UNL A   1      42.976  27.767  32.389  1.00  0.00     0.029 A 
ATOM     56  C   UNL A   1      42.372  28.779  33.118  1.00  0.00     0.049 A 
ATOM     57  H   UNL A   1      40.744  30.013  32.581  1.00  0.00     0.167 HD
ATOM     58  C   UNL A   1      42.084  30.284  35.069  1.00  0.00     0.074 A 
ATOM     59  C   UNL A   1      42.431  30.760  36.393  1.00  0.00     0.031 C 
ATOM     60  C   UNL A   1      42.700  29.253  34.441  1.00  0.00     0.037 A 
BRANCH  47  61
ATOM     61  C   UNL A   1      40.369  27.951  28.858  1.00  0.00     0.064 A 
ATOM     62  C   UNL A   1      39.651  26.745  28.806  1.00  0.00     0.173 A 
ATOM     63  C   UNL A   1      41.110  28.320  27.724  1.00  0.00     0.173 A 
ATOM     64  F   UNL A   1      38.932  26.341  29.864  1.00  0.00    -0.203 F 
ATOM     65  C   UNL A   1      39.710  25.922  27.684  1.00  0.00     0.198 A 
ATOM     66  C   UNL A   1      41.136  27.511  26.590  1.00  0.00     0.198 A 
ATOM     67  F   UNL A   1      41.807  29.465  27.713  1.00  0.00    -0.203 F 
ATOM     68  F   UNL A   1      39.068  24.746  27.684  1.00  0.00    -0.200 F 
ATOM     69  C   UNL A   1      40.448  26.308  26.575  1.00  0.00     0.200 A 
ATOM     70  F   UNL A   1      41.837  27.893  25.513  1.00  0.00    -0.200 F 
ATOM     71  F   UNL A   1      40.503  25.515  25.497  1.00  0.00    -0.200 F 
ENDBRANCH  47  61
BRANCH  48  72
ATOM     72  C   UNL A   1      39.593  33.859  36.866  1.00  0.00     0.064 A 
ATOM     73  C   UNL A   1      40.218  35.108  36.972  1.00  0.00     0.173 A 
ATOM     74  C   UNL A   1      38.787  33.440  37.936  1.00  0.00     0.173 A 
ATOM     75  F   UNL A   1      41.014  35.544  35.984  1.00  0.00    -0.203 F 
ATOM     76  C   UNL A   1      40.052  35.903  38.104  1.00  0.00     0.198 A 
ATOM     77  C   UNL A   1      38.597  34.248  39.054  1.00  0.00     0.198 A 
ATOM     78  F   UNL A   1      38.161  32.256  37.882  1.00  0.00    -0.203 F 
ATOM     79  F   UNL A   1      40.690  37.078  38.196  1.00  0.00    -0.200 F 
ATOM     80  C   UNL A   1      39.235  35.475  39.141  1.00  0.00     0.200 A 
ATOM     81  F   UNL A   1      37.792  33.839  40.044  1.00  0.00    -0.200 F 
ATOM     82  F   UNL A   1      39.064  36.246  40.224  1.00  0.00    -0.200 F 
ENDBRANCH  48  72
BRANCH  60  83
ATOM     83  C   UNL A   1      43.821  28.571  35.172  1.00  0.00     0.064 A 
ATOM     84  C   UNL A   1      45.143  29.037  35.091  1.00  0.00     0.173 A 
ATOM     85  C   UNL A   1      43.565  27.467  35.999  1.00  0.00     0.173 A 
ATOM     86  F   UNL A   1      45.443  30.080  34.302  1.00  0.00    -0.203 F 
ATOM     87  C   UNL A   1      46.168  28.408  35.791  1.00  0.00     0.198 A 
ATOM     88  C   UNL A   1      44.588  26.859  36.722  1.00  0.00     0.198 A 
ATOM     89  F   UNL A   1      42.320  26.983  36.116  1.00  0.00    -0.203 F 
ATOM     90  F   UNL A   1      47.430  28.841  35.660  1.00  0.00    -0.200 F 
ATOM     91  C   UNL A   1      45.889  27.326  36.612  1.00  0.00     0.200 A 
ATOM     92  F   UNL A   1      44.314  25.823  37.527  1.00  0.00    -0.200 F 
ATOM     93  F   UNL A   1      46.877  26.728  37.293  1.00  0.00    -0.200 F 
ENDBRANCH  60  83
ENDBRANCH  34  35
ENDBRANCH  26  29
ENDBRANCH  24  25
ENDBRANCH  23  24
ENDBRANCH  22  23
ENDBRANCH  21  22
ENDBRANCH   1  21
TORSDOF 19
ENDMDL
MODEL 2
REMARK VINA RESULT:     -10.5      5.569     11.097
REMARK SMILES CC[C@@](C)(NC(=O)N(C)CCO)C(=O)NCCCCCCNC(=O)c1ccc(-c2c3nc(c(-c4c(F)c(F)c(F)c(F)c4F)c4ccc([nH]4)c(-c4c(F)c(F)c(F)c(F)c4F)c4nc(c(-c5c(F)c(F)c(F)c(F)c5F)c5ccc2[nH]5)C=C4)C=C3)cc1
REMARK SMILES IDX 17 1 16 2 15 3 13 4 14 5 3 7 4 8 2 9 1 10 5 11 6 12 7 14
REMARK SMILES IDX 8 15 9 16 10 17 11 18 12 19 18 21 19 22 20 23 21 24 22 25
REMARK SMILES IDX 23 26 24 28 25 29 26 30 87 31 27 32 86 33 28 34 29 35 30 36
REMARK SMILES IDX 80 37 31 38 85 39 79 40 81 41 32 42 84 43 78 44 77 45 33 47
REMARK SMILES IDX 65 48 45 49 64 50 46 51 49 52 63 53 82 54 47 55 48 56 62 58
REMARK SMILES IDX 83 59 50 60 34 61 35 62 43 63 36 64 37 65 41 66 44 67 38 68
REMARK SMILES IDX 39 69 42 70 40 71 66 72 67 73 75 74 68 75 69 76 73 77 76 78
REMARK SMILES IDX 70 79 71 80 74 81 72 82 51 83 52 84 60 85 53 86 54 87 58 88
REMARK SMILES IDX 61 89 55 90 56 91 59 92 57 93
REMARK H PARENT 15 6 5 13 12 20 22 27 81 46 49 57
REMARK Flexibility Score: inf
ROOT
ATOM      1  C   UNL A   1      34.458  21.067  26.116  1.00  0.00     0.021 C 
ENDROOT
BRANCH   1   2
ATOM      2  C   UNL A   1      32.966  21.090  25.833  1.00  0.00     0.116 C 
BRANCH   2   3
ATOM      3  N   UNL A   1      32.265  22.069  26.641  1.00  0.00    -0.354 N 
ATOM      4  C   UNL A   1      32.028  23.401  26.474  1.00  0.00     0.245 C 
ATOM      5  O   UNL A   1      31.388  23.941  27.382  1.00  0.00    -0.272 OA
ATOM      6  H   UNL A   1      31.886  21.700  27.471  1.00  0.00     0.163 HD
BRANCH   4   7
ATOM      7  C   UNL A   1      32.421  24.174  25.175  1.00  0.00     0.117 C 
ATOM      8  C   UNL A   1      33.927  24.541  25.342  1.00  0.00     0.045 C 
BRANCH   7   9
ATOM      9  C   UNL A   1      32.329  23.353  23.850  1.00  0.00     0.035 C 
ATOM     10  C   UNL A   1      33.612  23.204  23.033  1.00  0.00     0.007 C 
ENDBRANCH   7   9
BRANCH   7  11
ATOM     11  N   UNL A   1      31.664  25.448  24.999  1.00  0.00    -0.324 N 
ATOM     12  C   UNL A   1      31.669  26.552  24.230  1.00  0.00     0.318 C 
ATOM     13  H   UNL A   1      30.930  25.495  25.651  1.00  0.00     0.166 HD
ATOM     14  O   UNL A   1      30.928  27.451  24.646  1.00  0.00    -0.249 OA
BRANCH  12  15
ATOM     15  N   UNL A   1      32.299  26.667  23.025  1.00  0.00    -0.326 N 
ATOM     16  C   UNL A   1      33.520  27.405  22.751  1.00  0.00     0.148 C 
BRANCH  15  17
ATOM     17  C   UNL A   1      31.628  26.166  21.796  1.00  0.00     0.149 C 
BRANCH  17  18
ATOM     18  C   UNL A   1      32.501  25.704  20.610  1.00  0.00     0.177 C 
BRANCH  18  19
ATOM     19  O   UNL A   1      31.806  25.675  19.371  1.00  0.00    -0.395 OA
ATOM     20  H   UNL A   1      30.850  25.653  19.539  1.00  0.00     0.210 HD
ENDBRANCH  18  19
ENDBRANCH  17  18
ENDBRANCH  15  17
ENDBRANCH  12  15
ENDBRANCH   7  11
ENDBRANCH   4   7
ENDBRANCH   2   3
ENDBRANCH   1   2
BRANCH   1  21
ATOM     21  C   UNL A   1      35.344  20.545  24.983  1.00  0.00     0.002 C 
BRANCH  21  22
ATOM     22  C   UNL A   1      36.762  21.113  24.976  1.00  0.00     0.002 C 
BRANCH  22  23
ATOM     23  C   UNL A   1      37.870  20.058  24.968  1.00  0.00     0.021 C 
BRANCH  23  24
ATOM     24  C   UNL A   1      39.125  20.447  25.746  1.00  0.00     0.116 C 
BRANCH  24  25
ATOM     25  N   UNL A   1      40.049  19.334  25.880  1.00  0.00    -0.352 N 
ATOM     26  C   UNL A   1      41.407  19.359  26.071  1.00  0.00     0.251 C 
ATOM     27  H   UNL A   1      39.644  18.438  25.829  1.00  0.00     0.163 HD
ATOM     28  O   UNL A   1      42.074  18.335  25.943  1.00  0.00    -0.269 OA
BRANCH  26  29
ATOM     29  C   UNL A   1      42.073  20.635  26.402  1.00  0.00     0.039 A 
ATOM     30  C   UNL A   1      42.449  21.491  25.365  1.00  0.00     0.014 A 
ATOM     31  C   UNL A   1      42.306  20.993  27.734  1.00  0.00     0.014 A 
ATOM     32  C   UNL A   1      42.989  22.742  25.666  1.00  0.00     0.010 A 
ATOM     33  C   UNL A   1      42.774  22.269  28.032  1.00  0.00     0.010 A 
ATOM     34  C   UNL A   1      43.114  23.160  27.001  1.00  0.00    -0.014 A 
BRANCH  34  35
ATOM     35  C   UNL A   1      43.561  24.536  27.334  1.00  0.00     0.031 A 
ATOM     36  C   UNL A   1      42.580  25.559  27.830  1.00  0.00     0.074 A 
ATOM     37  C   UNL A   1      44.844  24.884  27.118  1.00  0.00     0.049 A 
ATOM     38  N   UNL A   1      42.771  26.824  28.109  1.00  0.00    -0.248 NA
ATOM     39  C   UNL A   1      41.193  25.106  28.013  1.00  0.00     0.031 C 
ATOM     40  C   UNL A   1      45.880  23.998  26.587  1.00  0.00     0.029 A 
ATOM     41  N   UNL A   1      45.492  26.081  27.300  1.00  0.00    -0.354 N 
ATOM     42  C   UNL A   1      41.534  27.317  28.497  1.00  0.00     0.074 A 
ATOM     43  C   UNL A   1      40.586  26.232  28.358  1.00  0.00     0.031 C 
ATOM     44  C   UNL A   1      47.034  24.675  26.497  1.00  0.00     0.029 A 
ATOM     45  C   UNL A   1      46.811  26.054  26.921  1.00  0.00     0.049 A 
ATOM     46  H   UNL A   1      45.052  26.882  27.667  1.00  0.00     0.167 HD
ATOM     47  C   UNL A   1      41.220  28.555  28.952  1.00  0.00     0.037 A 
ATOM     48  C   UNL A   1      47.734  27.034  26.897  1.00  0.00     0.037 A 
ATOM     49  C   UNL A   1      42.168  29.633  29.084  1.00  0.00     0.049 A 
ATOM     50  C   UNL A   1      47.360  28.409  27.375  1.00  0.00     0.074 A 
ATOM     51  C   UNL A   1      41.963  30.906  29.584  1.00  0.00     0.029 A 
ATOM     52  N   UNL A   1      43.500  29.566  28.697  1.00  0.00    -0.354 N 
ATOM     53  N   UNL A   1      46.205  28.844  27.817  1.00  0.00    -0.248 NA
ATOM     54  C   UNL A   1      48.417  29.429  27.357  1.00  0.00     0.031 C 
ATOM     55  C   UNL A   1      43.153  31.629  29.445  1.00  0.00     0.029 A 
ATOM     56  C   UNL A   1      44.119  30.788  28.914  1.00  0.00     0.049 A 
ATOM     57  H   UNL A   1      43.941  28.768  28.323  1.00  0.00     0.167 HD
ATOM     58  C   UNL A   1      46.397  30.180  28.144  1.00  0.00     0.074 A 
ATOM     59  C   UNL A   1      47.788  30.478  27.870  1.00  0.00     0.031 C 
ATOM     60  C   UNL A   1      45.502  31.077  28.625  1.00  0.00     0.037 A 
BRANCH  47  61
ATOM     61  C   UNL A   1      39.789  28.808  29.330  1.00  0.00     0.064 A 
ATOM     62  C   UNL A   1      38.857  29.300  28.403  1.00  0.00     0.173 A 
ATOM     63  C   UNL A   1      39.336  28.543  30.633  1.00  0.00     0.173 A 
ATOM     64  F   UNL A   1      39.237  29.577  27.146  1.00  0.00    -0.203 F 
ATOM     65  C   UNL A   1      37.540  29.559  28.775  1.00  0.00     0.198 A 
ATOM     66  C   UNL A   1      38.010  28.769  30.991  1.00  0.00     0.198 A 
ATOM     67  F   UNL A   1      40.180  28.062  31.558  1.00  0.00    -0.203 F 
ATOM     68  F   UNL A   1      36.687  30.090  27.888  1.00  0.00    -0.200 F 
ATOM     69  C   UNL A   1      37.116  29.289  30.067  1.00  0.00     0.200 A 
ATOM     70  F   UNL A   1      37.597  28.492  32.236  1.00  0.00    -0.200 F 
ATOM     71  F   UNL A   1      35.849  29.539  30.424  1.00  0.00    -0.200 F 
ENDBRANCH  47  61
BRANCH  48  72
ATOM     72  C   UNL A   1      49.103  26.738  26.400  1.00  0.00     0.064 A 
ATOM     73  C   UNL A   1      49.447  26.939  25.057  1.00  0.00     0.173 A 
ATOM     74  C   UNL A   1      50.104  26.273  27.267  1.00  0.00     0.173 A 
ATOM     75  F   UNL A   1      48.520  27.364  24.186  1.00  0.00    -0.203 F 
ATOM     76  C   UNL A   1      50.736  26.677  24.596  1.00  0.00     0.198 A 
ATOM     77  C   UNL A   1      51.400  26.039  26.812  1.00  0.00     0.198 A 
ATOM     78  F   UNL A   1      49.830  26.070  28.563  1.00  0.00    -0.203 F 
ATOM     79  F   UNL A   1      51.029  26.844  23.299  1.00  0.00    -0.200 F 
ATOM     80  C   UNL A   1      51.713  26.236  25.476  1.00  0.00     0.200 A 
ATOM     81  F   UNL A   1      52.345  25.631  27.670  1.00  0.00    -0.200 F 
ATOM     82  F   UNL A   1      52.956  25.997  25.036  1.00  0.00    -0.200 F 
ENDBRANCH  48  72
BRANCH  60  83
ATOM     83  C   UNL A   1      46.000  32.468  28.896  1.00  0.00     0.064 A 
ATOM     84  C   UNL A   1      45.917  33.481  27.928  1.00  0.00     0.173 A 
ATOM     85  C   UNL A   1      46.526  32.805  30.153  1.00  0.00     0.173 A 
ATOM     86  F   UNL A   1      45.437  33.208  26.705  1.00  0.00    -0.203 F 
ATOM     87  C   UNL A   1      46.362  34.771  28.200  1.00  0.00     0.198 A 
ATOM     88  C   UNL A   1      46.942  34.104  30.432  1.00  0.00     0.198 A 
ATOM     89  F   UNL A   1      46.624  31.877  31.115  1.00  0.00    -0.203 F 
ATOM     90  F   UNL A   1      46.317  35.710  27.245  1.00  0.00    -0.200 F 
ATOM     91  C   UNL A   1      46.866  35.084  29.454  1.00  0.00     0.200 A 
ATOM     92  F   UNL A   1      47.415  34.407  31.649  1.00  0.00    -0.200 F 
ATOM     93  F   UNL A   1      47.286  36.329  29.718  1.00  0.00    -0.200 F 
ENDBRANCH  60  83
ENDBRANCH  34  35
ENDBRANCH  26  29
ENDBRANCH  24  25
ENDBRANCH  23  24
ENDBRANCH  22  23
ENDBRANCH  21  22
ENDBRANCH   1  21
TORSDOF 19
ENDMDL
MODEL 3
REMARK VINA RESULT:     -10.5      0.717      7.422
REMARK SMILES CC[C@@](C)(NC(=O)N(C)CCO)C(=O)NCCCCCCNC(=O)c1ccc(-c2c3nc(c(-c4c(F)c(F)c(F)c(F)c4F)c4ccc([nH]4)c(-c4c(F)c(F)c(F)c(F)c4F)c4nc(c(-c5c(F)c(F)c(F)c(F)c5F)c5ccc2[nH]5)C=C4)C=C3)cc1
REMARK SMILES IDX 17 1 16 2 15 3 13 4 14 5 3 7 4 8 2 9 1 10 5 11 6 12 7 14
REMARK SMILES IDX 8 15 9 16 10 17 11 18 12 19 18 21 19 22 20 23 21 24 22 25
REMARK SMILES IDX 23 26 24 28 25 29 26 30 87 31 27 32 86 33 28 34 29 35 30 36
REMARK SMILES IDX 80 37 31 38 85 39 79 40 81 41 32 42 84 43 78 44 77 45 33 47
REMARK SMILES IDX 65 48 45 49 64 50 46 51 49 52 63 53 82 54 47 55 48 56 62 58
REMARK SMILES IDX 83 59 50 60 34 61 35 62 43 63 36 64 37 65 41 66 44 67 38 68
REMARK SMILES IDX 39 69 42 70 40 71 66 72 67 73 75 74 68 75 69 76 73 77 76 78
REMARK SMILES IDX 70 79 71 80 74 81 72 82 51 83 52 84 60 85 53 86 54 87 58 88
REMARK SMILES IDX 61 89 55 90 56 91 59 92 57 93
REMARK H PARENT 15 6 5 13 12 20 22 27 81 46 49 57
REMARK Flexibility Score: inf
ROOT
ATOM      1  C   UNL A   1      33.153  28.401  26.878  1.00  0.00     0.021 C 
ENDROOT
BRANCH   1   2
ATOM      2  C   UNL A   1      32.800  27.030  26.327  1.00  0.00     0.116 C 
BRANCH   2   3
ATOM      3  N   UNL A   1      32.985  26.946  24.892  1.00  0.00    -0.354 N 
ATOM      4  C   UNL A   1      33.456  25.957  24.081  1.00  0.00     0.245 C 
ATOM      5  O   UNL A   1      33.486  26.232  22.876  1.00  0.00    -0.272 OA
ATOM      6  H   UNL A   1      32.720  27.762  24.409  1.00  0.00     0.163 HD
BRANCH   4   7
ATOM      7  C   UNL A   1      33.816  24.531  24.606  1.00  0.00     0.117 C 
ATOM      8  C   UNL A   1      34.259  23.718  23.351  1.00  0.00     0.045 C 
BRANCH   7   9
ATOM      9  C   UNL A   1      35.017  24.464  25.601  1.00  0.00     0.035 C 
ATOM     10  C   UNL A   1      36.258  23.700  25.142  1.00  0.00     0.007 C 
ENDBRANCH   7   9
BRANCH   7  11
ATOM     11  N   UNL A   1      32.654  23.820  25.215  1.00  0.00    -0.324 N 
ATOM     12  C   UNL A   1      32.351  22.641  25.788  1.00  0.00     0.318 C 
ATOM     13  H   UNL A   1      31.857  24.397  25.190  1.00  0.00     0.166 HD
ATOM     14  O   UNL A   1      31.137  22.458  25.938  1.00  0.00    -0.249 OA
BRANCH  12  15
ATOM     15  N   UNL A   1      33.260  21.761  26.302  1.00  0.00    -0.326 N 
ATOM     16  C   UNL A   1      33.882  21.823  27.612  1.00  0.00     0.148 C 
BRANCH  15  17
ATOM     17  C   UNL A   1      33.850  20.720  25.419  1.00  0.00     0.149 C 
BRANCH  17  18
ATOM     18  C   UNL A   1      33.110  19.374  25.264  1.00  0.00     0.177 C 
BRANCH  18  19
ATOM     19  O   UNL A   1      32.895  18.700  26.496  1.00  0.00    -0.395 OA
ATOM     20  H   UNL A   1      32.627  17.784  26.320  1.00  0.00     0.210 HD
ENDBRANCH  18  19
ENDBRANCH  17  18
ENDBRANCH  15  17
ENDBRANCH  12  15
ENDBRANCH   7  11
ENDBRANCH   4   7
ENDBRANCH   2   3
ENDBRANCH   1   2
BRANCH   1  21
ATOM     21  C   UNL A   1      31.972  29.328  27.169  1.00  0.00     0.002 C 
BRANCH  21  22
ATOM     22  C   UNL A   1      31.680  30.343  26.066  1.00  0.00     0.002 C 
BRANCH  22  23
ATOM     23  C   UNL A   1      31.482  31.779  26.557  1.00  0.00     0.021 C 
BRANCH  23  24
ATOM     24  C   UNL A   1      32.713  32.405  27.207  1.00  0.00     0.116 C 
BRANCH  24  25
ATOM     25  N   UNL A   1      32.513  33.812  27.508  1.00  0.00    -0.352 N 
ATOM     26  C   UNL A   1      33.104  34.578  28.481  1.00  0.00     0.251 C 
ATOM     27  H   UNL A   1      31.866  34.282  26.934  1.00  0.00     0.163 HD
ATOM     28  O   UNL A   1      32.665  35.694  28.749  1.00  0.00    -0.269 OA
BRANCH  26  29
ATOM     29  C   UNL A   1      34.257  34.040  29.232  1.00  0.00     0.039 A 
ATOM     30  C   UNL A   1      34.023  33.306  30.396  1.00  0.00     0.014 A 
ATOM     31  C   UNL A   1      35.562  34.243  28.774  1.00  0.00     0.014 A 
ATOM     32  C   UNL A   1      35.095  32.710  31.061  1.00  0.00     0.010 A 
ATOM     33  C   UNL A   1      36.621  33.585  29.395  1.00  0.00     0.010 A 
ATOM     34  C   UNL A   1      36.396  32.805  30.541  1.00  0.00    -0.014 A 
BRANCH  34  35
ATOM     35  C   UNL A   1      37.525  32.067  31.162  1.00  0.00     0.031 A 
ATOM     36  C   UNL A   1      38.023  32.440  32.528  1.00  0.00     0.074 A 
ATOM     37  C   UNL A   1      38.151  31.104  30.458  1.00  0.00     0.049 A 
ATOM     38  N   UNL A   1      39.035  31.954  33.203  1.00  0.00    -0.248 NA
ATOM     39  C   UNL A   1      37.303  33.521  33.218  1.00  0.00     0.031 C 
ATOM     40  C   UNL A   1      37.797  30.687  29.101  1.00  0.00     0.029 A 
ATOM     41  N   UNL A   1      39.226  30.313  30.779  1.00  0.00    -0.354 N 
ATOM     42  C   UNL A   1      39.075  32.669  34.392  1.00  0.00     0.074 A 
ATOM     43  C   UNL A   1      38.025  33.663  34.320  1.00  0.00     0.031 C 
ATOM     44  C   UNL A   1      38.630  29.712  28.709  1.00  0.00     0.029 A 
ATOM     45  C   UNL A   1      39.604  29.463  29.768  1.00  0.00     0.049 A 
ATOM     46  H   UNL A   1      39.683  30.351  31.651  1.00  0.00     0.167 HD
ATOM     47  C   UNL A   1      39.895  32.496  35.456  1.00  0.00     0.037 A 
ATOM     48  C   UNL A   1      40.632  28.597  29.693  1.00  0.00     0.037 A 
ATOM     49  C   UNL A   1      40.941  31.507  35.520  1.00  0.00     0.049 A 
ATOM     50  C   UNL A   1      41.550  28.441  30.872  1.00  0.00     0.074 A 
ATOM     51  C   UNL A   1      41.791  31.215  36.571  1.00  0.00     0.029 A 
ATOM     52  N   UNL A   1      41.290  30.657  34.478  1.00  0.00    -0.354 N 
ATOM     53  N   UNL A   1      41.529  29.066  32.024  1.00  0.00    -0.248 NA
ATOM     54  C   UNL A   1      42.634  27.456  30.745  1.00  0.00     0.031 C 
ATOM     55  C   UNL A   1      42.693  30.232  36.148  1.00  0.00     0.029 A 
ATOM     56  C   UNL A   1      42.367  29.867  34.852  1.00  0.00     0.049 A 
ATOM     57  H   UNL A   1      40.840  30.622  33.603  1.00  0.00     0.167 HD
ATOM     58  C   UNL A   1      42.581  28.543  32.764  1.00  0.00     0.074 A 
ATOM     59  C   UNL A   1      43.208  27.532  31.937  1.00  0.00     0.031 C 
ATOM     60  C   UNL A   1      42.991  28.872  34.014  1.00  0.00     0.037 A 
BRANCH  47  61
ATOM     61  C   UNL A   1      39.695  33.406  36.635  1.00  0.00     0.064 A 
ATOM     62  C   UNL A   1      40.383  34.624  36.751  1.00  0.00     0.173 A 
ATOM     63  C   UNL A   1      38.796  33.064  37.657  1.00  0.00     0.173 A 
ATOM     64  F   UNL A   1      41.260  34.997  35.806  1.00  0.00    -0.203 F 
ATOM     65  C   UNL A   1      40.211  35.444  37.864  1.00  0.00     0.198 A 
ATOM     66  C   UNL A   1      38.600  33.904  38.751  1.00  0.00     0.198 A 
ATOM     67  F   UNL A   1      38.104  31.917  37.595  1.00  0.00    -0.203 F 
ATOM     68  F   UNL A   1      40.928  36.570  37.981  1.00  0.00    -0.200 F 
ATOM     69  C   UNL A   1      39.316  35.086  38.860  1.00  0.00     0.200 A 
ATOM     70  F   UNL A   1      37.722  33.564  39.706  1.00  0.00    -0.200 F 
ATOM     71  F   UNL A   1      39.152  35.875  39.931  1.00  0.00    -0.200 F 
ENDBRANCH  47  61
BRANCH  48  72
ATOM     72  C   UNL A   1      40.837  27.811  28.448  1.00  0.00     0.064 A 
ATOM     73  C   UNL A   1      41.691  28.266  27.436  1.00  0.00     0.173 A 
ATOM     74  C   UNL A   1      40.202  26.574  28.259  1.00  0.00     0.173 A 
ATOM     75  F   UNL A   1      42.305  29.452  27.561  1.00  0.00    -0.203 F 
ATOM     76  C   UNL A   1      41.895  27.520  26.276  1.00  0.00     0.198 A 
ATOM     77  C   UNL A   1      40.429  25.815  27.114  1.00  0.00     0.198 A 
ATOM     78  F   UNL A   1      39.380  26.089  29.201  1.00  0.00    -0.203 F 
ATOM     79  F   UNL A   1      42.689  27.995  25.307  1.00  0.00    -0.200 F 
ATOM     80  C   UNL A   1      41.271  26.291  26.120  1.00  0.00     0.200 A 
ATOM     81  F   UNL A   1      39.839  24.619  26.976  1.00  0.00    -0.200 F 
ATOM     82  F   UNL A   1      41.478  25.568  25.012  1.00  0.00    -0.200 F 
ENDBRANCH  48  72
BRANCH  60  83
ATOM     83  C   UNL A   1      44.170  28.126  34.570  1.00  0.00     0.064 A 
ATOM     84  C   UNL A   1      45.477  28.626  34.459  1.00  0.00     0.173 A 
ATOM     85  C   UNL A   1      43.987  26.919  35.263  1.00  0.00     0.173 A 
ATOM     86  F   UNL A   1      45.708  29.767  33.793  1.00  0.00    -0.203 F 
ATOM     87  C   UNL A   1      46.557  27.933  34.998  1.00  0.00     0.198 A 
ATOM     88  C   UNL A   1      45.066  26.245  35.828  1.00  0.00     0.198 A 
ATOM     89  F   UNL A   1      42.759  26.398  35.403  1.00  0.00    -0.203 F 
ATOM     90  F   UNL A   1      47.801  28.406  34.838  1.00  0.00    -0.200 F 
ATOM     91  C   UNL A   1      46.351  26.749  35.690  1.00  0.00     0.200 A 
ATOM     92  F   UNL A   1      44.863  25.108  36.509  1.00  0.00    -0.200 F 
ATOM     93  F   UNL A   1      47.391  26.089  36.217  1.00  0.00    -0.200 F 
ENDBRANCH  60  83
ENDBRANCH  34  35
ENDBRANCH  26  29
ENDBRANCH  24  25
ENDBRANCH  23  24
ENDBRANCH  22  23
ENDBRANCH  21  22
ENDBRANCH   1  21
TORSDOF 19
ENDMDL
