MODEL 1
REMARK VINA RESULT:     -11.5      0.000      0.000
REMARK SMILES COCCNS(=O)(=O)c1c[nH]c(C(=O)NCCCCCCNC(=O)c2ccc(-c3c4nc(c(-c5c(F)c(F)c(F)c(F)c5F)c5ccc([nH]5)c(-c5c(F)c(F)c(F)c(F)c5F)c5nc(c(-c6c(F)c(F)c(F)c(F)c6F)c6ccc3[nH]6)C=C5)C=C4)cc2)c1
REMARK SMILES IDX 17 1 16 2 15 3 13 4 14 5 12 7 9 8 10 9 88 10 11 11 6 13 7 14
REMARK SMILES IDX 8 15 5 16 4 18 3 19 2 20 1 21 18 22 19 23 20 24 21 25 22 26
REMARK SMILES IDX 23 27 24 29 25 30 26 31 87 32 27 33 86 34 28 35 29 36 30 37
REMARK SMILES IDX 80 38 31 39 85 40 79 41 81 42 32 43 84 44 78 45 77 46 33 48
REMARK SMILES IDX 65 49 45 50 64 51 46 52 49 53 63 54 82 55 47 56 48 57 62 59
REMARK SMILES IDX 83 60 50 61 34 62 35 63 43 64 36 65 37 66 41 67 44 68 38 69
REMARK SMILES IDX 39 70 42 71 40 72 66 73 67 74 75 75 68 76 69 77 73 78 76 79
REMARK SMILES IDX 70 80 71 81 74 82 72 83 51 84 52 85 60 86 53 87 54 88 58 89
REMARK SMILES IDX 61 90 55 91 56 92 59 93 57 94
REMARK H PARENT 15 6 11 12 5 17 22 28 81 47 49 58
REMARK Flexibility Score: inf
ROOT
ATOM      1  C   UNL A   1      33.375  25.414  25.954  1.00  0.00     0.021 C 
ENDROOT
BRANCH   1   2
ATOM      2  C   UNL A   1      31.960  24.869  26.143  1.00  0.00     0.116 C 
BRANCH   2   3
ATOM      3  N   UNL A   1      31.558  24.096  24.988  1.00  0.00    -0.351 N 
ATOM      4  C   UNL A   1      30.759  24.397  23.921  1.00  0.00     0.267 C 
ATOM      5  O   UNL A   1      30.644  23.535  23.049  1.00  0.00    -0.268 OA
ATOM      6  H   UNL A   1      31.928  23.183  24.968  1.00  0.00     0.163 HD
BRANCH   4   7
ATOM      7  C   UNL A   1      30.140  25.694  23.770  1.00  0.00     0.105 A 
ATOM      8  C   UNL A   1      29.420  27.766  23.185  1.00  0.00     0.100 A 
ATOM      9  C   UNL A   1      28.364  27.098  23.764  1.00  0.00     0.104 A 
ATOM     10  C   UNL A   1      30.559  26.927  23.295  1.00  0.00     0.055 A 
ATOM     11  N   UNL A   1      28.828  25.875  24.169  1.00  0.00    -0.356 N 
ATOM     12  H   UNL A   1      28.299  25.214  24.673  1.00  0.00     0.166 HD
BRANCH   8  13
ATOM     13  S   UNL A   1      29.386  29.300  22.396  1.00  0.00     0.242 S 
ATOM     14  O   UNL A   1      28.126  29.334  21.702  1.00  0.00    -0.207 OA
ATOM     15  O   UNL A   1      30.654  29.385  21.693  1.00  0.00    -0.207 OA
BRANCH  13  16
ATOM     16  N   UNL A   1      29.407  30.529  23.547  1.00  0.00    -0.209 NA
ATOM     17  H   UNL A   1      29.454  30.092  24.468  1.00  0.00     0.141 HD
BRANCH  16  18
ATOM     18  C   UNL A   1      28.248  31.449  23.541  1.00  0.00     0.127 C 
BRANCH  18  19
ATOM     19  C   UNL A   1      28.368  32.471  22.404  1.00  0.00     0.176 C 
BRANCH  19  20
ATOM     20  O   UNL A   1      28.546  33.813  22.864  1.00  0.00    -0.383 OA
ATOM     21  C   UNL A   1      29.759  34.044  23.561  1.00  0.00     0.194 C 
ENDBRANCH  19  20
ENDBRANCH  18  19
ENDBRANCH  16  18
ENDBRANCH  13  16
ENDBRANCH   8  13
ENDBRANCH   4   7
ENDBRANCH   2   3
ENDBRANCH   1   2
BRANCH   1  22
ATOM     22  C   UNL A   1      33.400  26.905  25.593  1.00  0.00     0.002 C 
BRANCH  22  23
ATOM     23  C   UNL A   1      32.470  27.786  26.440  1.00  0.00     0.002 C 
BRANCH  23  24
ATOM     24  C   UNL A   1      33.163  28.951  27.162  1.00  0.00     0.021 C 
BRANCH  24  25
ATOM     25  C   UNL A   1      34.665  29.011  26.890  1.00  0.00     0.116 C 
BRANCH  25  26
ATOM     26  N   UNL A   1      35.162  30.341  27.193  1.00  0.00    -0.352 N 
ATOM     27  C   UNL A   1      36.216  30.776  27.942  1.00  0.00     0.251 C 
ATOM     28  H   UNL A   1      34.640  31.067  26.779  1.00  0.00     0.163 HD
ATOM     29  O   UNL A   1      36.214  31.944  28.326  1.00  0.00    -0.269 OA
BRANCH  27  30
ATOM     30  C   UNL A   1      37.347  29.904  28.316  1.00  0.00     0.039 A 
ATOM     31  C   UNL A   1      38.426  29.844  27.421  1.00  0.00     0.014 A 
ATOM     32  C   UNL A   1      37.326  29.072  29.440  1.00  0.00     0.014 A 
ATOM     33  C   UNL A   1      39.502  29.002  27.673  1.00  0.00     0.010 A 
ATOM     34  C   UNL A   1      38.412  28.244  29.712  1.00  0.00     0.010 A 
ATOM     35  C   UNL A   1      39.506  28.227  28.837  1.00  0.00    -0.014 A 
BRANCH  35  36
ATOM     36  C   UNL A   1      40.763  27.555  29.233  1.00  0.00     0.031 A 
ATOM     37  C   UNL A   1      40.949  26.217  28.484  1.00  0.00     0.074 A 
ATOM     38  C   UNL A   1      41.541  28.199  30.156  1.00  0.00     0.049 A 
ATOM     39  N   UNL A   1      41.726  25.211  28.747  1.00  0.00    -0.248 NA
ATOM     40  C   UNL A   1      40.124  25.942  27.272  1.00  0.00     0.031 C 
ATOM     41  C   UNL A   1      41.218  29.516  30.745  1.00  0.00     0.029 A 
ATOM     42  N   UNL A   1      42.736  27.905  30.787  1.00  0.00    -0.354 N 
ATOM     43  C   UNL A   1      41.654  24.318  27.651  1.00  0.00     0.074 A 
ATOM     44  C   UNL A   1      40.572  24.765  26.833  1.00  0.00     0.031 C 
ATOM     45  C   UNL A   1      42.130  29.867  31.677  1.00  0.00     0.029 A 
ATOM     46  C   UNL A   1      43.146  28.838  31.781  1.00  0.00     0.049 A 
ATOM     47  H   UNL A   1      43.267  27.105  30.564  1.00  0.00     0.167 HD
ATOM     48  C   UNL A   1      42.595  23.357  27.413  1.00  0.00     0.037 A 
ATOM     49  C   UNL A   1      44.211  28.776  32.644  1.00  0.00     0.037 A 
ATOM     50  C   UNL A   1      43.530  23.327  28.483  1.00  0.00     0.049 A 
ATOM     51  C   UNL A   1      45.016  27.644  32.170  1.00  0.00     0.074 A 
ATOM     52  C   UNL A   1      43.428  22.912  29.783  1.00  0.00     0.029 A 
ATOM     53  N   UNL A   1      44.658  24.094  28.338  1.00  0.00    -0.354 N 
ATOM     54  N   UNL A   1      45.758  27.673  31.104  1.00  0.00    -0.248 NA
ATOM     55  C   UNL A   1      44.956  26.372  32.900  1.00  0.00     0.031 C 
ATOM     56  C   UNL A   1      44.240  23.827  30.481  1.00  0.00     0.029 A 
ATOM     57  C   UNL A   1      44.953  24.614  29.570  1.00  0.00     0.049 A 
ATOM     58  H   UNL A   1      45.160  24.243  27.505  1.00  0.00     0.167 HD
ATOM     59  C   UNL A   1      45.958  26.337  30.862  1.00  0.00     0.074 A 
ATOM     60  C   UNL A   1      45.757  25.650  32.120  1.00  0.00     0.031 C 
ATOM     61  C   UNL A   1      45.691  25.852  29.624  1.00  0.00     0.037 A 
BRANCH  48  62
ATOM     62  C   UNL A   1      42.957  22.567  26.181  1.00  0.00     0.064 A 
ATOM     63  C   UNL A   1      42.935  21.150  26.272  1.00  0.00     0.173 A 
ATOM     64  C   UNL A   1      43.679  23.103  25.108  1.00  0.00     0.173 A 
ATOM     65  F   UNL A   1      42.225  20.533  27.230  1.00  0.00    -0.203 F 
ATOM     66  C   UNL A   1      43.723  20.343  25.453  1.00  0.00     0.198 A 
ATOM     67  C   UNL A   1      44.424  22.284  24.253  1.00  0.00     0.198 A 
ATOM     68  F   UNL A   1      43.770  24.425  24.923  1.00  0.00    -0.203 F 
ATOM     69  F   UNL A   1      43.799  19.026  25.688  1.00  0.00    -0.200 F 
ATOM     70  C   UNL A   1      44.486  20.915  24.457  1.00  0.00     0.200 A 
ATOM     71  F   UNL A   1      45.155  22.840  23.277  1.00  0.00    -0.200 F 
ATOM     72  F   UNL A   1      45.308  20.157  23.720  1.00  0.00    -0.200 F 
ENDBRANCH  48  62
BRANCH  49  73
ATOM     73  C   UNL A   1      44.741  29.477  33.881  1.00  0.00     0.064 A 
ATOM     74  C   UNL A   1      45.900  30.257  33.959  1.00  0.00     0.173 A 
ATOM     75  C   UNL A   1      43.975  29.464  35.087  1.00  0.00     0.173 A 
ATOM     76  F   UNL A   1      46.784  30.285  32.958  1.00  0.00    -0.203 F 
ATOM     77  C   UNL A   1      46.197  31.044  35.090  1.00  0.00     0.198 A 
ATOM     78  C   UNL A   1      44.237  30.285  36.184  1.00  0.00     0.198 A 
ATOM     79  F   UNL A   1      42.921  28.653  35.248  1.00  0.00    -0.203 F 
ATOM     80  F   UNL A   1      47.317  31.781  35.109  1.00  0.00    -0.200 F 
ATOM     81  C   UNL A   1      45.345  31.093  36.179  1.00  0.00     0.200 A 
ATOM     82  F   UNL A   1      43.389  30.294  37.223  1.00  0.00    -0.200 F 
ATOM     83  F   UNL A   1      45.592  31.901  37.218  1.00  0.00    -0.200 F 
ENDBRANCH  49  73
BRANCH  61  84
ATOM     84  C   UNL A   1      45.817  26.886  28.520  1.00  0.00     0.064 A 
ATOM     85  C   UNL A   1      47.074  27.434  28.218  1.00  0.00     0.173 A 
ATOM     86  C   UNL A   1      44.724  27.449  27.838  1.00  0.00     0.173 A 
ATOM     87  F   UNL A   1      48.175  26.940  28.806  1.00  0.00    -0.203 F 
ATOM     88  C   UNL A   1      47.220  28.491  27.315  1.00  0.00     0.198 A 
ATOM     89  C   UNL A   1      44.867  28.502  26.932  1.00  0.00     0.198 A 
ATOM     90  F   UNL A   1      43.491  26.986  28.032  1.00  0.00    -0.203 F 
ATOM     91  F   UNL A   1      48.439  28.986  27.061  1.00  0.00    -0.200 F 
ATOM     92  C   UNL A   1      46.116  29.028  26.675  1.00  0.00     0.200 A 
ATOM     93  F   UNL A   1      43.788  28.998  26.305  1.00  0.00    -0.200 F 
ATOM     94  F   UNL A   1      46.258  30.035  25.802  1.00  0.00    -0.200 F 
ENDBRANCH  61  84
ENDBRANCH  35  36
ENDBRANCH  27  30
ENDBRANCH  25  26
ENDBRANCH  24  25
ENDBRANCH  23  24
ENDBRANCH  22  23
ENDBRANCH   1  22
TORSDOF 18
ENDMDL
MODEL 2
REMARK VINA RESULT:     -10.8      2.394      8.237
REMARK SMILES COCCNS(=O)(=O)c1c[nH]c(C(=O)NCCCCCCNC(=O)c2ccc(-c3c4nc(c(-c5c(F)c(F)c(F)c(F)c5F)c5ccc([nH]5)c(-c5c(F)c(F)c(F)c(F)c5F)c5nc(c(-c6c(F)c(F)c(F)c(F)c6F)c6ccc3[nH]6)C=C5)C=C4)cc2)c1
REMARK SMILES IDX 17 1 16 2 15 3 13 4 14 5 12 7 9 8 10 9 88 10 11 11 6 13 7 14
REMARK SMILES IDX 8 15 5 16 4 18 3 19 2 20 1 21 18 22 19 23 20 24 21 25 22 26
REMARK SMILES IDX 23 27 24 29 25 30 26 31 87 32 27 33 86 34 28 35 29 36 30 37
REMARK SMILES IDX 80 38 31 39 85 40 79 41 81 42 32 43 84 44 78 45 77 46 33 48
REMARK SMILES IDX 65 49 45 50 64 51 46 52 49 53 63 54 82 55 47 56 48 57 62 59
REMARK SMILES IDX 83 60 50 61 34 62 35 63 43 64 36 65 37 66 41 67 44 68 38 69
REMARK SMILES IDX 39 70 42 71 40 72 66 73 67 74 75 75 68 76 69 77 73 78 76 79
REMARK SMILES IDX 70 80 71 81 74 82 72 83 51 84 52 85 60 86 53 87 54 88 58 89
REMARK SMILES IDX 61 90 55 91 56 92 59 93 57 94
REMARK H PARENT 15 6 11 12 5 17 22 28 81 47 49 58
REMARK Flexibility Score: inf
ROOT
ATOM      1  C   UNL A   1      33.546  27.022  26.003  1.00  0.00     0.021 C 
ENDROOT
BRANCH   1   2
ATOM      2  C   UNL A   1      32.704  26.004  25.236  1.00  0.00     0.116 C 
BRANCH   2   3
ATOM      3  N   UNL A   1      33.303  25.720  23.950  1.00  0.00    -0.351 N 
ATOM      4  C   UNL A   1      33.067  26.224  22.701  1.00  0.00     0.267 C 
ATOM      5  O   UNL A   1      33.790  25.819  21.790  1.00  0.00    -0.268 OA
ATOM      6  H   UNL A   1      34.012  25.037  23.979  1.00  0.00     0.163 HD
BRANCH   4   7
ATOM      7  C   UNL A   1      32.075  27.247  22.464  1.00  0.00     0.105 A 
ATOM      8  C   UNL A   1      30.283  28.639  22.381  1.00  0.00     0.100 A 
ATOM      9  C   UNL A   1      31.415  29.392  22.165  1.00  0.00     0.104 A 
ATOM     10  C   UNL A   1      30.689  27.281  22.453  1.00  0.00     0.055 A 
ATOM     11  N   UNL A   1      32.481  28.533  22.154  1.00  0.00    -0.356 N 
ATOM     12  H   UNL A   1      33.410  28.795  21.954  1.00  0.00     0.166 HD
BRANCH   8  13
ATOM     13  S   UNL A   1      28.670  29.209  22.606  1.00  0.00     0.242 S 
ATOM     14  O   UNL A   1      27.979  28.125  23.252  1.00  0.00    -0.207 OA
ATOM     15  O   UNL A   1      28.268  29.711  21.304  1.00  0.00    -0.207 OA
BRANCH  13  16
ATOM     16  N   UNL A   1      28.679  30.540  23.637  1.00  0.00    -0.209 NA
ATOM     17  H   UNL A   1      28.426  30.214  24.570  1.00  0.00     0.141 HD
BRANCH  16  18
ATOM     18  C   UNL A   1      27.764  31.648  23.281  1.00  0.00     0.127 C 
BRANCH  18  19
ATOM     19  C   UNL A   1      28.523  32.780  22.581  1.00  0.00     0.176 C 
BRANCH  19  20
ATOM     20  O   UNL A   1      27.755  33.438  21.570  1.00  0.00    -0.383 OA
ATOM     21  C   UNL A   1      27.806  32.822  20.293  1.00  0.00     0.194 C 
ENDBRANCH  19  20
ENDBRANCH  18  19
ENDBRANCH  16  18
ENDBRANCH  13  16
ENDBRANCH   8  13
ENDBRANCH   4   7
ENDBRANCH   2   3
ENDBRANCH   1   2
BRANCH   1  22
ATOM     22  C   UNL A   1      33.343  28.461  25.511  1.00  0.00     0.002 C 
BRANCH  22  23
ATOM     23  C   UNL A   1      32.044  29.126  25.990  1.00  0.00     0.002 C 
BRANCH  23  24
ATOM     24  C   UNL A   1      32.236  30.269  26.998  1.00  0.00     0.021 C 
BRANCH  24  25
ATOM     25  C   UNL A   1      33.694  30.453  27.418  1.00  0.00     0.116 C 
BRANCH  25  26
ATOM     26  N   UNL A   1      33.794  31.552  28.362  1.00  0.00    -0.352 N 
ATOM     27  C   UNL A   1      34.682  31.821  29.362  1.00  0.00     0.251 C 
ATOM     28  H   UNL A   1      33.088  32.230  28.262  1.00  0.00     0.163 HD
ATOM     29  O   UNL A   1      34.349  32.620  30.236  1.00  0.00    -0.269 OA
BRANCH  27  30
ATOM     30  C   UNL A   1      36.014  31.190  29.443  1.00  0.00     0.039 A 
ATOM     31  C   UNL A   1      36.861  31.352  28.336  1.00  0.00     0.014 A 
ATOM     32  C   UNL A   1      36.401  30.364  30.503  1.00  0.00     0.014 A 
ATOM     33  C   UNL A   1      38.108  30.740  28.311  1.00  0.00     0.010 A 
ATOM     34  C   UNL A   1      37.659  29.767  30.496  1.00  0.00     0.010 A 
ATOM     35  C   UNL A   1      38.517  29.974  29.408  1.00  0.00    -0.014 A 
BRANCH  35  36
ATOM     36  C   UNL A   1      39.936  29.564  29.493  1.00  0.00     0.031 A 
ATOM     37  C   UNL A   1      40.811  30.682  30.102  1.00  0.00     0.074 A 
ATOM     38  C   UNL A   1      40.242  28.308  29.046  1.00  0.00     0.049 A 
ATOM     39  N   UNL A   1      42.098  30.847  30.075  1.00  0.00    -0.248 NA
ATOM     40  C   UNL A   1      40.152  31.804  30.831  1.00  0.00     0.031 C 
ATOM     41  C   UNL A   1      39.251  27.344  28.522  1.00  0.00     0.029 A 
ATOM     42  N   UNL A   1      41.413  27.580  28.934  1.00  0.00    -0.354 N 
ATOM     43  C   UNL A   1      42.410  31.922  30.940  1.00  0.00     0.074 A 
ATOM     44  C   UNL A   1      41.168  32.539  31.285  1.00  0.00     0.031 C 
ATOM     45  C   UNL A   1      39.852  26.215  28.091  1.00  0.00     0.029 A 
ATOM     46  C   UNL A   1      41.283  26.310  28.302  1.00  0.00     0.049 A 
ATOM     47  H   UNL A   1      42.276  27.917  29.267  1.00  0.00     0.167 HD
ATOM     48  C   UNL A   1      43.663  32.136  31.438  1.00  0.00     0.037 A 
ATOM     49  C   UNL A   1      42.258  25.412  27.952  1.00  0.00     0.037 A 
ATOM     50  C   UNL A   1      44.575  31.217  30.851  1.00  0.00     0.049 A 
ATOM     51  C   UNL A   1      43.482  25.913  28.589  1.00  0.00     0.074 A 
ATOM     52  C   UNL A   1      45.089  31.112  29.586  1.00  0.00     0.029 A 
ATOM     53  N   UNL A   1      44.791  30.044  31.528  1.00  0.00    -0.354 N 
ATOM     54  N   UNL A   1      43.727  25.829  29.862  1.00  0.00    -0.248 NA
ATOM     55  C   UNL A   1      44.483  26.602  27.767  1.00  0.00     0.031 C 
ATOM     56  C   UNL A   1      45.181  29.721  29.387  1.00  0.00     0.029 A 
ATOM     57  C   UNL A   1      44.921  29.055  30.590  1.00  0.00     0.049 A 
ATOM     58  H   UNL A   1      44.843  29.934  32.504  1.00  0.00     0.167 HD
ATOM     59  C   UNL A   1      44.727  26.756  30.018  1.00  0.00     0.074 A 
ATOM     60  C   UNL A   1      45.350  26.921  28.723  1.00  0.00     0.031 C 
ATOM     61  C   UNL A   1      44.591  27.705  30.977  1.00  0.00     0.037 A 
BRANCH  48  62
ATOM     62  C   UNL A   1      44.172  32.926  32.617  1.00  0.00     0.064 A 
ATOM     63  C   UNL A   1      43.723  32.549  33.911  1.00  0.00     0.173 A 
ATOM     64  C   UNL A   1      44.715  34.211  32.506  1.00  0.00     0.173 A 
ATOM     65  F   UNL A   1      43.238  31.317  34.139  1.00  0.00    -0.203 F 
ATOM     66  C   UNL A   1      43.663  33.455  34.967  1.00  0.00     0.198 A 
ATOM     67  C   UNL A   1      44.704  35.101  33.585  1.00  0.00     0.198 A 
ATOM     68  F   UNL A   1      45.168  34.675  31.335  1.00  0.00    -0.203 F 
ATOM     69  F   UNL A   1      43.075  33.101  36.119  1.00  0.00    -0.200 F 
ATOM     70  C   UNL A   1      44.134  34.740  34.796  1.00  0.00     0.200 A 
ATOM     71  F   UNL A   1      45.173  36.345  33.422  1.00  0.00    -0.200 F 
ATOM     72  F   UNL A   1      44.004  35.641  35.778  1.00  0.00    -0.200 F 
ENDBRANCH  48  62
BRANCH  49  73
ATOM     73  C   UNL A   1      42.427  24.150  27.125  1.00  0.00     0.064 A 
ATOM     74  C   UNL A   1      42.898  24.078  25.810  1.00  0.00     0.173 A 
ATOM     75  C   UNL A   1      42.198  22.874  27.724  1.00  0.00     0.173 A 
ATOM     76  F   UNL A   1      43.054  25.178  25.068  1.00  0.00    -0.203 F 
ATOM     77  C   UNL A   1      43.225  22.851  25.199  1.00  0.00     0.198 A 
ATOM     78  C   UNL A   1      42.574  21.663  27.143  1.00  0.00     0.198 A 
ATOM     79  F   UNL A   1      41.604  22.748  28.919  1.00  0.00    -0.203 F 
ATOM     80  F   UNL A   1      43.682  22.838  23.938  1.00  0.00    -0.200 F 
ATOM     81  C   UNL A   1      43.106  21.651  25.880  1.00  0.00     0.200 A 
ATOM     82  F   UNL A   1      42.433  20.522  27.835  1.00  0.00    -0.200 F 
ATOM     83  F   UNL A   1      43.492  20.496  25.323  1.00  0.00    -0.200 F 
ENDBRANCH  49  73
BRANCH  61  84
ATOM     84  C   UNL A   1      43.713  27.281  32.141  1.00  0.00     0.064 A 
ATOM     85  C   UNL A   1      42.516  27.968  32.397  1.00  0.00     0.173 A 
ATOM     86  C   UNL A   1      44.076  26.308  33.089  1.00  0.00     0.173 A 
ATOM     87  F   UNL A   1      42.083  28.898  31.531  1.00  0.00    -0.203 F 
ATOM     88  C   UNL A   1      41.749  27.714  33.537  1.00  0.00     0.198 A 
ATOM     89  C   UNL A   1      43.309  26.048  34.227  1.00  0.00     0.198 A 
ATOM     90  F   UNL A   1      45.179  25.582  32.928  1.00  0.00    -0.203 F 
ATOM     91  F   UNL A   1      40.614  28.397  33.744  1.00  0.00    -0.200 F 
ATOM     92  C   UNL A   1      42.148  26.757  34.455  1.00  0.00     0.200 A 
ATOM     93  F   UNL A   1      43.701  25.103  35.097  1.00  0.00    -0.200 F 
ATOM     94  F   UNL A   1      41.407  26.507  35.544  1.00  0.00    -0.200 F 
ENDBRANCH  61  84
ENDBRANCH  35  36
ENDBRANCH  27  30
ENDBRANCH  25  26
ENDBRANCH  24  25
ENDBRANCH  23  24
ENDBRANCH  22  23
ENDBRANCH   1  22
TORSDOF 18
ENDMDL
MODEL 3
REMARK VINA RESULT:     -10.8      3.959      6.020
REMARK SMILES COCCNS(=O)(=O)c1c[nH]c(C(=O)NCCCCCCNC(=O)c2ccc(-c3c4nc(c(-c5c(F)c(F)c(F)c(F)c5F)c5ccc([nH]5)c(-c5c(F)c(F)c(F)c(F)c5F)c5nc(c(-c6c(F)c(F)c(F)c(F)c6F)c6ccc3[nH]6)C=C5)C=C4)cc2)c1
REMARK SMILES IDX 17 1 16 2 15 3 13 4 14 5 12 7 9 8 10 9 88 10 11 11 6 13 7 14
REMARK SMILES IDX 8 15 5 16 4 18 3 19 2 20 1 21 18 22 19 23 20 24 21 25 22 26
REMARK SMILES IDX 23 27 24 29 25 30 26 31 87 32 27 33 86 34 28 35 29 36 30 37
REMARK SMILES IDX 80 38 31 39 85 40 79 41 81 42 32 43 84 44 78 45 77 46 33 48
REMARK SMILES IDX 65 49 45 50 64 51 46 52 49 53 63 54 82 55 47 56 48 57 62 59
REMARK SMILES IDX 83 60 50 61 34 62 35 63 43 64 36 65 37 66 41 67 44 68 38 69
REMARK SMILES IDX 39 70 42 71 40 72 66 73 67 74 75 75 68 76 69 77 73 78 76 79
REMARK SMILES IDX 70 80 71 81 74 82 72 83 51 84 52 85 60 86 53 87 54 88 58 89
REMARK SMILES IDX 61 90 55 91 56 92 59 93 57 94
REMARK H PARENT 15 6 11 12 5 17 22 28 81 47 49 58
REMARK Flexibility Score: inf
ROOT
ATOM      1  C   UNL A   1      32.570  28.751  27.222  1.00  0.00     0.021 C 
ENDROOT
BRANCH   1   2
ATOM      2  C   UNL A   1      31.501  27.711  26.890  1.00  0.00     0.116 C 
BRANCH   2   3
ATOM      3  N   UNL A   1      32.036  26.702  26.002  1.00  0.00    -0.351 N 
ATOM      4  C   UNL A   1      31.846  26.463  24.670  1.00  0.00     0.267 C 
ATOM      5  O   UNL A   1      32.495  25.544  24.169  1.00  0.00    -0.268 OA
ATOM      6  H   UNL A   1      32.652  26.069  26.439  1.00  0.00     0.163 HD
BRANCH   4   7
ATOM      7  C   UNL A   1      30.989  27.297  23.858  1.00  0.00     0.105 A 
ATOM      8  C   UNL A   1      29.372  28.582  22.914  1.00  0.00     0.100 A 
ATOM      9  C   UNL A   1      30.592  29.047  22.477  1.00  0.00     0.104 A 
ATOM     10  C   UNL A   1      29.619  27.416  23.685  1.00  0.00     0.055 A 
ATOM     11  N   UNL A   1      31.554  28.226  23.002  1.00  0.00    -0.356 N 
ATOM     12  H   UNL A   1      32.516  28.289  22.799  1.00  0.00     0.166 HD
BRANCH   8  13
ATOM     13  S   UNL A   1      27.822  29.296  22.659  1.00  0.00     0.242 S 
ATOM     14  O   UNL A   1      26.879  28.326  23.146  1.00  0.00    -0.207 OA
ATOM     15  O   UNL A   1      27.836  29.728  21.273  1.00  0.00    -0.207 OA
BRANCH  13  16
ATOM     16  N   UNL A   1      27.688  30.698  23.583  1.00  0.00    -0.209 NA
ATOM     17  H   UNL A   1      26.808  31.151  23.336  1.00  0.00     0.141 HD
BRANCH  16  18
ATOM     18  C   UNL A   1      28.771  31.694  23.420  1.00  0.00     0.127 C 
BRANCH  18  19
ATOM     19  C   UNL A   1      28.311  32.861  22.540  1.00  0.00     0.176 C 
BRANCH  19  20
ATOM     20  O   UNL A   1      28.721  34.139  23.033  1.00  0.00    -0.383 OA
ATOM     21  C   UNL A   1      29.974  34.144  23.697  1.00  0.00     0.194 C 
ENDBRANCH  19  20
ENDBRANCH  18  19
ENDBRANCH  16  18
ENDBRANCH  13  16
ENDBRANCH   8  13
ENDBRANCH   4   7
ENDBRANCH   2   3
ENDBRANCH   1   2
BRANCH   1  22
ATOM     22  C   UNL A   1      32.711  29.832  26.142  1.00  0.00     0.002 C 
BRANCH  22  23
ATOM     23  C   UNL A   1      31.420  30.605  25.835  1.00  0.00     0.002 C 
BRANCH  23  24
ATOM     24  C   UNL A   1      31.323  31.989  26.494  1.00  0.00     0.021 C 
BRANCH  24  25
ATOM     25  C   UNL A   1      32.618  32.410  27.188  1.00  0.00     0.116 C 
BRANCH  25  26
ATOM     26  N   UNL A   1      32.546  33.817  27.540  1.00  0.00    -0.352 N 
ATOM     27  C   UNL A   1      33.146  34.545  28.526  1.00  0.00     0.251 C 
ATOM     28  H   UNL A   1      31.953  34.345  26.959  1.00  0.00     0.163 HD
ATOM     29  O   UNL A   1      32.653  35.631  28.828  1.00  0.00    -0.269 OA
BRANCH  27  30
ATOM     30  C   UNL A   1      34.348  34.081  29.247  1.00  0.00     0.039 A 
ATOM     31  C   UNL A   1      34.144  33.477  30.497  1.00  0.00     0.014 A 
ATOM     32  C   UNL A   1      35.648  34.322  28.791  1.00  0.00     0.014 A 
ATOM     33  C   UNL A   1      35.228  33.067  31.263  1.00  0.00     0.010 A 
ATOM     34  C   UNL A   1      36.738  33.890  29.542  1.00  0.00     0.010 A 
ATOM     35  C   UNL A   1      36.524  33.246  30.767  1.00  0.00    -0.014 A 
BRANCH  35  36
ATOM     36  C   UNL A   1      37.642  32.562  31.451  1.00  0.00     0.031 A 
ATOM     37  C   UNL A   1      37.967  31.206  30.786  1.00  0.00     0.074 A 
ATOM     38  C   UNL A   1      38.200  33.210  32.519  1.00  0.00     0.049 A 
ATOM     39  N   UNL A   1      38.643  30.192  31.235  1.00  0.00    -0.248 NA
ATOM     40  C   UNL A   1      37.438  30.922  29.420  1.00  0.00     0.031 C 
ATOM     41  C   UNL A   1      37.778  34.543  32.999  1.00  0.00     0.029 A 
ATOM     42  N   UNL A   1      39.212  32.908  33.412  1.00  0.00    -0.354 N 
ATOM     43  C   UNL A   1      38.806  29.280  30.166  1.00  0.00     0.074 A 
ATOM     44  C   UNL A   1      37.950  29.729  29.114  1.00  0.00     0.031 C 
ATOM     45  C   UNL A   1      38.458  34.896  34.110  1.00  0.00     0.029 A 
ATOM     46  C   UNL A   1      39.401  33.854  34.460  1.00  0.00     0.049 A 
ATOM     47  H   UNL A   1      39.763  32.096  33.330  1.00  0.00     0.167 HD
ATOM     48  C   UNL A   1      39.756  28.299  30.165  1.00  0.00     0.037 A 
ATOM     49  C   UNL A   1      40.238  33.790  35.546  1.00  0.00     0.037 A 
ATOM     50  C   UNL A   1      40.420  28.274  31.421  1.00  0.00     0.049 A 
ATOM     51  C   UNL A   1      41.107  32.636  35.286  1.00  0.00     0.074 A 
ATOM     52  C   UNL A   1      40.013  27.886  32.669  1.00  0.00     0.029 A 
ATOM     53  N   UNL A   1      41.566  29.020  31.528  1.00  0.00    -0.354 N 
ATOM     54  N   UNL A   1      42.074  32.633  34.420  1.00  0.00    -0.248 NA
ATOM     55  C   UNL A   1      40.856  31.380  36.002  1.00  0.00     0.031 C 
ATOM     56  C   UNL A   1      40.662  28.800  33.521  1.00  0.00     0.029 A 
ATOM     57  C   UNL A   1      41.581  29.558  32.787  1.00  0.00     0.049 A 
ATOM     58  H   UNL A   1      42.249  29.145  30.831  1.00  0.00     0.167 HD
ATOM     59  C   UNL A   1      42.297  31.289  34.250  1.00  0.00     0.074 A 
ATOM     60  C   UNL A   1      41.799  30.630  35.438  1.00  0.00     0.031 C 
ATOM     61  C   UNL A   1      42.312  30.785  32.992  1.00  0.00     0.037 A 
BRANCH  48  62
ATOM     62  C   UNL A   1      40.376  27.480  29.061  1.00  0.00     0.064 A 
ATOM     63  C   UNL A   1      41.262  28.136  28.166  1.00  0.00     0.173 A 
ATOM     64  C   UNL A   1      39.850  26.259  28.620  1.00  0.00     0.173 A 
ATOM     65  F   UNL A   1      41.867  29.284  28.515  1.00  0.00    -0.203 F 
ATOM     66  C   UNL A   1      41.465  27.689  26.863  1.00  0.00     0.198 A 
ATOM     67  C   UNL A   1      40.101  25.785  27.328  1.00  0.00     0.198 A 
ATOM     68  F   UNL A   1      39.002  25.554  29.378  1.00  0.00    -0.203 F 
ATOM     69  F   UNL A   1      42.175  28.433  26.003  1.00  0.00    -0.200 F 
ATOM     70  C   UNL A   1      40.864  26.522  26.437  1.00  0.00     0.200 A 
ATOM     71  F   UNL A   1      39.527  24.645  26.919  1.00  0.00    -0.200 F 
ATOM     72  F   UNL A   1      40.986  26.129  25.162  1.00  0.00    -0.200 F 
ENDBRANCH  48  62
BRANCH  49  73
ATOM     73  C   UNL A   1      40.484  34.506  36.861  1.00  0.00     0.064 A 
ATOM     74  C   UNL A   1      41.522  35.403  37.135  1.00  0.00     0.173 A 
ATOM     75  C   UNL A   1      39.543  34.374  37.928  1.00  0.00     0.173 A 
ATOM     76  F   UNL A   1      42.546  35.556  36.290  1.00  0.00    -0.203 F 
ATOM     77  C   UNL A   1      41.547  36.183  38.309  1.00  0.00     0.198 A 
ATOM     78  C   UNL A   1      39.535  35.184  39.063  1.00  0.00     0.198 A 
ATOM     79  F   UNL A   1      38.573  33.450  37.907  1.00  0.00    -0.203 F 
ATOM     80  F   UNL A   1      42.561  37.035  38.518  1.00  0.00    -0.200 F 
ATOM     81  C   UNL A   1      40.532  36.106  39.247  1.00  0.00     0.200 A 
ATOM     82  F   UNL A   1      38.537  35.070  39.952  1.00  0.00    -0.200 F 
ATOM     83  F   UNL A   1      40.521  36.904  40.322  1.00  0.00    -0.200 F 
ENDBRANCH  49  73
BRANCH  61  84
ATOM     84  C   UNL A   1      42.710  31.795  31.930  1.00  0.00     0.064 A 
ATOM     85  C   UNL A   1      44.030  32.271  31.881  1.00  0.00     0.173 A 
ATOM     86  C   UNL A   1      41.805  32.406  31.045  1.00  0.00     0.173 A 
ATOM     87  F   UNL A   1      44.965  31.727  32.676  1.00  0.00    -0.203 F 
ATOM     88  C   UNL A   1      44.409  33.306  31.021  1.00  0.00     0.198 A 
ATOM     89  C   UNL A   1      42.181  33.437  30.181  1.00  0.00     0.198 A 
ATOM     90  F   UNL A   1      40.535  32.012  30.993  1.00  0.00    -0.203 F 
ATOM     91  F   UNL A   1      45.679  33.732  31.011  1.00  0.00    -0.200 F 
ATOM     92  C   UNL A   1      43.483  33.892  30.174  1.00  0.00     0.200 A 
ATOM     93  F   UNL A   1      41.275  33.982  29.352  1.00  0.00    -0.200 F 
ATOM     94  F   UNL A   1      43.850  34.878  29.343  1.00  0.00    -0.200 F 
ENDBRANCH  61  84
ENDBRANCH  35  36
ENDBRANCH  27  30
ENDBRANCH  25  26
ENDBRANCH  24  25
ENDBRANCH  23  24
ENDBRANCH  22  23
ENDBRANCH   1  22
TORSDOF 18
ENDMDL
