MODEL 1
REMARK VINA RESULT:     -12.4      0.000      0.000
REMARK SMILES Nc1nccc(N2CCC[C@@](Cc3ccc(F)cc3F)(C(=O)NCCCCCCNC(=O)c3ccc(-c4c5nc(c(-c6c(F)c(F)c(F)c(F)c6F)c6ccc([nH]6)c(-c6c(F)c(F)c(F)c(F)c6F)c6nc(c(-c7c(F)c(F)c(F)c(F)c7F)c7ccc4[nH]7)C=C6)C=C5)cc3)C2)n1
REMARK SMILES IDX 26 1 25 2 24 3 23 4 21 5 22 6 11 8 7 9 8 10 96 11 9 12 10 13
REMARK SMILES IDX 6 14 2 15 3 16 97 17 4 18 5 19 1 20 12 23 13 24 14 25 19 26
REMARK SMILES IDX 15 27 18 28 20 29 16 30 17 31 27 32 28 33 29 34 30 35 31 36
REMARK SMILES IDX 32 38 33 39 34 40 95 41 35 42 94 43 36 44 37 45 38 46 88 47
REMARK SMILES IDX 39 48 93 49 87 50 89 51 40 52 92 53 86 54 85 55 41 57 73 58
REMARK SMILES IDX 53 59 72 60 54 61 57 62 71 63 90 64 55 65 56 66 70 68 91 69
REMARK SMILES IDX 58 70 42 71 43 72 51 73 44 74 45 75 49 76 52 77 46 78 47 79
REMARK SMILES IDX 50 80 48 81 74 82 75 83 83 84 76 85 77 86 81 87 84 88 78 89
REMARK SMILES IDX 79 90 82 91 80 92 59 93 60 94 68 95 61 96 62 97 66 98 69 99
REMARK SMILES IDX 63 100 64 101 67 102 65 103
REMARK H PARENT 23 7 1 21 1 22 30 37 89 56 57 67
REMARK Flexibility Score: inf
ROOT
ATOM      1  C   UNL A   1      34.433  31.567  28.528  1.00  0.00     0.002 C 
ENDROOT
BRANCH   1   2
ATOM      2  C   UNL A   1      35.260  30.638  27.632  1.00  0.00     0.021 C 
BRANCH   2   3
ATOM      3  C   UNL A   1      34.447  29.571  26.915  1.00  0.00     0.116 C 
BRANCH   3   4
ATOM      4  N   UNL A   1      33.292  29.116  27.656  1.00  0.00    -0.356 N 
ATOM      5  C   UNL A   1      32.299  28.240  27.344  1.00  0.00     0.228 C 
ATOM      6  O   UNL A   1      31.627  27.856  28.308  1.00  0.00    -0.274 OA
ATOM      7  H   UNL A   1      33.209  29.515  28.551  1.00  0.00     0.163 HD
BRANCH   5   8
ATOM      8  C   UNL A   1      32.008  27.725  25.914  1.00  0.00     0.071 C 
ATOM      9  N   UNL A   1      31.276  28.598  23.736  1.00  0.00    -0.355 N 
ATOM     10  C   UNL A   1      32.489  28.334  22.988  1.00  0.00     0.118 C 
ATOM     11  C   UNL A   1      31.445  28.973  25.137  1.00  0.00     0.135 C 
ATOM     12  C   UNL A   1      33.180  27.151  23.648  1.00  0.00     0.023 C 
ATOM     13  C   UNL A   1      33.310  27.305  25.169  1.00  0.00     0.021 C 
BRANCH   9  14
ATOM     14  C   UNL A   1      30.166  29.048  23.050  1.00  0.00     0.134 A 
ATOM     15  C   UNL A   1      27.919  29.006  22.631  1.00  0.00     0.221 A 
ATOM     16  N   UNL A   1      28.005  29.866  21.612  1.00  0.00    -0.222 NA
ATOM     17  N   UNL A   1      28.952  28.562  23.352  1.00  0.00    -0.196 NA
ATOM     18  C   UNL A   1      29.232  30.317  21.320  1.00  0.00     0.119 A 
ATOM     19  C   UNL A   1      30.350  29.953  22.025  1.00  0.00     0.067 A 
BRANCH  15  20
ATOM     20  N   UNL A   1      26.674  28.566  22.970  1.00  0.00    -0.368 N 
ATOM     21  H   UNL A   1      26.559  27.958  23.736  1.00  0.00     0.159 HD
ATOM     22  H   UNL A   1      25.890  28.855  22.450  1.00  0.00     0.159 HD
ENDBRANCH  15  20
ENDBRANCH   9  14
BRANCH   8  23
ATOM     23  C   UNL A   1      30.849  26.676  25.900  1.00  0.00     0.057 C 
BRANCH  23  24
ATOM     24  C   UNL A   1      31.136  25.204  25.739  1.00  0.00    -0.011 A 
ATOM     25  C   UNL A   1      31.665  24.462  26.807  1.00  0.00     0.010 A 
ATOM     26  C   UNL A   1      30.844  24.536  24.543  1.00  0.00     0.129 A 
ATOM     27  C   UNL A   1      31.947  23.103  26.649  1.00  0.00     0.040 A 
ATOM     28  C   UNL A   1      31.118  23.185  24.379  1.00  0.00     0.078 A 
ATOM     29  F   UNL A   1      30.299  25.206  23.519  1.00  0.00    -0.207 F 
ATOM     30  C   UNL A   1      31.680  22.482  25.433  1.00  0.00     0.126 A 
ATOM     31  F   UNL A   1      31.989  21.189  25.272  1.00  0.00    -0.207 F 
ENDBRANCH  23  24
ENDBRANCH   8  23
ENDBRANCH   5   8
ENDBRANCH   3   4
ENDBRANCH   2   3
ENDBRANCH   1   2
BRANCH   1  32
ATOM     32  C   UNL A   1      34.612  33.073  28.288  1.00  0.00     0.002 C 
BRANCH  32  33
ATOM     33  C   UNL A   1      33.337  33.921  28.345  1.00  0.00     0.021 C 
BRANCH  33  34
ATOM     34  C   UNL A   1      33.534  35.366  28.784  1.00  0.00     0.116 C 
BRANCH  34  35
ATOM     35  N   UNL A   1      32.736  35.707  29.947  1.00  0.00    -0.352 N 
ATOM     36  C   UNL A   1      32.910  35.352  31.257  1.00  0.00     0.251 C 
ATOM     37  H   UNL A   1      31.956  36.280  29.767  1.00  0.00     0.163 HD
ATOM     38  O   UNL A   1      32.031  35.611  32.084  1.00  0.00    -0.269 OA
BRANCH  36  39
ATOM     39  C   UNL A   1      34.131  34.642  31.692  1.00  0.00     0.039 A 
ATOM     40  C   UNL A   1      34.010  33.338  32.179  1.00  0.00     0.014 A 
ATOM     41  C   UNL A   1      35.385  35.260  31.653  1.00  0.00     0.014 A 
ATOM     42  C   UNL A   1      35.148  32.638  32.585  1.00  0.00     0.010 A 
ATOM     43  C   UNL A   1      36.527  34.537  31.992  1.00  0.00     0.010 A 
ATOM     44  C   UNL A   1      36.420  33.222  32.469  1.00  0.00    -0.014 A 
BRANCH  44  45
ATOM     45  C   UNL A   1      37.643  32.476  32.858  1.00  0.00     0.031 A 
ATOM     46  C   UNL A   1      38.327  32.773  34.163  1.00  0.00     0.074 A 
ATOM     47  C   UNL A   1      38.162  31.563  32.014  1.00  0.00     0.049 A 
ATOM     48  N   UNL A   1      39.438  32.276  34.646  1.00  0.00    -0.248 NA
ATOM     49  C   UNL A   1      37.694  33.779  35.032  1.00  0.00     0.031 C 
ATOM     50  C   UNL A   1      37.611  31.216  30.703  1.00  0.00     0.029 A 
ATOM     51  N   UNL A   1      39.275  30.766  32.127  1.00  0.00    -0.354 N 
ATOM     52  C   UNL A   1      39.639  32.914  35.863  1.00  0.00     0.074 A 
ATOM     53  C   UNL A   1      38.566  33.870  36.025  1.00  0.00     0.031 C 
ATOM     54  C   UNL A   1      38.370  30.260  30.146  1.00  0.00     0.029 A 
ATOM     55  C   UNL A   1      39.484  29.954  31.039  1.00  0.00     0.049 A 
ATOM     56  H   UNL A   1      39.866  30.776  32.914  1.00  0.00     0.167 HD
ATOM     57  C   UNL A   1      40.618  32.701  36.773  1.00  0.00     0.037 A 
ATOM     58  C   UNL A   1      40.466  29.068  30.787  1.00  0.00     0.037 A 
ATOM     59  C   UNL A   1      41.662  31.722  36.625  1.00  0.00     0.049 A 
ATOM     60  C   UNL A   1      41.543  28.854  31.816  1.00  0.00     0.074 A 
ATOM     61  C   UNL A   1      42.666  31.394  37.519  1.00  0.00     0.029 A 
ATOM     62  N   UNL A   1      41.832  30.910  35.515  1.00  0.00    -0.354 N 
ATOM     63  N   UNL A   1      41.693  29.425  32.986  1.00  0.00    -0.248 NA
ATOM     64  C   UNL A   1      42.586  27.869  31.494  1.00  0.00     0.031 C 
ATOM     65  C   UNL A   1      43.470  30.414  36.932  1.00  0.00     0.029 A 
ATOM     66  C   UNL A   1      42.938  30.094  35.693  1.00  0.00     0.049 A 
ATOM     67  H   UNL A   1      41.254  30.912  34.718  1.00  0.00     0.167 HD
ATOM     68  C   UNL A   1      42.827  28.855  33.549  1.00  0.00     0.074 A 
ATOM     69  C   UNL A   1      43.320  27.881  32.598  1.00  0.00     0.031 C 
ATOM     70  C   UNL A   1      43.408  29.120  34.742  1.00  0.00     0.037 A 
BRANCH  57  71
ATOM     71  C   UNL A   1      40.603  33.520  38.030  1.00  0.00     0.064 A 
ATOM     72  C   UNL A   1      39.687  33.237  39.054  1.00  0.00     0.173 A 
ATOM     73  C   UNL A   1      41.432  34.641  38.181  1.00  0.00     0.173 A 
ATOM     74  F   UNL A   1      38.867  32.179  38.956  1.00  0.00    -0.203 F 
ATOM     75  C   UNL A   1      39.588  34.058  40.175  1.00  0.00     0.198 A 
ATOM     76  C   UNL A   1      41.349  35.444  39.316  1.00  0.00     0.198 A 
ATOM     77  F   UNL A   1      42.332  34.948  37.235  1.00  0.00    -0.203 F 
ATOM     78  F   UNL A   1      38.680  33.789  41.122  1.00  0.00    -0.200 F 
ATOM     79  C   UNL A   1      40.420  35.159  40.306  1.00  0.00     0.200 A 
ATOM     80  F   UNL A   1      42.169  36.496  39.451  1.00  0.00    -0.200 F 
ATOM     81  F   UNL A   1      40.327  35.947  41.386  1.00  0.00    -0.200 F 
ENDBRANCH  57  71
BRANCH  58  82
ATOM     82  C   UNL A   1      40.460  28.299  29.515  1.00  0.00     0.064 A 
ATOM     83  C   UNL A   1      41.200  28.722  28.401  1.00  0.00     0.173 A 
ATOM     84  C   UNL A   1      39.701  27.128  29.387  1.00  0.00     0.173 A 
ATOM     85  F   UNL A   1      41.940  29.838  28.470  1.00  0.00    -0.203 F 
ATOM     86  C   UNL A   1      41.167  28.011  27.203  1.00  0.00     0.198 A 
ATOM     87  C   UNL A   1      39.691  26.402  28.197  1.00  0.00     0.198 A 
ATOM     88  F   UNL A   1      38.993  26.672  30.430  1.00  0.00    -0.203 F 
ATOM     89  F   UNL A   1      41.859  28.454  26.145  1.00  0.00    -0.200 F 
ATOM     90  C   UNL A   1      40.419  26.849  27.104  1.00  0.00     0.200 A 
ATOM     91  F   UNL A   1      38.988  25.265  28.114  1.00  0.00    -0.200 F 
ATOM     92  F   UNL A   1      40.403  26.155  25.957  1.00  0.00    -0.200 F 
ENDBRANCH  58  82
BRANCH  70  93
ATOM     93  C   UNL A   1      44.631  28.335  35.113  1.00  0.00     0.064 A 
ATOM     94  C   UNL A   1      44.518  27.162  35.877  1.00  0.00     0.173 A 
ATOM     95  C   UNL A   1      45.918  28.788  34.791  1.00  0.00     0.173 A 
ATOM     96  F   UNL A   1      43.309  26.692  36.218  1.00  0.00    -0.203 F 
ATOM     97  C   UNL A   1      45.649  26.484  36.319  1.00  0.00     0.198 A 
ATOM     98  C   UNL A   1      47.047  28.092  35.211  1.00  0.00     0.198 A 
ATOM     99  F   UNL A   1      46.078  29.898  34.054  1.00  0.00    -0.203 F 
ATOM    100  F   UNL A   1      45.518  25.388  37.079  1.00  0.00    -0.200 F 
ATOM    101  C   UNL A   1      46.912  26.947  35.984  1.00  0.00     0.200 A 
ATOM    102  F   UNL A   1      48.267  28.528  34.868  1.00  0.00    -0.200 F 
ATOM    103  F   UNL A   1      48.002  26.290  36.404  1.00  0.00    -0.200 F 
ENDBRANCH  70  93
ENDBRANCH  44  45
ENDBRANCH  36  39
ENDBRANCH  34  35
ENDBRANCH  33  34
ENDBRANCH  32  33
ENDBRANCH   1  32
TORSDOF 17
ENDMDL
MODEL 2
REMARK VINA RESULT:     -12.2      5.798     10.029
REMARK SMILES Nc1nccc(N2CCC[C@@](Cc3ccc(F)cc3F)(C(=O)NCCCCCCNC(=O)c3ccc(-c4c5nc(c(-c6c(F)c(F)c(F)c(F)c6F)c6ccc([nH]6)c(-c6c(F)c(F)c(F)c(F)c6F)c6nc(c(-c7c(F)c(F)c(F)c(F)c7F)c7ccc4[nH]7)C=C6)C=C5)cc3)C2)n1
REMARK SMILES IDX 26 1 25 2 24 3 23 4 21 5 22 6 11 8 7 9 8 10 96 11 9 12 10 13
REMARK SMILES IDX 6 14 2 15 3 16 97 17 4 18 5 19 1 20 12 23 13 24 14 25 19 26
REMARK SMILES IDX 15 27 18 28 20 29 16 30 17 31 27 32 28 33 29 34 30 35 31 36
REMARK SMILES IDX 32 38 33 39 34 40 95 41 35 42 94 43 36 44 37 45 38 46 88 47
REMARK SMILES IDX 39 48 93 49 87 50 89 51 40 52 92 53 86 54 85 55 41 57 73 58
REMARK SMILES IDX 53 59 72 60 54 61 57 62 71 63 90 64 55 65 56 66 70 68 91 69
REMARK SMILES IDX 58 70 42 71 43 72 51 73 44 74 45 75 49 76 52 77 46 78 47 79
REMARK SMILES IDX 50 80 48 81 74 82 75 83 83 84 76 85 77 86 81 87 84 88 78 89
REMARK SMILES IDX 79 90 82 91 80 92 59 93 60 94 68 95 61 96 62 97 66 98 69 99
REMARK SMILES IDX 63 100 64 101 67 102 65 103
REMARK H PARENT 23 7 1 21 1 22 30 37 89 56 57 67
REMARK Flexibility Score: inf
ROOT
ATOM      1  C   UNL A   1      35.617  18.562  24.679  1.00  0.00     0.002 C 
ENDROOT
BRANCH   1   2
ATOM      2  C   UNL A   1      34.106  18.809  24.753  1.00  0.00     0.021 C 
BRANCH   2   3
ATOM      3  C   UNL A   1      33.704  20.274  24.672  1.00  0.00     0.116 C 
BRANCH   3   4
ATOM      4  N   UNL A   1      32.783  20.572  23.598  1.00  0.00    -0.356 N 
ATOM      5  C   UNL A   1      32.189  21.731  23.205  1.00  0.00     0.228 C 
ATOM      6  O   UNL A   1      31.686  21.696  22.075  1.00  0.00    -0.274 OA
ATOM      7  H   UNL A   1      32.541  19.790  23.051  1.00  0.00     0.163 HD
BRANCH   5   8
ATOM      8  C   UNL A   1      32.136  23.018  24.062  1.00  0.00     0.071 C 
ATOM      9  N   UNL A   1      30.617  24.900  24.499  1.00  0.00    -0.355 N 
ATOM     10  C   UNL A   1      30.339  24.623  25.894  1.00  0.00     0.118 C 
ATOM     11  C   UNL A   1      30.806  23.741  23.631  1.00  0.00     0.135 C 
ATOM     12  C   UNL A   1      31.541  23.881  26.457  1.00  0.00     0.023 C 
ATOM     13  C   UNL A   1      31.983  22.703  25.580  1.00  0.00     0.021 C 
BRANCH   9  14
ATOM     14  C   UNL A   1      30.140  26.075  23.955  1.00  0.00     0.134 A 
ATOM     15  C   UNL A   1      28.417  27.477  23.413  1.00  0.00     0.221 A 
ATOM     16  N   UNL A   1      29.209  28.347  22.779  1.00  0.00    -0.222 NA
ATOM     17  N   UNL A   1      28.825  26.341  23.987  1.00  0.00    -0.196 NA
ATOM     18  C   UNL A   1      30.513  28.042  22.743  1.00  0.00     0.119 A 
ATOM     19  C   UNL A   1      31.036  26.924  23.336  1.00  0.00     0.067 A 
BRANCH  15  20
ATOM     20  N   UNL A   1      27.092  27.787  23.495  1.00  0.00    -0.368 N 
ATOM     21  H   UNL A   1      26.659  28.294  22.771  1.00  0.00     0.159 HD
ATOM     22  H   UNL A   1      26.567  27.503  24.278  1.00  0.00     0.159 HD
ENDBRANCH  15  20
ENDBRANCH   9  14
BRANCH   8  23
ATOM     23  C   UNL A   1      33.284  24.012  23.686  1.00  0.00     0.057 C 
BRANCH  23  24
ATOM     24  C   UNL A   1      34.692  23.792  24.177  1.00  0.00    -0.011 A 
ATOM     25  C   UNL A   1      35.611  23.067  23.400  1.00  0.00     0.010 A 
ATOM     26  C   UNL A   1      35.130  24.337  25.390  1.00  0.00     0.129 A 
ATOM     27  C   UNL A   1      36.910  22.849  23.865  1.00  0.00     0.040 A 
ATOM     28  C   UNL A   1      36.421  24.128  25.858  1.00  0.00     0.078 A 
ATOM     29  F   UNL A   1      34.292  25.069  26.134  1.00  0.00    -0.207 F 
ATOM     30  C   UNL A   1      37.298  23.373  25.093  1.00  0.00     0.126 A 
ATOM     31  F   UNL A   1      38.531  23.128  25.555  1.00  0.00    -0.207 F 
ENDBRANCH  23  24
ENDBRANCH   8  23
ENDBRANCH   5   8
ENDBRANCH   3   4
ENDBRANCH   2   3
ENDBRANCH   1   2
BRANCH   1  32
ATOM     32  C   UNL A   1      36.515  19.757  25.026  1.00  0.00     0.002 C 
BRANCH  32  33
ATOM     33  C   UNL A   1      37.999  19.613  24.669  1.00  0.00     0.021 C 
BRANCH  33  34
ATOM     34  C   UNL A   1      38.975  19.962  25.786  1.00  0.00     0.116 C 
BRANCH  34  35
ATOM     35  N   UNL A   1      40.059  19.003  25.895  1.00  0.00    -0.352 N 
ATOM     36  C   UNL A   1      41.393  19.218  26.111  1.00  0.00     0.251 C 
ATOM     37  H   UNL A   1      39.794  18.059  25.802  1.00  0.00     0.163 HD
ATOM     38  O   UNL A   1      42.187  18.278  26.014  1.00  0.00    -0.269 OA
BRANCH  36  39
ATOM     39  C   UNL A   1      41.898  20.567  26.439  1.00  0.00     0.039 A 
ATOM     40  C   UNL A   1      42.115  21.473  25.397  1.00  0.00     0.014 A 
ATOM     41  C   UNL A   1      42.189  20.935  27.756  1.00  0.00     0.014 A 
ATOM     42  C   UNL A   1      42.580  22.759  25.678  1.00  0.00     0.010 A 
ATOM     43  C   UNL A   1      42.585  22.240  28.043  1.00  0.00     0.010 A 
ATOM     44  C   UNL A   1      42.793  23.162  27.006  1.00  0.00    -0.014 A 
BRANCH  44  45
ATOM     45  C   UNL A   1      43.247  24.539  27.325  1.00  0.00     0.031 A 
ATOM     46  C   UNL A   1      42.282  25.541  27.892  1.00  0.00     0.074 A 
ATOM     47  C   UNL A   1      44.519  24.899  27.060  1.00  0.00     0.049 A 
ATOM     48  N   UNL A   1      42.472  26.806  28.173  1.00  0.00    -0.248 NA
ATOM     49  C   UNL A   1      40.913  25.069  28.159  1.00  0.00     0.031 C 
ATOM     50  C   UNL A   1      45.538  24.026  26.474  1.00  0.00     0.029 A 
ATOM     51  N   UNL A   1      45.170  26.094  27.241  1.00  0.00    -0.354 N 
ATOM     52  C   UNL A   1      41.251  27.278  28.636  1.00  0.00     0.074 A 
ATOM     53  C   UNL A   1      40.312  26.182  28.553  1.00  0.00     0.031 C 
ATOM     54  C   UNL A   1      46.690  24.706  26.368  1.00  0.00     0.029 A 
ATOM     55  C   UNL A   1      46.483  26.072  26.840  1.00  0.00     0.049 A 
ATOM     56  H   UNL A   1      44.736  26.890  27.623  1.00  0.00     0.167 HD
ATOM     57  C   UNL A   1      40.950  28.509  29.111  1.00  0.00     0.037 A 
ATOM     58  C   UNL A   1      47.414  27.046  26.845  1.00  0.00     0.037 A 
ATOM     59  C   UNL A   1      41.897  29.586  29.228  1.00  0.00     0.049 A 
ATOM     60  C   UNL A   1      47.050  28.406  27.377  1.00  0.00     0.074 A 
ATOM     61  C   UNL A   1      41.700  30.852  29.749  1.00  0.00     0.029 A 
ATOM     62  N   UNL A   1      43.221  29.521  28.822  1.00  0.00    -0.354 N 
ATOM     63  N   UNL A   1      45.907  28.825  27.861  1.00  0.00    -0.248 NA
ATOM     64  C   UNL A   1      48.106  29.429  27.368  1.00  0.00     0.031 C 
ATOM     65  C   UNL A   1      42.892  31.568  29.620  1.00  0.00     0.029 A 
ATOM     66  C   UNL A   1      43.848  30.732  29.064  1.00  0.00     0.049 A 
ATOM     67  H   UNL A   1      43.653  28.732  28.421  1.00  0.00     0.167 HD
ATOM     68  C   UNL A   1      46.110  30.146  28.235  1.00  0.00     0.074 A 
ATOM     69  C   UNL A   1      47.492  30.457  27.936  1.00  0.00     0.031 C 
ATOM     70  C   UNL A   1      45.228  31.022  28.773  1.00  0.00     0.037 A 
BRANCH  57  71
ATOM     71  C   UNL A   1      39.544  28.764  29.570  1.00  0.00     0.064 A 
ATOM     72  C   UNL A   1      38.604  29.335  28.698  1.00  0.00     0.173 A 
ATOM     73  C   UNL A   1      39.154  28.531  30.896  1.00  0.00     0.173 A 
ATOM     74  F   UNL A   1      38.930  29.584  27.420  1.00  0.00    -0.203 F 
ATOM     75  C   UNL A   1      37.331  29.680  29.144  1.00  0.00     0.198 A 
ATOM     76  C   UNL A   1      37.871  28.851  31.331  1.00  0.00     0.198 A 
ATOM     77  F   UNL A   1      40.013  27.977  31.765  1.00  0.00    -0.203 F 
ATOM     78  F   UNL A   1      36.462  30.258  28.304  1.00  0.00    -0.200 F 
ATOM     79  C   UNL A   1      36.965  29.436  30.459  1.00  0.00     0.200 A 
ATOM     80  F   UNL A   1      37.512  28.596  32.597  1.00  0.00    -0.200 F 
ATOM     81  F   UNL A   1      35.738  29.765  30.887  1.00  0.00    -0.200 F 
ENDBRANCH  57  71
BRANCH  58  82
ATOM     82  C   UNL A   1      48.787  26.759  26.354  1.00  0.00     0.064 A 
ATOM     83  C   UNL A   1      49.137  26.950  25.008  1.00  0.00     0.173 A 
ATOM     84  C   UNL A   1      49.775  26.275  27.222  1.00  0.00     0.173 A 
ATOM     85  F   UNL A   1      48.228  27.408  24.136  1.00  0.00    -0.203 F 
ATOM     86  C   UNL A   1      50.419  26.653  24.549  1.00  0.00     0.198 A 
ATOM     87  C   UNL A   1      51.064  26.004  26.766  1.00  0.00     0.198 A 
ATOM     88  F   UNL A   1      49.495  26.095  28.520  1.00  0.00    -0.203 F 
ATOM     89  F   UNL A   1      50.717  26.816  23.253  1.00  0.00    -0.200 F 
ATOM     90  C   UNL A   1      51.383  26.186  25.429  1.00  0.00     0.200 A 
ATOM     91  F   UNL A   1      52.001  25.579  27.626  1.00  0.00    -0.200 F 
ATOM     92  F   UNL A   1      52.620  25.919  24.990  1.00  0.00    -0.200 F 
ENDBRANCH  58  82
BRANCH  70  93
ATOM     93  C   UNL A   1      45.724  32.399  29.101  1.00  0.00     0.064 A 
ATOM     94  C   UNL A   1      46.256  32.679  30.371  1.00  0.00     0.173 A 
ATOM     95  C   UNL A   1      45.593  33.460  28.195  1.00  0.00     0.173 A 
ATOM     96  F   UNL A   1      46.392  31.699  31.277  1.00  0.00    -0.203 F 
ATOM     97  C   UNL A   1      46.619  33.974  30.725  1.00  0.00     0.198 A 
ATOM     98  C   UNL A   1      45.984  34.749  28.543  1.00  0.00     0.198 A 
ATOM     99  F   UNL A   1      45.102  33.241  26.966  1.00  0.00    -0.203 F 
ATOM    100  F   UNL A   1      47.086  34.225  31.955  1.00  0.00    -0.200 F 
ATOM    101  C   UNL A   1      46.485  35.008  29.810  1.00  0.00     0.200 A 
ATOM    102  F   UNL A   1      45.875  35.744  27.650  1.00  0.00    -0.200 F 
ATOM    103  F   UNL A   1      46.841  36.254  30.150  1.00  0.00    -0.200 F 
ENDBRANCH  70  93
ENDBRANCH  44  45
ENDBRANCH  36  39
ENDBRANCH  34  35
ENDBRANCH  33  34
ENDBRANCH  32  33
ENDBRANCH   1  32
TORSDOF 17
ENDMDL
MODEL 3
REMARK VINA RESULT:     -12.2      5.707     10.875
REMARK SMILES Nc1nccc(N2CCC[C@@](Cc3ccc(F)cc3F)(C(=O)NCCCCCCNC(=O)c3ccc(-c4c5nc(c(-c6c(F)c(F)c(F)c(F)c6F)c6ccc([nH]6)c(-c6c(F)c(F)c(F)c(F)c6F)c6nc(c(-c7c(F)c(F)c(F)c(F)c7F)c7ccc4[nH]7)C=C6)C=C5)cc3)C2)n1
REMARK SMILES IDX 26 1 25 2 24 3 23 4 21 5 22 6 11 8 7 9 8 10 96 11 9 12 10 13
REMARK SMILES IDX 6 14 2 15 3 16 97 17 4 18 5 19 1 20 12 23 13 24 14 25 19 26
REMARK SMILES IDX 15 27 18 28 20 29 16 30 17 31 27 32 28 33 29 34 30 35 31 36
REMARK SMILES IDX 32 38 33 39 34 40 95 41 35 42 94 43 36 44 37 45 38 46 88 47
REMARK SMILES IDX 39 48 93 49 87 50 89 51 40 52 92 53 86 54 85 55 41 57 73 58
REMARK SMILES IDX 53 59 72 60 54 61 57 62 71 63 90 64 55 65 56 66 70 68 91 69
REMARK SMILES IDX 58 70 42 71 43 72 51 73 44 74 45 75 49 76 52 77 46 78 47 79
REMARK SMILES IDX 50 80 48 81 74 82 75 83 83 84 76 85 77 86 81 87 84 88 78 89
REMARK SMILES IDX 79 90 82 91 80 92 59 93 60 94 68 95 61 96 62 97 66 98 69 99
REMARK SMILES IDX 63 100 64 101 67 102 65 103
REMARK H PARENT 23 7 1 21 1 22 30 37 89 56 57 67
REMARK Flexibility Score: inf
ROOT
ATOM      1  C   UNL A   1      35.418  18.827  24.654  1.00  0.00     0.002 C 
ENDROOT
BRANCH   1   2
ATOM      2  C   UNL A   1      33.967  19.177  24.999  1.00  0.00     0.021 C 
BRANCH   2   3
ATOM      3  C   UNL A   1      33.611  20.644  24.806  1.00  0.00     0.116 C 
BRANCH   3   4
ATOM      4  N   UNL A   1      32.684  20.885  23.722  1.00  0.00    -0.356 N 
ATOM      5  C   UNL A   1      32.080  22.021  23.279  1.00  0.00     0.228 C 
ATOM      6  O   UNL A   1      31.576  21.932  22.153  1.00  0.00    -0.274 OA
ATOM      7  H   UNL A   1      32.448  20.079  23.211  1.00  0.00     0.163 HD
BRANCH   5   8
ATOM      8  C   UNL A   1      32.020  23.345  24.077  1.00  0.00     0.071 C 
ATOM      9  N   UNL A   1      30.527  25.277  24.363  1.00  0.00    -0.355 N 
ATOM     10  C   UNL A   1      30.179  25.067  25.754  1.00  0.00     0.118 C 
ATOM     11  C   UNL A   1      30.728  24.078  23.554  1.00  0.00     0.135 C 
ATOM     12  C   UNL A   1      31.336  24.324  26.404  1.00  0.00     0.023 C 
ATOM     13  C   UNL A   1      31.789  23.099  25.598  1.00  0.00     0.021 C 
BRANCH   9  14
ATOM     14  C   UNL A   1      30.104  26.438  23.748  1.00  0.00     0.134 A 
ATOM     15  C   UNL A   1      30.539  28.404  22.665  1.00  0.00     0.221 A 
ATOM     16  N   UNL A   1      29.256  28.774  22.637  1.00  0.00    -0.222 NA
ATOM     17  N   UNL A   1      31.004  27.278  23.215  1.00  0.00    -0.196 NA
ATOM     18  C   UNL A   1      28.383  27.925  23.197  1.00  0.00     0.119 A 
ATOM     19  C   UNL A   1      28.754  26.728  23.750  1.00  0.00     0.067 A 
BRANCH  15  20
ATOM     20  N   UNL A   1      31.440  29.234  22.066  1.00  0.00    -0.368 N 
ATOM     21  H   UNL A   1      31.177  30.150  21.821  1.00  0.00     0.159 HD
ATOM     22  H   UNL A   1      32.353  28.918  21.879  1.00  0.00     0.159 HD
ENDBRANCH  15  20
ENDBRANCH   9  14
BRANCH   8  23
ATOM     23  C   UNL A   1      33.207  24.296  23.714  1.00  0.00     0.057 C 
BRANCH  23  24
ATOM     24  C   UNL A   1      34.612  23.991  24.167  1.00  0.00    -0.011 A 
ATOM     25  C   UNL A   1      35.488  23.276  23.334  1.00  0.00     0.010 A 
ATOM     26  C   UNL A   1      35.090  24.447  25.402  1.00  0.00     0.129 A 
ATOM     27  C   UNL A   1      36.784  22.979  23.764  1.00  0.00     0.040 A 
ATOM     28  C   UNL A   1      36.378  24.159  25.835  1.00  0.00     0.078 A 
ATOM     29  F   UNL A   1      34.294  25.169  26.201  1.00  0.00    -0.207 F 
ATOM     30  C   UNL A   1      37.211  23.414  25.013  1.00  0.00     0.126 A 
ATOM     31  F   UNL A   1      38.439  23.093  25.439  1.00  0.00    -0.207 F 
ENDBRANCH  23  24
ENDBRANCH   8  23
ENDBRANCH   5   8
ENDBRANCH   3   4
ENDBRANCH   2   3
ENDBRANCH   1   2
BRANCH   1  32
ATOM     32  C   UNL A   1      36.476  19.868  25.048  1.00  0.00     0.002 C 
BRANCH  32  33
ATOM     33  C   UNL A   1      37.929  19.511  24.716  1.00  0.00     0.021 C 
BRANCH  33  34
ATOM     34  C   UNL A   1      38.966  20.004  25.718  1.00  0.00     0.116 C 
BRANCH  34  35
ATOM     35  N   UNL A   1      40.083  19.088  25.857  1.00  0.00    -0.352 N 
ATOM     36  C   UNL A   1      41.403  19.354  26.102  1.00  0.00     0.251 C 
ATOM     37  H   UNL A   1      39.857  18.134  25.763  1.00  0.00     0.163 HD
ATOM     38  O   UNL A   1      42.235  18.446  26.027  1.00  0.00    -0.269 OA
BRANCH  36  39
ATOM     39  C   UNL A   1      41.848  20.724  26.434  1.00  0.00     0.039 A 
ATOM     40  C   UNL A   1      42.123  21.611  25.390  1.00  0.00     0.014 A 
ATOM     41  C   UNL A   1      42.028  21.129  27.760  1.00  0.00     0.014 A 
ATOM     42  C   UNL A   1      42.533  22.915  25.673  1.00  0.00     0.010 A 
ATOM     43  C   UNL A   1      42.369  22.450  28.044  1.00  0.00     0.010 A 
ATOM     44  C   UNL A   1      42.634  23.353  27.004  1.00  0.00    -0.014 A 
BRANCH  44  45
ATOM     45  C   UNL A   1      43.029  24.749  27.322  1.00  0.00     0.031 A 
ATOM     46  C   UNL A   1      44.440  25.207  27.085  1.00  0.00     0.074 A 
ATOM     47  C   UNL A   1      42.126  25.588  27.866  1.00  0.00     0.049 A 
ATOM     48  N   UNL A   1      44.991  26.363  27.359  1.00  0.00    -0.248 NA
ATOM     49  C   UNL A   1      45.364  24.233  26.481  1.00  0.00     0.031 C 
ATOM     50  C   UNL A   1      40.738  25.247  28.179  1.00  0.00     0.029 A 
ATOM     51  N   UNL A   1      42.243  26.898  28.262  1.00  0.00    -0.354 N 
ATOM     52  C   UNL A   1      46.320  26.249  26.973  1.00  0.00     0.074 A 
ATOM     53  C   UNL A   1      46.509  24.898  26.492  1.00  0.00     0.031 C 
ATOM     54  C   UNL A   1      40.125  26.325  28.693  1.00  0.00     0.029 A 
ATOM     55  C   UNL A   1      41.085  27.421  28.783  1.00  0.00     0.049 A 
ATOM     56  H   UNL A   1      43.078  27.413  28.178  1.00  0.00     0.167 HD
ATOM     57  C   UNL A   1      47.287  27.196  26.994  1.00  0.00     0.037 A 
ATOM     58  C   UNL A   1      40.829  28.645  29.285  1.00  0.00     0.037 A 
ATOM     59  C   UNL A   1      47.085  28.549  27.438  1.00  0.00     0.049 A 
ATOM     60  C   UNL A   1      41.924  29.677  29.299  1.00  0.00     0.074 A 
ATOM     61  C   UNL A   1      47.990  29.596  27.446  1.00  0.00     0.029 A 
ATOM     62  N   UNL A   1      45.895  29.044  27.948  1.00  0.00    -0.354 N 
ATOM     63  N   UNL A   1      43.162  29.573  28.882  1.00  0.00    -0.248 NA
ATOM     64  C   UNL A   1      41.587  30.998  29.849  1.00  0.00     0.031 C 
ATOM     65  C   UNL A   1      47.361  30.713  28.000  1.00  0.00     0.029 A 
ATOM     66  C   UNL A   1      46.048  30.378  28.291  1.00  0.00     0.049 A 
ATOM     67  H   UNL A   1      45.064  28.526  28.051  1.00  0.00     0.167 HD
ATOM     68  C   UNL A   1      43.744  30.815  29.096  1.00  0.00     0.074 A 
ATOM     69  C   UNL A   1      42.719  31.664  29.666  1.00  0.00     0.031 C 
ATOM     70  C   UNL A   1      45.014  31.213  28.846  1.00  0.00     0.037 A 
BRANCH  57  71
ATOM     71  C   UNL A   1      48.654  26.820  26.503  1.00  0.00     0.064 A 
ATOM     72  C   UNL A   1      48.993  26.978  25.150  1.00  0.00     0.173 A 
ATOM     73  C   UNL A   1      49.595  26.218  27.350  1.00  0.00     0.173 A 
ATOM     74  F   UNL A   1      48.125  27.544  24.297  1.00  0.00    -0.203 F 
ATOM     75  C   UNL A   1      50.217  26.530  24.661  1.00  0.00     0.198 A 
ATOM     76  C   UNL A   1      50.829  25.796  26.862  1.00  0.00     0.198 A 
ATOM     77  F   UNL A   1      49.323  26.053  28.653  1.00  0.00    -0.203 F 
ATOM     78  F   UNL A   1      50.503  26.657  23.359  1.00  0.00    -0.200 F 
ATOM     79  C   UNL A   1      51.135  25.941  25.517  1.00  0.00     0.200 A 
ATOM     80  F   UNL A   1      51.724  25.245  27.696  1.00  0.00    -0.200 F 
ATOM     81  F   UNL A   1      52.314  25.512  25.047  1.00  0.00    -0.200 F 
ENDBRANCH  57  71
BRANCH  58  82
ATOM     82  C   UNL A   1      39.468  28.967  29.790  1.00  0.00     0.064 A 
ATOM     83  C   UNL A   1      39.106  28.721  31.123  1.00  0.00     0.173 A 
ATOM     84  C   UNL A   1      38.498  29.516  28.942  1.00  0.00     0.173 A 
ATOM     85  F   UNL A   1      39.997  28.193  31.975  1.00  0.00    -0.203 F 
ATOM     86  C   UNL A   1      37.821  28.999  31.583  1.00  0.00     0.198 A 
ATOM     87  C   UNL A   1      37.220  29.820  29.410  1.00  0.00     0.198 A 
ATOM     88  F   UNL A   1      38.802  29.788  27.664  1.00  0.00    -0.203 F 
ATOM     89  F   UNL A   1      37.493  28.727  32.853  1.00  0.00    -0.200 F 
ATOM     90  C   UNL A   1      36.881  29.554  30.728  1.00  0.00     0.200 A 
ATOM     91  F   UNL A   1      36.324  30.382  28.588  1.00  0.00    -0.200 F 
ATOM     92  F   UNL A   1      35.651  29.840  31.176  1.00  0.00    -0.200 F 
ENDBRANCH  58  82
BRANCH  70  93
ATOM     93  C   UNL A   1      45.375  32.635  29.160  1.00  0.00     0.064 A 
ATOM     94  C   UNL A   1      45.217  33.638  28.191  1.00  0.00     0.173 A 
ATOM     95  C   UNL A   1      45.959  32.988  30.384  1.00  0.00     0.173 A 
ATOM     96  F   UNL A   1      44.673  33.348  27.000  1.00  0.00    -0.203 F 
ATOM     97  C   UNL A   1      45.648  34.939  28.431  1.00  0.00     0.198 A 
ATOM     98  C   UNL A   1      46.363  34.297  30.632  1.00  0.00     0.198 A 
ATOM     99  F   UNL A   1      46.120  32.067  31.346  1.00  0.00    -0.203 F 
ATOM    100  F   UNL A   1      45.524  35.872  27.477  1.00  0.00    -0.200 F 
ATOM    101  C   UNL A   1      46.218  35.268  29.652  1.00  0.00     0.200 A 
ATOM    102  F   UNL A   1      46.893  34.618  31.820  1.00  0.00    -0.200 F 
ATOM    103  F   UNL A   1      46.627  36.522  29.885  1.00  0.00    -0.200 F 
ENDBRANCH  70  93
ENDBRANCH  44  45
ENDBRANCH  36  39
ENDBRANCH  34  35
ENDBRANCH  33  34
ENDBRANCH  32  33
ENDBRANCH   1  32
TORSDOF 17
ENDMDL
