MODEL 1
REMARK VINA RESULT:     -11.0      0.000      0.000
REMARK SMILES C=C(C)C(=O)OCC[C@@H](C(C)=O)C(=O)NCCCCCCNC(=O)c1ccc(-c2c3nc(c(-c4c(F)c(F)c(F)c(F)c4F)c4ccc([nH]4)c(-c4c(F)c(F)c(F)c(F)c4F)c4nc(c(-c5c(F)c(F)c(F)c(F)c5F)c5ccc2[nH]5)C=C4)C=C3)cc1
REMARK SMILES IDX 17 1 16 2 15 3 13 4 14 5 9 7 8 8 7 9 6 10 4 11 5 12 2 13
REMARK SMILES IDX 1 14 3 15 10 16 11 17 12 18 18 19 19 20 20 21 21 22 22 23
REMARK SMILES IDX 23 24 24 26 25 27 26 28 87 29 27 30 86 31 28 32 29 33 30 34
REMARK SMILES IDX 80 35 31 36 85 37 79 38 81 39 32 40 84 41 78 42 77 43 33 45
REMARK SMILES IDX 65 46 45 47 64 48 46 49 49 50 63 51 82 52 47 53 48 54 62 56
REMARK SMILES IDX 83 57 50 58 34 59 35 60 43 61 36 62 37 63 41 64 44 65 38 66
REMARK SMILES IDX 39 67 42 68 40 69 66 70 67 71 75 72 68 73 69 74 73 75 76 76
REMARK SMILES IDX 70 77 71 78 74 79 72 80 51 81 52 82 60 83 53 84 54 85 58 86
REMARK SMILES IDX 61 87 55 88 56 89 59 90 57 91
REMARK H PARENT 15 6 22 25 81 44 49 55
REMARK Flexibility Score: inf
ROOT
ATOM      1  C   UNL A   1      32.782  28.497  26.951  1.00  0.00     0.021 C 
ENDROOT
BRANCH   1   2
ATOM      2  C   UNL A   1      33.865  27.812  26.131  1.00  0.00     0.116 C 
BRANCH   2   3
ATOM      3  N   UNL A   1      34.135  28.551  24.911  1.00  0.00    -0.355 N 
ATOM      4  C   UNL A   1      33.583  28.418  23.675  1.00  0.00     0.230 C 
ATOM      5  O   UNL A   1      33.984  29.159  22.776  1.00  0.00    -0.274 OA
ATOM      6  H   UNL A   1      34.818  29.254  24.990  1.00  0.00     0.163 HD
BRANCH   4   7
ATOM      7  C   UNL A   1      32.511  27.378  23.416  1.00  0.00     0.148 C 
BRANCH   7   8
ATOM      8  C   UNL A   1      31.365  28.029  22.612  1.00  0.00     0.063 C 
BRANCH   8   9
ATOM      9  C   UNL A   1      30.155  28.468  23.435  1.00  0.00     0.234 C 
BRANCH   9  10
ATOM     10  O   UNL A   1      29.996  29.890  23.386  1.00  0.00    -0.462 OA
BRANCH  10  11
ATOM     11  C   UNL A   1      29.153  30.367  22.441  1.00  0.00     0.333 C 
ATOM     12  O   UNL A   1      28.953  29.886  21.336  1.00  0.00    -0.247 OA
BRANCH  11  13
ATOM     13  C   UNL A   1      28.422  31.532  22.994  1.00  0.00     0.027 C 
ATOM     14  C   UNL A   1      27.358  31.282  23.773  1.00  0.00     0.020 C 
ATOM     15  C   UNL A   1      28.898  32.903  22.634  1.00  0.00     0.051 C 
ENDBRANCH  11  13
ENDBRANCH  10  11
ENDBRANCH   9  10
ENDBRANCH   8   9
ENDBRANCH   7   8
BRANCH   7  16
ATOM     16  C   UNL A   1      33.089  26.116  22.785  1.00  0.00     0.142 C 
ATOM     17  C   UNL A   1      32.509  25.651  21.468  1.00  0.00     0.088 C 
ATOM     18  O   UNL A   1      34.002  25.477  23.312  1.00  0.00    -0.299 OA
ENDBRANCH   7  16
ENDBRANCH   4   7
ENDBRANCH   2   3
ENDBRANCH   1   2
BRANCH   1  19
ATOM     19  C   UNL A   1      32.861  30.024  26.905  1.00  0.00     0.002 C 
BRANCH  19  20
ATOM     20  C   UNL A   1      31.636  30.706  26.286  1.00  0.00     0.002 C 
BRANCH  20  21
ATOM     21  C   UNL A   1      31.412  32.150  26.741  1.00  0.00     0.021 C 
BRANCH  21  22
ATOM     22  C   UNL A   1      32.656  32.826  27.305  1.00  0.00     0.116 C 
BRANCH  22  23
ATOM     23  N   UNL A   1      32.419  34.229  27.604  1.00  0.00    -0.352 N 
ATOM     24  C   UNL A   1      32.986  35.013  28.573  1.00  0.00     0.251 C 
ATOM     25  H   UNL A   1      31.759  34.678  27.027  1.00  0.00     0.163 HD
ATOM     26  O   UNL A   1      32.522  36.118  28.834  1.00  0.00    -0.269 OA
BRANCH  24  27
ATOM     27  C   UNL A   1      34.154  34.506  29.319  1.00  0.00     0.039 A 
ATOM     28  C   UNL A   1      33.955  33.918  30.569  1.00  0.00     0.014 A 
ATOM     29  C   UNL A   1      35.438  34.599  28.774  1.00  0.00     0.014 A 
ATOM     30  C   UNL A   1      35.040  33.365  31.248  1.00  0.00     0.010 A 
ATOM     31  C   UNL A   1      36.505  33.981  29.416  1.00  0.00     0.010 A 
ATOM     32  C   UNL A   1      36.316  33.360  30.660  1.00  0.00    -0.014 A 
BRANCH  32  33
ATOM     33  C   UNL A   1      37.464  32.696  31.324  1.00  0.00     0.031 A 
ATOM     34  C   UNL A   1      38.163  31.549  30.656  1.00  0.00     0.074 A 
ATOM     35  C   UNL A   1      37.829  33.088  32.560  1.00  0.00     0.049 A 
ATOM     36  N   UNL A   1      39.137  30.798  31.102  1.00  0.00    -0.248 NA
ATOM     37  C   UNL A   1      37.686  31.179  29.313  1.00  0.00     0.031 C 
ATOM     38  C   UNL A   1      37.200  34.163  33.326  1.00  0.00     0.029 A 
ATOM     39  N   UNL A   1      38.813  32.618  33.392  1.00  0.00    -0.354 N 
ATOM     40  C   UNL A   1      39.383  29.865  30.104  1.00  0.00     0.074 A 
ATOM     41  C   UNL A   1      38.417  30.105  29.054  1.00  0.00     0.031 C 
ATOM     42  C   UNL A   1      37.829  34.289  34.505  1.00  0.00     0.029 A 
ATOM     43  C   UNL A   1      38.874  33.274  34.597  1.00  0.00     0.049 A 
ATOM     44  H   UNL A   1      39.419  31.881  33.149  1.00  0.00     0.167 HD
ATOM     45  C   UNL A   1      40.343  28.910  30.059  1.00  0.00     0.037 A 
ATOM     46  C   UNL A   1      39.673  33.070  35.660  1.00  0.00     0.037 A 
ATOM     47  C   UNL A   1      41.305  28.683  31.106  1.00  0.00     0.049 A 
ATOM     48  C   UNL A   1      40.703  31.975  35.603  1.00  0.00     0.074 A 
ATOM     49  C   UNL A   1      42.355  27.782  31.133  1.00  0.00     0.029 A 
ATOM     50  N   UNL A   1      41.327  29.359  32.319  1.00  0.00    -0.354 N 
ATOM     51  N   UNL A   1      40.976  31.147  34.625  1.00  0.00    -0.248 NA
ATOM     52  C   UNL A   1      41.534  31.788  36.799  1.00  0.00     0.031 C 
ATOM     53  C   UNL A   1      42.973  27.869  32.385  1.00  0.00     0.029 A 
ATOM     54  C   UNL A   1      42.348  28.866  33.117  1.00  0.00     0.049 A 
ATOM     55  H   UNL A   1      40.707  30.081  32.574  1.00  0.00     0.167 HD
ATOM     56  C   UNL A   1      42.022  30.354  35.077  1.00  0.00     0.074 A 
ATOM     57  C   UNL A   1      42.348  30.817  36.411  1.00  0.00     0.031 C 
ATOM     58  C   UNL A   1      42.655  29.333  34.446  1.00  0.00     0.037 A 
BRANCH  45  59
ATOM     59  C   UNL A   1      40.389  28.035  28.839  1.00  0.00     0.064 A 
ATOM     60  C   UNL A   1      39.692  26.819  28.775  1.00  0.00     0.173 A 
ATOM     61  C   UNL A   1      41.126  28.425  27.710  1.00  0.00     0.173 A 
ATOM     62  F   UNL A   1      38.980  26.392  29.830  1.00  0.00    -0.203 F 
ATOM     63  C   UNL A   1      39.765  26.007  27.646  1.00  0.00     0.198 A 
ATOM     64  C   UNL A   1      41.168  27.628  26.568  1.00  0.00     0.198 A 
ATOM     65  F   UNL A   1      41.806  29.582  27.711  1.00  0.00    -0.203 F 
ATOM     66  F   UNL A   1      39.142  24.820  27.635  1.00  0.00    -0.200 F 
ATOM     67  C   UNL A   1      40.497  26.415  26.542  1.00  0.00     0.200 A 
ATOM     68  F   UNL A   1      41.864  28.032  25.496  1.00  0.00    -0.200 F 
ATOM     69  F   UNL A   1      40.564  25.634  25.454  1.00  0.00    -0.200 F 
ENDBRANCH  45  59
BRANCH  46  70
ATOM     70  C   UNL A   1      39.540  33.935  36.862  1.00  0.00     0.064 A 
ATOM     71  C   UNL A   1      40.188  35.176  36.927  1.00  0.00     0.173 A 
ATOM     72  C   UNL A   1      38.762  33.546  37.963  1.00  0.00     0.173 A 
ATOM     73  F   UNL A   1      40.959  35.583  35.909  1.00  0.00    -0.203 F 
ATOM     74  C   UNL A   1      40.074  35.989  38.053  1.00  0.00     0.198 A 
ATOM     75  C   UNL A   1      38.625  34.373  39.075  1.00  0.00     0.198 A 
ATOM     76  F   UNL A   1      38.119  32.370  37.948  1.00  0.00    -0.203 F 
ATOM     77  F   UNL A   1      40.738  37.152  38.107  1.00  0.00    -0.200 F 
ATOM     78  C   UNL A   1      39.288  35.591  39.123  1.00  0.00     0.200 A 
ATOM     79  F   UNL A   1      37.852  33.991  40.100  1.00  0.00    -0.200 F 
ATOM     80  F   UNL A   1      39.172  36.376  40.202  1.00  0.00    -0.200 F 
ENDBRANCH  46  70
BRANCH  58  81
ATOM     81  C   UNL A   1      43.774  28.657  35.186  1.00  0.00     0.064 A 
ATOM     82  C   UNL A   1      43.541  27.557  36.025  1.00  0.00     0.173 A 
ATOM     83  C   UNL A   1      45.099  29.088  35.023  1.00  0.00     0.173 A 
ATOM     84  F   UNL A   1      42.291  27.114  36.229  1.00  0.00    -0.203 F 
ATOM     85  C   UNL A   1      44.591  26.932  36.693  1.00  0.00     0.198 A 
ATOM     86  C   UNL A   1      46.149  28.440  35.666  1.00  0.00     0.198 A 
ATOM     87  F   UNL A   1      45.377  30.132  34.227  1.00  0.00    -0.203 F 
ATOM     88  F   UNL A   1      44.338  25.915  37.531  1.00  0.00    -0.200 F 
ATOM     89  C   UNL A   1      45.893  27.368  36.507  1.00  0.00     0.200 A 
ATOM     90  F   UNL A   1      47.410  28.853  35.472  1.00  0.00    -0.200 F 
ATOM     91  F   UNL A   1      46.904  26.758  37.144  1.00  0.00    -0.200 F 
ENDBRANCH  58  81
ENDBRANCH  32  33
ENDBRANCH  24  27
ENDBRANCH  22  23
ENDBRANCH  21  22
ENDBRANCH  20  21
ENDBRANCH  19  20
ENDBRANCH   1  19
TORSDOF 19
ENDMDL
MODEL 2
REMARK VINA RESULT:     -10.7      0.603      2.081
REMARK SMILES C=C(C)C(=O)OCC[C@@H](C(C)=O)C(=O)NCCCCCCNC(=O)c1ccc(-c2c3nc(c(-c4c(F)c(F)c(F)c(F)c4F)c4ccc([nH]4)c(-c4c(F)c(F)c(F)c(F)c4F)c4nc(c(-c5c(F)c(F)c(F)c(F)c5F)c5ccc2[nH]5)C=C4)C=C3)cc1
REMARK SMILES IDX 17 1 16 2 15 3 13 4 14 5 9 7 8 8 7 9 6 10 4 11 5 12 2 13
REMARK SMILES IDX 1 14 3 15 10 16 11 17 12 18 18 19 19 20 20 21 21 22 22 23
REMARK SMILES IDX 23 24 24 26 25 27 26 28 87 29 27 30 86 31 28 32 29 33 30 34
REMARK SMILES IDX 80 35 31 36 85 37 79 38 81 39 32 40 84 41 78 42 77 43 33 45
REMARK SMILES IDX 65 46 45 47 64 48 46 49 49 50 63 51 82 52 47 53 48 54 62 56
REMARK SMILES IDX 83 57 50 58 34 59 35 60 43 61 36 62 37 63 41 64 44 65 38 66
REMARK SMILES IDX 39 67 42 68 40 69 66 70 67 71 75 72 68 73 69 74 73 75 76 76
REMARK SMILES IDX 70 77 71 78 74 79 72 80 51 81 52 82 60 83 53 84 54 85 58 86
REMARK SMILES IDX 61 87 55 88 56 89 59 90 57 91
REMARK H PARENT 15 6 22 25 81 44 49 55
REMARK Flexibility Score: inf
ROOT
ATOM      1  C   UNL A   1      33.306  28.728  27.008  1.00  0.00     0.021 C 
ENDROOT
BRANCH   1   2
ATOM      2  C   UNL A   1      33.218  27.775  25.825  1.00  0.00     0.116 C 
BRANCH   2   3
ATOM      3  N   UNL A   1      33.718  28.403  24.617  1.00  0.00    -0.355 N 
ATOM      4  C   UNL A   1      33.212  28.386  23.355  1.00  0.00     0.230 C 
ATOM      5  O   UNL A   1      33.825  28.990  22.472  1.00  0.00    -0.274 OA
ATOM      6  H   UNL A   1      34.548  28.921  24.727  1.00  0.00     0.163 HD
BRANCH   4   7
ATOM      7  C   UNL A   1      31.933  27.633  23.046  1.00  0.00     0.148 C 
BRANCH   7   8
ATOM      8  C   UNL A   1      30.852  28.641  22.603  1.00  0.00     0.063 C 
BRANCH   8   9
ATOM      9  C   UNL A   1      29.953  29.171  23.719  1.00  0.00     0.234 C 
BRANCH   9  10
ATOM     10  O   UNL A   1      29.534  30.511  23.441  1.00  0.00    -0.462 OA
BRANCH  10  11
ATOM     11  C   UNL A   1      28.435  30.646  22.661  1.00  0.00     0.333 C 
ATOM     12  O   UNL A   1      27.528  29.837  22.537  1.00  0.00    -0.247 OA
BRANCH  11  13
ATOM     13  C   UNL A   1      28.451  31.991  22.038  1.00  0.00     0.027 C 
ATOM     14  C   UNL A   1      28.774  33.031  22.823  1.00  0.00     0.020 C 
ATOM     15  C   UNL A   1      28.087  32.108  20.593  1.00  0.00     0.051 C 
ENDBRANCH  11  13
ENDBRANCH  10  11
ENDBRANCH   9  10
ENDBRANCH   8   9
ENDBRANCH   7   8
BRANCH   7  16
ATOM     16  C   UNL A   1      32.172  26.490  22.065  1.00  0.00     0.142 C 
ATOM     17  C   UNL A   1      33.285  25.513  22.371  1.00  0.00     0.088 C 
ATOM     18  O   UNL A   1      31.493  26.346  21.046  1.00  0.00    -0.299 OA
ENDBRANCH   7  16
ENDBRANCH   4   7
ENDBRANCH   2   3
ENDBRANCH   1   2
BRANCH   1  19
ATOM     19  C   UNL A   1      33.162  30.199  26.612  1.00  0.00     0.002 C 
BRANCH  19  20
ATOM     20  C   UNL A   1      31.714  30.683  26.475  1.00  0.00     0.002 C 
BRANCH  20  21
ATOM     21  C   UNL A   1      31.501  32.162  26.808  1.00  0.00     0.021 C 
BRANCH  21  22
ATOM     22  C   UNL A   1      32.753  32.875  27.305  1.00  0.00     0.116 C 
BRANCH  22  23
ATOM     23  N   UNL A   1      32.485  34.264  27.641  1.00  0.00    -0.352 N 
ATOM     24  C   UNL A   1      33.018  35.028  28.645  1.00  0.00     0.251 C 
ATOM     25  H   UNL A   1      31.828  34.719  27.065  1.00  0.00     0.163 HD
ATOM     26  O   UNL A   1      32.529  36.116  28.929  1.00  0.00    -0.269 OA
BRANCH  24  27
ATOM     27  C   UNL A   1      34.180  34.519  29.399  1.00  0.00     0.039 A 
ATOM     28  C   UNL A   1      33.970  33.914  30.638  1.00  0.00     0.014 A 
ATOM     29  C   UNL A   1      35.470  34.628  28.871  1.00  0.00     0.014 A 
ATOM     30  C   UNL A   1      35.050  33.360  31.324  1.00  0.00     0.010 A 
ATOM     31  C   UNL A   1      36.533  34.009  29.518  1.00  0.00     0.010 A 
ATOM     32  C   UNL A   1      36.333  33.371  30.751  1.00  0.00    -0.014 A 
BRANCH  32  33
ATOM     33  C   UNL A   1      37.478  32.707  31.421  1.00  0.00     0.031 A 
ATOM     34  C   UNL A   1      38.153  31.532  30.775  1.00  0.00     0.074 A 
ATOM     35  C   UNL A   1      37.861  33.123  32.643  1.00  0.00     0.049 A 
ATOM     36  N   UNL A   1      39.120  30.778  31.231  1.00  0.00    -0.248 NA
ATOM     37  C   UNL A   1      37.658  31.136  29.447  1.00  0.00     0.031 C 
ATOM     38  C   UNL A   1      37.255  34.227  33.388  1.00  0.00     0.029 A 
ATOM     39  N   UNL A   1      38.846  32.659  33.478  1.00  0.00    -0.354 N 
ATOM     40  C   UNL A   1      39.342  29.817  30.254  1.00  0.00     0.074 A 
ATOM     41  C   UNL A   1      38.369  30.045  29.208  1.00  0.00     0.031 C 
ATOM     42  C   UNL A   1      37.897  34.372  34.557  1.00  0.00     0.029 A 
ATOM     43  C   UNL A   1      38.928  33.344  34.665  1.00  0.00     0.049 A 
ATOM     44  H   UNL A   1      39.438  31.907  33.248  1.00  0.00     0.167 HD
ATOM     45  C   UNL A   1      40.287  28.847  30.224  1.00  0.00     0.037 A 
ATOM     46  C   UNL A   1      39.734  33.154  35.726  1.00  0.00     0.037 A 
ATOM     47  C   UNL A   1      41.256  28.632  31.267  1.00  0.00     0.049 A 
ATOM     48  C   UNL A   1      40.747  32.042  35.687  1.00  0.00     0.074 A 
ATOM     49  C   UNL A   1      42.292  27.715  31.308  1.00  0.00     0.029 A 
ATOM     50  N   UNL A   1      41.299  29.336  32.463  1.00  0.00    -0.354 N 
ATOM     51  N   UNL A   1      40.998  31.186  34.727  1.00  0.00    -0.248 NA
ATOM     52  C   UNL A   1      41.586  31.872  36.879  1.00  0.00     0.031 C 
ATOM     53  C   UNL A   1      42.924  27.824  32.551  1.00  0.00     0.029 A 
ATOM     54  C   UNL A   1      42.321  28.848  33.264  1.00  0.00     0.049 A 
ATOM     55  H   UNL A   1      40.694  30.074  32.706  1.00  0.00     0.167 HD
ATOM     56  C   UNL A   1      42.037  30.389  35.189  1.00  0.00     0.074 A 
ATOM     57  C   UNL A   1      42.382  30.880  36.508  1.00  0.00     0.031 C 
ATOM     58  C   UNL A   1      42.648  29.343  34.578  1.00  0.00     0.037 A 
BRANCH  45  59
ATOM     59  C   UNL A   1      40.308  27.941  29.026  1.00  0.00     0.064 A 
ATOM     60  C   UNL A   1      41.088  28.230  27.895  1.00  0.00     0.173 A 
ATOM     61  C   UNL A   1      39.553  26.759  29.013  1.00  0.00     0.173 A 
ATOM     62  F   UNL A   1      41.821  29.353  27.849  1.00  0.00    -0.203 F 
ATOM     63  C   UNL A   1      41.077  27.394  26.782  1.00  0.00     0.198 A 
ATOM     64  C   UNL A   1      39.572  25.905  27.912  1.00  0.00     0.198 A 
ATOM     65  F   UNL A   1      38.794  26.428  30.069  1.00  0.00    -0.203 F 
ATOM     66  F   UNL A   1      41.781  27.725  25.690  1.00  0.00    -0.200 F 
ATOM     67  C   UNL A   1      40.325  26.230  26.794  1.00  0.00     0.200 A 
ATOM     68  F   UNL A   1      38.855  24.773  27.931  1.00  0.00    -0.200 F 
ATOM     69  F   UNL A   1      40.317  25.423  25.723  1.00  0.00    -0.200 F 
ENDBRANCH  45  59
BRANCH  46  70
ATOM     70  C   UNL A   1      39.626  34.050  36.907  1.00  0.00     0.064 A 
ATOM     71  C   UNL A   1      38.831  33.696  38.006  1.00  0.00     0.173 A 
ATOM     72  C   UNL A   1      40.315  35.271  36.967  1.00  0.00     0.173 A 
ATOM     73  F   UNL A   1      38.137  32.549  37.987  1.00  0.00    -0.203 F 
ATOM     74  C   UNL A   1      38.719  34.534  39.113  1.00  0.00     0.198 A 
ATOM     75  C   UNL A   1      40.226  36.094  38.087  1.00  0.00     0.198 A 
ATOM     76  F   UNL A   1      41.092  35.654  35.943  1.00  0.00    -0.203 F 
ATOM     77  F   UNL A   1      37.920  34.190  40.132  1.00  0.00    -0.200 F 
ATOM     78  C   UNL A   1      39.422  35.728  39.156  1.00  0.00     0.200 A 
ATOM     79  F   UNL A   1      40.919  37.239  38.132  1.00  0.00    -0.200 F 
ATOM     80  F   UNL A   1      39.320  36.530  40.225  1.00  0.00    -0.200 F 
ENDBRANCH  46  70
BRANCH  58  81
ATOM     81  C   UNL A   1      43.763  28.669  35.323  1.00  0.00     0.064 A 
ATOM     82  C   UNL A   1      45.099  29.071  35.171  1.00  0.00     0.173 A 
ATOM     83  C   UNL A   1      43.490  27.633  36.230  1.00  0.00     0.173 A 
ATOM     84  F   UNL A   1      45.416  30.045  34.305  1.00  0.00    -0.203 F 
ATOM     85  C   UNL A   1      46.121  28.444  35.880  1.00  0.00     0.198 A 
ATOM     86  C   UNL A   1      44.509  27.031  36.962  1.00  0.00     0.198 A 
ATOM     87  F   UNL A   1      42.229  27.213  36.418  1.00  0.00    -0.203 F 
ATOM     88  F   UNL A   1      47.394  28.811  35.679  1.00  0.00    -0.200 F 
ATOM     89  C   UNL A   1      45.825  27.431  36.779  1.00  0.00     0.200 A 
ATOM     90  F   UNL A   1      44.220  26.064  37.843  1.00  0.00    -0.200 F 
ATOM     91  F   UNL A   1      46.809  26.836  37.468  1.00  0.00    -0.200 F 
ENDBRANCH  58  81
ENDBRANCH  32  33
ENDBRANCH  24  27
ENDBRANCH  22  23
ENDBRANCH  21  22
ENDBRANCH  20  21
ENDBRANCH  19  20
ENDBRANCH   1  19
TORSDOF 19
ENDMDL
MODEL 3
REMARK VINA RESULT:     -10.6      6.186     11.531
REMARK SMILES C=C(C)C(=O)OCC[C@@H](C(C)=O)C(=O)NCCCCCCNC(=O)c1ccc(-c2c3nc(c(-c4c(F)c(F)c(F)c(F)c4F)c4ccc([nH]4)c(-c4c(F)c(F)c(F)c(F)c4F)c4nc(c(-c5c(F)c(F)c(F)c(F)c5F)c5ccc2[nH]5)C=C4)C=C3)cc1
REMARK SMILES IDX 17 1 16 2 15 3 13 4 14 5 9 7 8 8 7 9 6 10 4 11 5 12 2 13
REMARK SMILES IDX 1 14 3 15 10 16 11 17 12 18 18 19 19 20 20 21 21 22 22 23
REMARK SMILES IDX 23 24 24 26 25 27 26 28 87 29 27 30 86 31 28 32 29 33 30 34
REMARK SMILES IDX 80 35 31 36 85 37 79 38 81 39 32 40 84 41 78 42 77 43 33 45
REMARK SMILES IDX 65 46 45 47 64 48 46 49 49 50 63 51 82 52 47 53 48 54 62 56
REMARK SMILES IDX 83 57 50 58 34 59 35 60 43 61 36 62 37 63 41 64 44 65 38 66
REMARK SMILES IDX 39 67 42 68 40 69 66 70 67 71 75 72 68 73 69 74 73 75 76 76
REMARK SMILES IDX 70 77 71 78 74 79 72 80 51 81 52 82 60 83 53 84 54 85 58 86
REMARK SMILES IDX 61 87 55 88 56 89 59 90 57 91
REMARK H PARENT 15 6 22 25 81 44 49 55
REMARK Flexibility Score: inf
ROOT
ATOM      1  C   UNL A   1      36.995  22.869  24.807  1.00  0.00     0.021 C 
ENDROOT
BRANCH   1   2
ATOM      2  C   UNL A   1      36.061  23.766  25.605  1.00  0.00     0.116 C 
BRANCH   2   3
ATOM      3  N   UNL A   1      35.453  23.035  26.701  1.00  0.00    -0.355 N 
ATOM      4  C   UNL A   1      34.151  22.705  26.909  1.00  0.00     0.230 C 
ATOM      5  O   UNL A   1      33.863  22.083  27.933  1.00  0.00    -0.274 OA
ATOM      6  H   UNL A   1      36.078  22.732  27.399  1.00  0.00     0.163 HD
BRANCH   4   7
ATOM      7  C   UNL A   1      33.084  23.103  25.908  1.00  0.00     0.148 C 
BRANCH   7   8
ATOM      8  C   UNL A   1      32.356  21.833  25.419  1.00  0.00     0.063 C 
BRANCH   8   9
ATOM      9  C   UNL A   1      33.139  20.968  24.432  1.00  0.00     0.234 C 
BRANCH   9  10
ATOM     10  O   UNL A   1      33.781  19.881  25.107  1.00  0.00    -0.462 OA
BRANCH  10  11
ATOM     11  C   UNL A   1      33.131  18.693  25.084  1.00  0.00     0.333 C 
ATOM     12  O   UNL A   1      32.171  18.377  25.770  1.00  0.00    -0.247 OA
BRANCH  11  13
ATOM     13  C   UNL A   1      33.713  17.849  24.014  1.00  0.00     0.027 C 
ATOM     14  C   UNL A   1      34.922  17.311  24.238  1.00  0.00     0.020 C 
ATOM     15  C   UNL A   1      32.933  17.669  22.751  1.00  0.00     0.051 C 
ENDBRANCH  11  13
ENDBRANCH  10  11
ENDBRANCH   9  10
ENDBRANCH   8   9
ENDBRANCH   7   8
BRANCH   7  16
ATOM     16  C   UNL A   1      32.164  24.185  26.463  1.00  0.00     0.142 C 
ATOM     17  C   UNL A   1      32.369  25.604  25.985  1.00  0.00     0.088 C 
ATOM     18  O   UNL A   1      31.272  23.935  27.278  1.00  0.00    -0.299 OA
ENDBRANCH   7  16
ENDBRANCH   4   7
ENDBRANCH   2   3
ENDBRANCH   1   2
BRANCH   1  19
ATOM     19  C   UNL A   1      37.377  21.584  25.543  1.00  0.00     0.002 C 
BRANCH  19  20
ATOM     20  C   UNL A   1      37.222  20.305  24.713  1.00  0.00     0.002 C 
BRANCH  20  21
ATOM     21  C   UNL A   1      38.273  19.229  24.997  1.00  0.00     0.021 C 
BRANCH  21  22
ATOM     22  C   UNL A   1      39.294  19.619  26.058  1.00  0.00     0.116 C 
BRANCH  22  23
ATOM     23  N   UNL A   1      40.515  18.838  25.946  1.00  0.00    -0.352 N 
ATOM     24  C   UNL A   1      41.817  19.263  25.958  1.00  0.00     0.251 C 
ATOM     25  H   UNL A   1      40.387  17.866  25.849  1.00  0.00     0.163 HD
ATOM     26  O   UNL A   1      42.725  18.504  25.638  1.00  0.00    -0.269 OA
BRANCH  24  27
ATOM     27  C   UNL A   1      42.117  20.656  26.344  1.00  0.00     0.039 A 
ATOM     28  C   UNL A   1      42.269  20.964  27.696  1.00  0.00     0.014 A 
ATOM     29  C   UNL A   1      42.261  21.647  25.368  1.00  0.00     0.014 A 
ATOM     30  C   UNL A   1      42.630  22.259  28.069  1.00  0.00     0.010 A 
ATOM     31  C   UNL A   1      42.694  22.915  25.735  1.00  0.00     0.010 A 
ATOM     32  C   UNL A   1      42.881  23.234  27.089  1.00  0.00    -0.014 A 
BRANCH  32  33
ATOM     33  C   UNL A   1      43.354  24.590  27.459  1.00  0.00     0.031 A 
ATOM     34  C   UNL A   1      42.370  25.652  27.855  1.00  0.00     0.074 A 
ATOM     35  C   UNL A   1      44.666  24.879  27.370  1.00  0.00     0.049 A 
ATOM     36  N   UNL A   1      42.580  26.910  28.144  1.00  0.00    -0.248 NA
ATOM     37  C   UNL A   1      40.955  25.251  27.908  1.00  0.00     0.031 C 
ATOM     38  C   UNL A   1      45.712  23.942  26.959  1.00  0.00     0.029 A 
ATOM     39  N   UNL A   1      45.343  26.048  27.612  1.00  0.00    -0.354 N 
ATOM     40  C   UNL A   1      41.328  27.452  28.404  1.00  0.00     0.074 A 
ATOM     41  C   UNL A   1      40.358  26.402  28.180  1.00  0.00     0.031 C 
ATOM     42  C   UNL A   1      46.900  24.564  27.002  1.00  0.00     0.029 A 
ATOM     43  C   UNL A   1      46.696  25.954  27.398  1.00  0.00     0.049 A 
ATOM     44  H   UNL A   1      44.900  26.875  27.911  1.00  0.00     0.167 HD
ATOM     45  C   UNL A   1      41.020  28.705  28.815  1.00  0.00     0.037 A 
ATOM     46  C   UNL A   1      47.660  26.888  27.496  1.00  0.00     0.037 A 
ATOM     47  C   UNL A   1      41.992  29.742  29.043  1.00  0.00     0.049 A 
ATOM     48  C   UNL A   1      47.286  28.285  27.912  1.00  0.00     0.074 A 
ATOM     49  C   UNL A   1      41.790  31.026  29.516  1.00  0.00     0.029 A 
ATOM     50  N   UNL A   1      43.354  29.615  28.801  1.00  0.00    -0.354 N 
ATOM     51  N   UNL A   1      46.109  28.768  28.228  1.00  0.00    -0.248 NA
ATOM     52  C   UNL A   1      48.377  29.266  27.985  1.00  0.00     0.031 C 
ATOM     53  C   UNL A   1      43.019  31.695  29.503  1.00  0.00     0.029 A 
ATOM     54  C   UNL A   1      43.998  30.811  29.078  1.00  0.00     0.049 A 
ATOM     55  H   UNL A   1      43.796  28.795  28.480  1.00  0.00     0.167 HD
ATOM     56  C   UNL A   1      46.318  30.100  28.556  1.00  0.00     0.074 A 
ATOM     57  C   UNL A   1      47.740  30.343  28.422  1.00  0.00     0.031 C 
ATOM     58  C   UNL A   1      45.414  31.039  28.933  1.00  0.00     0.037 A 
BRANCH  45  59
ATOM     59  C   UNL A   1      39.568  29.021  29.035  1.00  0.00     0.064 A 
ATOM     60  C   UNL A   1      38.748  29.492  27.997  1.00  0.00     0.173 A 
ATOM     61  C   UNL A   1      38.981  28.835  30.296  1.00  0.00     0.173 A 
ATOM     62  F   UNL A   1      39.260  29.699  26.774  1.00  0.00    -0.203 F 
ATOM     63  C   UNL A   1      37.411  29.805  28.222  1.00  0.00     0.198 A 
ATOM     64  C   UNL A   1      37.633  29.114  30.510  1.00  0.00     0.198 A 
ATOM     65  F   UNL A   1      39.713  28.380  31.324  1.00  0.00    -0.203 F 
ATOM     66  F   UNL A   1      36.666  30.313  27.230  1.00  0.00    -0.200 F 
ATOM     67  C   UNL A   1      36.852  29.609  29.476  1.00  0.00     0.200 A 
ATOM     68  F   UNL A   1      37.092  28.911  31.719  1.00  0.00    -0.200 F 
ATOM     69  F   UNL A   1      35.563  29.908  29.692  1.00  0.00    -0.200 F 
ENDBRANCH  45  59
BRANCH  46  70
ATOM     70  C   UNL A   1      49.072  26.526  27.210  1.00  0.00     0.064 A 
ATOM     71  C   UNL A   1      49.561  26.522  25.897  1.00  0.00     0.173 A 
ATOM     72  C   UNL A   1      49.964  26.185  28.238  1.00  0.00     0.173 A 
ATOM     73  F   UNL A   1      48.742  26.822  24.878  1.00  0.00    -0.203 F 
ATOM     74  C   UNL A   1      50.882  26.177  25.620  1.00  0.00     0.198 A 
ATOM     75  C   UNL A   1      51.292  25.869  27.964  1.00  0.00     0.198 A 
ATOM     76  F   UNL A   1      49.547  26.178  29.513  1.00  0.00    -0.203 F 
ATOM     77  F   UNL A   1      51.311  26.141  24.351  1.00  0.00    -0.200 F 
ATOM     78  C   UNL A   1      51.748  25.858  26.654  1.00  0.00     0.200 A 
ATOM     79  F   UNL A   1      52.131  25.576  28.967  1.00  0.00    -0.200 F 
ATOM     80  F   UNL A   1      53.021  25.533  26.389  1.00  0.00    -0.200 F 
ENDBRANCH  46  70
BRANCH  58  81
ATOM     81  C   UNL A   1      45.938  32.412  29.241  1.00  0.00     0.064 A 
ATOM     82  C   UNL A   1      46.000  33.413  28.259  1.00  0.00     0.173 A 
ATOM     83  C   UNL A   1      46.347  32.744  30.542  1.00  0.00     0.173 A 
ATOM     84  F   UNL A   1      45.637  33.144  26.996  1.00  0.00    -0.203 F 
ATOM     85  C   UNL A   1      46.476  34.686  28.564  1.00  0.00     0.198 A 
ATOM     86  C   UNL A   1      46.790  34.027  30.850  1.00  0.00     0.198 A 
ATOM     87  F   UNL A   1      46.302  31.826  31.519  1.00  0.00    -0.203 F 
ATOM     88  F   UNL A   1      46.575  35.610  27.598  1.00  0.00    -0.200 F 
ATOM     89  C   UNL A   1      46.862  34.994  29.859  1.00  0.00     0.200 A 
ATOM     90  F   UNL A   1      47.147  34.327  32.107  1.00  0.00    -0.200 F 
ATOM     91  F   UNL A   1      47.310  36.223  30.153  1.00  0.00    -0.200 F 
ENDBRANCH  58  81
ENDBRANCH  32  33
ENDBRANCH  24  27
ENDBRANCH  22  23
ENDBRANCH  21  22
ENDBRANCH  20  21
ENDBRANCH  19  20
ENDBRANCH   1  19
TORSDOF 19
ENDMDL
