MODEL 1
REMARK VINA RESULT:     -12.1      0.000      0.000
REMARK SMILES Cc1nc(C)c(C(=O)N[C@@H](Cc2ccccc2)C(=O)NCCCCCCNC(=O)c2ccc(-c3c4nc(c(-c5c(F)c(F)c(F)c(F)c5F)c5ccc([nH]5)c(-c5c(F)c(F)c(F)c(F)c5F)c5nc(c(-c6c(F)c(F)c(F)c(F)c6F)c6ccc3[nH]6)C=C5)C=C4)cc2)s1
REMARK SMILES IDX 23 1 22 2 21 3 20 4 18 5 19 6 10 8 9 9 7 10 8 11 6 13 1 14
REMARK SMILES IDX 2 15 3 16 93 17 4 18 5 19 11 20 12 21 13 22 17 23 14 24
REMARK SMILES IDX 16 25 15 26 24 27 25 28 26 29 27 30 28 31 29 33 30 34 31 35
REMARK SMILES IDX 92 36 32 37 91 38 33 39 34 40 35 41 85 42 36 43 90 44 84 45
REMARK SMILES IDX 86 46 37 47 89 48 83 49 82 50 38 52 70 53 50 54 69 55 51 56
REMARK SMILES IDX 54 57 68 58 87 59 52 60 53 61 67 63 88 64 55 65 39 66 40 67
REMARK SMILES IDX 48 68 41 69 42 70 46 71 49 72 43 73 44 74 47 75 45 76 71 77
REMARK SMILES IDX 72 78 80 79 73 80 74 81 78 82 81 83 75 84 76 85 79 86 77 87
REMARK SMILES IDX 56 88 57 89 65 90 58 91 59 92 63 93 66 94 60 95 61 96 64 97
REMARK SMILES IDX 62 98
REMARK H PARENT 20 7 9 12 27 32 86 51 54 62
REMARK Flexibility Score: inf
ROOT
ATOM      1  C   UNL A   1      32.357  29.931  26.641  1.00  0.00     0.002 C 
ENDROOT
BRANCH   1   2
ATOM      2  C   UNL A   1      31.803  28.662  27.293  1.00  0.00     0.021 C 
BRANCH   2   3
ATOM      3  C   UNL A   1      31.812  27.427  26.405  1.00  0.00     0.116 C 
BRANCH   3   4
ATOM      4  N   UNL A   1      30.844  26.423  26.784  1.00  0.00    -0.354 N 
ATOM      5  C   UNL A   1      30.181  25.515  26.015  1.00  0.00     0.242 C 
ATOM      6  O   UNL A   1      29.756  24.510  26.597  1.00  0.00    -0.273 OA
ATOM      7  H   UNL A   1      30.632  26.391  27.745  1.00  0.00     0.163 HD
BRANCH   5   8
ATOM      8  C   UNL A   1      30.023  25.637  24.481  1.00  0.00     0.176 C 
BRANCH   8   9
ATOM      9  N   UNL A   1      30.313  24.403  23.743  1.00  0.00    -0.339 N 
ATOM     10  C   UNL A   1      31.394  23.566  23.607  1.00  0.00     0.263 C 
ATOM     11  O   UNL A   1      31.102  22.536  22.989  1.00  0.00    -0.268 OA
ATOM     12  H   UNL A   1      29.541  24.098  23.213  1.00  0.00     0.164 HD
BRANCH  10  13
ATOM     13  C   UNL A   1      32.754  23.823  24.074  1.00  0.00     0.115 A 
ATOM     14  C   UNL A   1      36.171  23.597  25.952  1.00  0.00     0.079 C 
ATOM     15  C   UNL A   1      34.963  23.883  25.134  1.00  0.00     0.091 A 
ATOM     16  N   UNL A   1      34.833  24.913  24.334  1.00  0.00    -0.246 NA
ATOM     17  S   UNL A   1      33.610  22.857  25.200  1.00  0.00    -0.113 S 
ATOM     18  C   UNL A   1      33.581  24.896  23.723  1.00  0.00     0.061 A 
ATOM     19  C   UNL A   1      33.310  26.037  22.803  1.00  0.00     0.068 C 
ENDBRANCH  10  13
ENDBRANCH   8   9
BRANCH   8  20
ATOM     20  C   UNL A   1      28.748  26.357  23.999  1.00  0.00     0.070 C 
BRANCH  20  21
ATOM     21  C   UNL A   1      28.896  27.694  23.319  1.00  0.00    -0.045 A 
ATOM     22  C   UNL A   1      27.783  28.503  23.052  1.00  0.00     0.004 A 
ATOM     23  C   UNL A   1      30.169  28.144  22.935  1.00  0.00     0.004 A 
ATOM     24  C   UNL A   1      27.946  29.757  22.456  1.00  0.00     0.000 A 
ATOM     25  C   UNL A   1      30.328  29.393  22.331  1.00  0.00     0.000 A 
ATOM     26  C   UNL A   1      29.218  30.201  22.099  1.00  0.00     0.000 A 
ENDBRANCH  20  21
ENDBRANCH   8  20
ENDBRANCH   5   8
ENDBRANCH   3   4
ENDBRANCH   2   3
ENDBRANCH   1   2
BRANCH   1  27
ATOM     27  C   UNL A   1      31.331  30.843  25.955  1.00  0.00     0.002 C 
BRANCH  27  28
ATOM     28  C   UNL A   1      31.284  32.291  26.447  1.00  0.00     0.021 C 
BRANCH  28  29
ATOM     29  C   UNL A   1      32.553  32.798  27.121  1.00  0.00     0.116 C 
BRANCH  29  30
ATOM     30  N   UNL A   1      32.420  34.155  27.616  1.00  0.00    -0.352 N 
ATOM     31  C   UNL A   1      33.090  34.786  28.630  1.00  0.00     0.251 C 
ATOM     32  H   UNL A   1      31.748  34.706  27.154  1.00  0.00     0.163 HD
ATOM     33  O   UNL A   1      32.729  35.903  29.002  1.00  0.00    -0.269 OA
BRANCH  31  34
ATOM     34  C   UNL A   1      34.231  34.127  29.303  1.00  0.00     0.039 A 
ATOM     35  C   UNL A   1      35.529  34.503  28.940  1.00  0.00     0.014 A 
ATOM     36  C   UNL A   1      34.036  33.128  30.260  1.00  0.00     0.014 A 
ATOM     37  C   UNL A   1      36.625  33.907  29.566  1.00  0.00     0.010 A 
ATOM     38  C   UNL A   1      35.128  32.593  30.940  1.00  0.00     0.010 A 
ATOM     39  C   UNL A   1      36.434  32.966  30.590  1.00  0.00    -0.014 A 
BRANCH  39  40
ATOM     40  C   UNL A   1      37.592  32.345  31.282  1.00  0.00     0.031 A 
ATOM     41  C   UNL A   1      38.349  31.222  30.626  1.00  0.00     0.074 A 
ATOM     42  C   UNL A   1      37.936  32.763  32.515  1.00  0.00     0.049 A 
ATOM     43  N   UNL A   1      39.361  30.527  31.083  1.00  0.00    -0.248 NA
ATOM     44  C   UNL A   1      37.893  30.806  29.291  1.00  0.00     0.031 C 
ATOM     45  C   UNL A   1      37.252  33.811  33.273  1.00  0.00     0.029 A 
ATOM     46  N   UNL A   1      38.946  32.353  33.350  1.00  0.00    -0.354 N 
ATOM     47  C   UNL A   1      39.650  29.589  30.101  1.00  0.00     0.074 A 
ATOM     48  C   UNL A   1      38.672  29.762  29.050  1.00  0.00     0.031 C 
ATOM     49  C   UNL A   1      37.877  33.981  34.449  1.00  0.00     0.029 A 
ATOM     50  C   UNL A   1      38.982  33.031  34.544  1.00  0.00     0.049 A 
ATOM     51  H   UNL A   1      39.584  31.642  33.116  1.00  0.00     0.167 HD
ATOM     52  C   UNL A   1      40.657  28.683  30.065  1.00  0.00     0.037 A 
ATOM     53  C   UNL A   1      39.811  32.900  35.596  1.00  0.00     0.037 A 
ATOM     54  C   UNL A   1      41.644  28.531  31.102  1.00  0.00     0.049 A 
ATOM     55  C   UNL A   1      40.921  31.884  35.532  1.00  0.00     0.074 A 
ATOM     56  C   UNL A   1      42.733  27.678  31.139  1.00  0.00     0.029 A 
ATOM     57  N   UNL A   1      41.659  29.249  32.289  1.00  0.00    -0.354 N 
ATOM     58  N   UNL A   1      41.225  31.049  34.568  1.00  0.00    -0.248 NA
ATOM     59  C   UNL A   1      41.810  31.803  36.698  1.00  0.00     0.031 C 
ATOM     60  C   UNL A   1      43.379  27.847  32.369  1.00  0.00     0.029 A 
ATOM     61  C   UNL A   1      42.727  28.845  33.073  1.00  0.00     0.049 A 
ATOM     62  H   UNL A   1      41.006  29.943  32.538  1.00  0.00     0.167 HD
ATOM     63  C   UNL A   1      42.358  30.369  34.996  1.00  0.00     0.074 A 
ATOM     64  C   UNL A   1      42.695  30.900  36.300  1.00  0.00     0.031 C 
ATOM     65  C   UNL A   1      43.056  29.393  34.365  1.00  0.00     0.037 A 
BRANCH  52  66
ATOM     66  C   UNL A   1      40.744  27.787  28.862  1.00  0.00     0.064 A 
ATOM     67  C   UNL A   1      39.955  26.631  28.746  1.00  0.00     0.173 A 
ATOM     68  C   UNL A   1      41.600  28.103  27.797  1.00  0.00     0.173 A 
ATOM     69  F   UNL A   1      39.128  26.275  29.741  1.00  0.00    -0.203 F 
ATOM     70  C   UNL A   1      40.044  25.811  27.624  1.00  0.00     0.198 A 
ATOM     71  C   UNL A   1      41.662  27.299  26.661  1.00  0.00     0.198 A 
ATOM     72  F   UNL A   1      42.373  29.198  27.852  1.00  0.00    -0.203 F 
ATOM     73  F   UNL A   1      39.319  24.685  27.560  1.00  0.00    -0.200 F 
ATOM     74  C   UNL A   1      40.890  26.150  26.579  1.00  0.00     0.200 A 
ATOM     75  F   UNL A   1      42.470  27.635  25.646  1.00  0.00    -0.200 F 
ATOM     76  F   UNL A   1      40.969  25.364  25.496  1.00  0.00    -0.200 F 
ENDBRANCH  52  66
BRANCH  53  77
ATOM     77  C   UNL A   1      39.644  33.771  36.790  1.00  0.00     0.064 A 
ATOM     78  C   UNL A   1      38.854  33.364  37.874  1.00  0.00     0.173 A 
ATOM     79  C   UNL A   1      40.260  35.028  36.868  1.00  0.00     0.173 A 
ATOM     80  F   UNL A   1      38.229  32.178  37.839  1.00  0.00    -0.203 F 
ATOM     81  C   UNL A   1      38.665  34.191  38.979  1.00  0.00     0.198 A 
ATOM     82  C   UNL A   1      40.095  35.843  37.986  1.00  0.00     0.198 A 
ATOM     83  F   UNL A   1      41.032  35.462  35.861  1.00  0.00    -0.203 F 
ATOM     84  F   UNL A   1      37.862  33.800  39.977  1.00  0.00    -0.200 F 
ATOM     85  C   UNL A   1      39.290  35.428  39.036  1.00  0.00     0.200 A 
ATOM     86  F   UNL A   1      40.714  37.029  38.046  1.00  0.00    -0.200 F 
ATOM     87  F   UNL A   1      39.109  36.223  40.100  1.00  0.00    -0.200 F 
ENDBRANCH  53  77
BRANCH  65  88
ATOM     88  C   UNL A   1      44.284  28.870  35.054  1.00  0.00     0.064 A 
ATOM     89  C   UNL A   1      44.233  27.764  35.917  1.00  0.00     0.173 A 
ATOM     90  C   UNL A   1      45.532  29.467  34.826  1.00  0.00     0.173 A 
ATOM     91  F   UNL A   1      43.062  27.165  36.180  1.00  0.00    -0.203 F 
ATOM     92  C   UNL A   1      45.383  27.297  36.549  1.00  0.00     0.198 A 
ATOM     93  C   UNL A   1      46.685  28.977  35.433  1.00  0.00     0.198 A 
ATOM     94  F   UNL A   1      45.638  30.522  34.004  1.00  0.00    -0.203 F 
ATOM     95  F   UNL A   1      45.302  26.276  37.412  1.00  0.00    -0.200 F 
ATOM     96  C   UNL A   1      46.608  27.899  36.301  1.00  0.00     0.200 A 
ATOM     97  F   UNL A   1      47.870  29.550  35.180  1.00  0.00    -0.200 F 
ATOM     98  F   UNL A   1      47.713  27.445  36.907  1.00  0.00    -0.200 F 
ENDBRANCH  65  88
ENDBRANCH  39  40
ENDBRANCH  31  34
ENDBRANCH  29  30
ENDBRANCH  28  29
ENDBRANCH  27  28
ENDBRANCH   1  27
TORSDOF 17
ENDMDL
MODEL 2
REMARK VINA RESULT:     -12.0      1.314      7.416
REMARK SMILES Cc1nc(C)c(C(=O)N[C@@H](Cc2ccccc2)C(=O)NCCCCCCNC(=O)c2ccc(-c3c4nc(c(-c5c(F)c(F)c(F)c(F)c5F)c5ccc([nH]5)c(-c5c(F)c(F)c(F)c(F)c5F)c5nc(c(-c6c(F)c(F)c(F)c(F)c6F)c6ccc3[nH]6)C=C5)C=C4)cc2)s1
REMARK SMILES IDX 23 1 22 2 21 3 20 4 18 5 19 6 10 8 9 9 7 10 8 11 6 13 1 14
REMARK SMILES IDX 2 15 3 16 93 17 4 18 5 19 11 20 12 21 13 22 17 23 14 24
REMARK SMILES IDX 16 25 15 26 24 27 25 28 26 29 27 30 28 31 29 33 30 34 31 35
REMARK SMILES IDX 92 36 32 37 91 38 33 39 34 40 35 41 85 42 36 43 90 44 84 45
REMARK SMILES IDX 86 46 37 47 89 48 83 49 82 50 38 52 70 53 50 54 69 55 51 56
REMARK SMILES IDX 54 57 68 58 87 59 52 60 53 61 67 63 88 64 55 65 39 66 40 67
REMARK SMILES IDX 48 68 41 69 42 70 46 71 49 72 43 73 44 74 47 75 45 76 71 77
REMARK SMILES IDX 72 78 80 79 73 80 74 81 78 82 81 83 75 84 76 85 79 86 77 87
REMARK SMILES IDX 56 88 57 89 65 90 58 91 59 92 63 93 66 94 60 95 61 96 64 97
REMARK SMILES IDX 62 98
REMARK H PARENT 20 7 9 12 27 32 86 51 54 62
REMARK Flexibility Score: inf
ROOT
ATOM      1  C   UNL A   1      32.001  29.451  26.623  1.00  0.00     0.002 C 
ENDROOT
BRANCH   1   2
ATOM      2  C   UNL A   1      31.466  28.034  26.395  1.00  0.00     0.021 C 
BRANCH   2   3
ATOM      3  C   UNL A   1      32.363  27.136  25.558  1.00  0.00     0.116 C 
BRANCH   3   4
ATOM      4  N   UNL A   1      33.279  27.853  24.701  1.00  0.00    -0.354 N 
ATOM      5  C   UNL A   1      33.144  28.227  23.398  1.00  0.00     0.242 C 
ATOM      6  O   UNL A   1      33.843  29.176  23.025  1.00  0.00    -0.273 OA
ATOM      7  H   UNL A   1      34.130  28.109  25.123  1.00  0.00     0.163 HD
BRANCH   5   8
ATOM      8  C   UNL A   1      32.121  27.599  22.422  1.00  0.00     0.176 C 
BRANCH   8   9
ATOM      9  N   UNL A   1      32.657  26.503  21.607  1.00  0.00    -0.339 N 
ATOM     10  C   UNL A   1      33.013  25.195  21.824  1.00  0.00     0.263 C 
ATOM     11  O   UNL A   1      33.266  24.605  20.767  1.00  0.00    -0.268 OA
ATOM     12  H   UNL A   1      32.795  26.773  20.670  1.00  0.00     0.164 HD
BRANCH  10  13
ATOM     13  C   UNL A   1      33.139  24.534  23.121  1.00  0.00     0.115 A 
ATOM     14  C   UNL A   1      34.561  23.047  26.441  1.00  0.00     0.079 C 
ATOM     15  C   UNL A   1      33.807  23.523  25.252  1.00  0.00     0.091 A 
ATOM     16  N   UNL A   1      32.530  23.310  25.047  1.00  0.00    -0.246 NA
ATOM     17  S   UNL A   1      34.589  24.396  24.023  1.00  0.00    -0.113 S 
ATOM     18  C   UNL A   1      32.133  23.877  23.838  1.00  0.00     0.061 A 
ATOM     19  C   UNL A   1      30.698  23.678  23.486  1.00  0.00     0.068 C 
ENDBRANCH  10  13
ENDBRANCH   8   9
BRANCH   8  20
ATOM     20  C   UNL A   1      30.732  27.299  23.017  1.00  0.00     0.070 C 
BRANCH  20  21
ATOM     21  C   UNL A   1      29.656  28.347  22.883  1.00  0.00    -0.045 A 
ATOM     22  C   UNL A   1      28.317  28.057  23.178  1.00  0.00     0.004 A 
ATOM     23  C   UNL A   1      29.991  29.639  22.448  1.00  0.00     0.004 A 
ATOM     24  C   UNL A   1      27.341  29.055  23.085  1.00  0.00     0.000 A 
ATOM     25  C   UNL A   1      29.013  30.630  22.346  1.00  0.00     0.000 A 
ATOM     26  C   UNL A   1      27.690  30.340  22.672  1.00  0.00     0.000 A 
ENDBRANCH  20  21
ENDBRANCH   8  20
ENDBRANCH   5   8
ENDBRANCH   3   4
ENDBRANCH   2   3
ENDBRANCH   1   2
BRANCH   1  27
ATOM     27  C   UNL A   1      31.354  30.562  25.785  1.00  0.00     0.002 C 
BRANCH  27  28
ATOM     28  C   UNL A   1      31.246  31.933  26.456  1.00  0.00     0.021 C 
BRANCH  28  29
ATOM     29  C   UNL A   1      32.529  32.459  27.086  1.00  0.00     0.116 C 
BRANCH  29  30
ATOM     30  N   UNL A   1      32.412  33.836  27.528  1.00  0.00    -0.352 N 
ATOM     31  C   UNL A   1      33.136  34.516  28.471  1.00  0.00     0.251 C 
ATOM     32  H   UNL A   1      31.708  34.361  27.083  1.00  0.00     0.163 HD
ATOM     33  O   UNL A   1      32.786  35.646  28.814  1.00  0.00    -0.269 OA
BRANCH  31  34
ATOM     34  C   UNL A   1      34.322  33.897  29.102  1.00  0.00     0.039 A 
ATOM     35  C   UNL A   1      34.123  32.917  30.080  1.00  0.00     0.014 A 
ATOM     36  C   UNL A   1      35.619  34.291  28.762  1.00  0.00     0.014 A 
ATOM     37  C   UNL A   1      35.223  32.306  30.684  1.00  0.00     0.010 A 
ATOM     38  C   UNL A   1      36.714  33.625  29.308  1.00  0.00     0.010 A 
ATOM     39  C   UNL A   1      36.528  32.636  30.285  1.00  0.00    -0.014 A 
BRANCH  39  40
ATOM     40  C   UNL A   1      37.706  31.975  30.903  1.00  0.00     0.031 A 
ATOM     41  C   UNL A   1      38.156  32.369  32.283  1.00  0.00     0.074 A 
ATOM     42  C   UNL A   1      38.393  31.050  30.206  1.00  0.00     0.049 A 
ATOM     43  N   UNL A   1      39.180  31.938  32.976  1.00  0.00    -0.248 NA
ATOM     44  C   UNL A   1      37.368  33.407  32.966  1.00  0.00     0.031 C 
ATOM     45  C   UNL A   1      38.084  30.616  28.843  1.00  0.00     0.029 A 
ATOM     46  N   UNL A   1      39.499  30.311  30.547  1.00  0.00    -0.354 N 
ATOM     47  C   UNL A   1      39.164  32.657  34.164  1.00  0.00     0.074 A 
ATOM     48  C   UNL A   1      38.067  33.595  34.075  1.00  0.00     0.031 C 
ATOM     49  C   UNL A   1      38.960  29.668  28.474  1.00  0.00     0.029 A 
ATOM     50  C   UNL A   1      39.915  29.454  29.558  1.00  0.00     0.049 A 
ATOM     51  H   UNL A   1      39.952  30.388  31.418  1.00  0.00     0.167 HD
ATOM     52  C   UNL A   1      39.973  32.528  35.243  1.00  0.00     0.037 A 
ATOM     53  C   UNL A   1      40.950  28.594  29.528  1.00  0.00     0.037 A 
ATOM     54  C   UNL A   1      41.048  31.576  35.337  1.00  0.00     0.049 A 
ATOM     55  C   UNL A   1      41.835  28.471  30.741  1.00  0.00     0.074 A 
ATOM     56  C   UNL A   1      41.894  31.331  36.405  1.00  0.00     0.029 A 
ATOM     57  N   UNL A   1      41.427  30.710  34.322  1.00  0.00    -0.354 N 
ATOM     58  N   UNL A   1      41.768  29.110  31.884  1.00  0.00    -0.248 NA
ATOM     59  C   UNL A   1      42.933  27.499  30.660  1.00  0.00     0.031 C 
ATOM     60  C   UNL A   1      42.815  30.352  36.018  1.00  0.00     0.029 A 
ATOM     61  C   UNL A   1      42.507  29.944  34.731  1.00  0.00     0.049 A 
ATOM     62  H   UNL A   1      40.994  30.650  33.439  1.00  0.00     0.167 HD
ATOM     63  C   UNL A   1      42.790  28.593  32.670  1.00  0.00     0.074 A 
ATOM     64  C   UNL A   1      43.452  27.578  31.877  1.00  0.00     0.031 C 
ATOM     65  C   UNL A   1      43.147  28.929  33.933  1.00  0.00     0.037 A 
BRANCH  52  66
ATOM     66  C   UNL A   1      39.724  33.439  36.412  1.00  0.00     0.064 A 
ATOM     67  C   UNL A   1      40.364  34.684  36.525  1.00  0.00     0.173 A 
ATOM     68  C   UNL A   1      38.809  33.081  37.413  1.00  0.00     0.173 A 
ATOM     69  F   UNL A   1      41.257  35.070  35.602  1.00  0.00    -0.203 F 
ATOM     70  C   UNL A   1      40.121  35.519  37.613  1.00  0.00     0.198 A 
ATOM     71  C   UNL A   1      38.543  33.934  38.482  1.00  0.00     0.198 A 
ATOM     72  F   UNL A   1      38.165  31.906  37.352  1.00  0.00    -0.203 F 
ATOM     73  F   UNL A   1      40.784  36.679  37.726  1.00  0.00    -0.200 F 
ATOM     74  C   UNL A   1      39.205  35.148  38.585  1.00  0.00     0.200 A 
ATOM     75  F   UNL A   1      37.647  33.580  39.414  1.00  0.00    -0.200 F 
ATOM     76  F   UNL A   1      38.966  35.956  39.627  1.00  0.00    -0.200 F 
ENDBRANCH  52  66
BRANCH  53  77
ATOM     77  C   UNL A   1      41.190  27.758  28.323  1.00  0.00     0.064 A 
ATOM     78  C   UNL A   1      40.590  26.498  28.188  1.00  0.00     0.173 A 
ATOM     79  C   UNL A   1      42.030  28.193  27.288  1.00  0.00     0.173 A 
ATOM     80  F   UNL A   1      39.793  26.028  29.159  1.00  0.00    -0.203 F 
ATOM     81  C   UNL A   1      40.841  25.694  27.078  1.00  0.00     0.198 A 
ATOM     82  C   UNL A   1      42.258  27.402  26.163  1.00  0.00     0.198 A 
ATOM     83  F   UNL A   1      42.624  29.393  27.364  1.00  0.00    -0.203 F 
ATOM     84  F   UNL A   1      40.297  24.473  26.999  1.00  0.00    -0.200 F 
ATOM     85  C   UNL A   1      41.671  26.149  26.064  1.00  0.00     0.200 A 
ATOM     86  F   UNL A   1      43.046  27.852  25.178  1.00  0.00    -0.200 F 
ATOM     87  F   UNL A   1      41.911  25.378  24.995  1.00  0.00    -0.200 F 
ENDBRANCH  53  77
BRANCH  65  88
ATOM     88  C   UNL A   1      44.275  28.158  34.558  1.00  0.00     0.064 A 
ATOM     89  C   UNL A   1      45.606  28.594  34.472  1.00  0.00     0.173 A 
ATOM     90  C   UNL A   1      44.016  26.981  35.276  1.00  0.00     0.173 A 
ATOM     91  F   UNL A   1      45.910  29.706  33.784  1.00  0.00    -0.203 F 
ATOM     92  C   UNL A   1      46.638  27.862  35.054  1.00  0.00     0.198 A 
ATOM     93  C   UNL A   1      45.046  26.271  35.886  1.00  0.00     0.198 A 
ATOM     94  F   UNL A   1      42.760  26.524  35.396  1.00  0.00    -0.203 F 
ATOM     95  F   UNL A   1      47.907  28.267  34.911  1.00  0.00    -0.200 F 
ATOM     96  C   UNL A   1      46.356  26.706  35.767  1.00  0.00     0.200 A 
ATOM     97  F   UNL A   1      44.769  25.162  36.587  1.00  0.00    -0.200 F 
ATOM     98  F   UNL A   1      47.350  26.006  36.330  1.00  0.00    -0.200 F 
ENDBRANCH  65  88
ENDBRANCH  39  40
ENDBRANCH  31  34
ENDBRANCH  29  30
ENDBRANCH  28  29
ENDBRANCH  27  28
ENDBRANCH   1  27
TORSDOF 17
ENDMDL
MODEL 3
REMARK VINA RESULT:     -11.9      5.224      9.575
REMARK SMILES Cc1nc(C)c(C(=O)N[C@@H](Cc2ccccc2)C(=O)NCCCCCCNC(=O)c2ccc(-c3c4nc(c(-c5c(F)c(F)c(F)c(F)c5F)c5ccc([nH]5)c(-c5c(F)c(F)c(F)c(F)c5F)c5nc(c(-c6c(F)c(F)c(F)c(F)c6F)c6ccc3[nH]6)C=C5)C=C4)cc2)s1
REMARK SMILES IDX 23 1 22 2 21 3 20 4 18 5 19 6 10 8 9 9 7 10 8 11 6 13 1 14
REMARK SMILES IDX 2 15 3 16 93 17 4 18 5 19 11 20 12 21 13 22 17 23 14 24
REMARK SMILES IDX 16 25 15 26 24 27 25 28 26 29 27 30 28 31 29 33 30 34 31 35
REMARK SMILES IDX 92 36 32 37 91 38 33 39 34 40 35 41 85 42 36 43 90 44 84 45
REMARK SMILES IDX 86 46 37 47 89 48 83 49 82 50 38 52 70 53 50 54 69 55 51 56
REMARK SMILES IDX 54 57 68 58 87 59 52 60 53 61 67 63 88 64 55 65 39 66 40 67
REMARK SMILES IDX 48 68 41 69 42 70 46 71 49 72 43 73 44 74 47 75 45 76 71 77
REMARK SMILES IDX 72 78 80 79 73 80 74 81 78 82 81 83 75 84 76 85 79 86 77 87
REMARK SMILES IDX 56 88 57 89 65 90 58 91 59 92 63 93 66 94 60 95 61 96 64 97
REMARK SMILES IDX 62 98
REMARK H PARENT 20 7 9 12 27 32 86 51 54 62
REMARK Flexibility Score: inf
ROOT
ATOM      1  C   UNL A   1      36.561  21.785  24.595  1.00  0.00     0.002 C 
ENDROOT
BRANCH   1   2
ATOM      2  C   UNL A   1      35.922  22.799  25.549  1.00  0.00     0.021 C 
BRANCH   2   3
ATOM      3  C   UNL A   1      34.658  23.464  25.026  1.00  0.00     0.116 C 
BRANCH   3   4
ATOM      4  N   UNL A   1      34.603  23.571  23.586  1.00  0.00    -0.354 N 
ATOM      5  C   UNL A   1      33.553  23.387  22.737  1.00  0.00     0.242 C 
ATOM      6  O   UNL A   1      33.635  23.943  21.635  1.00  0.00    -0.273 OA
ATOM      7  H   UNL A   1      35.453  23.812  23.153  1.00  0.00     0.163 HD
BRANCH   5   8
ATOM      8  C   UNL A   1      32.265  22.617  23.113  1.00  0.00     0.176 C 
BRANCH   8   9
ATOM      9  N   UNL A   1      31.028  23.388  22.945  1.00  0.00    -0.339 N 
ATOM     10  C   UNL A   1      30.491  24.524  23.499  1.00  0.00     0.263 C 
ATOM     11  O   UNL A   1      29.469  24.887  22.905  1.00  0.00    -0.268 OA
ATOM     12  H   UNL A   1      30.436  22.993  22.264  1.00  0.00     0.164 HD
BRANCH  10  13
ATOM     13  C   UNL A   1      30.991  25.237  24.671  1.00  0.00     0.115 A 
ATOM     14  C   UNL A   1      32.437  27.978  27.050  1.00  0.00     0.079 C 
ATOM     15  C   UNL A   1      31.893  26.790  26.340  1.00  0.00     0.091 A 
ATOM     16  N   UNL A   1      31.704  25.617  26.891  1.00  0.00    -0.246 NA
ATOM     17  S   UNL A   1      31.479  26.879  24.695  1.00  0.00    -0.113 S 
ATOM     18  C   UNL A   1      31.192  24.719  25.956  1.00  0.00     0.061 A 
ATOM     19  C   UNL A   1      30.957  23.338  26.466  1.00  0.00     0.068 C 
ENDBRANCH  10  13
ENDBRANCH   8   9
BRANCH   8  20
ATOM     20  C   UNL A   1      32.171  21.176  22.574  1.00  0.00     0.070 C 
BRANCH  20  21
ATOM     21  C   UNL A   1      32.461  20.039  23.519  1.00  0.00    -0.045 A 
ATOM     22  C   UNL A   1      32.675  20.264  24.886  1.00  0.00     0.004 A 
ATOM     23  C   UNL A   1      32.526  18.725  23.030  1.00  0.00     0.004 A 
ATOM     24  C   UNL A   1      32.903  19.191  25.752  1.00  0.00     0.000 A 
ATOM     25  C   UNL A   1      32.764  17.656  23.896  1.00  0.00     0.000 A 
ATOM     26  C   UNL A   1      32.944  17.888  25.257  1.00  0.00     0.000 A 
ENDBRANCH  20  21
ENDBRANCH   8  20
ENDBRANCH   5   8
ENDBRANCH   3   4
ENDBRANCH   2   3
ENDBRANCH   1   2
BRANCH   1  27
ATOM     27  C   UNL A   1      36.446  20.310  25.001  1.00  0.00     0.002 C 
BRANCH  27  28
ATOM     28  C   UNL A   1      37.747  19.505  24.982  1.00  0.00     0.021 C 
BRANCH  28  29
ATOM     29  C   UNL A   1      38.906  20.110  25.764  1.00  0.00     0.116 C 
BRANCH  29  30
ATOM     30  N   UNL A   1      40.031  19.202  25.890  1.00  0.00    -0.352 N 
ATOM     31  C   UNL A   1      41.352  19.475  26.125  1.00  0.00     0.251 C 
ATOM     32  H   UNL A   1      39.812  18.247  25.792  1.00  0.00     0.163 HD
ATOM     33  O   UNL A   1      42.187  18.573  26.048  1.00  0.00    -0.269 OA
BRANCH  31  34
ATOM     34  C   UNL A   1      41.792  20.850  26.446  1.00  0.00     0.039 A 
ATOM     35  C   UNL A   1      41.954  21.762  25.398  1.00  0.00     0.014 A 
ATOM     36  C   UNL A   1      42.073  21.239  27.759  1.00  0.00     0.014 A 
ATOM     37  C   UNL A   1      42.356  23.071  25.672  1.00  0.00     0.010 A 
ATOM     38  C   UNL A   1      42.396  22.565  28.038  1.00  0.00     0.010 A 
ATOM     39  C   UNL A   1      42.556  23.491  26.997  1.00  0.00    -0.014 A 
BRANCH  39  40
ATOM     40  C   UNL A   1      42.959  24.887  27.303  1.00  0.00     0.031 A 
ATOM     41  C   UNL A   1      44.362  25.347  27.017  1.00  0.00     0.074 A 
ATOM     42  C   UNL A   1      42.075  25.727  27.874  1.00  0.00     0.049 A 
ATOM     43  N   UNL A   1      44.916  26.512  27.248  1.00  0.00    -0.248 NA
ATOM     44  C   UNL A   1      45.275  24.361  26.419  1.00  0.00     0.031 C 
ATOM     45  C   UNL A   1      40.700  25.385  28.241  1.00  0.00     0.029 A 
ATOM     46  N   UNL A   1      42.203  27.041  28.251  1.00  0.00    -0.354 N 
ATOM     47  C   UNL A   1      46.237  26.392  26.835  1.00  0.00     0.074 A 
ATOM     48  C   UNL A   1      46.420  25.026  26.397  1.00  0.00     0.031 C 
ATOM     49  C   UNL A   1      40.103  26.468  28.764  1.00  0.00     0.029 A 
ATOM     50  C   UNL A   1      41.062  27.569  28.804  1.00  0.00     0.049 A 
ATOM     51  H   UNL A   1      43.033  27.556  28.136  1.00  0.00     0.167 HD
ATOM     52  C   UNL A   1      47.203  27.341  26.799  1.00  0.00     0.037 A 
ATOM     53  C   UNL A   1      40.818  28.800  29.290  1.00  0.00     0.037 A 
ATOM     54  C   UNL A   1      47.009  28.706  27.214  1.00  0.00     0.049 A 
ATOM     55  C   UNL A   1      41.909  29.837  29.240  1.00  0.00     0.074 A 
ATOM     56  C   UNL A   1      47.907  29.758  27.170  1.00  0.00     0.029 A 
ATOM     57  N   UNL A   1      45.833  29.209  27.751  1.00  0.00    -0.354 N 
ATOM     58  N   UNL A   1      43.134  29.730  28.785  1.00  0.00    -0.248 NA
ATOM     59  C   UNL A   1      41.578  31.170  29.760  1.00  0.00     0.031 C 
ATOM     60  C   UNL A   1      47.290  30.884  27.725  1.00  0.00     0.029 A 
ATOM     61  C   UNL A   1      45.989  30.550  28.061  1.00  0.00     0.049 A 
ATOM     62  H   UNL A   1      45.008  28.689  27.892  1.00  0.00     0.167 HD
ATOM     63  C   UNL A   1      43.708  30.986  28.932  1.00  0.00     0.074 A 
ATOM     64  C   UNL A   1      42.690  31.843  29.505  1.00  0.00     0.031 C 
ATOM     65  C   UNL A   1      44.962  31.393  28.620  1.00  0.00     0.037 A 
BRANCH  52  66
ATOM     66  C   UNL A   1      48.557  26.937  26.291  1.00  0.00     0.064 A 
ATOM     67  C   UNL A   1      48.908  27.077  24.938  1.00  0.00     0.173 A 
ATOM     68  C   UNL A   1      49.528  26.435  27.169  1.00  0.00     0.173 A 
ATOM     69  F   UNL A   1      48.013  27.540  24.052  1.00  0.00    -0.203 F 
ATOM     70  C   UNL A   1      50.169  26.701  24.481  1.00  0.00     0.198 A 
ATOM     71  C   UNL A   1      50.799  26.092  26.715  1.00  0.00     0.198 A 
ATOM     72  F   UNL A   1      49.249  26.286  28.473  1.00  0.00    -0.203 F 
ATOM     73  F   UNL A   1      50.462  26.795  23.177  1.00  0.00    -0.200 F 
ATOM     74  C   UNL A   1      51.116  26.217  25.371  1.00  0.00     0.200 A 
ATOM     75  F   UNL A   1      51.718  25.637  27.578  1.00  0.00    -0.200 F 
ATOM     76  F   UNL A   1      52.331  25.863  24.932  1.00  0.00    -0.200 F 
ENDBRANCH  52  66
BRANCH  53  77
ATOM     77  C   UNL A   1      39.477  29.132  29.839  1.00  0.00     0.064 A 
ATOM     78  C   UNL A   1      38.484  29.695  29.025  1.00  0.00     0.173 A 
ATOM     79  C   UNL A   1      39.163  28.906  31.187  1.00  0.00     0.173 A 
ATOM     80  F   UNL A   1      38.741  29.948  27.733  1.00  0.00    -0.203 F 
ATOM     81  C   UNL A   1      37.238  30.043  29.543  1.00  0.00     0.198 A 
ATOM     82  C   UNL A   1      37.907  29.227  31.698  1.00  0.00     0.198 A 
ATOM     83  F   UNL A   1      40.075  28.364  32.007  1.00  0.00    -0.203 F 
ATOM     84  F   UNL A   1      36.326  30.628  28.755  1.00  0.00    -0.200 F 
ATOM     85  C   UNL A   1      36.949  29.804  30.878  1.00  0.00     0.200 A 
ATOM     86  F   UNL A   1      37.625  28.978  32.984  1.00  0.00    -0.200 F 
ATOM     87  F   UNL A   1      35.750  30.137  31.376  1.00  0.00    -0.200 F 
ENDBRANCH  53  77
BRANCH  65  88
ATOM     88  C   UNL A   1      45.292  32.841  28.846  1.00  0.00     0.064 A 
ATOM     89  C   UNL A   1      45.925  33.281  30.018  1.00  0.00     0.173 A 
ATOM     90  C   UNL A   1      44.996  33.795  27.862  1.00  0.00     0.173 A 
ATOM     91  F   UNL A   1      46.216  32.411  30.997  1.00  0.00    -0.203 F 
ATOM     92  C   UNL A   1      46.218  34.630  30.209  1.00  0.00     0.198 A 
ATOM     93  C   UNL A   1      45.322  35.137  28.041  1.00  0.00     0.198 A 
ATOM     94  F   UNL A   1      44.399  33.426  26.718  1.00  0.00    -0.203 F 
ATOM     95  F   UNL A   1      46.770  35.036  31.360  1.00  0.00    -0.200 F 
ATOM     96  C   UNL A   1      45.923  35.554  29.218  1.00  0.00     0.200 A 
ATOM     97  F   UNL A   1      45.050  36.026  27.076  1.00  0.00    -0.200 F 
ATOM     98  F   UNL A   1      46.211  36.850  29.402  1.00  0.00    -0.200 F 
ENDBRANCH  65  88
ENDBRANCH  39  40
ENDBRANCH  31  34
ENDBRANCH  29  30
ENDBRANCH  28  29
ENDBRANCH  27  28
ENDBRANCH   1  27
TORSDOF 17
ENDMDL
