MODEL 1
REMARK VINA RESULT:     -11.5      0.000      0.000
REMARK SMILES COCc1nc2ccccc2n1CC(=O)NCCCCCCNC(=O)c1ccc(-c2c3nc(c(-c4c(F)c(F)c(F)c(F)c4F)c4ccc([nH]4)c(-c4c(F)c(F)c(F)c(F)c4F)c4nc(c(-c5c(F)c(F)c(F)c(F)c5F)c5ccc2[nH]5)C=C4)C=C3)cc1
REMARK SMILES IDX 19 1 18 2 17 3 16 4 14 5 15 6 13 8 12 9 4 10 5 11 6 12 11 13
REMARK SMILES IDX 7 14 10 15 8 16 9 17 3 18 2 19 1 20 20 21 21 22 22 23 23 24
REMARK SMILES IDX 24 25 25 27 26 28 27 29 88 30 28 31 87 32 29 33 30 34 31 35
REMARK SMILES IDX 81 36 32 37 86 38 80 39 82 40 33 41 85 42 79 43 78 44 34 46
REMARK SMILES IDX 66 47 46 48 65 49 47 50 50 51 64 52 83 53 48 54 49 55 63 57
REMARK SMILES IDX 84 58 51 59 35 60 36 61 44 62 37 63 38 64 42 65 45 66 39 67
REMARK SMILES IDX 40 68 43 69 41 70 67 71 68 72 76 73 69 74 70 75 74 76 77 77
REMARK SMILES IDX 71 78 72 79 75 80 73 81 52 82 53 83 61 84 54 85 55 86 59 87
REMARK SMILES IDX 62 88 56 89 57 90 60 91 58 92
REMARK H PARENT 16 7 23 26 82 45 50 56
REMARK Flexibility Score: inf
ROOT
ATOM      1  C   UNL A   1      40.792  21.468  27.540  1.00  0.00     0.002 C 
ENDROOT
BRANCH   1   2
ATOM      2  C   UNL A   1      40.166  21.955  26.226  1.00  0.00     0.021 C 
BRANCH   2   3
ATOM      3  C   UNL A   1      38.756  22.527  26.363  1.00  0.00     0.116 C 
BRANCH   3   4
ATOM      4  N   UNL A   1      38.053  22.592  25.098  1.00  0.00    -0.355 N 
ATOM      5  C   UNL A   1      36.891  22.017  24.690  1.00  0.00     0.240 C 
ATOM      6  O   UNL A   1      36.479  22.338  23.568  1.00  0.00    -0.273 OA
ATOM      7  H   UNL A   1      38.493  23.149  24.416  1.00  0.00     0.163 HD
BRANCH   5   8
ATOM      8  C   UNL A   1      36.040  21.111  25.558  1.00  0.00     0.223 C 
BRANCH   8   9
ATOM      9  N   UNL A   1      34.720  20.772  25.056  1.00  0.00    -0.316 N 
ATOM     10  C   UNL A   1      33.577  21.550  25.083  1.00  0.00     0.136 A 
ATOM     11  N   UNL A   1      32.587  20.920  24.470  1.00  0.00    -0.231 NA
ATOM     12  C   UNL A   1      33.048  19.666  24.178  1.00  0.00     0.089 A 
ATOM     13  C   UNL A   1      34.364  19.516  24.596  1.00  0.00     0.069 A 
ATOM     14  C   UNL A   1      32.386  18.585  23.577  1.00  0.00     0.030 A 
ATOM     15  C   UNL A   1      35.055  18.300  24.481  1.00  0.00     0.028 A 
ATOM     16  C   UNL A   1      33.068  17.372  23.429  1.00  0.00     0.002 A 
ATOM     17  C   UNL A   1      34.380  17.232  23.881  1.00  0.00     0.002 A 
BRANCH  10  18
ATOM     18  C   UNL A   1      33.421  22.846  25.816  1.00  0.00     0.235 C 
BRANCH  18  19
ATOM     19  O   UNL A   1      33.045  23.876  24.908  1.00  0.00    -0.377 OA
ATOM     20  C   UNL A   1      34.074  24.802  24.608  1.00  0.00     0.195 C 
ENDBRANCH  18  19
ENDBRANCH  10  18
ENDBRANCH   8   9
ENDBRANCH   5   8
ENDBRANCH   3   4
ENDBRANCH   2   3
ENDBRANCH   1   2
BRANCH   1  21
ATOM     21  C   UNL A   1      41.634  20.192  27.447  1.00  0.00     0.002 C 
BRANCH  21  22
ATOM     22  C   UNL A   1      41.879  19.659  26.033  1.00  0.00     0.021 C 
BRANCH  22  23
ATOM     23  C   UNL A   1      43.182  18.875  25.854  1.00  0.00     0.116 C 
BRANCH  23  24
ATOM     24  N   UNL A   1      44.084  19.439  24.871  1.00  0.00    -0.352 N 
ATOM     25  C   UNL A   1      44.597  20.689  24.629  1.00  0.00     0.251 C 
ATOM     26  H   UNL A   1      44.404  18.769  24.225  1.00  0.00     0.163 HD
ATOM     27  O   UNL A   1      45.457  20.767  23.758  1.00  0.00    -0.269 OA
BRANCH  25  28
ATOM     28  C   UNL A   1      44.145  21.943  25.301  1.00  0.00     0.039 A 
ATOM     29  C   UNL A   1      43.300  22.901  24.748  1.00  0.00     0.014 A 
ATOM     30  C   UNL A   1      44.670  22.185  26.587  1.00  0.00     0.014 A 
ATOM     31  C   UNL A   1      43.079  24.110  25.398  1.00  0.00     0.010 A 
ATOM     32  C   UNL A   1      44.418  23.380  27.263  1.00  0.00     0.010 A 
ATOM     33  C   UNL A   1      43.659  24.366  26.644  1.00  0.00    -0.014 A 
BRANCH  33  34
ATOM     34  C   UNL A   1      43.375  25.667  27.248  1.00  0.00     0.031 A 
ATOM     35  C   UNL A   1      44.355  26.755  26.955  1.00  0.00     0.074 A 
ATOM     36  C   UNL A   1      42.287  25.944  27.992  1.00  0.00     0.049 A 
ATOM     37  N   UNL A   1      45.079  27.434  27.788  1.00  0.00    -0.248 NA
ATOM     38  C   UNL A   1      44.592  27.086  25.543  1.00  0.00     0.031 C 
ATOM     39  C   UNL A   1      41.080  25.137  28.173  1.00  0.00     0.029 A 
ATOM     40  N   UNL A   1      42.013  27.082  28.697  1.00  0.00    -0.354 N 
ATOM     41  C   UNL A   1      45.759  28.381  27.024  1.00  0.00     0.074 A 
ATOM     42  C   UNL A   1      45.491  28.066  25.645  1.00  0.00     0.031 C 
ATOM     43  C   UNL A   1      40.128  25.891  28.767  1.00  0.00     0.029 A 
ATOM     44  C   UNL A   1      40.703  27.173  29.135  1.00  0.00     0.049 A 
ATOM     45  H   UNL A   1      42.688  27.776  28.878  1.00  0.00     0.167 HD
ATOM     46  C   UNL A   1      46.366  29.464  27.582  1.00  0.00     0.037 A 
ATOM     47  C   UNL A   1      40.118  28.250  29.710  1.00  0.00     0.037 A 
ATOM     48  C   UNL A   1      46.639  29.273  28.978  1.00  0.00     0.049 A 
ATOM     49  C   UNL A   1      41.185  29.108  30.274  1.00  0.00     0.074 A 
ATOM     50  C   UNL A   1      47.426  28.411  29.714  1.00  0.00     0.029 A 
ATOM     51  N   UNL A   1      45.827  29.898  29.888  1.00  0.00    -0.354 N 
ATOM     52  N   UNL A   1      41.916  28.801  31.308  1.00  0.00    -0.248 NA
ATOM     53  C   UNL A   1      41.664  30.232  29.483  1.00  0.00     0.031 C 
ATOM     54  C   UNL A   1      46.741  28.234  30.952  1.00  0.00     0.029 A 
ATOM     55  C   UNL A   1      45.579  29.004  30.895  1.00  0.00     0.049 A 
ATOM     56  H   UNL A   1      45.485  30.819  29.828  1.00  0.00     0.167 HD
ATOM     57  C   UNL A   1      43.137  29.408  31.067  1.00  0.00     0.074 A 
ATOM     58  C   UNL A   1      42.875  30.386  30.020  1.00  0.00     0.031 C 
ATOM     59  C   UNL A   1      44.295  28.866  31.543  1.00  0.00     0.037 A 
BRANCH  46  60
ATOM     60  C   UNL A   1      46.439  30.826  26.931  1.00  0.00     0.064 A 
ATOM     61  C   UNL A   1      47.665  31.523  26.899  1.00  0.00     0.173 A 
ATOM     62  C   UNL A   1      45.296  31.591  26.611  1.00  0.00     0.173 A 
ATOM     63  F   UNL A   1      48.812  30.903  27.216  1.00  0.00    -0.203 F 
ATOM     64  C   UNL A   1      47.731  32.893  26.630  1.00  0.00     0.198 A 
ATOM     65  C   UNL A   1      45.372  32.946  26.291  1.00  0.00     0.198 A 
ATOM     66  F   UNL A   1      44.060  31.088  26.704  1.00  0.00    -0.203 F 
ATOM     67  F   UNL A   1      48.902  33.535  26.729  1.00  0.00    -0.200 F 
ATOM     68  C   UNL A   1      46.584  33.605  26.328  1.00  0.00     0.200 A 
ATOM     69  F   UNL A   1      44.248  33.624  26.022  1.00  0.00    -0.200 F 
ATOM     70  F   UNL A   1      46.637  34.928  26.127  1.00  0.00    -0.200 F 
ENDBRANCH  46  60
BRANCH  47  71
ATOM     71  C   UNL A   1      38.720  28.717  29.571  1.00  0.00     0.064 A 
ATOM     72  C   UNL A   1      37.925  28.962  30.702  1.00  0.00     0.173 A 
ATOM     73  C   UNL A   1      38.234  29.205  28.343  1.00  0.00     0.173 A 
ATOM     74  F   UNL A   1      38.336  28.566  31.916  1.00  0.00    -0.203 F 
ATOM     75  C   UNL A   1      36.732  29.684  30.614  1.00  0.00     0.198 A 
ATOM     76  C   UNL A   1      37.037  29.916  28.255  1.00  0.00     0.198 A 
ATOM     77  F   UNL A   1      38.956  29.090  27.219  1.00  0.00    -0.203 F 
ATOM     78  F   UNL A   1      36.037  29.963  31.726  1.00  0.00    -0.200 F 
ATOM     79  C   UNL A   1      36.295  30.170  29.393  1.00  0.00     0.200 A 
ATOM     80  F   UNL A   1      36.643  30.410  27.072  1.00  0.00    -0.200 F 
ATOM     81  F   UNL A   1      35.187  30.921  29.319  1.00  0.00    -0.200 F 
ENDBRANCH  47  71
BRANCH  59  82
ATOM     82  C   UNL A   1      44.186  27.833  32.625  1.00  0.00     0.064 A 
ATOM     83  C   UNL A   1      44.011  28.142  33.984  1.00  0.00     0.173 A 
ATOM     84  C   UNL A   1      44.125  26.483  32.253  1.00  0.00     0.173 A 
ATOM     85  F   UNL A   1      43.954  29.414  34.401  1.00  0.00    -0.203 F 
ATOM     86  C   UNL A   1      43.830  27.137  34.934  1.00  0.00     0.198 A 
ATOM     87  C   UNL A   1      43.906  25.485  33.198  1.00  0.00     0.198 A 
ATOM     88  F   UNL A   1      44.225  26.135  30.960  1.00  0.00    -0.203 F 
ATOM     89  F   UNL A   1      43.676  27.454  36.227  1.00  0.00    -0.200 F 
ATOM     90  C   UNL A   1      43.770  25.810  34.538  1.00  0.00     0.200 A 
ATOM     91  F   UNL A   1      43.796  24.207  32.805  1.00  0.00    -0.200 F 
ATOM     92  F   UNL A   1      43.551  24.848  35.444  1.00  0.00    -0.200 F 
ENDBRANCH  59  82
ENDBRANCH  33  34
ENDBRANCH  25  28
ENDBRANCH  23  24
ENDBRANCH  22  23
ENDBRANCH  21  22
ENDBRANCH   1  21
TORSDOF 16
ENDMDL
MODEL 2
REMARK VINA RESULT:     -11.4      2.911      8.828
REMARK SMILES COCc1nc2ccccc2n1CC(=O)NCCCCCCNC(=O)c1ccc(-c2c3nc(c(-c4c(F)c(F)c(F)c(F)c4F)c4ccc([nH]4)c(-c4c(F)c(F)c(F)c(F)c4F)c4nc(c(-c5c(F)c(F)c(F)c(F)c5F)c5ccc2[nH]5)C=C4)C=C3)cc1
REMARK SMILES IDX 19 1 18 2 17 3 16 4 14 5 15 6 13 8 12 9 4 10 5 11 6 12 11 13
REMARK SMILES IDX 7 14 10 15 8 16 9 17 3 18 2 19 1 20 20 21 21 22 22 23 23 24
REMARK SMILES IDX 24 25 25 27 26 28 27 29 88 30 28 31 87 32 29 33 30 34 31 35
REMARK SMILES IDX 81 36 32 37 86 38 80 39 82 40 33 41 85 42 79 43 78 44 34 46
REMARK SMILES IDX 66 47 46 48 65 49 47 50 50 51 64 52 83 53 48 54 49 55 63 57
REMARK SMILES IDX 84 58 51 59 35 60 36 61 44 62 37 63 38 64 42 65 45 66 39 67
REMARK SMILES IDX 40 68 43 69 41 70 67 71 68 72 76 73 69 74 70 75 74 76 77 77
REMARK SMILES IDX 71 78 72 79 75 80 73 81 52 82 53 83 61 84 54 85 55 86 59 87
REMARK SMILES IDX 62 88 56 89 57 90 60 91 58 92
REMARK H PARENT 16 7 23 26 82 45 50 56
REMARK Flexibility Score: inf
ROOT
ATOM      1  C   UNL A   1      31.807  28.036  27.334  1.00  0.00     0.002 C 
ENDROOT
BRANCH   1   2
ATOM      2  C   UNL A   1      32.047  27.138  26.113  1.00  0.00     0.021 C 
BRANCH   2   3
ATOM      3  C   UNL A   1      31.061  25.979  25.968  1.00  0.00     0.116 C 
BRANCH   3   4
ATOM      4  N   UNL A   1      31.390  24.855  26.821  1.00  0.00    -0.355 N 
ATOM      5  C   UNL A   1      31.944  23.647  26.534  1.00  0.00     0.240 C 
ATOM      6  O   UNL A   1      32.203  22.914  27.497  1.00  0.00    -0.273 OA
ATOM      7  H   UNL A   1      31.176  24.989  27.772  1.00  0.00     0.163 HD
BRANCH   5   8
ATOM      8  C   UNL A   1      32.350  23.206  25.141  1.00  0.00     0.223 C 
BRANCH   8   9
ATOM      9  N   UNL A   1      33.501  22.327  25.041  1.00  0.00    -0.316 N 
ATOM     10  C   UNL A   1      33.509  20.964  24.805  1.00  0.00     0.136 A 
ATOM     11  N   UNL A   1      34.755  20.527  24.719  1.00  0.00    -0.231 NA
ATOM     12  C   UNL A   1      35.559  21.582  25.052  1.00  0.00     0.089 A 
ATOM     13  C   UNL A   1      34.799  22.711  25.328  1.00  0.00     0.069 A 
ATOM     14  C   UNL A   1      36.956  21.643  25.165  1.00  0.00     0.030 A 
ATOM     15  C   UNL A   1      35.374  23.915  25.764  1.00  0.00     0.028 A 
ATOM     16  C   UNL A   1      37.549  22.843  25.573  1.00  0.00     0.002 A 
ATOM     17  C   UNL A   1      36.768  23.959  25.874  1.00  0.00     0.002 A 
BRANCH  10  18
ATOM     18  C   UNL A   1      32.305  20.074  24.792  1.00  0.00     0.235 C 
BRANCH  18  19
ATOM     19  O   UNL A   1      32.485  18.997  25.704  1.00  0.00    -0.377 OA
ATOM     20  C   UNL A   1      32.347  17.709  25.131  1.00  0.00     0.195 C 
ENDBRANCH  18  19
ENDBRANCH  10  18
ENDBRANCH   8   9
ENDBRANCH   5   8
ENDBRANCH   3   4
ENDBRANCH   2   3
ENDBRANCH   1   2
BRANCH   1  21
ATOM     21  C   UNL A   1      32.361  29.460  27.234  1.00  0.00     0.002 C 
BRANCH  21  22
ATOM     22  C   UNL A   1      33.885  29.587  27.304  1.00  0.00     0.021 C 
BRANCH  22  23
ATOM     23  C   UNL A   1      34.412  31.023  27.356  1.00  0.00     0.116 C 
BRANCH  23  24
ATOM     24  N   UNL A   1      34.302  31.651  28.656  1.00  0.00    -0.352 N 
ATOM     25  C   UNL A   1      35.132  31.788  29.741  1.00  0.00     0.251 C 
ATOM     26  H   UNL A   1      33.427  32.079  28.796  1.00  0.00     0.163 HD
ATOM     27  O   UNL A   1      34.733  32.515  30.645  1.00  0.00    -0.269 OA
BRANCH  25  28
ATOM     28  C   UNL A   1      36.435  31.081  29.914  1.00  0.00     0.039 A 
ATOM     29  C   UNL A   1      37.694  31.632  29.692  1.00  0.00     0.014 A 
ATOM     30  C   UNL A   1      36.363  29.723  30.287  1.00  0.00     0.014 A 
ATOM     31  C   UNL A   1      38.832  30.833  29.722  1.00  0.00     0.010 A 
ATOM     32  C   UNL A   1      37.505  28.926  30.359  1.00  0.00     0.010 A 
ATOM     33  C   UNL A   1      38.740  29.472  30.027  1.00  0.00    -0.014 A 
BRANCH  33  34
ATOM     34  C   UNL A   1      39.988  28.711  30.029  1.00  0.00     0.031 A 
ATOM     35  C   UNL A   1      40.687  28.598  31.343  1.00  0.00     0.074 A 
ATOM     36  C   UNL A   1      40.503  28.084  28.954  1.00  0.00     0.049 A 
ATOM     37  N   UNL A   1      41.878  28.999  31.661  1.00  0.00    -0.248 NA
ATOM     38  C   UNL A   1      39.933  28.008  32.459  1.00  0.00     0.031 C 
ATOM     39  C   UNL A   1      39.867  27.824  27.661  1.00  0.00     0.029 A 
ATOM     40  N   UNL A   1      41.718  27.469  28.836  1.00  0.00    -0.354 N 
ATOM     41  C   UNL A   1      42.086  28.585  32.975  1.00  0.00     0.074 A 
ATOM     42  C   UNL A   1      40.829  28.060  33.445  1.00  0.00     0.031 C 
ATOM     43  C   UNL A   1      40.617  26.938  26.969  1.00  0.00     0.029 A 
ATOM     44  C   UNL A   1      41.846  26.685  27.702  1.00  0.00     0.049 A 
ATOM     45  H   UNL A   1      42.438  27.574  29.499  1.00  0.00     0.167 HD
ATOM     46  C   UNL A   1      43.325  28.550  33.539  1.00  0.00     0.037 A 
ATOM     47  C   UNL A   1      42.866  25.843  27.415  1.00  0.00     0.037 A 
ATOM     48  C   UNL A   1      44.257  29.397  32.849  1.00  0.00     0.049 A 
ATOM     49  C   UNL A   1      44.047  26.265  28.202  1.00  0.00     0.074 A 
ATOM     50  C   UNL A   1      44.364  30.754  32.619  1.00  0.00     0.029 A 
ATOM     51  N   UNL A   1      45.175  28.809  32.020  1.00  0.00    -0.354 N 
ATOM     52  N   UNL A   1      44.727  27.356  27.995  1.00  0.00    -0.248 NA
ATOM     53  C   UNL A   1      44.315  25.593  29.466  1.00  0.00     0.031 C 
ATOM     54  C   UNL A   1      45.009  30.873  31.353  1.00  0.00     0.029 A 
ATOM     55  C   UNL A   1      45.260  29.581  30.892  1.00  0.00     0.049 A 
ATOM     56  H   UNL A   1      45.680  27.984  32.202  1.00  0.00     0.167 HD
ATOM     57  C   UNL A   1      45.190  27.725  29.247  1.00  0.00     0.074 A 
ATOM     58  C   UNL A   1      45.035  26.537  30.074  1.00  0.00     0.031 C 
ATOM     59  C   UNL A   1      45.392  29.037  29.560  1.00  0.00     0.037 A 
BRANCH  46  60
ATOM     60  C   UNL A   1      43.775  27.509  34.535  1.00  0.00     0.064 A 
ATOM     61  C   UNL A   1      43.844  26.153  34.151  1.00  0.00     0.173 A 
ATOM     62  C   UNL A   1      43.850  27.750  35.925  1.00  0.00     0.173 A 
ATOM     63  F   UNL A   1      43.751  25.804  32.859  1.00  0.00    -0.203 F 
ATOM     64  C   UNL A   1      43.918  25.120  35.089  1.00  0.00     0.198 A 
ATOM     65  C   UNL A   1      43.978  26.719  36.855  1.00  0.00     0.198 A 
ATOM     66  F   UNL A   1      43.693  28.976  36.438  1.00  0.00    -0.203 F 
ATOM     67  F   UNL A   1      43.859  23.845  34.681  1.00  0.00    -0.200 F 
ATOM     68  C   UNL A   1      43.982  25.403  36.441  1.00  0.00     0.200 A 
ATOM     69  F   UNL A   1      44.017  27.012  38.162  1.00  0.00    -0.200 F 
ATOM     70  F   UNL A   1      43.994  24.414  37.344  1.00  0.00    -0.200 F 
ENDBRANCH  46  60
BRANCH  47  71
ATOM     71  C   UNL A   1      42.812  24.544  26.708  1.00  0.00     0.064 A 
ATOM     72  C   UNL A   1      43.419  24.378  25.453  1.00  0.00     0.173 A 
ATOM     73  C   UNL A   1      42.414  23.368  27.374  1.00  0.00     0.173 A 
ATOM     74  F   UNL A   1      43.864  25.444  24.771  1.00  0.00    -0.203 F 
ATOM     75  C   UNL A   1      43.648  23.109  24.914  1.00  0.00     0.198 A 
ATOM     76  C   UNL A   1      42.633  22.103  26.829  1.00  0.00     0.198 A 
ATOM     77  F   UNL A   1      41.896  23.417  28.609  1.00  0.00    -0.203 F 
ATOM     78  F   UNL A   1      44.299  22.987  23.748  1.00  0.00    -0.200 F 
ATOM     79  C   UNL A   1      43.266  21.973  25.607  1.00  0.00     0.200 A 
ATOM     80  F   UNL A   1      42.288  21.011  27.526  1.00  0.00    -0.200 F 
ATOM     81  F   UNL A   1      43.547  20.756  25.122  1.00  0.00    -0.200 F 
ENDBRANCH  47  71
BRANCH  59  82
ATOM     82  C   UNL A   1      45.465  30.019  28.429  1.00  0.00     0.064 A 
ATOM     83  C   UNL A   1      44.337  30.604  27.828  1.00  0.00     0.173 A 
ATOM     84  C   UNL A   1      46.726  30.484  28.031  1.00  0.00     0.173 A 
ATOM     85  F   UNL A   1      43.100  30.287  28.230  1.00  0.00    -0.203 F 
ATOM     86  C   UNL A   1      44.471  31.577  26.838  1.00  0.00     0.198 A 
ATOM     87  C   UNL A   1      46.855  31.482  27.069  1.00  0.00     0.198 A 
ATOM     88  F   UNL A   1      47.836  30.004  28.614  1.00  0.00    -0.203 F 
ATOM     89  F   UNL A   1      43.381  32.112  26.271  1.00  0.00    -0.200 F 
ATOM     90  C   UNL A   1      45.730  32.020  26.466  1.00  0.00     0.200 A 
ATOM     91  F   UNL A   1      48.072  31.946  26.749  1.00  0.00    -0.200 F 
ATOM     92  F   UNL A   1      45.858  32.987  25.547  1.00  0.00    -0.200 F 
ENDBRANCH  59  82
ENDBRANCH  33  34
ENDBRANCH  25  28
ENDBRANCH  23  24
ENDBRANCH  22  23
ENDBRANCH  21  22
ENDBRANCH   1  21
TORSDOF 16
ENDMDL
MODEL 3
REMARK VINA RESULT:     -11.4      1.039      2.104
REMARK SMILES COCc1nc2ccccc2n1CC(=O)NCCCCCCNC(=O)c1ccc(-c2c3nc(c(-c4c(F)c(F)c(F)c(F)c4F)c4ccc([nH]4)c(-c4c(F)c(F)c(F)c(F)c4F)c4nc(c(-c5c(F)c(F)c(F)c(F)c5F)c5ccc2[nH]5)C=C4)C=C3)cc1
REMARK SMILES IDX 19 1 18 2 17 3 16 4 14 5 15 6 13 8 12 9 4 10 5 11 6 12 11 13
REMARK SMILES IDX 7 14 10 15 8 16 9 17 3 18 2 19 1 20 20 21 21 22 22 23 23 24
REMARK SMILES IDX 24 25 25 27 26 28 27 29 88 30 28 31 87 32 29 33 30 34 31 35
REMARK SMILES IDX 81 36 32 37 86 38 80 39 82 40 33 41 85 42 79 43 78 44 34 46
REMARK SMILES IDX 66 47 46 48 65 49 47 50 50 51 64 52 83 53 48 54 49 55 63 57
REMARK SMILES IDX 84 58 51 59 35 60 36 61 44 62 37 63 38 64 42 65 45 66 39 67
REMARK SMILES IDX 40 68 43 69 41 70 67 71 68 72 76 73 69 74 70 75 74 76 77 77
REMARK SMILES IDX 71 78 72 79 75 80 73 81 52 82 53 83 61 84 54 85 55 86 59 87
REMARK SMILES IDX 62 88 56 89 57 90 60 91 58 92
REMARK H PARENT 16 7 23 26 82 45 50 56
REMARK Flexibility Score: inf
ROOT
ATOM      1  C   UNL A   1      40.464  21.586  27.218  1.00  0.00     0.002 C 
ENDROOT
BRANCH   1   2
ATOM      2  C   UNL A   1      39.643  21.451  25.929  1.00  0.00     0.021 C 
BRANCH   2   3
ATOM      3  C   UNL A   1      38.369  22.295  25.891  1.00  0.00     0.116 C 
BRANCH   3   4
ATOM      4  N   UNL A   1      37.774  22.350  24.571  1.00  0.00    -0.355 N 
ATOM      5  C   UNL A   1      36.675  23.007  24.113  1.00  0.00     0.240 C 
ATOM      6  O   UNL A   1      36.462  22.945  22.895  1.00  0.00    -0.273 OA
ATOM      7  H   UNL A   1      38.246  21.821  23.889  1.00  0.00     0.163 HD
BRANCH   5   8
ATOM      8  C   UNL A   1      35.782  23.876  24.975  1.00  0.00     0.223 C 
BRANCH   8   9
ATOM      9  N   UNL A   1      34.349  23.681  24.840  1.00  0.00    -0.316 N 
ATOM     10  C   UNL A   1      33.560  22.732  25.464  1.00  0.00     0.136 A 
ATOM     11  N   UNL A   1      32.290  22.914  25.137  1.00  0.00    -0.231 NA
ATOM     12  C   UNL A   1      32.274  23.888  24.178  1.00  0.00     0.089 A 
ATOM     13  C   UNL A   1      33.559  24.343  23.917  1.00  0.00     0.069 A 
ATOM     14  C   UNL A   1      31.192  24.421  23.461  1.00  0.00     0.030 A 
ATOM     15  C   UNL A   1      33.832  25.295  22.922  1.00  0.00     0.028 A 
ATOM     16  C   UNL A   1      31.441  25.390  22.482  1.00  0.00     0.002 A 
ATOM     17  C   UNL A   1      32.743  25.814  22.214  1.00  0.00     0.002 A 
BRANCH  10  18
ATOM     18  C   UNL A   1      34.061  21.577  26.274  1.00  0.00     0.235 C 
BRANCH  18  19
ATOM     19  O   UNL A   1      33.443  20.372  25.837  1.00  0.00    -0.377 OA
ATOM     20  C   UNL A   1      34.135  19.695  24.802  1.00  0.00     0.195 C 
ENDBRANCH  18  19
ENDBRANCH  10  18
ENDBRANCH   8   9
ENDBRANCH   5   8
ENDBRANCH   3   4
ENDBRANCH   2   3
ENDBRANCH   1   2
BRANCH   1  21
ATOM     21  C   UNL A   1      41.527  20.508  27.449  1.00  0.00     0.002 C 
BRANCH  21  22
ATOM     22  C   UNL A   1      41.648  19.447  26.351  1.00  0.00     0.021 C 
BRANCH  22  23
ATOM     23  C   UNL A   1      43.014  18.763  26.260  1.00  0.00     0.116 C 
BRANCH  23  24
ATOM     24  N   UNL A   1      43.757  19.079  25.058  1.00  0.00    -0.352 N 
ATOM     25  C   UNL A   1      44.388  20.197  24.572  1.00  0.00     0.251 C 
ATOM     26  H   UNL A   1      43.825  18.312  24.444  1.00  0.00     0.163 HD
ATOM     27  O   UNL A   1      45.042  20.053  23.545  1.00  0.00    -0.269 OA
BRANCH  25  28
ATOM     28  C   UNL A   1      44.286  21.562  25.169  1.00  0.00     0.039 A 
ATOM     29  C   UNL A   1      45.036  22.037  26.242  1.00  0.00     0.014 A 
ATOM     30  C   UNL A   1      43.306  22.412  24.619  1.00  0.00     0.014 A 
ATOM     31  C   UNL A   1      44.742  23.265  26.823  1.00  0.00     0.010 A 
ATOM     32  C   UNL A   1      43.033  23.664  25.172  1.00  0.00     0.010 A 
ATOM     33  C   UNL A   1      43.721  24.070  26.310  1.00  0.00    -0.014 A 
BRANCH  33  34
ATOM     34  C   UNL A   1      43.479  25.342  26.990  1.00  0.00     0.031 A 
ATOM     35  C   UNL A   1      44.488  26.417  26.752  1.00  0.00     0.074 A 
ATOM     36  C   UNL A   1      42.404  25.606  27.757  1.00  0.00     0.049 A 
ATOM     37  N   UNL A   1      45.236  27.026  27.616  1.00  0.00    -0.248 NA
ATOM     38  C   UNL A   1      44.725  26.821  25.358  1.00  0.00     0.031 C 
ATOM     39  C   UNL A   1      41.175  24.825  27.901  1.00  0.00     0.029 A 
ATOM     40  N   UNL A   1      42.168  26.709  28.528  1.00  0.00    -0.354 N 
ATOM     41  C   UNL A   1      45.938  27.996  26.902  1.00  0.00     0.074 A 
ATOM     42  C   UNL A   1      45.652  27.768  25.509  1.00  0.00     0.031 C 
ATOM     43  C   UNL A   1      40.250  25.570  28.545  1.00  0.00     0.029 A 
ATOM     44  C   UNL A   1      40.863  26.812  28.982  1.00  0.00     0.049 A 
ATOM     45  H   UNL A   1      42.864  27.372  28.743  1.00  0.00     0.167 HD
ATOM     46  C   UNL A   1      46.580  29.028  27.516  1.00  0.00     0.037 A 
ATOM     47  C   UNL A   1      40.314  27.870  29.621  1.00  0.00     0.037 A 
ATOM     48  C   UNL A   1      46.856  28.748  28.897  1.00  0.00     0.049 A 
ATOM     49  C   UNL A   1      41.408  28.664  30.225  1.00  0.00     0.074 A 
ATOM     50  C   UNL A   1      47.623  27.824  29.576  1.00  0.00     0.029 A 
ATOM     51  N   UNL A   1      46.068  29.343  29.847  1.00  0.00    -0.354 N 
ATOM     52  N   UNL A   1      42.137  28.278  31.233  1.00  0.00    -0.248 NA
ATOM     53  C   UNL A   1      41.914  29.818  29.496  1.00  0.00     0.031 C 
ATOM     54  C   UNL A   1      46.941  27.596  30.807  1.00  0.00     0.029 A 
ATOM     55  C   UNL A   1      45.801  28.400  30.804  1.00  0.00     0.049 A 
ATOM     56  H   UNL A   1      45.753  30.276  29.843  1.00  0.00     0.167 HD
ATOM     57  C   UNL A   1      43.373  28.863  31.018  1.00  0.00     0.074 A 
ATOM     58  C   UNL A   1      43.132  29.906  30.031  1.00  0.00     0.031 C 
ATOM     59  C   UNL A   1      44.517  28.262  31.453  1.00  0.00     0.037 A 
BRANCH  46  60
ATOM     60  C   UNL A   1      46.688  30.421  26.944  1.00  0.00     0.064 A 
ATOM     61  C   UNL A   1      47.928  31.093  26.962  1.00  0.00     0.173 A 
ATOM     62  C   UNL A   1      45.564  31.228  26.657  1.00  0.00     0.173 A 
ATOM     63  F   UNL A   1      49.059  30.432  27.253  1.00  0.00    -0.203 F 
ATOM     64  C   UNL A   1      48.025  32.474  26.770  1.00  0.00     0.198 A 
ATOM     65  C   UNL A   1      45.672  32.597  26.414  1.00  0.00     0.198 A 
ATOM     66  F   UNL A   1      44.317  30.747  26.710  1.00  0.00    -0.203 F 
ATOM     67  F   UNL A   1      49.209  33.084  26.916  1.00  0.00    -0.200 F 
ATOM     68  C   UNL A   1      46.896  33.226  26.500  1.00  0.00     0.200 A 
ATOM     69  F   UNL A   1      44.564  33.313  26.175  1.00  0.00    -0.200 F 
ATOM     70  F   UNL A   1      46.979  34.557  26.374  1.00  0.00    -0.200 F 
ENDBRANCH  46  60
BRANCH  47  71
ATOM     71  C   UNL A   1      38.929  28.384  29.521  1.00  0.00     0.064 A 
ATOM     72  C   UNL A   1      38.143  28.571  30.669  1.00  0.00     0.173 A 
ATOM     73  C   UNL A   1      38.453  28.969  28.332  1.00  0.00     0.173 A 
ATOM     74  F   UNL A   1      38.546  28.081  31.851  1.00  0.00    -0.203 F 
ATOM     75  C   UNL A   1      36.970  29.330  30.636  1.00  0.00     0.198 A 
ATOM     76  C   UNL A   1      37.276  29.716  28.297  1.00  0.00     0.198 A 
ATOM     77  F   UNL A   1      39.170  28.912  27.200  1.00  0.00    -0.203 F 
ATOM     78  F   UNL A   1      36.285  29.551  31.767  1.00  0.00    -0.200 F 
ATOM     79  C   UNL A   1      36.544  29.912  29.454  1.00  0.00     0.200 A 
ATOM     80  F   UNL A   1      36.894  30.302  27.153  1.00  0.00    -0.200 F 
ATOM     81  F   UNL A   1      35.457  30.696  29.436  1.00  0.00    -0.200 F 
ENDBRANCH  47  71
BRANCH  59  82
ATOM     82  C   UNL A   1      44.387  27.172  32.475  1.00  0.00     0.064 A 
ATOM     83  C   UNL A   1      44.251  27.406  33.854  1.00  0.00     0.173 A 
ATOM     84  C   UNL A   1      44.260  25.850  32.027  1.00  0.00     0.173 A 
ATOM     85  F   UNL A   1      44.257  28.652  34.345  1.00  0.00    -0.203 F 
ATOM     86  C   UNL A   1      44.047  26.355  34.746  1.00  0.00     0.198 A 
ATOM     87  C   UNL A   1      44.017  24.808  32.916  1.00  0.00     0.198 A 
ATOM     88  F   UNL A   1      44.319  25.576  30.714  1.00  0.00    -0.203 F 
ATOM     89  F   UNL A   1      43.933  26.601  36.059  1.00  0.00    -0.200 F 
ATOM     90  C   UNL A   1      43.922  25.058  34.275  1.00  0.00     0.200 A 
ATOM     91  F   UNL A   1      43.844  23.561  32.452  1.00  0.00    -0.200 F 
ATOM     92  F   UNL A   1      43.680  24.053  35.129  1.00  0.00    -0.200 F 
ENDBRANCH  59  82
ENDBRANCH  33  34
ENDBRANCH  25  28
ENDBRANCH  23  24
ENDBRANCH  22  23
ENDBRANCH  21  22
ENDBRANCH   1  21
TORSDOF 16
ENDMDL
