MODEL 1
REMARK VINA RESULT:     -12.6      0.000      0.000
REMARK SMILES O=C(NCCCCCCNC(=O)c1cc(Cl)ncc1-c1cccc(C(F)(F)F)c1)c1ccc(-c2c3nc(c(-c4c(F)c(F)c(F)c(F)c4F)c4ccc([nH]4)c(-c4c(F)c(F)c(F)c(F)c4F)c4nc(c(-c5c(F)c(F)c(F)c(F)c5F)c5ccc2[nH]5)C=C4)C=C3)cc1
REMARK SMILES IDX 6 1 5 2 4 3 3 4 1 5 2 6 30 8 31 9 92 10 32 11 91 12 33 13
REMARK SMILES IDX 34 14 35 15 85 16 36 17 90 18 84 19 86 20 37 21 89 22 83 23
REMARK SMILES IDX 82 24 38 26 70 27 50 28 69 29 51 30 54 31 68 32 87 33 52 34
REMARK SMILES IDX 53 35 67 37 88 38 55 39 39 40 40 41 48 42 41 43 42 44 46 45
REMARK SMILES IDX 49 46 43 47 44 48 47 49 45 50 71 51 72 52 80 53 73 54 74 55
REMARK SMILES IDX 78 56 81 57 75 58 76 59 79 60 77 61 56 62 57 63 65 64 58 65
REMARK SMILES IDX 59 66 63 67 66 68 60 69 61 70 64 71 62 72 7 73 8 74 9 75
REMARK SMILES IDX 10 76 11 77 12 79 13 80 14 81 19 82 15 83 18 84 16 85 17 86
REMARK SMILES IDX 20 87 21 88 29 89 22 90 24 91 23 92 25 93 26 94 27 95 28 96
REMARK H PARENT 3 7 86 25 54 36 10 78
REMARK Flexibility Score: inf
ROOT
ATOM      1  C   UNL A   1      31.237  31.154  25.696  1.00  0.00     0.002 C 
ENDROOT
BRANCH   1   2
ATOM      2  C   UNL A   1      31.280  32.104  26.893  1.00  0.00     0.021 C 
BRANCH   2   3
ATOM      3  C   UNL A   1      32.582  32.878  27.060  1.00  0.00     0.116 C 
BRANCH   3   4
ATOM      4  N   UNL A   1      32.375  34.221  27.573  1.00  0.00    -0.352 N 
ATOM      5  O   UNL A   1      32.603  35.951  29.005  1.00  0.00    -0.269 OA
ATOM      6  C   UNL A   1      33.012  34.865  28.606  1.00  0.00     0.251 C 
ATOM      7  H   UNL A   1      31.679  34.745  27.115  1.00  0.00     0.163 HD
BRANCH   6   8
ATOM      8  C   UNL A   1      34.180  34.235  29.259  1.00  0.00     0.039 A 
ATOM      9  C   UNL A   1      35.479  34.531  28.839  1.00  0.00     0.014 A 
ATOM     10  C   UNL A   1      33.970  33.344  30.315  1.00  0.00     0.014 A 
ATOM     11  C   UNL A   1      36.556  33.835  29.379  1.00  0.00     0.010 A 
ATOM     12  C   UNL A   1      35.060  32.708  30.915  1.00  0.00     0.010 A 
ATOM     13  C   UNL A   1      36.361  32.927  30.432  1.00  0.00    -0.014 A 
BRANCH  13  14
ATOM     14  C   UNL A   1      37.534  32.265  31.054  1.00  0.00     0.031 A 
ATOM     15  C   UNL A   1      38.002  32.643  32.430  1.00  0.00     0.074 A 
ATOM     16  C   UNL A   1      38.174  31.302  30.363  1.00  0.00     0.049 A 
ATOM     17  N   UNL A   1      39.014  32.171  33.118  1.00  0.00    -0.248 NA
ATOM     18  C   UNL A   1      37.244  33.692  33.127  1.00  0.00     0.031 C 
ATOM     19  C   UNL A   1      37.817  30.858  29.014  1.00  0.00     0.029 A 
ATOM     20  N   UNL A   1      39.248  30.518  30.696  1.00  0.00    -0.354 N 
ATOM     21  C   UNL A   1      39.022  32.873  34.315  1.00  0.00     0.074 A 
ATOM     22  C   UNL A   1      37.933  33.825  34.252  1.00  0.00     0.031 C 
ATOM     23  C   UNL A   1      38.631  29.859  28.649  1.00  0.00     0.029 A 
ATOM     24  C   UNL A   1      39.607  29.633  29.709  1.00  0.00     0.049 A 
ATOM     25  H   UNL A   1      39.717  30.583  31.560  1.00  0.00     0.167 HD
ATOM     26  C   UNL A   1      39.860  32.729  35.371  1.00  0.00     0.037 A 
ATOM     27  C   UNL A   1      40.623  28.753  29.653  1.00  0.00     0.037 A 
ATOM     28  C   UNL A   1      40.937  31.772  35.429  1.00  0.00     0.049 A 
ATOM     29  C   UNL A   1      41.555  28.639  30.824  1.00  0.00     0.074 A 
ATOM     30  C   UNL A   1      41.817  31.524  36.469  1.00  0.00     0.029 A 
ATOM     31  N   UNL A   1      41.286  30.910  34.398  1.00  0.00    -0.354 N 
ATOM     32  N   UNL A   1      41.530  29.282  31.966  1.00  0.00    -0.248 NA
ATOM     33  C   UNL A   1      42.659  27.679  30.698  1.00  0.00     0.031 C 
ATOM     34  C   UNL A   1      42.730  30.550  36.049  1.00  0.00     0.029 A 
ATOM     35  C   UNL A   1      42.384  30.148  34.768  1.00  0.00     0.049 A 
ATOM     36  H   UNL A   1      40.822  30.848  33.532  1.00  0.00     0.167 HD
ATOM     37  C   UNL A   1      42.599  28.792  32.703  1.00  0.00     0.074 A 
ATOM     38  C   UNL A   1      43.240  27.782  31.884  1.00  0.00     0.031 C 
ATOM     39  C   UNL A   1      43.010  29.147  33.944  1.00  0.00     0.037 A 
BRANCH  26  40
ATOM     40  C   UNL A   1      39.662  33.641  36.549  1.00  0.00     0.064 A 
ATOM     41  C   UNL A   1      40.256  34.911  36.609  1.00  0.00     0.173 A 
ATOM     42  C   UNL A   1      38.830  33.258  37.612  1.00  0.00     0.173 A 
ATOM     43  F   UNL A   1      41.068  35.324  35.624  1.00  0.00    -0.203 F 
ATOM     44  C   UNL A   1      40.044  35.752  37.699  1.00  0.00     0.198 A 
ATOM     45  C   UNL A   1      38.597  34.113  38.687  1.00  0.00     0.198 A 
ATOM     46  F   UNL A   1      38.230  32.058  37.604  1.00  0.00    -0.203 F 
ATOM     47  F   UNL A   1      40.658  36.943  37.754  1.00  0.00    -0.200 F 
ATOM     48  C   UNL A   1      39.210  35.355  38.733  1.00  0.00     0.200 A 
ATOM     49  F   UNL A   1      37.779  33.733  39.679  1.00  0.00    -0.200 F 
ATOM     50  F   UNL A   1      39.002  36.169  39.778  1.00  0.00    -0.200 F 
ENDBRANCH  26  40
BRANCH  27  51
ATOM     51  C   UNL A   1      40.805  27.919  28.438  1.00  0.00     0.064 A 
ATOM     52  C   UNL A   1      40.207  26.655  28.333  1.00  0.00     0.173 A 
ATOM     53  C   UNL A   1      41.564  28.375  27.349  1.00  0.00     0.173 A 
ATOM     54  F   UNL A   1      39.487  26.169  29.354  1.00  0.00    -0.203 F 
ATOM     55  C   UNL A   1      40.374  25.875  27.191  1.00  0.00     0.198 A 
ATOM     56  C   UNL A   1      41.704  27.606  26.197  1.00  0.00     0.198 A 
ATOM     57  F   UNL A   1      42.151  29.580  27.398  1.00  0.00    -0.203 F 
ATOM     58  F   UNL A   1      39.825  24.654  27.133  1.00  0.00    -0.200 F 
ATOM     59  C   UNL A   1      41.115  26.353  26.121  1.00  0.00     0.200 A 
ATOM     60  F   UNL A   1      42.405  28.081  25.158  1.00  0.00    -0.200 F 
ATOM     61  F   UNL A   1      41.266  25.605  25.020  1.00  0.00    -0.200 F 
ENDBRANCH  27  51
BRANCH  39  62
ATOM     62  C   UNL A   1      44.194  28.413  34.506  1.00  0.00     0.064 A 
ATOM     63  C   UNL A   1      45.501  28.900  34.359  1.00  0.00     0.173 A 
ATOM     64  C   UNL A   1      44.013  27.222  35.225  1.00  0.00     0.173 A 
ATOM     65  F   UNL A   1      45.728  30.025  33.663  1.00  0.00    -0.203 F 
ATOM     66  C   UNL A   1      46.586  28.206  34.887  1.00  0.00     0.198 A 
ATOM     67  C   UNL A   1      45.098  26.549  35.780  1.00  0.00     0.198 A 
ATOM     68  F   UNL A   1      42.782  26.717  35.399  1.00  0.00    -0.203 F 
ATOM     69  F   UNL A   1      47.831  28.663  34.690  1.00  0.00    -0.200 F 
ATOM     70  C   UNL A   1      46.383  27.036  35.603  1.00  0.00     0.200 A 
ATOM     71  F   UNL A   1      44.898  25.424  36.482  1.00  0.00    -0.200 F 
ATOM     72  F   UNL A   1      47.428  26.373  36.117  1.00  0.00    -0.200 F 
ENDBRANCH  39  62
ENDBRANCH  13  14
ENDBRANCH   6   8
ENDBRANCH   3   4
ENDBRANCH   2   3
ENDBRANCH   1   2
BRANCH   1  73
ATOM     73  C   UNL A   1      31.761  29.738  25.956  1.00  0.00     0.002 C 
BRANCH  73  74
ATOM     74  C   UNL A   1      33.032  29.345  25.195  1.00  0.00     0.021 C 
BRANCH  74  75
ATOM     75  C   UNL A   1      33.775  28.130  25.742  1.00  0.00     0.116 C 
BRANCH  75  76
ATOM     76  N   UNL A   1      32.895  27.205  26.434  1.00  0.00    -0.352 N 
ATOM     77  C   UNL A   1      32.437  25.974  26.038  1.00  0.00     0.252 C 
ATOM     78  H   UNL A   1      32.581  27.505  27.317  1.00  0.00     0.163 HD
ATOM     79  O   UNL A   1      31.672  25.333  26.750  1.00  0.00    -0.269 OA
BRANCH  77  80
ATOM     80  C   UNL A   1      32.889  25.414  24.751  1.00  0.00     0.052 A 
ATOM     81  C   UNL A   1      34.068  24.663  24.750  1.00  0.00     0.055 A 
ATOM     82  C   UNL A   1      32.136  25.587  23.578  1.00  0.00     0.013 A 
ATOM     83  C   UNL A   1      34.490  24.150  23.546  1.00  0.00     0.129 A 
ATOM     84  C   UNL A   1      32.671  25.004  22.431  1.00  0.00     0.122 A 
ATOM     85  Cl  UNL A   1      35.958  23.273  23.430  1.00  0.00    -0.062 Cl
ATOM     86  N   UNL A   1      33.831  24.306  22.382  1.00  0.00    -0.244 NA
BRANCH  82  87
ATOM     87  C   UNL A   1      30.870  26.331  23.510  1.00  0.00    -0.015 A 
ATOM     88  C   UNL A   1      29.686  25.770  24.016  1.00  0.00     0.009 A 
ATOM     89  C   UNL A   1      30.806  27.611  22.936  1.00  0.00     0.021 A 
ATOM     90  C   UNL A   1      28.477  26.467  23.955  1.00  0.00     0.001 A 
ATOM     91  C   UNL A   1      29.597  28.326  22.874  1.00  0.00     0.056 A 
ATOM     92  C   UNL A   1      28.433  27.738  23.387  1.00  0.00     0.013 A 
BRANCH  91  93
ATOM     93  C   UNL A   1      29.539  29.708  22.272  1.00  0.00     0.416 C 
ATOM     94  F   UNL A   1      30.678  30.029  21.597  1.00  0.00    -0.166 F 
ATOM     95  F   UNL A   1      28.521  29.851  21.379  1.00  0.00    -0.166 F 
ATOM     96  F   UNL A   1      29.365  30.697  23.195  1.00  0.00    -0.166 F 
ENDBRANCH  91  93
ENDBRANCH  82  87
ENDBRANCH  77  80
ENDBRANCH  75  76
ENDBRANCH  74  75
ENDBRANCH  73  74
ENDBRANCH   1  73
TORSDOF 15
ENDMDL
MODEL 2
REMARK VINA RESULT:     -12.5      0.216      1.296
REMARK SMILES O=C(NCCCCCCNC(=O)c1cc(Cl)ncc1-c1cccc(C(F)(F)F)c1)c1ccc(-c2c3nc(c(-c4c(F)c(F)c(F)c(F)c4F)c4ccc([nH]4)c(-c4c(F)c(F)c(F)c(F)c4F)c4nc(c(-c5c(F)c(F)c(F)c(F)c5F)c5ccc2[nH]5)C=C4)C=C3)cc1
REMARK SMILES IDX 6 1 5 2 4 3 3 4 1 5 2 6 30 8 31 9 92 10 32 11 91 12 33 13
REMARK SMILES IDX 34 14 35 15 85 16 36 17 90 18 84 19 86 20 37 21 89 22 83 23
REMARK SMILES IDX 82 24 38 26 70 27 50 28 69 29 51 30 54 31 68 32 87 33 52 34
REMARK SMILES IDX 53 35 67 37 88 38 55 39 39 40 40 41 48 42 41 43 42 44 46 45
REMARK SMILES IDX 49 46 43 47 44 48 47 49 45 50 71 51 72 52 80 53 73 54 74 55
REMARK SMILES IDX 78 56 81 57 75 58 76 59 79 60 77 61 56 62 57 63 65 64 58 65
REMARK SMILES IDX 59 66 63 67 66 68 60 69 61 70 64 71 62 72 7 73 8 74 9 75
REMARK SMILES IDX 10 76 11 77 12 79 13 80 14 81 19 82 15 83 18 84 16 85 17 86
REMARK SMILES IDX 20 87 21 88 29 89 22 90 24 91 23 92 25 93 26 94 27 95 28 96
REMARK H PARENT 3 7 86 25 54 36 10 78
REMARK Flexibility Score: inf
ROOT
ATOM      1  C   UNL A   1      31.173  31.091  25.668  1.00  0.00     0.002 C 
ENDROOT
BRANCH   1   2
ATOM      2  C   UNL A   1      31.118  32.278  26.630  1.00  0.00     0.021 C 
BRANCH   2   3
ATOM      3  C   UNL A   1      32.472  32.816  27.073  1.00  0.00     0.116 C 
BRANCH   3   4
ATOM      4  N   UNL A   1      32.400  34.179  27.571  1.00  0.00    -0.352 N 
ATOM      5  O   UNL A   1      32.842  35.907  28.954  1.00  0.00    -0.269 OA
ATOM      6  C   UNL A   1      33.143  34.787  28.554  1.00  0.00     0.251 C 
ATOM      7  H   UNL A   1      31.722  34.749  27.141  1.00  0.00     0.163 HD
BRANCH   6   8
ATOM      8  C   UNL A   1      34.293  34.077  29.153  1.00  0.00     0.039 A 
ATOM      9  C   UNL A   1      34.096  33.034  30.061  1.00  0.00     0.014 A 
ATOM     10  C   UNL A   1      35.589  34.454  28.790  1.00  0.00     0.014 A 
ATOM     11  C   UNL A   1      35.188  32.465  30.709  1.00  0.00     0.010 A 
ATOM     12  C   UNL A   1      36.688  33.823  29.378  1.00  0.00     0.010 A 
ATOM     13  C   UNL A   1      36.496  32.842  30.364  1.00  0.00    -0.014 A 
BRANCH  13  14
ATOM     14  C   UNL A   1      37.647  32.155  31.001  1.00  0.00     0.031 A 
ATOM     15  C   UNL A   1      38.083  32.497  32.397  1.00  0.00     0.074 A 
ATOM     16  C   UNL A   1      38.294  31.200  30.306  1.00  0.00     0.049 A 
ATOM     17  N   UNL A   1      39.071  32.000  33.099  1.00  0.00    -0.248 NA
ATOM     18  C   UNL A   1      37.318  33.540  33.096  1.00  0.00     0.031 C 
ATOM     19  C   UNL A   1      37.967  30.788  28.939  1.00  0.00     0.029 A 
ATOM     20  N   UNL A   1      39.351  30.397  30.649  1.00  0.00    -0.354 N 
ATOM     21  C   UNL A   1      39.057  32.677  34.311  1.00  0.00     0.074 A 
ATOM     22  C   UNL A   1      37.979  33.642  34.241  1.00  0.00     0.031 C 
ATOM     23  C   UNL A   1      38.780  29.788  28.573  1.00  0.00     0.029 A 
ATOM     24  C   UNL A   1      39.726  29.530  29.653  1.00  0.00     0.049 A 
ATOM     25  H   UNL A   1      39.799  30.438  31.526  1.00  0.00     0.167 HD
ATOM     26  C   UNL A   1      39.865  32.502  35.385  1.00  0.00     0.037 A 
ATOM     27  C   UNL A   1      40.734  28.640  29.604  1.00  0.00     0.037 A 
ATOM     28  C   UNL A   1      40.930  31.532  35.450  1.00  0.00     0.049 A 
ATOM     29  C   UNL A   1      41.635  28.491  30.795  1.00  0.00     0.074 A 
ATOM     30  C   UNL A   1      41.782  31.252  36.506  1.00  0.00     0.029 A 
ATOM     31  N   UNL A   1      41.297  30.688  34.410  1.00  0.00    -0.354 N 
ATOM     32  N   UNL A   1      41.587  29.109  31.950  1.00  0.00    -0.248 NA
ATOM     33  C   UNL A   1      42.731  27.522  30.677  1.00  0.00     0.031 C 
ATOM     34  C   UNL A   1      42.694  30.278  36.088  1.00  0.00     0.029 A 
ATOM     35  C   UNL A   1      42.377  29.907  34.791  1.00  0.00     0.049 A 
ATOM     36  H   UNL A   1      40.855  30.650  33.531  1.00  0.00     0.167 HD
ATOM     37  C   UNL A   1      42.631  28.593  32.703  1.00  0.00     0.074 A 
ATOM     38  C   UNL A   1      43.284  27.593  31.880  1.00  0.00     0.031 C 
ATOM     39  C   UNL A   1      43.015  28.916  33.962  1.00  0.00     0.037 A 
BRANCH  26  40
ATOM     40  C   UNL A   1      39.647  33.390  36.577  1.00  0.00     0.064 A 
ATOM     41  C   UNL A   1      40.266  34.644  36.687  1.00  0.00     0.173 A 
ATOM     42  C   UNL A   1      38.769  33.002  37.601  1.00  0.00     0.173 A 
ATOM     43  F   UNL A   1      41.121  35.061  35.742  1.00  0.00    -0.203 F 
ATOM     44  C   UNL A   1      40.035  35.464  37.790  1.00  0.00     0.198 A 
ATOM     45  C   UNL A   1      38.518  33.836  38.688  1.00  0.00     0.198 A 
ATOM     46  F   UNL A   1      38.144  31.816  37.543  1.00  0.00    -0.203 F 
ATOM     47  F   UNL A   1      40.673  36.639  37.894  1.00  0.00    -0.200 F 
ATOM     48  C   UNL A   1      39.157  35.063  38.785  1.00  0.00     0.200 A 
ATOM     49  F   UNL A   1      37.658  33.453  39.641  1.00  0.00    -0.200 F 
ATOM     50  F   UNL A   1      38.930  35.857  39.841  1.00  0.00    -0.200 F 
ENDBRANCH  26  40
BRANCH  27  51
ATOM     51  C   UNL A   1      40.939  27.830  28.376  1.00  0.00     0.064 A 
ATOM     52  C   UNL A   1      41.749  28.296  27.331  1.00  0.00     0.173 A 
ATOM     53  C   UNL A   1      40.344  26.568  28.228  1.00  0.00     0.173 A 
ATOM     54  F   UNL A   1      42.324  29.504  27.418  1.00  0.00    -0.203 F 
ATOM     55  C   UNL A   1      41.945  27.536  26.180  1.00  0.00     0.198 A 
ATOM     56  C   UNL A   1      40.567  25.796  27.091  1.00  0.00     0.198 A 
ATOM     57  F   UNL A   1      39.566  26.075  29.202  1.00  0.00    -0.203 F 
ATOM     58  F   UNL A   1      42.692  28.022  25.180  1.00  0.00    -0.200 F 
ATOM     59  C   UNL A   1      41.360  26.283  26.065  1.00  0.00     0.200 A 
ATOM     60  F   UNL A   1      40.015  24.579  26.992  1.00  0.00    -0.200 F 
ATOM     61  F   UNL A   1      41.559  25.549  24.962  1.00  0.00    -0.200 F 
ENDBRANCH  27  51
BRANCH  39  62
ATOM     62  C   UNL A   1      44.176  28.159  34.537  1.00  0.00     0.064 A 
ATOM     63  C   UNL A   1      45.491  28.635  34.436  1.00  0.00     0.173 A 
ATOM     64  C   UNL A   1      43.965  26.953  35.224  1.00  0.00     0.173 A 
ATOM     65  F   UNL A   1      45.747  29.773  33.773  1.00  0.00    -0.203 F 
ATOM     66  C   UNL A   1      46.555  27.919  34.977  1.00  0.00     0.198 A 
ATOM     67  C   UNL A   1      45.028  26.257  35.792  1.00  0.00     0.198 A 
ATOM     68  F   UNL A   1      42.725  26.456  35.354  1.00  0.00    -0.203 F 
ATOM     69  F   UNL A   1      47.809  28.367  34.823  1.00  0.00    -0.200 F 
ATOM     70  C   UNL A   1      46.322  26.735  35.660  1.00  0.00     0.200 A 
ATOM     71  F   UNL A   1      44.798  25.118  36.462  1.00  0.00    -0.200 F 
ATOM     72  F   UNL A   1      47.347  26.050  36.186  1.00  0.00    -0.200 F 
ENDBRANCH  39  62
ENDBRANCH  13  14
ENDBRANCH   6   8
ENDBRANCH   3   4
ENDBRANCH   2   3
ENDBRANCH   1   2
BRANCH   1  73
ATOM     73  C   UNL A   1      31.936  29.863  26.176  1.00  0.00     0.002 C 
BRANCH  73  74
ATOM     74  C   UNL A   1      33.018  29.315  25.240  1.00  0.00     0.021 C 
BRANCH  74  75
ATOM     75  C   UNL A   1      33.769  28.088  25.752  1.00  0.00     0.116 C 
BRANCH  75  76
ATOM     76  N   UNL A   1      32.897  27.149  26.436  1.00  0.00    -0.352 N 
ATOM     77  C   UNL A   1      32.445  25.920  26.026  1.00  0.00     0.252 C 
ATOM     78  H   UNL A   1      32.585  27.436  27.324  1.00  0.00     0.163 HD
ATOM     79  O   UNL A   1      31.688  25.265  26.734  1.00  0.00    -0.269 OA
BRANCH  77  80
ATOM     80  C   UNL A   1      32.897  25.379  24.731  1.00  0.00     0.052 A 
ATOM     81  C   UNL A   1      34.072  24.623  24.719  1.00  0.00     0.055 A 
ATOM     82  C   UNL A   1      32.144  25.573  23.561  1.00  0.00     0.013 A 
ATOM     83  C   UNL A   1      34.493  24.128  23.506  1.00  0.00     0.129 A 
ATOM     84  C   UNL A   1      32.678  25.006  22.405  1.00  0.00     0.122 A 
ATOM     85  Cl  UNL A   1      35.957  23.247  23.377  1.00  0.00    -0.062 Cl
ATOM     86  N   UNL A   1      33.836  24.305  22.345  1.00  0.00    -0.244 NA
BRANCH  82  87
ATOM     87  C   UNL A   1      30.881  26.323  23.504  1.00  0.00    -0.015 A 
ATOM     88  C   UNL A   1      29.702  25.774  24.033  1.00  0.00     0.009 A 
ATOM     89  C   UNL A   1      30.816  27.598  22.918  1.00  0.00     0.021 A 
ATOM     90  C   UNL A   1      28.496  26.476  23.983  1.00  0.00     0.001 A 
ATOM     91  C   UNL A   1      29.609  28.319  22.867  1.00  0.00     0.056 A 
ATOM     92  C   UNL A   1      28.450  27.741  23.403  1.00  0.00     0.013 A 
BRANCH  91  93
ATOM     93  C   UNL A   1      29.549  29.695  22.252  1.00  0.00     0.416 C 
ATOM     94  F   UNL A   1      28.500  29.835  21.394  1.00  0.00    -0.166 F 
ATOM     95  F   UNL A   1      29.407  30.681  23.180  1.00  0.00    -0.166 F 
ATOM     96  F   UNL A   1      30.662  30.018  21.532  1.00  0.00    -0.166 F 
ENDBRANCH  91  93
ENDBRANCH  82  87
ENDBRANCH  77  80
ENDBRANCH  75  76
ENDBRANCH  74  75
ENDBRANCH  73  74
ENDBRANCH   1  73
TORSDOF 15
ENDMDL
MODEL 3
REMARK VINA RESULT:     -12.4      0.477      7.219
REMARK SMILES O=C(NCCCCCCNC(=O)c1cc(Cl)ncc1-c1cccc(C(F)(F)F)c1)c1ccc(-c2c3nc(c(-c4c(F)c(F)c(F)c(F)c4F)c4ccc([nH]4)c(-c4c(F)c(F)c(F)c(F)c4F)c4nc(c(-c5c(F)c(F)c(F)c(F)c5F)c5ccc2[nH]5)C=C4)C=C3)cc1
REMARK SMILES IDX 6 1 5 2 4 3 3 4 1 5 2 6 30 8 31 9 92 10 32 11 91 12 33 13
REMARK SMILES IDX 34 14 35 15 85 16 36 17 90 18 84 19 86 20 37 21 89 22 83 23
REMARK SMILES IDX 82 24 38 26 70 27 50 28 69 29 51 30 54 31 68 32 87 33 52 34
REMARK SMILES IDX 53 35 67 37 88 38 55 39 39 40 40 41 48 42 41 43 42 44 46 45
REMARK SMILES IDX 49 46 43 47 44 48 47 49 45 50 71 51 72 52 80 53 73 54 74 55
REMARK SMILES IDX 78 56 81 57 75 58 76 59 79 60 77 61 56 62 57 63 65 64 58 65
REMARK SMILES IDX 59 66 63 67 66 68 60 69 61 70 64 71 62 72 7 73 8 74 9 75
REMARK SMILES IDX 10 76 11 77 12 79 13 80 14 81 19 82 15 83 18 84 16 85 17 86
REMARK SMILES IDX 20 87 21 88 29 89 22 90 24 91 23 92 25 93 26 94 27 95 28 96
REMARK H PARENT 3 7 86 25 54 36 10 78
REMARK Flexibility Score: inf
ROOT
ATOM      1  C   UNL A   1      31.406  30.819  26.065  1.00  0.00     0.002 C 
ENDROOT
BRANCH   1   2
ATOM      2  C   UNL A   1      31.271  32.273  26.516  1.00  0.00     0.021 C 
BRANCH   2   3
ATOM      3  C   UNL A   1      32.518  32.872  27.155  1.00  0.00     0.116 C 
BRANCH   3   4
ATOM      4  N   UNL A   1      32.311  34.230  27.626  1.00  0.00    -0.352 N 
ATOM      5  O   UNL A   1      32.525  36.000  29.012  1.00  0.00    -0.269 OA
ATOM      6  C   UNL A   1      32.934  34.900  28.651  1.00  0.00     0.251 C 
ATOM      7  H   UNL A   1      31.626  34.745  27.141  1.00  0.00     0.163 HD
BRANCH   6   8
ATOM      8  C   UNL A   1      34.087  34.283  29.342  1.00  0.00     0.039 A 
ATOM      9  C   UNL A   1      35.392  34.513  28.900  1.00  0.00     0.014 A 
ATOM     10  C   UNL A   1      33.857  33.471  30.456  1.00  0.00     0.014 A 
ATOM     11  C   UNL A   1      36.451  33.824  29.482  1.00  0.00     0.010 A 
ATOM     12  C   UNL A   1      34.931  32.846  31.094  1.00  0.00     0.010 A 
ATOM     13  C   UNL A   1      36.235  32.995  30.595  1.00  0.00    -0.014 A 
BRANCH  13  14
ATOM     14  C   UNL A   1      37.392  32.344  31.257  1.00  0.00     0.031 A 
ATOM     15  C   UNL A   1      38.160  31.245  30.579  1.00  0.00     0.074 A 
ATOM     16  C   UNL A   1      37.756  32.765  32.484  1.00  0.00     0.049 A 
ATOM     17  N   UNL A   1      39.191  30.565  31.019  1.00  0.00    -0.248 NA
ATOM     18  C   UNL A   1      37.713  30.851  29.236  1.00  0.00     0.031 C 
ATOM     19  C   UNL A   1      37.079  33.817  33.245  1.00  0.00     0.029 A 
ATOM     20  N   UNL A   1      38.782  32.372  33.303  1.00  0.00    -0.354 N 
ATOM     21  C   UNL A   1      39.502  29.655  30.018  1.00  0.00     0.074 A 
ATOM     22  C   UNL A   1      38.536  29.849  28.957  1.00  0.00     0.031 C 
ATOM     23  C   UNL A   1      37.727  34.012  34.401  1.00  0.00     0.029 A 
ATOM     24  C   UNL A   1      38.826  33.056  34.493  1.00  0.00     0.049 A 
ATOM     25  H   UNL A   1      39.426  31.667  33.062  1.00  0.00     0.167 HD
ATOM     26  C   UNL A   1      40.508  28.747  29.986  1.00  0.00     0.037 A 
ATOM     27  C   UNL A   1      39.645  32.917  35.551  1.00  0.00     0.037 A 
ATOM     28  C   UNL A   1      41.473  28.567  31.043  1.00  0.00     0.049 A 
ATOM     29  C   UNL A   1      40.730  31.880  35.502  1.00  0.00     0.074 A 
ATOM     30  C   UNL A   1      42.551  27.699  31.090  1.00  0.00     0.029 A 
ATOM     31  N   UNL A   1      41.469  29.262  32.245  1.00  0.00    -0.354 N 
ATOM     32  N   UNL A   1      41.038  31.052  34.534  1.00  0.00    -0.248 NA
ATOM     33  C   UNL A   1      41.579  31.757  36.693  1.00  0.00     0.031 C 
ATOM     34  C   UNL A   1      43.168  27.833  32.339  1.00  0.00     0.029 A 
ATOM     35  C   UNL A   1      42.510  28.824  33.050  1.00  0.00     0.049 A 
ATOM     36  H   UNL A   1      40.823  29.963  32.490  1.00  0.00     0.167 HD
ATOM     37  C   UNL A   1      42.128  30.323  34.989  1.00  0.00     0.074 A 
ATOM     38  C   UNL A   1      42.439  30.822  36.313  1.00  0.00     0.031 C 
ATOM     39  C   UNL A   1      42.808  29.331  34.365  1.00  0.00     0.037 A 
BRANCH  26  40
ATOM     40  C   UNL A   1      40.612  27.860  28.779  1.00  0.00     0.064 A 
ATOM     41  C   UNL A   1      39.906  26.650  28.687  1.00  0.00     0.173 A 
ATOM     42  C   UNL A   1      41.391  28.247  27.677  1.00  0.00     0.173 A 
ATOM     43  F   UNL A   1      39.155  26.227  29.715  1.00  0.00    -0.203 F 
ATOM     44  C   UNL A   1      39.997  25.850  27.550  1.00  0.00     0.198 A 
ATOM     45  C   UNL A   1      41.456  27.459  26.530  1.00  0.00     0.198 A 
ATOM     46  F   UNL A   1      42.080  29.397  27.706  1.00  0.00    -0.203 F 
ATOM     47  F   UNL A   1      39.349  24.677  27.505  1.00  0.00    -0.200 F 
ATOM     48  C   UNL A   1      40.766  26.258  26.471  1.00  0.00     0.200 A 
ATOM     49  F   UNL A   1      42.188  27.862  25.482  1.00  0.00    -0.200 F 
ATOM     50  F   UNL A   1      40.846  25.490  25.374  1.00  0.00    -0.200 F 
ENDBRANCH  26  40
BRANCH  27  51
ATOM     51  C   UNL A   1      39.458  33.783  36.743  1.00  0.00     0.064 A 
ATOM     52  C   UNL A   1      38.699  33.348  37.838  1.00  0.00     0.173 A 
ATOM     53  C   UNL A   1      40.047  35.053  36.819  1.00  0.00     0.173 A 
ATOM     54  F   UNL A   1      38.101  32.148  37.804  1.00  0.00    -0.203 F 
ATOM     55  C   UNL A   1      38.527  34.157  38.959  1.00  0.00     0.198 A 
ATOM     56  C   UNL A   1      39.900  35.848  37.953  1.00  0.00     0.198 A 
ATOM     57  F   UNL A   1      40.788  35.512  35.800  1.00  0.00    -0.203 F 
ATOM     58  F   UNL A   1      37.764  33.734  39.976  1.00  0.00    -0.200 F 
ATOM     59  C   UNL A   1      39.134  35.403  39.019  1.00  0.00     0.200 A 
ATOM     60  F   UNL A   1      40.504  37.043  38.014  1.00  0.00    -0.200 F 
ATOM     61  F   UNL A   1      38.975  36.176  40.101  1.00  0.00    -0.200 F 
ENDBRANCH  27  51
BRANCH  39  62
ATOM     62  C   UNL A   1      43.978  28.741  35.098  1.00  0.00     0.064 A 
ATOM     63  C   UNL A   1      45.268  29.280  34.985  1.00  0.00     0.173 A 
ATOM     64  C   UNL A   1      43.799  27.638  35.947  1.00  0.00     0.173 A 
ATOM     65  F   UNL A   1      45.494  30.323  34.171  1.00  0.00    -0.203 F 
ATOM     66  C   UNL A   1      46.340  28.720  35.673  1.00  0.00     0.198 A 
ATOM     67  C   UNL A   1      44.868  27.101  36.658  1.00  0.00     0.198 A 
ATOM     68  F   UNL A   1      42.584  27.087  36.094  1.00  0.00    -0.203 F 
ATOM     69  F   UNL A   1      47.573  29.220  35.510  1.00  0.00    -0.200 F 
ATOM     70  C   UNL A   1      46.138  27.636  36.514  1.00  0.00     0.200 A 
ATOM     71  F   UNL A   1      44.668  26.060  37.480  1.00  0.00    -0.200 F 
ATOM     72  F   UNL A   1      47.171  27.102  37.181  1.00  0.00    -0.200 F 
ENDBRANCH  39  62
ENDBRANCH  13  14
ENDBRANCH   6   8
ENDBRANCH   3   4
ENDBRANCH   2   3
ENDBRANCH   1   2
BRANCH   1  73
ATOM     73  C   UNL A   1      32.317  29.940  26.928  1.00  0.00     0.002 C 
BRANCH  73  74
ATOM     74  C   UNL A   1      33.667  29.565  26.309  1.00  0.00     0.021 C 
BRANCH  74  75
ATOM     75  C   UNL A   1      33.793  28.120  25.834  1.00  0.00     0.116 C 
BRANCH  75  76
ATOM     76  N   UNL A   1      32.852  27.234  26.495  1.00  0.00    -0.352 N 
ATOM     77  C   UNL A   1      32.348  26.028  26.080  1.00  0.00     0.252 C 
ATOM     78  H   UNL A   1      32.528  27.545  27.372  1.00  0.00     0.163 HD
ATOM     79  O   UNL A   1      31.536  25.419  26.767  1.00  0.00    -0.269 OA
BRANCH  77  80
ATOM     80  C   UNL A   1      32.810  25.453  24.803  1.00  0.00     0.052 A 
ATOM     81  C   UNL A   1      33.981  24.690  24.822  1.00  0.00     0.055 A 
ATOM     82  C   UNL A   1      32.072  25.625  23.620  1.00  0.00     0.013 A 
ATOM     83  C   UNL A   1      34.412  24.164  23.626  1.00  0.00     0.129 A 
ATOM     84  C   UNL A   1      32.615  25.027  22.484  1.00  0.00     0.122 A 
ATOM     85  Cl  UNL A   1      35.872  23.271  23.534  1.00  0.00    -0.062 Cl
ATOM     86  N   UNL A   1      33.769  24.317  22.454  1.00  0.00    -0.244 NA
BRANCH  82  87
ATOM     87  C   UNL A   1      30.815  26.381  23.531  1.00  0.00    -0.015 A 
ATOM     88  C   UNL A   1      29.606  25.806  23.958  1.00  0.00     0.009 A 
ATOM     89  C   UNL A   1      30.784  27.687  23.016  1.00  0.00     0.021 A 
ATOM     90  C   UNL A   1      28.406  26.514  23.876  1.00  0.00     0.001 A 
ATOM     91  C   UNL A   1      29.583  28.413  22.935  1.00  0.00     0.056 A 
ATOM     92  C   UNL A   1      28.394  27.810  23.368  1.00  0.00     0.013 A 
BRANCH  91  93
ATOM     93  C   UNL A   1      29.559  29.822  22.396  1.00  0.00     0.416 C 
ATOM     94  F   UNL A   1      28.468  30.062  21.616  1.00  0.00    -0.166 F 
ATOM     95  F   UNL A   1      29.529  30.762  23.381  1.00  0.00    -0.166 F 
ATOM     96  F   UNL A   1      30.641  30.128  21.624  1.00  0.00    -0.166 F 
ENDBRANCH  91  93
ENDBRANCH  82  87
ENDBRANCH  77  80
ENDBRANCH  75  76
ENDBRANCH  74  75
ENDBRANCH  73  74
ENDBRANCH   1  73
TORSDOF 15
ENDMDL
