MODEL 1
REMARK VINA RESULT:     -12.3      0.000      0.000
REMARK SMILES COc1ccc(/N=C/c2ccc(-c3ccc(C)c(C(=O)NCCCCCCNC(=O)c4ccc(-c5c6nc(c(-c7c(F)c(F)c(F)c(F)c7F)c7ccc([nH]7)c(-c7c(F)c(F)c(F)c(F)c7F)c7nc(c(-c8c(F)c(F)c(F)c(F)c8F)c8ccc5[nH]8)C=C7)C=C6)cc4)c3)o2)cc1
REMARK SMILES IDX 23 1 22 2 21 3 19 4 20 5 18 7 13 8 14 9 94 10 15 11 16 12
REMARK SMILES IDX 17 13 12 14 9 15 10 16 95 17 11 18 8 19 7 20 6 21 3 22 4 23
REMARK SMILES IDX 97 24 5 25 96 26 2 27 1 28 24 29 25 30 26 31 27 32 28 33
REMARK SMILES IDX 29 34 30 36 31 37 32 38 93 39 33 40 92 41 34 42 35 43 36 44
REMARK SMILES IDX 86 45 37 46 91 47 85 48 87 49 38 50 90 51 84 52 83 53 39 55
REMARK SMILES IDX 71 56 51 57 70 58 52 59 55 60 69 61 88 62 53 63 54 64 68 66
REMARK SMILES IDX 89 67 56 68 40 69 41 70 49 71 42 72 43 73 47 74 50 75 44 76
REMARK SMILES IDX 45 77 48 78 46 79 72 80 73 81 81 82 74 83 75 84 79 85 82 86
REMARK SMILES IDX 76 87 77 88 80 89 78 90 57 91 58 92 66 93 59 94 60 95 64 96
REMARK SMILES IDX 67 97 61 98 62 99 65 100 63 101
REMARK H PARENT 21 6 28 35 87 54 55 65
REMARK Flexibility Score: inf
ROOT
ATOM      1  C   UNL A   1      35.051  30.503  27.755  1.00  0.00     0.021 C 
ENDROOT
BRANCH   1   2
ATOM      2  C   UNL A   1      34.568  29.183  27.168  1.00  0.00     0.116 C 
BRANCH   2   3
ATOM      3  N   UNL A   1      33.342  28.661  27.752  1.00  0.00    -0.352 N 
ATOM      4  C   UNL A   1      32.225  28.066  27.190  1.00  0.00     0.251 C 
ATOM      5  O   UNL A   1      31.383  27.619  27.965  1.00  0.00    -0.269 OA
ATOM      6  H   UNL A   1      33.299  28.747  28.732  1.00  0.00     0.163 HD
BRANCH   4   7
ATOM      7  C   UNL A   1      32.022  27.990  25.704  1.00  0.00     0.043 A 
ATOM      8  C   UNL A   1      32.283  26.619  23.685  1.00  0.00     0.018 A 
ATOM      9  C   UNL A   1      32.080  27.744  22.895  1.00  0.00     0.012 A 
ATOM     10  C   UNL A   1      32.160  26.746  25.075  1.00  0.00     0.026 A 
ATOM     11  C   UNL A   1      31.747  28.962  23.496  1.00  0.00     0.005 A 
ATOM     12  C   UNL A   1      31.718  29.109  24.902  1.00  0.00    -0.038 A 
ATOM     13  C   UNL A   1      31.313  30.467  25.413  1.00  0.00     0.045 C 
BRANCH   8  14
ATOM     14  C   UNL A   1      32.657  25.325  23.133  1.00  0.00     0.134 A 
ATOM     15  C   UNL A   1      32.937  23.144  23.242  1.00  0.00     0.145 A 
ATOM     16  C   UNL A   1      33.081  23.500  21.915  1.00  0.00     0.052 A 
ATOM     17  O   UNL A   1      32.679  24.259  23.994  1.00  0.00    -0.455 OA
ATOM     18  C   UNL A   1      32.903  24.895  21.845  1.00  0.00     0.051 A 
BRANCH  15  19
ATOM     19  C   UNL A   1      33.032  21.852  23.871  1.00  0.00     0.158 C 
ATOM     20  N   UNL A   1      32.510  20.839  23.260  1.00  0.00    -0.253 NA
BRANCH  20  21
ATOM     21  C   UNL A   1      32.597  19.547  23.788  1.00  0.00     0.063 A 
ATOM     22  C   UNL A   1      33.061  17.049  25.000  1.00  0.00     0.119 A 
ATOM     23  C   UNL A   1      32.902  18.189  25.784  1.00  0.00     0.048 A 
ATOM     24  C   UNL A   1      32.946  17.147  23.612  1.00  0.00     0.048 A 
ATOM     25  C   UNL A   1      32.684  19.429  25.179  1.00  0.00     0.032 A 
ATOM     26  C   UNL A   1      32.724  18.394  23.009  1.00  0.00     0.032 A 
BRANCH  22  27
ATOM     27  O   UNL A   1      33.284  15.885  25.681  1.00  0.00    -0.497 OA
ATOM     28  C   UNL A   1      32.159  15.013  25.749  1.00  0.00     0.278 C 
ENDBRANCH  22  27
ENDBRANCH  20  21
ENDBRANCH  15  19
ENDBRANCH   8  14
ENDBRANCH   4   7
ENDBRANCH   2   3
ENDBRANCH   1   2
BRANCH   1  29
ATOM     29  C   UNL A   1      33.984  31.544  28.086  1.00  0.00     0.002 C 
BRANCH  29  30
ATOM     30  C   UNL A   1      34.438  33.005  28.127  1.00  0.00     0.002 C 
BRANCH  30  31
ATOM     31  C   UNL A   1      33.333  34.062  28.147  1.00  0.00     0.021 C 
BRANCH  31  32
ATOM     32  C   UNL A   1      33.716  35.410  28.749  1.00  0.00     0.116 C 
BRANCH  32  33
ATOM     33  N   UNL A   1      32.864  35.793  29.862  1.00  0.00    -0.352 N 
ATOM     34  C   UNL A   1      32.966  35.469  31.193  1.00  0.00     0.251 C 
ATOM     35  H   UNL A   1      32.102  36.369  29.627  1.00  0.00     0.163 HD
ATOM     36  O   UNL A   1      32.061  35.759  31.967  1.00  0.00    -0.269 OA
BRANCH  34  37
ATOM     37  C   UNL A   1      34.157  34.748  31.694  1.00  0.00     0.039 A 
ATOM     38  C   UNL A   1      34.019  33.411  32.078  1.00  0.00     0.014 A 
ATOM     39  C   UNL A   1      35.397  35.382  31.803  1.00  0.00     0.014 A 
ATOM     40  C   UNL A   1      35.136  32.696  32.516  1.00  0.00     0.010 A 
ATOM     41  C   UNL A   1      36.524  34.648  32.166  1.00  0.00     0.010 A 
ATOM     42  C   UNL A   1      36.404  33.299  32.533  1.00  0.00    -0.014 A 
BRANCH  42  43
ATOM     43  C   UNL A   1      37.612  32.533  32.935  1.00  0.00     0.031 A 
ATOM     44  C   UNL A   1      38.309  32.840  34.231  1.00  0.00     0.074 A 
ATOM     45  C   UNL A   1      38.114  31.597  32.105  1.00  0.00     0.049 A 
ATOM     46  N   UNL A   1      39.404  32.321  34.727  1.00  0.00    -0.248 NA
ATOM     47  C   UNL A   1      37.709  33.888  35.072  1.00  0.00     0.031 C 
ATOM     48  C   UNL A   1      37.558  31.240  30.799  1.00  0.00     0.029 A 
ATOM     49  N   UNL A   1      39.212  30.783  32.231  1.00  0.00    -0.354 N 
ATOM     50  C   UNL A   1      39.629  32.987  35.926  1.00  0.00     0.074 A 
ATOM     51  C   UNL A   1      38.590  33.985  36.056  1.00  0.00     0.031 C 
ATOM     52  C   UNL A   1      38.303  30.265  30.255  1.00  0.00     0.029 A 
ATOM     53  C   UNL A   1      39.412  29.957  31.152  1.00  0.00     0.049 A 
ATOM     54  H   UNL A   1      39.800  30.790  33.021  1.00  0.00     0.167 HD
ATOM     55  C   UNL A   1      40.601  32.769  36.844  1.00  0.00     0.037 A 
ATOM     56  C   UNL A   1      40.385  29.058  30.909  1.00  0.00     0.037 A 
ATOM     57  C   UNL A   1      41.621  31.760  36.720  1.00  0.00     0.049 A 
ATOM     58  C   UNL A   1      41.459  28.842  31.942  1.00  0.00     0.074 A 
ATOM     59  C   UNL A   1      42.612  31.420  37.622  1.00  0.00     0.029 A 
ATOM     60  N   UNL A   1      41.782  30.931  35.618  1.00  0.00    -0.354 N 
ATOM     61  N   UNL A   1      41.620  29.427  33.105  1.00  0.00    -0.248 NA
ATOM     62  C   UNL A   1      42.481  27.833  31.633  1.00  0.00     0.031 C 
ATOM     63  C   UNL A   1      43.409  30.426  37.045  1.00  0.00     0.029 A 
ATOM     64  C   UNL A   1      42.874  30.100  35.809  1.00  0.00     0.049 A 
ATOM     65  H   UNL A   1      41.205  30.934  34.820  1.00  0.00     0.167 HD
ATOM     66  C   UNL A   1      42.740  28.838  33.677  1.00  0.00     0.074 A 
ATOM     67  C   UNL A   1      43.208  27.837  32.741  1.00  0.00     0.031 C 
ATOM     68  C   UNL A   1      43.326  29.103  34.871  1.00  0.00     0.037 A 
BRANCH  55  69
ATOM     69  C   UNL A   1      40.610  33.641  38.069  1.00  0.00     0.064 A 
ATOM     70  C   UNL A   1      39.798  33.363  39.179  1.00  0.00     0.173 A 
ATOM     71  C   UNL A   1      41.475  34.743  38.150  1.00  0.00     0.173 A 
ATOM     72  F   UNL A   1      38.945  32.328  39.150  1.00  0.00    -0.203 F 
ATOM     73  C   UNL A   1      39.828  34.174  40.311  1.00  0.00     0.198 A 
ATOM     74  C   UNL A   1      41.527  35.532  39.297  1.00  0.00     0.198 A 
ATOM     75  F   UNL A   1      42.279  35.051  37.122  1.00  0.00    -0.203 F 
ATOM     76  F   UNL A   1      39.004  33.920  41.337  1.00  0.00    -0.200 F 
ATOM     77  C   UNL A   1      40.698  35.252  40.372  1.00  0.00     0.200 A 
ATOM     78  F   UNL A   1      42.379  36.563  39.360  1.00  0.00    -0.200 F 
ATOM     79  F   UNL A   1      40.733  36.025  41.466  1.00  0.00    -0.200 F 
ENDBRANCH  55  69
BRANCH  56  80
ATOM     80  C   UNL A   1      40.381  28.282  29.640  1.00  0.00     0.064 A 
ATOM     81  C   UNL A   1      41.130  28.705  28.533  1.00  0.00     0.173 A 
ATOM     82  C   UNL A   1      39.628  27.107  29.507  1.00  0.00     0.173 A 
ATOM     83  F   UNL A   1      41.851  29.834  28.603  1.00  0.00    -0.203 F 
ATOM     84  C   UNL A   1      41.104  27.996  27.333  1.00  0.00     0.198 A 
ATOM     85  C   UNL A   1      39.630  26.381  28.317  1.00  0.00     0.198 A 
ATOM     86  F   UNL A   1      38.901  26.653  30.538  1.00  0.00    -0.203 F 
ATOM     87  F   UNL A   1      41.788  28.451  26.275  1.00  0.00    -0.200 F 
ATOM     88  C   UNL A   1      40.360  26.832  27.229  1.00  0.00     0.200 A 
ATOM     89  F   UNL A   1      38.922  25.246  28.226  1.00  0.00    -0.200 F 
ATOM     90  F   UNL A   1      40.339  26.147  26.076  1.00  0.00    -0.200 F 
ENDBRANCH  56  80
BRANCH  68  91
ATOM     91  C   UNL A   1      44.516  28.271  35.254  1.00  0.00     0.064 A 
ATOM     92  C   UNL A   1      45.827  28.679  34.970  1.00  0.00     0.173 A 
ATOM     93  C   UNL A   1      44.342  27.064  35.951  1.00  0.00     0.173 A 
ATOM     94  F   UNL A   1      46.048  29.818  34.295  1.00  0.00    -0.203 F 
ATOM     95  C   UNL A   1      46.918  27.897  35.343  1.00  0.00     0.198 A 
ATOM     96  C   UNL A   1      45.435  26.303  36.352  1.00  0.00     0.198 A 
ATOM     97  F   UNL A   1      43.109  26.630  36.256  1.00  0.00    -0.203 F 
ATOM     98  F   UNL A   1      48.159  28.282  35.014  1.00  0.00    -0.200 F 
ATOM     99  C   UNL A   1      46.722  26.714  36.040  1.00  0.00     0.200 A 
ATOM    100  F   UNL A   1      45.244  25.168  37.040  1.00  0.00    -0.200 F 
ATOM    101  F   UNL A   1      47.773  25.968  36.405  1.00  0.00    -0.200 F 
ENDBRANCH  68  91
ENDBRANCH  42  43
ENDBRANCH  34  37
ENDBRANCH  32  33
ENDBRANCH  31  32
ENDBRANCH  30  31
ENDBRANCH  29  30
ENDBRANCH   1  29
TORSDOF 17
ENDMDL
MODEL 2
REMARK VINA RESULT:     -12.2      2.241      3.604
REMARK SMILES COc1ccc(/N=C/c2ccc(-c3ccc(C)c(C(=O)NCCCCCCNC(=O)c4ccc(-c5c6nc(c(-c7c(F)c(F)c(F)c(F)c7F)c7ccc([nH]7)c(-c7c(F)c(F)c(F)c(F)c7F)c7nc(c(-c8c(F)c(F)c(F)c(F)c8F)c8ccc5[nH]8)C=C7)C=C6)cc4)c3)o2)cc1
REMARK SMILES IDX 23 1 22 2 21 3 19 4 20 5 18 7 13 8 14 9 94 10 15 11 16 12
REMARK SMILES IDX 17 13 12 14 9 15 10 16 95 17 11 18 8 19 7 20 6 21 3 22 4 23
REMARK SMILES IDX 97 24 5 25 96 26 2 27 1 28 24 29 25 30 26 31 27 32 28 33
REMARK SMILES IDX 29 34 30 36 31 37 32 38 93 39 33 40 92 41 34 42 35 43 36 44
REMARK SMILES IDX 86 45 37 46 91 47 85 48 87 49 38 50 90 51 84 52 83 53 39 55
REMARK SMILES IDX 71 56 51 57 70 58 52 59 55 60 69 61 88 62 53 63 54 64 68 66
REMARK SMILES IDX 89 67 56 68 40 69 41 70 49 71 42 72 43 73 47 74 50 75 44 76
REMARK SMILES IDX 45 77 48 78 46 79 72 80 73 81 81 82 74 83 75 84 79 85 82 86
REMARK SMILES IDX 76 87 77 88 80 89 78 90 57 91 58 92 66 93 59 94 60 95 64 96
REMARK SMILES IDX 67 97 61 98 62 99 65 100 63 101
REMARK H PARENT 21 6 28 35 87 54 55 65
REMARK Flexibility Score: inf
ROOT
ATOM      1  C   UNL A   1      35.155  30.937  27.708  1.00  0.00     0.021 C 
ENDROOT
BRANCH   1   2
ATOM      2  C   UNL A   1      34.797  29.499  27.356  1.00  0.00     0.116 C 
BRANCH   2   3
ATOM      3  N   UNL A   1      33.453  29.089  27.734  1.00  0.00    -0.352 N 
ATOM      4  C   UNL A   1      32.613  28.099  27.252  1.00  0.00     0.251 C 
ATOM      5  O   UNL A   1      31.561  27.916  27.860  1.00  0.00    -0.269 OA
ATOM      6  H   UNL A   1      33.068  29.615  28.472  1.00  0.00     0.163 HD
BRANCH   4   7
ATOM      7  C   UNL A   1      32.944  27.297  26.027  1.00  0.00     0.043 A 
ATOM      8  C   UNL A   1      34.000  25.259  25.156  1.00  0.00     0.018 A 
ATOM      9  C   UNL A   1      33.992  25.801  23.877  1.00  0.00     0.012 A 
ATOM     10  C   UNL A   1      33.394  25.980  26.193  1.00  0.00     0.026 A 
ATOM     11  C   UNL A   1      33.372  27.035  23.651  1.00  0.00     0.005 A 
ATOM     12  C   UNL A   1      32.846  27.804  24.715  1.00  0.00    -0.038 A 
ATOM     13  C   UNL A   1      32.179  29.097  24.324  1.00  0.00     0.045 C 
BRANCH   8  14
ATOM     14  C   UNL A   1      34.647  23.994  25.472  1.00  0.00     0.134 A 
ATOM     15  C   UNL A   1      36.402  22.688  25.724  1.00  0.00     0.145 A 
ATOM     16  C   UNL A   1      35.317  22.005  26.239  1.00  0.00     0.052 A 
ATOM     17  O   UNL A   1      35.997  23.907  25.251  1.00  0.00    -0.455 OA
ATOM     18  C   UNL A   1      34.194  22.840  26.077  1.00  0.00     0.051 A 
BRANCH  15  19
ATOM     19  C   UNL A   1      37.784  22.296  25.627  1.00  0.00     0.158 C 
ATOM     20  N   UNL A   1      38.619  22.795  26.479  1.00  0.00    -0.253 NA
BRANCH  20  21
ATOM     21  C   UNL A   1      39.969  22.430  26.473  1.00  0.00     0.063 A 
ATOM     22  C   UNL A   1      42.717  21.891  26.186  1.00  0.00     0.119 A 
ATOM     23  C   UNL A   1      42.276  23.197  26.386  1.00  0.00     0.048 A 
ATOM     24  C   UNL A   1      41.791  20.847  26.172  1.00  0.00     0.048 A 
ATOM     25  C   UNL A   1      40.911  23.462  26.515  1.00  0.00     0.032 A 
ATOM     26  C   UNL A   1      40.421  21.118  26.307  1.00  0.00     0.032 A 
BRANCH  22  27
ATOM     27  O   UNL A   1      44.069  21.733  26.056  1.00  0.00    -0.497 OA
ATOM     28  C   UNL A   1      44.847  22.739  26.700  1.00  0.00     0.278 C 
ENDBRANCH  22  27
ENDBRANCH  20  21
ENDBRANCH  15  19
ENDBRANCH   8  14
ENDBRANCH   4   7
ENDBRANCH   2   3
ENDBRANCH   1   2
BRANCH   1  29
ATOM     29  C   UNL A   1      34.039  31.807  28.285  1.00  0.00     0.002 C 
BRANCH  29  30
ATOM     30  C   UNL A   1      34.388  33.267  28.578  1.00  0.00     0.002 C 
BRANCH  30  31
ATOM     31  C   UNL A   1      33.223  34.258  28.590  1.00  0.00     0.021 C 
BRANCH  31  32
ATOM     32  C   UNL A   1      33.526  35.631  29.182  1.00  0.00     0.116 C 
BRANCH  32  33
ATOM     33  N   UNL A   1      32.680  35.954  30.318  1.00  0.00    -0.352 N 
ATOM     34  C   UNL A   1      32.805  35.585  31.635  1.00  0.00     0.251 C 
ATOM     35  H   UNL A   1      31.902  36.522  30.112  1.00  0.00     0.163 HD
ATOM     36  O   UNL A   1      31.904  35.827  32.430  1.00  0.00    -0.269 OA
BRANCH  34  37
ATOM     37  C   UNL A   1      34.017  34.873  32.096  1.00  0.00     0.039 A 
ATOM     38  C   UNL A   1      33.935  33.500  32.344  1.00  0.00     0.014 A 
ATOM     39  C   UNL A   1      35.223  35.549  32.299  1.00  0.00     0.014 A 
ATOM     40  C   UNL A   1      35.074  32.797  32.741  1.00  0.00     0.010 A 
ATOM     41  C   UNL A   1      36.375  34.834  32.620  1.00  0.00     0.010 A 
ATOM     42  C   UNL A   1      36.312  33.452  32.851  1.00  0.00    -0.014 A 
BRANCH  42  43
ATOM     43  C   UNL A   1      37.545  32.705  33.209  1.00  0.00     0.031 A 
ATOM     44  C   UNL A   1      38.256  32.990  34.503  1.00  0.00     0.074 A 
ATOM     45  C   UNL A   1      38.058  31.809  32.342  1.00  0.00     0.049 A 
ATOM     46  N   UNL A   1      39.372  32.485  34.965  1.00  0.00    -0.248 NA
ATOM     47  C   UNL A   1      37.643  33.995  35.386  1.00  0.00     0.031 C 
ATOM     48  C   UNL A   1      37.489  31.479  31.035  1.00  0.00     0.029 A 
ATOM     49  N   UNL A   1      39.178  31.020  32.426  1.00  0.00    -0.354 N 
ATOM     50  C   UNL A   1      39.600  33.119  36.180  1.00  0.00     0.074 A 
ATOM     51  C   UNL A   1      38.538  34.085  36.359  1.00  0.00     0.031 C 
ATOM     52  C   UNL A   1      38.250  30.541  30.449  1.00  0.00     0.029 A 
ATOM     53  C   UNL A   1      39.381  30.234  31.318  1.00  0.00     0.049 A 
ATOM     54  H   UNL A   1      39.779  31.018  33.205  1.00  0.00     0.167 HD
ATOM     55  C   UNL A   1      40.592  32.898  37.076  1.00  0.00     0.037 A 
ATOM     56  C   UNL A   1      40.373  29.369  31.031  1.00  0.00     0.037 A 
ATOM     57  C   UNL A   1      41.635  31.920  36.904  1.00  0.00     0.049 A 
ATOM     58  C   UNL A   1      41.469  29.149  32.039  1.00  0.00     0.074 A 
ATOM     59  C   UNL A   1      42.650  31.578  37.779  1.00  0.00     0.029 A 
ATOM     60  N   UNL A   1      41.799  31.131  35.774  1.00  0.00    -0.354 N 
ATOM     61  N   UNL A   1      41.634  29.701  33.217  1.00  0.00    -0.248 NA
ATOM     62  C   UNL A   1      42.511  28.177  31.682  1.00  0.00     0.031 C 
ATOM     63  C   UNL A   1      43.462  30.624  37.158  1.00  0.00     0.029 A 
ATOM     64  C   UNL A   1      42.915  30.322  35.921  1.00  0.00     0.049 A 
ATOM     65  H   UNL A   1      41.209  31.143  34.985  1.00  0.00     0.167 HD
ATOM     66  C   UNL A   1      42.778  29.124  33.753  1.00  0.00     0.074 A 
ATOM     67  C   UNL A   1      43.256  28.166  32.779  1.00  0.00     0.031 C 
ATOM     68  C   UNL A   1      43.377  29.367  34.945  1.00  0.00     0.037 A 
BRANCH  55  69
ATOM     69  C   UNL A   1      40.600  33.731  38.327  1.00  0.00     0.064 A 
ATOM     70  C   UNL A   1      39.828  33.387  39.447  1.00  0.00     0.173 A 
ATOM     71  C   UNL A   1      41.423  34.864  38.422  1.00  0.00     0.173 A 
ATOM     72  F   UNL A   1      39.015  32.321  39.407  1.00  0.00    -0.203 F 
ATOM     73  C   UNL A   1      39.856  34.164  40.603  1.00  0.00     0.198 A 
ATOM     74  C   UNL A   1      41.475  35.618  39.592  1.00  0.00     0.198 A 
ATOM     75  F   UNL A   1      42.188  35.234  37.384  1.00  0.00    -0.203 F 
ATOM     76  F   UNL A   1      39.069  33.846  41.641  1.00  0.00    -0.200 F 
ATOM     77  C   UNL A   1      40.685  35.273  40.678  1.00  0.00     0.200 A 
ATOM     78  F   UNL A   1      42.288  36.680  39.667  1.00  0.00    -0.200 F 
ATOM     79  F   UNL A   1      40.718  36.012  41.794  1.00  0.00    -0.200 F 
ENDBRANCH  55  69
BRANCH  56  80
ATOM     80  C   UNL A   1      40.367  28.632  29.739  1.00  0.00     0.064 A 
ATOM     81  C   UNL A   1      39.660  27.430  29.596  1.00  0.00     0.173 A 
ATOM     82  C   UNL A   1      41.069  29.111  28.623  1.00  0.00     0.173 A 
ATOM     83  F   UNL A   1      38.990  26.919  30.639  1.00  0.00    -0.203 F 
ATOM     84  C   UNL A   1      39.678  26.722  28.396  1.00  0.00     0.198 A 
ATOM     85  C   UNL A   1      41.058  28.420  27.413  1.00  0.00     0.198 A 
ATOM     86  F   UNL A   1      41.755  30.261  28.703  1.00  0.00    -0.203 F 
ATOM     87  F   UNL A   1      39.036  25.550  28.303  1.00  0.00    -0.200 F 
ATOM     88  C   UNL A   1      40.371  27.221  27.304  1.00  0.00     0.200 A 
ATOM     89  F   UNL A   1      41.716  28.914  26.356  1.00  0.00    -0.200 F 
ATOM     90  F   UNL A   1      40.383  26.543  26.148  1.00  0.00    -0.200 F 
ENDBRANCH  56  80
BRANCH  68  91
ATOM     91  C   UNL A   1      44.594  28.555  35.283  1.00  0.00     0.064 A 
ATOM     92  C   UNL A   1      45.889  28.998  34.976  1.00  0.00     0.173 A 
ATOM     93  C   UNL A   1      44.463  27.331  35.958  1.00  0.00     0.173 A 
ATOM     94  F   UNL A   1      46.068  30.155  34.319  1.00  0.00    -0.203 F 
ATOM     95  C   UNL A   1      47.005  28.234  35.307  1.00  0.00     0.198 A 
ATOM     96  C   UNL A   1      45.584  26.587  36.318  1.00  0.00     0.198 A 
ATOM     97  F   UNL A   1      43.249  26.862  36.283  1.00  0.00    -0.203 F 
ATOM     98  F   UNL A   1      48.229  28.654  34.957  1.00  0.00    -0.200 F 
ATOM     99  C   UNL A   1      46.853  27.034  35.984  1.00  0.00     0.200 A 
ATOM    100  F   UNL A   1      45.434  25.435  36.988  1.00  0.00    -0.200 F 
ATOM    101  F   UNL A   1      47.928  26.305  36.309  1.00  0.00    -0.200 F 
ENDBRANCH  68  91
ENDBRANCH  42  43
ENDBRANCH  34  37
ENDBRANCH  32  33
ENDBRANCH  31  32
ENDBRANCH  30  31
ENDBRANCH  29  30
ENDBRANCH   1  29
TORSDOF 17
ENDMDL
MODEL 3
REMARK VINA RESULT:     -12.0      2.074      7.452
REMARK SMILES COc1ccc(/N=C/c2ccc(-c3ccc(C)c(C(=O)NCCCCCCNC(=O)c4ccc(-c5c6nc(c(-c7c(F)c(F)c(F)c(F)c7F)c7ccc([nH]7)c(-c7c(F)c(F)c(F)c(F)c7F)c7nc(c(-c8c(F)c(F)c(F)c(F)c8F)c8ccc5[nH]8)C=C7)C=C6)cc4)c3)o2)cc1
REMARK SMILES IDX 23 1 22 2 21 3 19 4 20 5 18 7 13 8 14 9 94 10 15 11 16 12
REMARK SMILES IDX 17 13 12 14 9 15 10 16 95 17 11 18 8 19 7 20 6 21 3 22 4 23
REMARK SMILES IDX 97 24 5 25 96 26 2 27 1 28 24 29 25 30 26 31 27 32 28 33
REMARK SMILES IDX 29 34 30 36 31 37 32 38 93 39 33 40 92 41 34 42 35 43 36 44
REMARK SMILES IDX 86 45 37 46 91 47 85 48 87 49 38 50 90 51 84 52 83 53 39 55
REMARK SMILES IDX 71 56 51 57 70 58 52 59 55 60 69 61 88 62 53 63 54 64 68 66
REMARK SMILES IDX 89 67 56 68 40 69 41 70 49 71 42 72 43 73 47 74 50 75 44 76
REMARK SMILES IDX 45 77 48 78 46 79 72 80 73 81 81 82 74 83 75 84 79 85 82 86
REMARK SMILES IDX 76 87 77 88 80 89 78 90 57 91 58 92 66 93 59 94 60 95 64 96
REMARK SMILES IDX 67 97 61 98 62 99 65 100 63 101
REMARK H PARENT 21 6 28 35 87 54 55 65
REMARK Flexibility Score: inf
ROOT
ATOM      1  C   UNL A   1      35.156  30.764  27.837  1.00  0.00     0.021 C 
ENDROOT
BRANCH   1   2
ATOM      2  C   UNL A   1      34.680  29.418  27.304  1.00  0.00     0.116 C 
BRANCH   2   3
ATOM      3  N   UNL A   1      33.409  28.958  27.842  1.00  0.00    -0.352 N 
ATOM      4  C   UNL A   1      32.324  28.331  27.253  1.00  0.00     0.251 C 
ATOM      5  O   UNL A   1      31.423  27.957  28.001  1.00  0.00    -0.269 OA
ATOM      6  H   UNL A   1      33.300  29.124  28.806  1.00  0.00     0.163 HD
BRANCH   4   7
ATOM      7  C   UNL A   1      32.222  28.137  25.767  1.00  0.00     0.043 A 
ATOM      8  C   UNL A   1      32.759  26.679  23.866  1.00  0.00     0.018 A 
ATOM      9  C   UNL A   1      32.479  27.721  22.989  1.00  0.00     0.012 A 
ATOM     10  C   UNL A   1      32.538  26.880  25.235  1.00  0.00     0.026 A 
ATOM     11  C   UNL A   1      31.974  28.927  23.485  1.00  0.00     0.005 A 
ATOM     12  C   UNL A   1      31.842  29.159  24.873  1.00  0.00    -0.038 A 
ATOM     13  C   UNL A   1      31.256  30.491  25.265  1.00  0.00     0.045 C 
BRANCH   8  14
ATOM     14  C   UNL A   1      33.310  25.406  23.428  1.00  0.00     0.134 A 
ATOM     15  C   UNL A   1      34.652  23.670  23.618  1.00  0.00     0.145 A 
ATOM     16  C   UNL A   1      33.757  23.376  22.607  1.00  0.00     0.052 A 
ATOM     17  O   UNL A   1      34.384  24.915  24.124  1.00  0.00    -0.455 OA
ATOM     18  C   UNL A   1      32.899  24.486  22.485  1.00  0.00     0.051 A 
BRANCH  15  19
ATOM     19  C   UNL A   1      35.744  22.894  24.145  1.00  0.00     0.158 C 
ATOM     20  N   UNL A   1      36.589  23.486  24.925  1.00  0.00    -0.253 NA
BRANCH  20  21
ATOM     21  C   UNL A   1      37.652  22.789  25.509  1.00  0.00     0.063 A 
ATOM     22  C   UNL A   1      39.994  21.610  26.532  1.00  0.00     0.119 A 
ATOM     23  C   UNL A   1      39.684  22.933  26.838  1.00  0.00     0.048 A 
ATOM     24  C   UNL A   1      39.114  20.861  25.749  1.00  0.00     0.048 A 
ATOM     25  C   UNL A   1      38.527  23.518  26.319  1.00  0.00     0.032 A 
ATOM     26  C   UNL A   1      37.951  21.452  25.233  1.00  0.00     0.032 A 
BRANCH  22  27
ATOM     27  O   UNL A   1      41.154  21.130  27.075  1.00  0.00    -0.497 OA
ATOM     28  C   UNL A   1      41.970  20.391  26.169  1.00  0.00     0.278 C 
ENDBRANCH  22  27
ENDBRANCH  20  21
ENDBRANCH  15  19
ENDBRANCH   8  14
ENDBRANCH   4   7
ENDBRANCH   2   3
ENDBRANCH   1   2
BRANCH   1  29
ATOM     29  C   UNL A   1      34.085  31.714  28.372  1.00  0.00     0.002 C 
BRANCH  29  30
ATOM     30  C   UNL A   1      34.507  33.166  28.602  1.00  0.00     0.002 C 
BRANCH  30  31
ATOM     31  C   UNL A   1      33.440  34.234  28.357  1.00  0.00     0.021 C 
BRANCH  31  32
ATOM     32  C   UNL A   1      33.658  35.565  29.068  1.00  0.00     0.116 C 
BRANCH  32  33
ATOM     33  N   UNL A   1      32.712  35.790  30.147  1.00  0.00    -0.352 N 
ATOM     34  C   UNL A   1      32.780  35.408  31.464  1.00  0.00     0.251 C 
ATOM     35  H   UNL A   1      31.903  36.292  29.896  1.00  0.00     0.163 HD
ATOM     36  O   UNL A   1      31.809  35.554  32.198  1.00  0.00    -0.269 OA
BRANCH  34  37
ATOM     37  C   UNL A   1      34.017  34.797  31.998  1.00  0.00     0.039 A 
ATOM     38  C   UNL A   1      33.989  33.453  32.384  1.00  0.00     0.014 A 
ATOM     39  C   UNL A   1      35.193  35.539  32.136  1.00  0.00     0.014 A 
ATOM     40  C   UNL A   1      35.153  32.841  32.853  1.00  0.00     0.010 A 
ATOM     41  C   UNL A   1      36.371  34.907  32.531  1.00  0.00     0.010 A 
ATOM     42  C   UNL A   1      36.361  33.554  32.899  1.00  0.00    -0.014 A 
BRANCH  42  43
ATOM     43  C   UNL A   1      37.622  32.899  33.335  1.00  0.00     0.031 A 
ATOM     44  C   UNL A   1      38.268  31.847  32.476  1.00  0.00     0.074 A 
ATOM     45  C   UNL A   1      38.155  33.212  34.533  1.00  0.00     0.049 A 
ATOM     46  N   UNL A   1      39.334  31.125  32.710  1.00  0.00    -0.248 NA
ATOM     47  C   UNL A   1      37.613  31.549  31.193  1.00  0.00     0.031 C 
ATOM     48  C   UNL A   1      37.598  34.180  35.479  1.00  0.00     0.029 A 
ATOM     49  N   UNL A   1      39.279  32.741  35.164  1.00  0.00    -0.354 N 
ATOM     50  C   UNL A   1      39.469  30.282  31.614  1.00  0.00     0.074 A 
ATOM     51  C   UNL A   1      38.345  30.542  30.741  1.00  0.00     0.031 C 
ATOM     52  C   UNL A   1      38.393  34.247  36.558  1.00  0.00     0.029 A 
ATOM     53  C   UNL A   1      39.491  33.299  36.401  1.00  0.00     0.049 A 
ATOM     54  H   UNL A   1      39.878  32.066  34.768  1.00  0.00     0.167 HD
ATOM     55  C   UNL A   1      40.453  29.390  31.351  1.00  0.00     0.037 A 
ATOM     56  C   UNL A   1      40.457  33.067  37.311  1.00  0.00     0.037 A 
ATOM     57  C   UNL A   1      41.581  29.150  32.213  1.00  0.00     0.049 A 
ATOM     58  C   UNL A   1      41.534  32.063  36.997  1.00  0.00     0.074 A 
ATOM     59  C   UNL A   1      42.662  28.311  32.007  1.00  0.00     0.029 A 
ATOM     60  N   UNL A   1      41.769  29.747  33.452  1.00  0.00    -0.354 N 
ATOM     61  N   UNL A   1      41.691  31.324  35.925  1.00  0.00    -0.248 NA
ATOM     62  C   UNL A   1      42.574  31.867  38.016  1.00  0.00     0.031 C 
ATOM     63  C   UNL A   1      43.475  28.356  33.144  1.00  0.00     0.029 A 
ATOM     64  C   UNL A   1      42.936  29.273  34.032  1.00  0.00     0.049 A 
ATOM     65  H   UNL A   1      41.164  30.409  33.858  1.00  0.00     0.167 HD
ATOM     66  C   UNL A   1      42.859  30.601  36.126  1.00  0.00     0.074 A 
ATOM     67  C   UNL A   1      43.380  31.003  37.416  1.00  0.00     0.031 C 
ATOM     68  C   UNL A   1      43.446  29.687  35.314  1.00  0.00     0.037 A 
BRANCH  55  69
ATOM     69  C   UNL A   1      40.356  28.602  30.074  1.00  0.00     0.064 A 
ATOM     70  C   UNL A   1      39.630  27.403  30.001  1.00  0.00     0.173 A 
ATOM     71  C   UNL A   1      40.960  29.074  28.899  1.00  0.00     0.173 A 
ATOM     72  F   UNL A   1      39.042  26.900  31.096  1.00  0.00    -0.203 F 
ATOM     73  C   UNL A   1      39.540  26.691  28.807  1.00  0.00     0.198 A 
ATOM     74  C   UNL A   1      40.838  28.377  27.699  1.00  0.00     0.198 A 
ATOM     75  F   UNL A   1      41.660  30.218  28.909  1.00  0.00    -0.203 F 
ATOM     76  F   UNL A   1      38.886  25.521  28.774  1.00  0.00    -0.200 F 
ATOM     77  C   UNL A   1      40.136  27.183  27.656  1.00  0.00     0.200 A 
ATOM     78  F   UNL A   1      41.402  28.862  26.585  1.00  0.00    -0.200 F 
ATOM     79  F   UNL A   1      40.039  26.502  26.506  1.00  0.00    -0.200 F 
ENDBRANCH  55  69
BRANCH  56  80
ATOM     80  C   UNL A   1      40.461  33.810  38.599  1.00  0.00     0.064 A 
ATOM     81  C   UNL A   1      41.266  34.944  38.775  1.00  0.00     0.173 A 
ATOM     82  C   UNL A   1      39.665  33.402  39.679  1.00  0.00     0.173 A 
ATOM     83  F   UNL A   1      42.060  35.364  37.780  1.00  0.00    -0.203 F 
ATOM     84  C   UNL A   1      41.294  35.626  39.991  1.00  0.00     0.198 A 
ATOM     85  C   UNL A   1      39.669  34.103  40.883  1.00  0.00     0.198 A 
ATOM     86  F   UNL A   1      38.871  32.328  39.560  1.00  0.00    -0.203 F 
ATOM     87  F   UNL A   1      42.111  36.676  40.149  1.00  0.00    -0.200 F 
ATOM     88  C   UNL A   1      40.491  35.208  41.041  1.00  0.00     0.200 A 
ATOM     89  F   UNL A   1      38.878  33.706  41.890  1.00  0.00    -0.200 F 
ATOM     90  F   UNL A   1      40.514  35.866  42.209  1.00  0.00    -0.200 F 
ENDBRANCH  56  80
BRANCH  68  91
ATOM     91  C   UNL A   1      44.743  29.087  35.777  1.00  0.00     0.064 A 
ATOM     92  C   UNL A   1      44.785  27.898  36.521  1.00  0.00     0.173 A 
ATOM     93  C   UNL A   1      45.964  29.691  35.439  1.00  0.00     0.173 A 
ATOM     94  F   UNL A   1      43.646  27.287  36.882  1.00  0.00    -0.203 F 
ATOM     95  C   UNL A   1      45.999  27.353  36.932  1.00  0.00     0.198 A 
ATOM     96  C   UNL A   1      47.177  29.124  35.822  1.00  0.00     0.198 A 
ATOM     97  F   UNL A   1      45.983  30.825  34.722  1.00  0.00    -0.203 F 
ATOM     98  F   UNL A   1      46.011  26.245  37.686  1.00  0.00    -0.200 F 
ATOM     99  C   UNL A   1      47.193  27.961  36.576  1.00  0.00     0.200 A 
ATOM    100  F   UNL A   1      48.329  29.706  35.462  1.00  0.00    -0.200 F 
ATOM    101  F   UNL A   1      48.359  27.430  36.966  1.00  0.00    -0.200 F 
ENDBRANCH  68  91
ENDBRANCH  42  43
ENDBRANCH  34  37
ENDBRANCH  32  33
ENDBRANCH  31  32
ENDBRANCH  30  31
ENDBRANCH  29  30
ENDBRANCH   1  29
TORSDOF 17
ENDMDL
