MODEL 1
REMARK VINA RESULT:     -13.0      0.000      0.000
REMARK SMILES O=C(C[C@H](NC(=O)[C@]12C[C@H]3C[C@H](C[C@H](C3)C1)C2)c1cccc([N+](=O)[O-])c1)NCCCCCCNC(=O)c1ccc(-c2c3nc(c(-c4c(F)c(F)c(F)c(F)c4F)c4ccc([nH]4)c(-c4c(F)c(F)c(F)c(F)c4F)c4nc(c(-c5c(F)c(F)c(F)c(F)c5F)c5ccc2[nH]5)C=C4)C=C3)cc1
REMARK SMILES IDX 30 1 29 2 28 3 27 4 1 5 2 6 3 8 4 9 18 10 19 11 26 12 20 13
REMARK SMILES IDX 22 14 21 15 23 16 24 17 25 18 5 19 6 20 7 22 8 23 9 24 16 25
REMARK SMILES IDX 17 26 10 27 14 28 12 29 11 30 15 31 13 32 31 33 32 34 33 35
REMARK SMILES IDX 34 36 35 37 36 39 37 40 38 41 99 42 39 43 98 44 40 45 41 46
REMARK SMILES IDX 42 47 92 48 43 49 97 50 91 51 93 52 44 53 96 54 90 55 89 56
REMARK SMILES IDX 45 58 77 59 57 60 76 61 58 62 61 63 75 64 94 65 59 66 60 67
REMARK SMILES IDX 74 69 95 70 62 71 46 72 47 73 55 74 48 75 49 76 53 77 56 78
REMARK SMILES IDX 50 79 51 80 54 81 52 82 78 83 79 84 87 85 80 86 81 87 85 88
REMARK SMILES IDX 88 89 82 90 83 91 86 92 84 93 63 94 64 95 72 96 65 97 66 98
REMARK SMILES IDX 70 99 73 100 67 101 68 102 71 103 69 104
REMARK H PARENT 27 7 5 21 34 38 93 57 61 68
REMARK Flexibility Score: inf
ROOT
ATOM      1  C   UNL A   1      34.797  33.124  28.949  1.00  0.00     0.002 C 
ENDROOT
BRANCH   1   2
ATOM      2  C   UNL A   1      34.977  31.832  28.143  1.00  0.00     0.021 C 
BRANCH   2   3
ATOM      3  C   UNL A   1      33.660  31.245  27.614  1.00  0.00     0.116 C 
BRANCH   3   4
ATOM      4  N   UNL A   1      33.818  29.864  27.203  1.00  0.00    -0.356 N 
ATOM      5  O   UNL A   1      31.595  29.617  27.250  1.00  0.00    -0.275 OA
ATOM      6  C   UNL A   1      32.693  29.110  27.072  1.00  0.00     0.222 C 
ATOM      7  H   UNL A   1      34.709  29.485  27.025  1.00  0.00     0.163 HD
BRANCH   6   8
ATOM      8  C   UNL A   1      32.843  27.644  26.865  1.00  0.00     0.129 C 
BRANCH   8   9
ATOM      9  C   UNL A   1      31.598  26.836  26.488  1.00  0.00     0.122 C 
BRANCH   9  10
ATOM     10  C   UNL A   1      31.355  27.072  24.988  1.00  0.00    -0.018 A 
ATOM     11  C   UNL A   1      30.069  27.105  24.429  1.00  0.00     0.006 A 
ATOM     12  C   UNL A   1      32.462  27.117  24.113  1.00  0.00     0.091 A 
ATOM     13  C   UNL A   1      29.888  27.158  23.040  1.00  0.00     0.007 A 
ATOM     14  C   UNL A   1      32.275  27.152  22.722  1.00  0.00     0.269 A 
ATOM     15  C   UNL A   1      30.987  27.173  22.180  1.00  0.00     0.085 A 
BRANCH  14  16
ATOM     16  N   UNL A   1      33.442  27.116  21.831  1.00  0.00     0.062 N 
ATOM     17  O   UNL A   1      34.171  28.116  21.789  1.00  0.00    -0.258 OA
ATOM     18  O   UNL A   1      33.621  26.086  21.164  1.00  0.00    -0.258 OA
ENDBRANCH  14  16
ENDBRANCH   9  10
BRANCH   9  19
ATOM     19  N   UNL A   1      31.309  25.445  26.898  1.00  0.00    -0.348 N 
ATOM     20  C   UNL A   1      31.318  24.142  26.538  1.00  0.00     0.226 C 
ATOM     21  H   UNL A   1      30.966  25.485  27.820  1.00  0.00     0.164 HD
ATOM     22  O   UNL A   1      30.662  23.434  27.322  1.00  0.00    -0.274 OA
BRANCH  20  23
ATOM     23  C   UNL A   1      32.105  23.448  25.413  1.00  0.00     0.050 C 
ATOM     24  C   UNL A   1      33.601  23.845  25.542  1.00  0.00     0.020 C 
ATOM     25  C   UNL A   1      31.516  23.649  24.013  1.00  0.00     0.020 C 
ATOM     26  C   UNL A   1      32.114  21.891  25.626  1.00  0.00     0.020 C 
ATOM     27  C   UNL A   1      34.442  23.216  24.418  1.00  0.00    -0.010 C 
ATOM     28  C   UNL A   1      32.408  23.025  22.930  1.00  0.00    -0.010 C 
ATOM     29  C   UNL A   1      32.966  21.186  24.539  1.00  0.00    -0.010 C 
ATOM     30  C   UNL A   1      34.420  21.690  24.603  1.00  0.00     0.007 C 
ATOM     31  C   UNL A   1      33.859  23.530  23.031  1.00  0.00     0.007 C 
ATOM     32  C   UNL A   1      32.400  21.506  23.145  1.00  0.00     0.007 C 
ENDBRANCH  20  23
ENDBRANCH   9  19
ENDBRANCH   8   9
ENDBRANCH   6   8
ENDBRANCH   3   4
ENDBRANCH   2   3
ENDBRANCH   1   2
BRANCH   1  33
ATOM     33  C   UNL A   1      34.168  34.273  28.159  1.00  0.00     0.002 C 
BRANCH  33  34
ATOM     34  C   UNL A   1      32.988  34.943  28.862  1.00  0.00     0.021 C 
BRANCH  34  35
ATOM     35  C   UNL A   1      33.375  36.202  29.614  1.00  0.00     0.116 C 
BRANCH  35  36
ATOM     36  N   UNL A   1      32.531  36.394  30.781  1.00  0.00    -0.352 N 
ATOM     37  C   UNL A   1      32.586  35.736  31.979  1.00  0.00     0.251 C 
ATOM     38  H   UNL A   1      31.831  37.082  30.699  1.00  0.00     0.163 HD
ATOM     39  O   UNL A   1      31.658  35.793  32.777  1.00  0.00    -0.269 OA
BRANCH  37  40
ATOM     40  C   UNL A   1      33.797  34.957  32.289  1.00  0.00     0.039 A 
ATOM     41  C   UNL A   1      33.676  33.606  32.610  1.00  0.00     0.014 A 
ATOM     42  C   UNL A   1      35.050  35.579  32.246  1.00  0.00     0.014 A 
ATOM     43  C   UNL A   1      34.825  32.868  32.879  1.00  0.00     0.010 A 
ATOM     44  C   UNL A   1      36.197  34.823  32.426  1.00  0.00     0.010 A 
ATOM     45  C   UNL A   1      36.090  33.471  32.781  1.00  0.00    -0.014 A 
BRANCH  45  46
ATOM     46  C   UNL A   1      37.319  32.729  33.137  1.00  0.00     0.031 A 
ATOM     47  C   UNL A   1      38.015  33.048  34.431  1.00  0.00     0.074 A 
ATOM     48  C   UNL A   1      37.820  31.816  32.286  1.00  0.00     0.049 A 
ATOM     49  N   UNL A   1      39.139  32.578  34.906  1.00  0.00    -0.248 NA
ATOM     50  C   UNL A   1      37.376  34.058  35.296  1.00  0.00     0.031 C 
ATOM     51  C   UNL A   1      37.251  31.467  30.984  1.00  0.00     0.029 A 
ATOM     52  N   UNL A   1      38.931  31.020  32.390  1.00  0.00    -0.354 N 
ATOM     53  C   UNL A   1      39.342  33.239  36.110  1.00  0.00     0.074 A 
ATOM     54  C   UNL A   1      38.269  34.194  36.263  1.00  0.00     0.031 C 
ATOM     55  C   UNL A   1      38.007  30.512  30.417  1.00  0.00     0.029 A 
ATOM     56  C   UNL A   1      39.126  30.205  31.302  1.00  0.00     0.049 A 
ATOM     57  H   UNL A   1      39.532  31.030  33.171  1.00  0.00     0.167 HD
ATOM     58  C   UNL A   1      40.318  33.039  37.025  1.00  0.00     0.037 A 
ATOM     59  C   UNL A   1      40.106  29.316  31.054  1.00  0.00     0.037 A 
ATOM     60  C   UNL A   1      41.365  32.065  36.877  1.00  0.00     0.049 A 
ATOM     61  C   UNL A   1      41.170  29.104  32.099  1.00  0.00     0.074 A 
ATOM     62  C   UNL A   1      42.399  31.767  37.746  1.00  0.00     0.029 A 
ATOM     63  N   UNL A   1      41.499  31.219  35.785  1.00  0.00    -0.354 N 
ATOM     64  N   UNL A   1      41.329  29.701  33.255  1.00  0.00    -0.248 NA
ATOM     65  C   UNL A   1      42.181  28.077  31.812  1.00  0.00     0.031 C 
ATOM     66  C   UNL A   1      43.173  30.756  37.170  1.00  0.00     0.029 A 
ATOM     67  C   UNL A   1      42.595  30.394  35.962  1.00  0.00     0.049 A 
ATOM     68  H   UNL A   1      40.903  31.208  35.002  1.00  0.00     0.167 HD
ATOM     69  C   UNL A   1      42.430  29.100  33.849  1.00  0.00     0.074 A 
ATOM     70  C   UNL A   1      42.891  28.080  32.930  1.00  0.00     0.031 C 
ATOM     71  C   UNL A   1      43.010  29.366  35.044  1.00  0.00     0.037 A 
BRANCH  58  72
ATOM     72  C   UNL A   1      40.279  33.869  38.275  1.00  0.00     0.064 A 
ATOM     73  C   UNL A   1      39.525  33.471  39.391  1.00  0.00     0.173 A 
ATOM     74  C   UNL A   1      41.024  35.052  38.375  1.00  0.00     0.173 A 
ATOM     75  F   UNL A   1      38.779  32.357  39.339  1.00  0.00    -0.203 F 
ATOM     76  C   UNL A   1      39.503  34.238  40.552  1.00  0.00     0.198 A 
ATOM     77  C   UNL A   1      41.024  35.801  39.549  1.00  0.00     0.198 A 
ATOM     78  F   UNL A   1      41.761  35.478  37.338  1.00  0.00    -0.203 F 
ATOM     79  F   UNL A   1      38.740  33.861  41.587  1.00  0.00    -0.200 F 
ATOM     80  C   UNL A   1      40.260  35.397  40.633  1.00  0.00     0.200 A 
ATOM     81  F   UNL A   1      41.764  36.915  39.631  1.00  0.00    -0.200 F 
ATOM     82  F   UNL A   1      40.248  36.128  41.755  1.00  0.00    -0.200 F 
ENDBRANCH  58  72
BRANCH  59  83
ATOM     83  C   UNL A   1      40.114  28.543  29.787  1.00  0.00     0.064 A 
ATOM     84  C   UNL A   1      39.453  27.309  29.689  1.00  0.00     0.173 A 
ATOM     85  C   UNL A   1      40.804  29.003  28.657  1.00  0.00     0.173 A 
ATOM     86  F   UNL A   1      38.790  26.820  30.747  1.00  0.00    -0.203 F 
ATOM     87  C   UNL A   1      39.515  26.549  28.523  1.00  0.00     0.198 A 
ATOM     88  C   UNL A   1      40.840  28.256  27.481  1.00  0.00     0.198 A 
ATOM     89  F   UNL A   1      41.443  30.182  28.693  1.00  0.00    -0.203 F 
ATOM     90  F   UNL A   1      38.927  25.346  28.479  1.00  0.00    -0.200 F 
ATOM     91  C   UNL A   1      40.207  27.023  27.419  1.00  0.00     0.200 A 
ATOM     92  F   UNL A   1      41.496  28.726  26.411  1.00  0.00    -0.200 F 
ATOM     93  F   UNL A   1      40.273  26.289  26.300  1.00  0.00    -0.200 F 
ENDBRANCH  59  83
BRANCH  71  94
ATOM     94  C   UNL A   1      44.164  28.499  35.453  1.00  0.00     0.064 A 
ATOM     95  C   UNL A   1      45.489  28.835  35.139  1.00  0.00     0.173 A 
ATOM     96  C   UNL A   1      43.938  27.335  36.202  1.00  0.00     0.173 A 
ATOM     97  F   UNL A   1      45.753  29.933  34.414  1.00  0.00    -0.203 F 
ATOM     98  C   UNL A   1      46.544  28.018  35.534  1.00  0.00     0.198 A 
ATOM     99  C   UNL A   1      44.998  26.537  36.621  1.00  0.00     0.198 A 
ATOM    100  F   UNL A   1      42.689  26.975  36.536  1.00  0.00    -0.203 F 
ATOM    101  F   UNL A   1      47.798  28.330  35.178  1.00  0.00    -0.200 F 
ATOM    102  C   UNL A   1      46.299  26.874  36.279  1.00  0.00     0.200 A 
ATOM    103  F   UNL A   1      44.761  25.440  37.354  1.00  0.00    -0.200 F 
ATOM    104  F   UNL A   1      47.317  26.092  36.662  1.00  0.00    -0.200 F 
ENDBRANCH  71  94
ENDBRANCH  45  46
ENDBRANCH  37  40
ENDBRANCH  35  36
ENDBRANCH  34  35
ENDBRANCH  33  34
ENDBRANCH   1  33
TORSDOF 18
ENDMDL
MODEL 2
REMARK VINA RESULT:     -12.9      0.243      1.865
REMARK SMILES O=C(C[C@H](NC(=O)[C@]12C[C@H]3C[C@H](C[C@H](C3)C1)C2)c1cccc([N+](=O)[O-])c1)NCCCCCCNC(=O)c1ccc(-c2c3nc(c(-c4c(F)c(F)c(F)c(F)c4F)c4ccc([nH]4)c(-c4c(F)c(F)c(F)c(F)c4F)c4nc(c(-c5c(F)c(F)c(F)c(F)c5F)c5ccc2[nH]5)C=C4)C=C3)cc1
REMARK SMILES IDX 30 1 29 2 28 3 27 4 1 5 2 6 3 8 4 9 18 10 19 11 26 12 20 13
REMARK SMILES IDX 22 14 21 15 23 16 24 17 25 18 5 19 6 20 7 22 8 23 9 24 16 25
REMARK SMILES IDX 17 26 10 27 14 28 12 29 11 30 15 31 13 32 31 33 32 34 33 35
REMARK SMILES IDX 34 36 35 37 36 39 37 40 38 41 99 42 39 43 98 44 40 45 41 46
REMARK SMILES IDX 42 47 92 48 43 49 97 50 91 51 93 52 44 53 96 54 90 55 89 56
REMARK SMILES IDX 45 58 77 59 57 60 76 61 58 62 61 63 75 64 94 65 59 66 60 67
REMARK SMILES IDX 74 69 95 70 62 71 46 72 47 73 55 74 48 75 49 76 53 77 56 78
REMARK SMILES IDX 50 79 51 80 54 81 52 82 78 83 79 84 87 85 80 86 81 87 85 88
REMARK SMILES IDX 88 89 82 90 83 91 86 92 84 93 63 94 64 95 72 96 65 97 66 98
REMARK SMILES IDX 70 99 73 100 67 101 68 102 71 103 69 104
REMARK H PARENT 27 7 5 21 34 38 93 57 61 68
REMARK Flexibility Score: inf
ROOT
ATOM      1  C   UNL A   1      34.533  32.919  29.282  1.00  0.00     0.002 C 
ENDROOT
BRANCH   1   2
ATOM      2  C   UNL A   1      34.817  31.583  28.584  1.00  0.00     0.021 C 
BRANCH   2   3
ATOM      3  C   UNL A   1      33.850  31.270  27.433  1.00  0.00     0.116 C 
BRANCH   3   4
ATOM      4  N   UNL A   1      33.971  29.893  26.994  1.00  0.00    -0.356 N 
ATOM      5  O   UNL A   1      31.779  29.610  27.345  1.00  0.00    -0.275 OA
ATOM      6  C   UNL A   1      32.849  29.122  27.013  1.00  0.00     0.222 C 
ATOM      7  H   UNL A   1      34.834  29.530  26.692  1.00  0.00     0.163 HD
BRANCH   6   8
ATOM      8  C   UNL A   1      32.992  27.659  26.777  1.00  0.00     0.129 C 
BRANCH   8   9
ATOM      9  C   UNL A   1      31.729  26.851  26.465  1.00  0.00     0.122 C 
BRANCH   9  10
ATOM     10  C   UNL A   1      31.423  27.066  24.974  1.00  0.00    -0.018 A 
ATOM     11  C   UNL A   1      30.115  27.102  24.471  1.00  0.00     0.006 A 
ATOM     12  C   UNL A   1      32.492  27.088  24.051  1.00  0.00     0.091 A 
ATOM     13  C   UNL A   1      29.874  27.136  23.091  1.00  0.00     0.007 A 
ATOM     14  C   UNL A   1      32.244  27.103  22.669  1.00  0.00     0.269 A 
ATOM     15  C   UNL A   1      30.934  27.127  22.184  1.00  0.00     0.085 A 
BRANCH  14  16
ATOM     16  N   UNL A   1      33.371  27.041  21.729  1.00  0.00     0.062 N 
ATOM     17  O   UNL A   1      34.210  27.952  21.769  1.00  0.00    -0.258 OA
ATOM     18  O   UNL A   1      33.410  26.084  20.942  1.00  0.00    -0.258 OA
ENDBRANCH  14  16
ENDBRANCH   9  10
BRANCH   9  19
ATOM     19  N   UNL A   1      31.453  25.468  26.908  1.00  0.00    -0.348 N 
ATOM     20  C   UNL A   1      31.436  24.161  26.567  1.00  0.00     0.226 C 
ATOM     21  H   UNL A   1      31.156  25.522  27.845  1.00  0.00     0.164 HD
ATOM     22  O   UNL A   1      30.816  23.467  27.391  1.00  0.00    -0.274 OA
BRANCH  20  23
ATOM     23  C   UNL A   1      32.164  23.446  25.414  1.00  0.00     0.050 C 
ATOM     24  C   UNL A   1      33.660  23.858  25.446  1.00  0.00     0.020 C 
ATOM     25  C   UNL A   1      31.493  23.610  24.046  1.00  0.00     0.020 C 
ATOM     26  C   UNL A   1      32.199  21.895  25.661  1.00  0.00     0.020 C 
ATOM     27  C   UNL A   1      34.441  23.209  24.290  1.00  0.00    -0.010 C 
ATOM     28  C   UNL A   1      32.326  22.968  22.928  1.00  0.00    -0.010 C 
ATOM     29  C   UNL A   1      32.993  21.171  24.542  1.00  0.00    -0.010 C 
ATOM     30  C   UNL A   1      34.444  21.687  24.511  1.00  0.00     0.007 C 
ATOM     31  C   UNL A   1      33.776  23.486  22.933  1.00  0.00     0.007 C 
ATOM     32  C   UNL A   1      32.344  21.455  23.177  1.00  0.00     0.007 C 
ENDBRANCH  20  23
ENDBRANCH   9  19
ENDBRANCH   8   9
ENDBRANCH   6   8
ENDBRANCH   3   4
ENDBRANCH   2   3
ENDBRANCH   1   2
BRANCH   1  33
ATOM     33  C   UNL A   1      34.054  34.028  28.342  1.00  0.00     0.002 C 
BRANCH  33  34
ATOM     34  C   UNL A   1      32.903  34.866  28.898  1.00  0.00     0.021 C 
BRANCH  34  35
ATOM     35  C   UNL A   1      33.368  36.095  29.655  1.00  0.00     0.116 C 
BRANCH  35  36
ATOM     36  N   UNL A   1      32.537  36.336  30.822  1.00  0.00    -0.352 N 
ATOM     37  C   UNL A   1      32.610  35.732  32.047  1.00  0.00     0.251 C 
ATOM     38  H   UNL A   1      31.834  37.017  30.718  1.00  0.00     0.163 HD
ATOM     39  O   UNL A   1      31.691  35.821  32.852  1.00  0.00    -0.269 OA
BRANCH  37  40
ATOM     40  C   UNL A   1      33.826  34.971  32.377  1.00  0.00     0.039 A 
ATOM     41  C   UNL A   1      33.712  33.647  32.795  1.00  0.00     0.014 A 
ATOM     42  C   UNL A   1      35.079  35.584  32.255  1.00  0.00     0.014 A 
ATOM     43  C   UNL A   1      34.866  32.925  33.083  1.00  0.00     0.010 A 
ATOM     44  C   UNL A   1      36.229  34.837  32.455  1.00  0.00     0.010 A 
ATOM     45  C   UNL A   1      36.130  33.514  32.907  1.00  0.00    -0.014 A 
BRANCH  45  46
ATOM     46  C   UNL A   1      37.366  32.793  33.279  1.00  0.00     0.031 A 
ATOM     47  C   UNL A   1      38.031  33.113  34.590  1.00  0.00     0.074 A 
ATOM     48  C   UNL A   1      37.902  31.899  32.430  1.00  0.00     0.049 A 
ATOM     49  N   UNL A   1      39.154  32.662  35.081  1.00  0.00    -0.248 NA
ATOM     50  C   UNL A   1      37.355  34.101  35.451  1.00  0.00     0.031 C 
ATOM     51  C   UNL A   1      37.365  31.552  31.114  1.00  0.00     0.029 A 
ATOM     52  N   UNL A   1      39.027  31.125  32.547  1.00  0.00    -0.354 N 
ATOM     53  C   UNL A   1      39.321  33.314  36.296  1.00  0.00     0.074 A 
ATOM     54  C   UNL A   1      38.226  34.246  36.437  1.00  0.00     0.031 C 
ATOM     55  C   UNL A   1      38.151  30.618  30.552  1.00  0.00     0.029 A 
ATOM     56  C   UNL A   1      39.259  30.325  31.456  1.00  0.00     0.049 A 
ATOM     57  H   UNL A   1      39.612  31.140  33.340  1.00  0.00     0.167 HD
ATOM     58  C   UNL A   1      40.283  33.125  37.227  1.00  0.00     0.037 A 
ATOM     59  C   UNL A   1      40.261  29.459  31.218  1.00  0.00     0.037 A 
ATOM     60  C   UNL A   1      41.353  32.174  37.091  1.00  0.00     0.049 A 
ATOM     61  C   UNL A   1      41.310  29.257  32.281  1.00  0.00     0.074 A 
ATOM     62  C   UNL A   1      42.376  31.888  37.977  1.00  0.00     0.029 A 
ATOM     63  N   UNL A   1      41.524  31.342  35.993  1.00  0.00    -0.354 N 
ATOM     64  N   UNL A   1      41.434  29.847  33.446  1.00  0.00    -0.248 NA
ATOM     65  C   UNL A   1      42.346  28.254  32.004  1.00  0.00     0.031 C 
ATOM     66  C   UNL A   1      43.182  30.899  37.405  1.00  0.00     0.029 A 
ATOM     67  C   UNL A   1      42.634  30.538  36.184  1.00  0.00     0.049 A 
ATOM     68  H   UNL A   1      40.944  31.327  35.199  1.00  0.00     0.167 HD
ATOM     69  C   UNL A   1      42.535  29.261  34.055  1.00  0.00     0.074 A 
ATOM     70  C   UNL A   1      43.035  28.260  33.136  1.00  0.00     0.031 C 
ATOM     71  C   UNL A   1      43.088  29.527  35.264  1.00  0.00     0.037 A 
BRANCH  58  72
ATOM     72  C   UNL A   1      40.204  33.942  38.484  1.00  0.00     0.064 A 
ATOM     73  C   UNL A   1      40.889  35.161  38.606  1.00  0.00     0.173 A 
ATOM     74  C   UNL A   1      39.413  33.523  39.563  1.00  0.00     0.173 A 
ATOM     75  F   UNL A   1      41.675  35.596  37.609  1.00  0.00    -0.203 F 
ATOM     76  C   UNL A   1      40.801  35.921  39.769  1.00  0.00     0.198 A 
ATOM     77  C   UNL A   1      39.303  34.301  40.714  1.00  0.00     0.198 A 
ATOM     78  F   UNL A   1      38.738  32.366  39.499  1.00  0.00    -0.203 F 
ATOM     79  F   UNL A   1      41.501  37.058  39.878  1.00  0.00    -0.200 F 
ATOM     80  C   UNL A   1      40.001  35.494  40.818  1.00  0.00     0.200 A 
ATOM     81  F   UNL A   1      38.521  33.894  41.723  1.00  0.00    -0.200 F 
ATOM     82  F   UNL A   1      39.908  36.232  41.932  1.00  0.00    -0.200 F 
ENDBRANCH  58  72
BRANCH  59  83
ATOM     83  C   UNL A   1      40.309  28.698  29.944  1.00  0.00     0.064 A 
ATOM     84  C   UNL A   1      40.995  29.201  28.828  1.00  0.00     0.173 A 
ATOM     85  C   UNL A   1      39.650  27.469  29.804  1.00  0.00     0.173 A 
ATOM     86  F   UNL A   1      41.630  30.379  28.908  1.00  0.00    -0.203 F 
ATOM     87  C   UNL A   1      40.984  28.522  27.611  1.00  0.00     0.198 A 
ATOM     88  C   UNL A   1      39.666  26.776  28.595  1.00  0.00     0.198 A 
ATOM     89  F   UNL A   1      38.990  26.938  30.844  1.00  0.00    -0.203 F 
ATOM     90  F   UNL A   1      41.594  29.056  26.544  1.00  0.00    -0.200 F 
ATOM     91  C   UNL A   1      40.322  27.309  27.495  1.00  0.00     0.200 A 
ATOM     92  F   UNL A   1      39.039  25.597  28.493  1.00  0.00    -0.200 F 
ATOM     93  F   UNL A   1      40.307  26.660  26.323  1.00  0.00    -0.200 F 
ENDBRANCH  59  83
BRANCH  71  94
ATOM     94  C   UNL A   1      44.251  28.680  35.686  1.00  0.00     0.064 A 
ATOM     95  C   UNL A   1      44.077  27.498  36.421  1.00  0.00     0.173 A 
ATOM     96  C   UNL A   1      45.555  29.042  35.316  1.00  0.00     0.173 A 
ATOM     97  F   UNL A   1      42.850  27.118  36.808  1.00  0.00    -0.203 F 
ATOM     98  C   UNL A   1      45.172  26.725  36.796  1.00  0.00     0.198 A 
ATOM     99  C   UNL A   1      46.643  28.250  35.668  1.00  0.00     0.198 A 
ATOM    100  F   UNL A   1      45.772  30.158  34.605  1.00  0.00    -0.203 F 
ATOM    101  F   UNL A   1      44.987  25.628  37.543  1.00  0.00    -0.200 F 
ATOM    102  C   UNL A   1      46.452  27.098  36.415  1.00  0.00     0.200 A 
ATOM    103  F   UNL A   1      47.878  28.603  35.285  1.00  0.00    -0.200 F 
ATOM    104  F   UNL A   1      47.503  26.349  36.774  1.00  0.00    -0.200 F 
ENDBRANCH  71  94
ENDBRANCH  45  46
ENDBRANCH  37  40
ENDBRANCH  35  36
ENDBRANCH  34  35
ENDBRANCH  33  34
ENDBRANCH   1  33
TORSDOF 18
ENDMDL
MODEL 3
REMARK VINA RESULT:     -12.6      0.977      2.026
REMARK SMILES O=C(C[C@H](NC(=O)[C@]12C[C@H]3C[C@H](C[C@H](C3)C1)C2)c1cccc([N+](=O)[O-])c1)NCCCCCCNC(=O)c1ccc(-c2c3nc(c(-c4c(F)c(F)c(F)c(F)c4F)c4ccc([nH]4)c(-c4c(F)c(F)c(F)c(F)c4F)c4nc(c(-c5c(F)c(F)c(F)c(F)c5F)c5ccc2[nH]5)C=C4)C=C3)cc1
REMARK SMILES IDX 30 1 29 2 28 3 27 4 1 5 2 6 3 8 4 9 18 10 19 11 26 12 20 13
REMARK SMILES IDX 22 14 21 15 23 16 24 17 25 18 5 19 6 20 7 22 8 23 9 24 16 25
REMARK SMILES IDX 17 26 10 27 14 28 12 29 11 30 15 31 13 32 31 33 32 34 33 35
REMARK SMILES IDX 34 36 35 37 36 39 37 40 38 41 99 42 39 43 98 44 40 45 41 46
REMARK SMILES IDX 42 47 92 48 43 49 97 50 91 51 93 52 44 53 96 54 90 55 89 56
REMARK SMILES IDX 45 58 77 59 57 60 76 61 58 62 61 63 75 64 94 65 59 66 60 67
REMARK SMILES IDX 74 69 95 70 62 71 46 72 47 73 55 74 48 75 49 76 53 77 56 78
REMARK SMILES IDX 50 79 51 80 54 81 52 82 78 83 79 84 87 85 80 86 81 87 85 88
REMARK SMILES IDX 88 89 82 90 83 91 86 92 84 93 63 94 64 95 72 96 65 97 66 98
REMARK SMILES IDX 70 99 73 100 67 101 68 102 71 103 69 104
REMARK H PARENT 27 7 5 21 34 38 93 57 61 68
REMARK Flexibility Score: inf
ROOT
ATOM      1  C   UNL A   1      35.352  33.603  28.674  1.00  0.00     0.002 C 
ENDROOT
BRANCH   1   2
ATOM      2  C   UNL A   1      35.410  32.228  27.998  1.00  0.00     0.021 C 
BRANCH   2   3
ATOM      3  C   UNL A   1      34.105  31.427  28.113  1.00  0.00     0.116 C 
BRANCH   3   4
ATOM      4  N   UNL A   1      34.275  30.061  27.659  1.00  0.00    -0.356 N 
ATOM      5  O   UNL A   1      32.100  29.983  27.140  1.00  0.00    -0.275 OA
ATOM      6  C   UNL A   1      33.174  29.403  27.203  1.00  0.00     0.222 C 
ATOM      7  H   UNL A   1      35.158  29.625  27.679  1.00  0.00     0.163 HD
BRANCH   6   8
ATOM      8  C   UNL A   1      33.282  27.942  26.938  1.00  0.00     0.129 C 
BRANCH   8   9
ATOM      9  C   UNL A   1      32.026  27.198  26.474  1.00  0.00     0.122 C 
BRANCH   9  10
ATOM     10  C   UNL A   1      31.904  27.439  24.960  1.00  0.00    -0.018 A 
ATOM     11  C   UNL A   1      33.015  27.437  24.104  1.00  0.00     0.006 A 
ATOM     12  C   UNL A   1      30.653  27.817  24.425  1.00  0.00     0.091 A 
ATOM     13  C   UNL A   1      32.891  27.820  22.762  1.00  0.00     0.007 A 
ATOM     14  C   UNL A   1      30.539  28.217  23.085  1.00  0.00     0.269 A 
ATOM     15  C   UNL A   1      31.658  28.221  22.248  1.00  0.00     0.085 A 
BRANCH  14  16
ATOM     16  N   UNL A   1      29.243  28.684  22.574  1.00  0.00     0.062 N 
ATOM     17  O   UNL A   1      29.246  29.484  21.629  1.00  0.00    -0.258 OA
ATOM     18  O   UNL A   1      28.220  28.257  23.131  1.00  0.00    -0.258 OA
ENDBRANCH  14  16
ENDBRANCH   9  10
BRANCH   9  19
ATOM     19  N   UNL A   1      31.636  25.827  26.864  1.00  0.00    -0.348 N 
ATOM     20  C   UNL A   1      31.579  24.527  26.498  1.00  0.00     0.226 C 
ATOM     21  H   UNL A   1      31.261  25.885  27.773  1.00  0.00     0.164 HD
ATOM     22  O   UNL A   1      30.850  23.859  27.251  1.00  0.00    -0.274 OA
BRANCH  20  23
ATOM     23  C   UNL A   1      32.366  23.790  25.401  1.00  0.00     0.050 C 
ATOM     24  C   UNL A   1      32.159  22.263  25.589  1.00  0.00     0.020 C 
ATOM     25  C   UNL A   1      33.832  24.218  25.279  1.00  0.00     0.020 C 
ATOM     26  C   UNL A   1      31.744  24.079  23.987  1.00  0.00     0.020 C 
ATOM     27  C   UNL A   1      32.956  21.461  24.544  1.00  0.00    -0.010 C 
ATOM     28  C   UNL A   1      34.585  23.369  24.244  1.00  0.00    -0.010 C 
ATOM     29  C   UNL A   1      32.484  23.283  22.880  1.00  0.00    -0.010 C 
ATOM     30  C   UNL A   1      32.372  21.772  23.156  1.00  0.00     0.007 C 
ATOM     31  C   UNL A   1      34.439  21.864  24.532  1.00  0.00     0.007 C 
ATOM     32  C   UNL A   1      33.973  23.668  22.870  1.00  0.00     0.007 C 
ENDBRANCH  20  23
ENDBRANCH   9  19
ENDBRANCH   8   9
ENDBRANCH   6   8
ENDBRANCH   3   4
ENDBRANCH   2   3
ENDBRANCH   1   2
BRANCH   1  33
ATOM     33  C   UNL A   1      34.404  34.595  27.996  1.00  0.00     0.002 C 
BRANCH  33  34
ATOM     34  C   UNL A   1      33.213  35.011  28.859  1.00  0.00     0.021 C 
BRANCH  34  35
ATOM     35  C   UNL A   1      33.430  36.324  29.587  1.00  0.00     0.116 C 
BRANCH  35  36
ATOM     36  N   UNL A   1      32.528  36.449  30.719  1.00  0.00    -0.352 N 
ATOM     37  C   UNL A   1      32.545  35.746  31.892  1.00  0.00     0.251 C 
ATOM     38  H   UNL A   1      31.815  37.122  30.630  1.00  0.00     0.163 HD
ATOM     39  O   UNL A   1      31.580  35.749  32.646  1.00  0.00    -0.269 OA
BRANCH  37  40
ATOM     40  C   UNL A   1      33.760  34.985  32.229  1.00  0.00     0.039 A 
ATOM     41  C   UNL A   1      33.656  33.627  32.521  1.00  0.00     0.014 A 
ATOM     42  C   UNL A   1      35.001  35.633  32.241  1.00  0.00     0.014 A 
ATOM     43  C   UNL A   1      34.810  32.907  32.817  1.00  0.00     0.010 A 
ATOM     44  C   UNL A   1      36.156  34.897  32.447  1.00  0.00     0.010 A 
ATOM     45  C   UNL A   1      36.065  33.537  32.774  1.00  0.00    -0.014 A 
BRANCH  45  46
ATOM     46  C   UNL A   1      37.296  32.813  33.158  1.00  0.00     0.031 A 
ATOM     47  C   UNL A   1      37.932  33.111  34.488  1.00  0.00     0.074 A 
ATOM     48  C   UNL A   1      37.852  31.935  32.304  1.00  0.00     0.049 A 
ATOM     49  N   UNL A   1      39.047  32.653  34.994  1.00  0.00    -0.248 NA
ATOM     50  C   UNL A   1      37.236  34.081  35.353  1.00  0.00     0.031 C 
ATOM     51  C   UNL A   1      37.343  31.611  30.971  1.00  0.00     0.029 A 
ATOM     52  N   UNL A   1      38.976  31.162  32.430  1.00  0.00    -0.354 N 
ATOM     53  C   UNL A   1      39.187  33.284  36.223  1.00  0.00     0.074 A 
ATOM     54  C   UNL A   1      38.086  34.210  36.359  1.00  0.00     0.031 C 
ATOM     55  C   UNL A   1      38.143  30.689  30.409  1.00  0.00     0.029 A 
ATOM     56  C   UNL A   1      39.233  30.383  31.330  1.00  0.00     0.049 A 
ATOM     57  H   UNL A   1      39.545  31.164  33.235  1.00  0.00     0.167 HD
ATOM     58  C   UNL A   1      40.130  33.080  37.171  1.00  0.00     0.037 A 
ATOM     59  C   UNL A   1      40.243  29.524  31.097  1.00  0.00     0.037 A 
ATOM     60  C   UNL A   1      41.205  32.135  37.039  1.00  0.00     0.049 A 
ATOM     61  C   UNL A   1      41.270  29.306  32.177  1.00  0.00     0.074 A 
ATOM     62  C   UNL A   1      42.210  31.835  37.940  1.00  0.00     0.029 A 
ATOM     63  N   UNL A   1      41.402  31.323  35.931  1.00  0.00    -0.354 N 
ATOM     64  N   UNL A   1      41.369  29.874  33.355  1.00  0.00    -0.248 NA
ATOM     65  C   UNL A   1      42.315  28.310  31.904  1.00  0.00     0.031 C 
ATOM     66  C   UNL A   1      43.031  30.858  37.368  1.00  0.00     0.029 A 
ATOM     67  C   UNL A   1      42.510  30.518  36.129  1.00  0.00     0.049 A 
ATOM     68  H   UNL A   1      40.838  31.321  35.124  1.00  0.00     0.167 HD
ATOM     69  C   UNL A   1      42.459  29.280  33.976  1.00  0.00     0.074 A 
ATOM     70  C   UNL A   1      42.980  28.298  33.049  1.00  0.00     0.031 C 
ATOM     71  C   UNL A   1      42.985  29.526  35.201  1.00  0.00     0.037 A 
BRANCH  58  72
ATOM     72  C   UNL A   1      40.023  33.873  38.440  1.00  0.00     0.064 A 
ATOM     73  C   UNL A   1      39.188  33.459  39.490  1.00  0.00     0.173 A 
ATOM     74  C   UNL A   1      40.782  35.037  38.626  1.00  0.00     0.173 A 
ATOM     75  F   UNL A   1      38.426  32.362  39.354  1.00  0.00    -0.203 F 
ATOM     76  C   UNL A   1      39.101  34.191  40.671  1.00  0.00     0.198 A 
ATOM     77  C   UNL A   1      40.716  35.751  39.821  1.00  0.00     0.198 A 
ATOM     78  F   UNL A   1      41.594  35.478  37.655  1.00  0.00    -0.203 F 
ATOM     79  F   UNL A   1      38.263  33.800  41.640  1.00  0.00    -0.200 F 
ATOM     80  C   UNL A   1      39.872  35.331  40.838  1.00  0.00     0.200 A 
ATOM     81  F   UNL A   1      41.469  36.847  39.987  1.00  0.00    -0.200 F 
ATOM     82  F   UNL A   1      39.798  36.029  41.979  1.00  0.00    -0.200 F 
ENDBRANCH  58  72
BRANCH  59  83
ATOM     83  C   UNL A   1      40.319  28.786  29.810  1.00  0.00     0.064 A 
ATOM     84  C   UNL A   1      41.072  29.284  28.736  1.00  0.00     0.173 A 
ATOM     85  C   UNL A   1      39.621  27.586  29.616  1.00  0.00     0.173 A 
ATOM     86  F   UNL A   1      41.747  30.435  28.868  1.00  0.00    -0.203 F 
ATOM     87  C   UNL A   1      41.090  28.629  27.506  1.00  0.00     0.198 A 
ATOM     88  C   UNL A   1      39.666  26.917  28.395  1.00  0.00     0.198 A 
ATOM     89  F   UNL A   1      38.896  27.060  30.615  1.00  0.00    -0.203 F 
ATOM     90  F   UNL A   1      41.767  29.161  26.479  1.00  0.00    -0.200 F 
ATOM     91  C   UNL A   1      40.389  27.446  27.336  1.00  0.00     0.200 A 
ATOM     92  F   UNL A   1      39.000  25.764  28.240  1.00  0.00    -0.200 F 
ATOM     93  F   UNL A   1      40.402  26.820  26.151  1.00  0.00    -0.200 F 
ENDBRANCH  59  83
BRANCH  71  94
ATOM     94  C   UNL A   1      44.142  28.674  35.632  1.00  0.00     0.064 A 
ATOM     95  C   UNL A   1      43.956  27.480  36.343  1.00  0.00     0.173 A 
ATOM     96  C   UNL A   1      45.452  29.044  35.292  1.00  0.00     0.173 A 
ATOM     97  F   UNL A   1      42.723  27.091  36.700  1.00  0.00    -0.203 F 
ATOM     98  C   UNL A   1      45.045  26.703  36.727  1.00  0.00     0.198 A 
ATOM     99  C   UNL A   1      46.535  28.249  35.652  1.00  0.00     0.198 A 
ATOM    100  F   UNL A   1      45.681  30.173  34.605  1.00  0.00    -0.203 F 
ATOM    101  F   UNL A   1      44.850  25.593  37.452  1.00  0.00    -0.200 F 
ATOM    102  C   UNL A   1      46.332  27.084  36.376  1.00  0.00     0.200 A 
ATOM    103  F   UNL A   1      47.777  28.611  35.299  1.00  0.00    -0.200 F 
ATOM    104  F   UNL A   1      47.378  26.332  36.743  1.00  0.00    -0.200 F 
ENDBRANCH  71  94
ENDBRANCH  45  46
ENDBRANCH  37  40
ENDBRANCH  35  36
ENDBRANCH  34  35
ENDBRANCH  33  34
ENDBRANCH   1  33
TORSDOF 18
ENDMDL
