MODEL 1
REMARK VINA RESULT:     -12.4      0.000      0.000
REMARK SMILES Cc1ccc(NC(=O)c2cccnc2C(=O)NCCCCCCNC(=O)c2ccc(-c3c4nc(c(-c5c(F)c(F)c(F)c(F)c5F)c5ccc([nH]5)c(-c5c(F)c(F)c(F)c(F)c5F)c5nc(c(-c6c(F)c(F)c(F)c(F)c6F)c6ccc3[nH]6)C=C5)C=C4)cc2)nc1
REMARK SMILES IDX 20 1 19 2 18 3 17 4 15 5 16 6 14 8 9 9 10 10 11 11 13 12
REMARK SMILES IDX 12 13 7 14 6 15 8 17 5 18 1 19 2 20 3 21 91 22 4 23 90 24
REMARK SMILES IDX 21 25 22 26 23 27 24 28 25 29 26 31 27 32 28 33 89 34 29 35
REMARK SMILES IDX 88 36 30 37 31 38 32 39 82 40 33 41 87 42 81 43 83 44 34 45
REMARK SMILES IDX 86 46 80 47 79 48 35 50 67 51 47 52 66 53 48 54 51 55 65 56
REMARK SMILES IDX 84 57 49 58 50 59 64 61 85 62 52 63 36 64 37 65 45 66 38 67
REMARK SMILES IDX 39 68 43 69 46 70 40 71 41 72 44 73 42 74 68 75 69 76 77 77
REMARK SMILES IDX 70 78 71 79 75 80 78 81 72 82 73 83 76 84 74 85 53 86 54 87
REMARK SMILES IDX 62 88 55 89 56 90 60 91 63 92 57 93 58 94 61 95 59 96
REMARK H PARENT 17 7 6 16 24 30 83 49 51 60
REMARK Flexibility Score: inf
ROOT
ATOM      1  C   UNL A   1      31.751  29.473  27.239  1.00  0.00     0.002 C 
ENDROOT
BRANCH   1   2
ATOM      2  C   UNL A   1      33.043  28.660  27.117  1.00  0.00     0.021 C 
BRANCH   2   3
ATOM      3  C   UNL A   1      33.899  29.017  25.897  1.00  0.00     0.116 C 
BRANCH   3   4
ATOM      4  N   UNL A   1      34.026  27.861  25.035  1.00  0.00    -0.351 N 
ATOM      5  C   UNL A   1      33.151  27.160  24.239  1.00  0.00     0.270 C 
ATOM      6  O   UNL A   1      33.610  26.138  23.720  1.00  0.00    -0.267 OA
ATOM      7  H   UNL A   1      34.940  27.496  25.014  1.00  0.00     0.163 HD
BRANCH   5   8
ATOM      8  C   UNL A   1      31.766  27.609  23.858  1.00  0.00     0.140 A 
ATOM      9  C   UNL A   1      30.559  27.181  24.391  1.00  0.00     0.071 A 
ATOM     10  C   UNL A   1      29.363  27.720  23.871  1.00  0.00     0.018 A 
ATOM     11  C   UNL A   1      29.399  28.604  22.802  1.00  0.00     0.021 A 
ATOM     12  N   UNL A   1      31.796  28.514  22.825  1.00  0.00    -0.250 NA
ATOM     13  C   UNL A   1      30.633  28.950  22.300  1.00  0.00     0.112 A 
BRANCH   9  14
ATOM     14  C   UNL A   1      30.408  25.980  25.227  1.00  0.00     0.259 C 
ATOM     15  N   UNL A   1      30.033  24.830  24.550  1.00  0.00    -0.306 N 
ATOM     16  H   UNL A   1      29.154  24.775  24.110  1.00  0.00     0.171 HD
ATOM     17  O   UNL A   1      30.696  26.035  26.409  1.00  0.00    -0.269 OA
BRANCH  15  18
ATOM     18  C   UNL A   1      30.922  23.745  24.497  1.00  0.00     0.132 A 
ATOM     19  C   UNL A   1      33.037  20.110  23.953  1.00  0.00     0.046 C 
ATOM     20  C   UNL A   1      32.323  21.396  24.209  1.00  0.00    -0.033 A 
ATOM     21  C   UNL A   1      31.757  21.714  25.445  1.00  0.00     0.009 A 
ATOM     22  C   UNL A   1      32.157  22.308  23.179  1.00  0.00     0.117 A 
ATOM     23  C   UNL A   1      31.035  22.900  25.593  1.00  0.00     0.047 A 
ATOM     24  N   UNL A   1      31.479  23.461  23.306  1.00  0.00    -0.239 NA
ENDBRANCH  15  18
ENDBRANCH   9  14
ENDBRANCH   5   8
ENDBRANCH   3   4
ENDBRANCH   2   3
ENDBRANCH   1   2
BRANCH   1  25
ATOM     25  C   UNL A   1      31.501  30.455  26.091  1.00  0.00     0.002 C 
BRANCH  25  26
ATOM     26  C   UNL A   1      31.423  31.929  26.500  1.00  0.00     0.021 C 
BRANCH  26  27
ATOM     27  C   UNL A   1      32.663  32.459  27.215  1.00  0.00     0.116 C 
BRANCH  27  28
ATOM     28  N   UNL A   1      32.523  33.863  27.567  1.00  0.00    -0.352 N 
ATOM     29  C   UNL A   1      33.111  34.574  28.582  1.00  0.00     0.251 C 
ATOM     30  H   UNL A   1      31.915  34.381  26.990  1.00  0.00     0.163 HD
ATOM     31  O   UNL A   1      32.682  35.681  28.891  1.00  0.00    -0.269 OA
BRANCH  29  32
ATOM     32  C   UNL A   1      34.263  34.006  29.312  1.00  0.00     0.039 A 
ATOM     33  C   UNL A   1      34.028  33.126  30.371  1.00  0.00     0.014 A 
ATOM     34  C   UNL A   1      35.570  34.377  28.982  1.00  0.00     0.014 A 
ATOM     35  C   UNL A   1      35.107  32.577  31.067  1.00  0.00     0.010 A 
ATOM     36  C   UNL A   1      36.646  33.776  29.630  1.00  0.00     0.010 A 
ATOM     37  C   UNL A   1      36.425  32.878  30.686  1.00  0.00    -0.014 A 
BRANCH  37  38
ATOM     38  C   UNL A   1      37.587  32.282  31.392  1.00  0.00     0.031 A 
ATOM     39  C   UNL A   1      38.341  31.140  30.768  1.00  0.00     0.074 A 
ATOM     40  C   UNL A   1      37.923  32.727  32.617  1.00  0.00     0.049 A 
ATOM     41  N   UNL A   1      39.327  30.432  31.258  1.00  0.00    -0.248 NA
ATOM     42  C   UNL A   1      37.910  30.720  29.424  1.00  0.00     0.031 C 
ATOM     43  C   UNL A   1      37.245  33.803  33.342  1.00  0.00     0.029 A 
ATOM     44  N   UNL A   1      38.916  32.324  33.476  1.00  0.00    -0.354 N 
ATOM     45  C   UNL A   1      39.623  29.479  30.291  1.00  0.00     0.074 A 
ATOM     46  C   UNL A   1      38.680  29.662  29.211  1.00  0.00     0.031 C 
ATOM     47  C   UNL A   1      37.851  33.986  34.527  1.00  0.00     0.029 A 
ATOM     48  C   UNL A   1      38.935  33.018  34.661  1.00  0.00     0.049 A 
ATOM     49  H   UNL A   1      39.553  31.604  33.261  1.00  0.00     0.167 HD
ATOM     50  C   UNL A   1      40.610  28.552  30.295  1.00  0.00     0.037 A 
ATOM     51  C   UNL A   1      39.734  32.881  35.736  1.00  0.00     0.037 A 
ATOM     52  C   UNL A   1      41.565  28.390  31.361  1.00  0.00     0.049 A 
ATOM     53  C   UNL A   1      40.818  31.837  35.717  1.00  0.00     0.074 A 
ATOM     54  C   UNL A   1      42.633  27.514  31.438  1.00  0.00     0.029 A 
ATOM     55  N   UNL A   1      41.566  29.128  32.536  1.00  0.00    -0.354 N 
ATOM     56  N   UNL A   1      41.125  30.980  34.773  1.00  0.00    -0.248 NA
ATOM     57  C   UNL A   1      41.670  31.744  36.910  1.00  0.00     0.031 C 
ATOM     58  C   UNL A   1      43.254  27.690  32.678  1.00  0.00     0.029 A 
ATOM     59  C   UNL A   1      42.605  28.712  33.352  1.00  0.00     0.049 A 
ATOM     60  H   UNL A   1      40.924  29.840  32.757  1.00  0.00     0.167 HD
ATOM     61  C   UNL A   1      42.224  30.272  35.243  1.00  0.00     0.074 A 
ATOM     62  C   UNL A   1      42.537  30.808  36.550  1.00  0.00     0.031 C 
ATOM     63  C   UNL A   1      42.911  29.269  34.645  1.00  0.00     0.037 A 
BRANCH  50  64
ATOM     64  C   UNL A   1      40.715  27.641  29.106  1.00  0.00     0.064 A 
ATOM     65  C   UNL A   1      39.849  26.550  28.937  1.00  0.00     0.173 A 
ATOM     66  C   UNL A   1      41.662  27.887  28.100  1.00  0.00     0.173 A 
ATOM     67  F   UNL A   1      38.933  26.264  29.875  1.00  0.00    -0.203 F 
ATOM     68  C   UNL A   1      39.943  25.724  27.819  1.00  0.00     0.198 A 
ATOM     69  C   UNL A   1      41.733  27.078  26.969  1.00  0.00     0.198 A 
ATOM     70  F   UNL A   1      42.510  28.921  28.208  1.00  0.00    -0.203 F 
ATOM     71  F   UNL A   1      39.135  24.662  27.704  1.00  0.00    -0.200 F 
ATOM     72  C   UNL A   1      40.879  25.994  26.833  1.00  0.00     0.200 A 
ATOM     73  F   UNL A   1      42.629  27.348  26.009  1.00  0.00    -0.200 F 
ATOM     74  F   UNL A   1      40.962  25.205  25.752  1.00  0.00    -0.200 F 
ENDBRANCH  50  64
BRANCH  51  75
ATOM     75  C   UNL A   1      39.556  33.768  36.916  1.00  0.00     0.064 A 
ATOM     76  C   UNL A   1      38.773  33.366  38.007  1.00  0.00     0.173 A 
ATOM     77  C   UNL A   1      40.147  35.039  36.971  1.00  0.00     0.173 A 
ATOM     78  F   UNL A   1      38.170  32.168  37.993  1.00  0.00    -0.203 F 
ATOM     79  C   UNL A   1      38.564  34.212  39.095  1.00  0.00     0.198 A 
ATOM     80  C   UNL A   1      39.963  35.871  38.073  1.00  0.00     0.198 A 
ATOM     81  F   UNL A   1      40.911  35.469  35.957  1.00  0.00    -0.203 F 
ATOM     82  F   UNL A   1      37.767  33.823  40.099  1.00  0.00    -0.200 F 
ATOM     83  C   UNL A   1      39.162  35.462  39.129  1.00  0.00     0.200 A 
ATOM     84  F   UNL A   1      40.555  37.073  38.108  1.00  0.00    -0.200 F 
ATOM     85  F   UNL A   1      38.962  36.275  40.174  1.00  0.00    -0.200 F 
ENDBRANCH  51  75
BRANCH  63  86
ATOM     86  C   UNL A   1      44.096  28.713  35.380  1.00  0.00     0.064 A 
ATOM     87  C   UNL A   1      43.974  27.633  36.267  1.00  0.00     0.173 A 
ATOM     88  C   UNL A   1      45.376  29.245  35.164  1.00  0.00     0.173 A 
ATOM     89  F   UNL A   1      42.768  27.100  36.519  1.00  0.00    -0.203 F 
ATOM     90  C   UNL A   1      45.087  27.122  36.929  1.00  0.00     0.198 A 
ATOM     91  C   UNL A   1      46.491  28.711  35.804  1.00  0.00     0.198 A 
ATOM     92  F   UNL A   1      45.548  30.274  34.321  1.00  0.00    -0.203 F 
ATOM     93  F   UNL A   1      44.940  26.121  37.807  1.00  0.00    -0.200 F 
ATOM     94  C   UNL A   1      46.345  27.655  36.690  1.00  0.00     0.200 A 
ATOM     95  F   UNL A   1      47.708  29.219  35.563  1.00  0.00    -0.200 F 
ATOM     96  F   UNL A   1      47.416  27.157  37.323  1.00  0.00    -0.200 F 
ENDBRANCH  63  86
ENDBRANCH  37  38
ENDBRANCH  29  32
ENDBRANCH  27  28
ENDBRANCH  26  27
ENDBRANCH  25  26
ENDBRANCH   1  25
TORSDOF 15
ENDMDL
MODEL 2
REMARK VINA RESULT:     -12.4      1.033      2.767
REMARK SMILES Cc1ccc(NC(=O)c2cccnc2C(=O)NCCCCCCNC(=O)c2ccc(-c3c4nc(c(-c5c(F)c(F)c(F)c(F)c5F)c5ccc([nH]5)c(-c5c(F)c(F)c(F)c(F)c5F)c5nc(c(-c6c(F)c(F)c(F)c(F)c6F)c6ccc3[nH]6)C=C5)C=C4)cc2)nc1
REMARK SMILES IDX 20 1 19 2 18 3 17 4 15 5 16 6 14 8 9 9 10 10 11 11 13 12
REMARK SMILES IDX 12 13 7 14 6 15 8 17 5 18 1 19 2 20 3 21 91 22 4 23 90 24
REMARK SMILES IDX 21 25 22 26 23 27 24 28 25 29 26 31 27 32 28 33 89 34 29 35
REMARK SMILES IDX 88 36 30 37 31 38 32 39 82 40 33 41 87 42 81 43 83 44 34 45
REMARK SMILES IDX 86 46 80 47 79 48 35 50 67 51 47 52 66 53 48 54 51 55 65 56
REMARK SMILES IDX 84 57 49 58 50 59 64 61 85 62 52 63 36 64 37 65 45 66 38 67
REMARK SMILES IDX 39 68 43 69 46 70 40 71 41 72 44 73 42 74 68 75 69 76 77 77
REMARK SMILES IDX 70 78 71 79 75 80 78 81 72 82 73 83 76 84 74 85 53 86 54 87
REMARK SMILES IDX 62 88 55 89 56 90 60 91 63 92 57 93 58 94 61 95 59 96
REMARK H PARENT 17 7 6 16 24 30 83 49 51 60
REMARK Flexibility Score: inf
ROOT
ATOM      1  C   UNL A   1      32.352  29.950  26.380  1.00  0.00     0.002 C 
ENDROOT
BRANCH   1   2
ATOM      2  C   UNL A   1      31.761  29.012  27.437  1.00  0.00     0.021 C 
BRANCH   2   3
ATOM      3  C   UNL A   1      31.626  27.555  26.981  1.00  0.00     0.116 C 
BRANCH   3   4
ATOM      4  N   UNL A   1      32.915  27.054  26.557  1.00  0.00    -0.351 N 
ATOM      5  C   UNL A   1      33.320  26.044  25.717  1.00  0.00     0.270 C 
ATOM      6  O   UNL A   1      34.538  25.840  25.683  1.00  0.00    -0.267 OA
ATOM      7  H   UNL A   1      33.668  27.545  26.958  1.00  0.00     0.163 HD
BRANCH   5   8
ATOM      8  C   UNL A   1      32.431  25.289  24.766  1.00  0.00     0.140 A 
ATOM      9  C   UNL A   1      31.975  25.702  23.522  1.00  0.00     0.071 A 
ATOM     10  C   UNL A   1      31.126  24.841  22.796  1.00  0.00     0.018 A 
ATOM     11  C   UNL A   1      30.703  23.641  23.350  1.00  0.00     0.021 A 
ATOM     12  N   UNL A   1      32.039  24.083  25.293  1.00  0.00    -0.250 NA
ATOM     13  C   UNL A   1      31.165  23.320  24.607  1.00  0.00     0.112 A 
BRANCH   9  14
ATOM     14  C   UNL A   1      32.043  27.090  23.040  1.00  0.00     0.259 C 
ATOM     15  N   UNL A   1      31.159  27.405  22.020  1.00  0.00    -0.306 N 
ATOM     16  H   UNL A   1      31.241  26.973  21.138  1.00  0.00     0.171 HD
ATOM     17  O   UNL A   1      32.779  27.882  23.601  1.00  0.00    -0.269 OA
BRANCH  15  18
ATOM     18  C   UNL A   1      30.146  28.348  22.257  1.00  0.00     0.132 A 
ATOM     19  C   UNL A   1      27.587  31.503  23.472  1.00  0.00     0.046 C 
ATOM     20  C   UNL A   1      28.430  30.349  23.039  1.00  0.00    -0.033 A 
ATOM     21  C   UNL A   1      28.232  29.050  23.508  1.00  0.00     0.009 A 
ATOM     22  C   UNL A   1      29.493  30.560  22.175  1.00  0.00     0.117 A 
ATOM     23  C   UNL A   1      29.108  28.032  23.122  1.00  0.00     0.047 A 
ATOM     24  N   UNL A   1      30.337  29.591  21.781  1.00  0.00    -0.239 NA
ENDBRANCH  15  18
ENDBRANCH   9  14
ENDBRANCH   5   8
ENDBRANCH   3   4
ENDBRANCH   2   3
ENDBRANCH   1   2
BRANCH   1  25
ATOM     25  C   UNL A   1      31.348  30.919  25.751  1.00  0.00     0.002 C 
BRANCH  25  26
ATOM     26  C   UNL A   1      31.179  32.252  26.487  1.00  0.00     0.021 C 
BRANCH  26  27
ATOM     27  C   UNL A   1      32.435  32.750  27.198  1.00  0.00     0.116 C 
BRANCH  27  28
ATOM     28  N   UNL A   1      32.333  34.159  27.546  1.00  0.00    -0.352 N 
ATOM     29  C   UNL A   1      32.972  34.866  28.532  1.00  0.00     0.251 C 
ATOM     30  H   UNL A   1      31.712  34.684  26.991  1.00  0.00     0.163 HD
ATOM     31  O   UNL A   1      32.575  35.982  28.851  1.00  0.00    -0.269 OA
BRANCH  29  32
ATOM     32  C   UNL A   1      34.143  34.282  29.220  1.00  0.00     0.039 A 
ATOM     33  C   UNL A   1      33.939  33.496  30.357  1.00  0.00     0.014 A 
ATOM     34  C   UNL A   1      35.440  34.547  28.771  1.00  0.00     0.014 A 
ATOM     35  C   UNL A   1      35.035  32.933  31.015  1.00  0.00     0.010 A 
ATOM     36  C   UNL A   1      36.526  33.930  29.386  1.00  0.00     0.010 A 
ATOM     37  C   UNL A   1      36.335  33.125  30.520  1.00  0.00    -0.014 A 
BRANCH  37  38
ATOM     38  C   UNL A   1      37.512  32.511  31.186  1.00  0.00     0.031 A 
ATOM     39  C   UNL A   1      38.258  31.393  30.512  1.00  0.00     0.074 A 
ATOM     40  C   UNL A   1      37.869  32.918  32.418  1.00  0.00     0.049 A 
ATOM     41  N   UNL A   1      39.256  30.674  30.960  1.00  0.00    -0.248 NA
ATOM     42  C   UNL A   1      37.805  31.015  29.163  1.00  0.00     0.031 C 
ATOM     43  C   UNL A   1      37.200  33.967  33.190  1.00  0.00     0.029 A 
ATOM     44  N   UNL A   1      38.878  32.491  33.245  1.00  0.00    -0.354 N 
ATOM     45  C   UNL A   1      39.538  29.754  29.958  1.00  0.00     0.074 A 
ATOM     46  C   UNL A   1      38.574  29.968  28.901  1.00  0.00     0.031 C 
ATOM     47  C   UNL A   1      37.827  34.114  34.369  1.00  0.00     0.029 A 
ATOM     48  C   UNL A   1      38.917  33.146  34.451  1.00  0.00     0.049 A 
ATOM     49  H   UNL A   1      39.514  31.781  32.996  1.00  0.00     0.167 HD
ATOM     50  C   UNL A   1      40.528  28.831  29.914  1.00  0.00     0.037 A 
ATOM     51  C   UNL A   1      39.735  32.978  35.507  1.00  0.00     0.037 A 
ATOM     52  C   UNL A   1      41.502  28.639  30.957  1.00  0.00     0.049 A 
ATOM     53  C   UNL A   1      40.822  31.939  35.435  1.00  0.00     0.074 A 
ATOM     54  C   UNL A   1      42.574  27.764  30.987  1.00  0.00     0.029 A 
ATOM     55  N   UNL A   1      41.522  29.338  32.155  1.00  0.00    -0.354 N 
ATOM     56  N   UNL A   1      41.115  31.115  34.459  1.00  0.00    -0.248 NA
ATOM     57  C   UNL A   1      41.696  31.812  36.609  1.00  0.00     0.031 C 
ATOM     58  C   UNL A   1      43.217  27.903  32.220  1.00  0.00     0.029 A 
ATOM     59  C   UNL A   1      42.577  28.900  32.938  1.00  0.00     0.049 A 
ATOM     60  H   UNL A   1      40.881  30.040  32.411  1.00  0.00     0.167 HD
ATOM     61  C   UNL A   1      42.225  30.397  34.885  1.00  0.00     0.074 A 
ATOM     62  C   UNL A   1      42.559  30.892  36.203  1.00  0.00     0.031 C 
ATOM     63  C   UNL A   1      42.905  29.416  34.243  1.00  0.00     0.037 A 
BRANCH  50  64
ATOM     64  C   UNL A   1      40.614  27.959  28.694  1.00  0.00     0.064 A 
ATOM     65  C   UNL A   1      39.921  26.742  28.610  1.00  0.00     0.173 A 
ATOM     66  C   UNL A   1      41.361  28.366  27.579  1.00  0.00     0.173 A 
ATOM     67  F   UNL A   1      39.201  26.302  29.653  1.00  0.00    -0.203 F 
ATOM     68  C   UNL A   1      39.993  25.952  27.465  1.00  0.00     0.198 A 
ATOM     69  C   UNL A   1      41.407  27.588  26.424  1.00  0.00     0.198 A 
ATOM     70  F   UNL A   1      42.038  29.523  27.603  1.00  0.00    -0.203 F 
ATOM     71  F   UNL A   1      39.359  24.772  27.427  1.00  0.00    -0.200 F 
ATOM     72  C   UNL A   1      40.729  26.380  26.371  1.00  0.00     0.200 A 
ATOM     73  F   UNL A   1      42.107  28.010  25.361  1.00  0.00    -0.200 F 
ATOM     74  F   UNL A   1      40.788  25.624  25.265  1.00  0.00    -0.200 F 
ENDBRANCH  50  64
BRANCH  51  75
ATOM     75  C   UNL A   1      39.575  33.826  36.718  1.00  0.00     0.064 A 
ATOM     76  C   UNL A   1      38.798  33.394  37.802  1.00  0.00     0.173 A 
ATOM     77  C   UNL A   1      40.178  35.090  36.811  1.00  0.00     0.173 A 
ATOM     78  F   UNL A   1      38.184  32.203  37.752  1.00  0.00    -0.203 F 
ATOM     79  C   UNL A   1      38.606  34.204  38.920  1.00  0.00     0.198 A 
ATOM     80  C   UNL A   1      40.011  35.885  37.943  1.00  0.00     0.198 A 
ATOM     81  F   UNL A   1      40.938  35.547  35.806  1.00  0.00    -0.203 F 
ATOM     82  F   UNL A   1      37.814  33.788  39.917  1.00  0.00    -0.200 F 
ATOM     83  C   UNL A   1      39.216  35.447  38.991  1.00  0.00     0.200 A 
ATOM     84  F   UNL A   1      40.615  37.079  38.014  1.00  0.00    -0.200 F 
ATOM     85  F   UNL A   1      39.032  36.226  40.065  1.00  0.00    -0.200 F 
ENDBRANCH  51  75
BRANCH  63  86
ATOM     86  C   UNL A   1      44.104  28.841  34.939  1.00  0.00     0.064 A 
ATOM     87  C   UNL A   1      44.005  27.718  35.773  1.00  0.00     0.173 A 
ATOM     88  C   UNL A   1      45.375  29.400  34.735  1.00  0.00     0.173 A 
ATOM     89  F   UNL A   1      42.810  27.158  36.012  1.00  0.00    -0.203 F 
ATOM     90  C   UNL A   1      45.133  27.191  36.398  1.00  0.00     0.198 A 
ATOM     91  C   UNL A   1      46.504  28.852  35.337  1.00  0.00     0.198 A 
ATOM     92  F   UNL A   1      45.525  30.471  33.941  1.00  0.00    -0.203 F 
ATOM     93  F   UNL A   1      45.008  26.147  37.229  1.00  0.00    -0.200 F 
ATOM     94  C   UNL A   1      46.381  27.753  36.173  1.00  0.00     0.200 A 
ATOM     95  F   UNL A   1      47.711  29.387  35.108  1.00  0.00    -0.200 F 
ATOM     96  F   UNL A   1      47.465  27.239  36.770  1.00  0.00    -0.200 F 
ENDBRANCH  63  86
ENDBRANCH  37  38
ENDBRANCH  29  32
ENDBRANCH  27  28
ENDBRANCH  26  27
ENDBRANCH  25  26
ENDBRANCH   1  25
TORSDOF 15
ENDMDL
MODEL 3
REMARK VINA RESULT:     -12.3      1.325      3.393
REMARK SMILES Cc1ccc(NC(=O)c2cccnc2C(=O)NCCCCCCNC(=O)c2ccc(-c3c4nc(c(-c5c(F)c(F)c(F)c(F)c5F)c5ccc([nH]5)c(-c5c(F)c(F)c(F)c(F)c5F)c5nc(c(-c6c(F)c(F)c(F)c(F)c6F)c6ccc3[nH]6)C=C5)C=C4)cc2)nc1
REMARK SMILES IDX 20 1 19 2 18 3 17 4 15 5 16 6 14 8 9 9 10 10 11 11 13 12
REMARK SMILES IDX 12 13 7 14 6 15 8 17 5 18 1 19 2 20 3 21 91 22 4 23 90 24
REMARK SMILES IDX 21 25 22 26 23 27 24 28 25 29 26 31 27 32 28 33 89 34 29 35
REMARK SMILES IDX 88 36 30 37 31 38 32 39 82 40 33 41 87 42 81 43 83 44 34 45
REMARK SMILES IDX 86 46 80 47 79 48 35 50 67 51 47 52 66 53 48 54 51 55 65 56
REMARK SMILES IDX 84 57 49 58 50 59 64 61 85 62 52 63 36 64 37 65 45 66 38 67
REMARK SMILES IDX 39 68 43 69 46 70 40 71 41 72 44 73 42 74 68 75 69 76 77 77
REMARK SMILES IDX 70 78 71 79 75 80 78 81 72 82 73 83 76 84 74 85 53 86 54 87
REMARK SMILES IDX 62 88 55 89 56 90 60 91 63 92 57 93 58 94 61 95 59 96
REMARK H PARENT 17 7 6 16 24 30 83 49 51 60
REMARK Flexibility Score: inf
ROOT
ATOM      1  C   UNL A   1      32.319  30.001  26.601  1.00  0.00     0.002 C 
ENDROOT
BRANCH   1   2
ATOM      2  C   UNL A   1      33.296  29.287  25.663  1.00  0.00     0.021 C 
BRANCH   2   3
ATOM      3  C   UNL A   1      33.923  28.019  26.254  1.00  0.00     0.116 C 
BRANCH   3   4
ATOM      4  N   UNL A   1      32.887  27.052  26.544  1.00  0.00    -0.351 N 
ATOM      5  C   UNL A   1      31.993  26.347  25.773  1.00  0.00     0.270 C 
ATOM      6  O   UNL A   1      31.168  25.675  26.401  1.00  0.00    -0.267 OA
ATOM      7  H   UNL A   1      32.805  26.854  27.505  1.00  0.00     0.163 HD
BRANCH   5   8
ATOM      8  C   UNL A   1      32.033  26.231  24.273  1.00  0.00     0.140 A 
ATOM      9  C   UNL A   1      31.183  26.828  23.353  1.00  0.00     0.071 A 
ATOM     10  C   UNL A   1      31.387  26.568  21.981  1.00  0.00     0.018 A 
ATOM     11  C   UNL A   1      32.371  25.680  21.573  1.00  0.00     0.021 A 
ATOM     12  N   UNL A   1      33.032  25.383  23.861  1.00  0.00    -0.250 NA
ATOM     13  C   UNL A   1      33.148  25.096  22.548  1.00  0.00     0.112 A 
BRANCH   9  14
ATOM     14  C   UNL A   1      29.896  27.446  23.703  1.00  0.00     0.259 C 
ATOM     15  N   UNL A   1      29.937  28.815  23.922  1.00  0.00    -0.306 N 
ATOM     16  H   UNL A   1      30.451  29.183  24.677  1.00  0.00     0.171 HD
ATOM     17  O   UNL A   1      28.885  26.767  23.695  1.00  0.00    -0.269 OA
BRANCH  15  18
ATOM     18  C   UNL A   1      29.238  29.669  23.055  1.00  0.00     0.132 A 
ATOM     19  C   UNL A   1      27.745  32.710  20.503  1.00  0.00     0.046 C 
ATOM     20  C   UNL A   1      28.203  31.629  21.426  1.00  0.00    -0.033 A 
ATOM     21  C   UNL A   1      27.727  31.495  22.731  1.00  0.00     0.009 A 
ATOM     22  C   UNL A   1      29.179  30.737  21.009  1.00  0.00     0.117 A 
ATOM     23  C   UNL A   1      28.258  30.509  23.566  1.00  0.00     0.047 A 
ATOM     24  N   UNL A   1      29.691  29.773  21.793  1.00  0.00    -0.239 NA
ENDBRANCH  15  18
ENDBRANCH   9  14
ENDBRANCH   5   8
ENDBRANCH   3   4
ENDBRANCH   2   3
ENDBRANCH   1   2
BRANCH   1  25
ATOM     25  C   UNL A   1      31.341  30.951  25.905  1.00  0.00     0.002 C 
BRANCH  25  26
ATOM     26  C   UNL A   1      31.206  32.334  26.549  1.00  0.00     0.021 C 
BRANCH  26  27
ATOM     27  C   UNL A   1      32.469  32.841  27.240  1.00  0.00     0.116 C 
BRANCH  27  28
ATOM     28  N   UNL A   1      32.360  34.247  27.596  1.00  0.00    -0.352 N 
ATOM     29  C   UNL A   1      32.989  34.949  28.593  1.00  0.00     0.251 C 
ATOM     30  H   UNL A   1      31.744  34.775  27.038  1.00  0.00     0.163 HD
ATOM     31  O   UNL A   1      32.586  36.062  28.915  1.00  0.00    -0.269 OA
BRANCH  29  32
ATOM     32  C   UNL A   1      34.154  34.363  29.288  1.00  0.00     0.039 A 
ATOM     33  C   UNL A   1      33.955  33.690  30.496  1.00  0.00     0.014 A 
ATOM     34  C   UNL A   1      35.443  34.518  28.773  1.00  0.00     0.014 A 
ATOM     35  C   UNL A   1      35.045  33.126  31.162  1.00  0.00     0.010 A 
ATOM     36  C   UNL A   1      36.520  33.897  29.401  1.00  0.00     0.010 A 
ATOM     37  C   UNL A   1      36.333  33.204  30.608  1.00  0.00    -0.014 A 
BRANCH  37  38
ATOM     38  C   UNL A   1      37.502  32.586  31.283  1.00  0.00     0.031 A 
ATOM     39  C   UNL A   1      38.247  31.462  30.618  1.00  0.00     0.074 A 
ATOM     40  C   UNL A   1      37.853  32.995  32.516  1.00  0.00     0.049 A 
ATOM     41  N   UNL A   1      39.238  30.739  31.075  1.00  0.00    -0.248 NA
ATOM     42  C   UNL A   1      37.801  31.082  29.267  1.00  0.00     0.031 C 
ATOM     43  C   UNL A   1      37.185  34.050  33.280  1.00  0.00     0.029 A 
ATOM     44  N   UNL A   1      38.855  32.566  33.352  1.00  0.00    -0.354 N 
ATOM     45  C   UNL A   1      39.522  29.814  30.078  1.00  0.00     0.074 A 
ATOM     46  C   UNL A   1      38.566  30.030  29.014  1.00  0.00     0.031 C 
ATOM     47  C   UNL A   1      37.804  34.198  34.463  1.00  0.00     0.029 A 
ATOM     48  C   UNL A   1      38.888  33.225  34.556  1.00  0.00     0.049 A 
ATOM     49  H   UNL A   1      39.488  31.851  33.109  1.00  0.00     0.167 HD
ATOM     50  C   UNL A   1      40.507  28.886  30.044  1.00  0.00     0.037 A 
ATOM     51  C   UNL A   1      39.699  33.056  35.618  1.00  0.00     0.037 A 
ATOM     52  C   UNL A   1      41.473  28.692  31.094  1.00  0.00     0.049 A 
ATOM     53  C   UNL A   1      40.781  32.011  35.556  1.00  0.00     0.074 A 
ATOM     54  C   UNL A   1      42.541  27.812  31.134  1.00  0.00     0.029 A 
ATOM     55  N   UNL A   1      41.489  29.395  32.290  1.00  0.00    -0.354 N 
ATOM     56  N   UNL A   1      41.076  31.182  34.585  1.00  0.00    -0.248 NA
ATOM     57  C   UNL A   1      41.646  31.883  36.736  1.00  0.00     0.031 C 
ATOM     58  C   UNL A   1      43.176  27.952  32.371  1.00  0.00     0.029 A 
ATOM     59  C   UNL A   1      42.537  28.954  33.082  1.00  0.00     0.049 A 
ATOM     60  H   UNL A   1      40.850  30.101  32.539  1.00  0.00     0.167 HD
ATOM     61  C   UNL A   1      42.179  30.459  35.021  1.00  0.00     0.074 A 
ATOM     62  C   UNL A   1      42.507  30.957  36.340  1.00  0.00     0.031 C 
ATOM     63  C   UNL A   1      42.858  29.473  34.387  1.00  0.00     0.037 A 
BRANCH  50  64
ATOM     64  C   UNL A   1      40.597  28.010  28.827  1.00  0.00     0.064 A 
ATOM     65  C   UNL A   1      39.895  26.798  28.741  1.00  0.00     0.173 A 
ATOM     66  C   UNL A   1      41.358  28.406  27.718  1.00  0.00     0.173 A 
ATOM     67  F   UNL A   1      39.161  26.368  29.778  1.00  0.00    -0.203 F 
ATOM     68  C   UNL A   1      39.970  26.005  27.599  1.00  0.00     0.198 A 
ATOM     69  C   UNL A   1      41.407  27.625  26.565  1.00  0.00     0.198 A 
ATOM     70  F   UNL A   1      42.044  29.558  27.745  1.00  0.00    -0.203 F 
ATOM     71  F   UNL A   1      39.326  24.830  27.558  1.00  0.00    -0.200 F 
ATOM     72  C   UNL A   1      40.720  26.422  26.510  1.00  0.00     0.200 A 
ATOM     73  F   UNL A   1      42.120  28.037  25.508  1.00  0.00    -0.200 F 
ATOM     74  F   UNL A   1      40.783  25.663  25.407  1.00  0.00    -0.200 F 
ENDBRANCH  50  64
BRANCH  51  75
ATOM     75  C   UNL A   1      39.535  33.909  36.825  1.00  0.00     0.064 A 
ATOM     76  C   UNL A   1      40.142  35.170  36.903  1.00  0.00     0.173 A 
ATOM     77  C   UNL A   1      38.787  33.476  37.930  1.00  0.00     0.173 A 
ATOM     78  F   UNL A   1      40.885  35.619  35.881  1.00  0.00    -0.203 F 
ATOM     79  C   UNL A   1      40.031  35.954  38.050  1.00  0.00     0.198 A 
ATOM     80  C   UNL A   1      38.651  34.274  39.064  1.00  0.00     0.198 A 
ATOM     81  F   UNL A   1      38.180  32.281  37.904  1.00  0.00    -0.203 F 
ATOM     82  F   UNL A   1      40.666  37.131  38.118  1.00  0.00    -0.200 F 
ATOM     83  C   UNL A   1      39.282  35.507  39.128  1.00  0.00     0.200 A 
ATOM     84  F   UNL A   1      37.913  33.845  40.097  1.00  0.00    -0.200 F 
ATOM     85  F   UNL A   1      39.175  36.260  40.230  1.00  0.00    -0.200 F 
ENDBRANCH  51  75
BRANCH  63  86
ATOM     86  C   UNL A   1      44.050  28.894  35.092  1.00  0.00     0.064 A 
ATOM     87  C   UNL A   1      45.337  29.423  34.920  1.00  0.00     0.173 A 
ATOM     88  C   UNL A   1      43.893  27.821  35.982  1.00  0.00     0.173 A 
ATOM     89  F   UNL A   1      45.541  30.439  34.067  1.00  0.00    -0.203 F 
ATOM     90  C   UNL A   1      46.429  28.881  35.594  1.00  0.00     0.198 A 
ATOM     91  C   UNL A   1      44.981  27.302  36.678  1.00  0.00     0.198 A 
ATOM     92  F   UNL A   1      42.681  27.284  36.188  1.00  0.00    -0.203 F 
ATOM     93  F   UNL A   1      47.657  29.371  35.378  1.00  0.00    -0.200 F 
ATOM     94  C   UNL A   1      46.248  27.828  36.479  1.00  0.00     0.200 A 
ATOM     95  F   UNL A   1      44.803  26.293  37.542  1.00  0.00    -0.200 F 
ATOM     96  F   UNL A   1      47.299  27.313  37.132  1.00  0.00    -0.200 F 
ENDBRANCH  63  86
ENDBRANCH  37  38
ENDBRANCH  29  32
ENDBRANCH  27  28
ENDBRANCH  26  27
ENDBRANCH  25  26
ENDBRANCH   1  25
TORSDOF 15
ENDMDL
