MODEL 1
REMARK VINA RESULT:     -11.5      0.000      0.000
REMARK SMILES CC(C)(C[S@](=O)c1cccc(Cl)c1)C(=O)NCCCCCCNC(=O)c1ccc(-c2c3nc(c(-c4c(F)c(F)c(F)c(F)c4F)c4ccc([nH]4)c(-c4c(F)c(F)c(F)c(F)c4F)c4nc(c(-c5c(F)c(F)c(F)c(F)c5F)c5ccc2[nH]5)C=C4)C=C3)cc1
REMARK SMILES IDX 19 1 18 2 17 3 16 4 14 5 15 6 2 8 1 9 3 10 4 11 5 12 6 13
REMARK SMILES IDX 7 14 8 15 13 16 9 17 11 18 10 19 12 20 20 21 21 22 22 23
REMARK SMILES IDX 23 24 24 25 25 27 26 28 27 29 88 30 28 31 87 32 29 33 30 34
REMARK SMILES IDX 31 35 81 36 32 37 86 38 80 39 82 40 33 41 85 42 79 43 78 44
REMARK SMILES IDX 34 46 66 47 46 48 65 49 47 50 50 51 64 52 83 53 48 54 49 55
REMARK SMILES IDX 63 57 84 58 51 59 35 60 36 61 44 62 37 63 38 64 42 65 45 66
REMARK SMILES IDX 39 67 40 68 43 69 41 70 67 71 68 72 76 73 69 74 70 75 74 76
REMARK SMILES IDX 77 77 71 78 72 79 75 80 73 81 52 82 53 83 61 84 54 85 55 86
REMARK SMILES IDX 59 87 62 88 56 89 57 90 60 91 58 92
REMARK H PARENT 16 7 23 26 82 45 50 56
REMARK Flexibility Score: inf
ROOT
ATOM      1  C   UNL A   1      36.932  21.859  24.692  1.00  0.00     0.002 C 
ENDROOT
BRANCH   1   2
ATOM      2  C   UNL A   1      36.260  22.822  25.673  1.00  0.00     0.021 C 
BRANCH   2   3
ATOM      3  C   UNL A   1      35.638  24.066  25.043  1.00  0.00     0.116 C 
BRANCH   3   4
ATOM      4  N   UNL A   1      34.373  24.443  25.650  1.00  0.00    -0.356 N 
ATOM      5  C   UNL A   1      33.076  24.174  25.339  1.00  0.00     0.226 C 
ATOM      6  O   UNL A   1      32.238  24.502  26.184  1.00  0.00    -0.274 OA
ATOM      7  H   UNL A   1      34.475  25.009  26.449  1.00  0.00     0.163 HD
BRANCH   5   8
ATOM      8  C   UNL A   1      32.646  23.459  24.049  1.00  0.00     0.055 C 
ATOM      9  C   UNL A   1      33.119  24.249  22.806  1.00  0.00     0.022 C 
ATOM     10  C   UNL A   1      31.098  23.550  23.977  1.00  0.00     0.022 C 
BRANCH   8  11
ATOM     11  C   UNL A   1      33.087  21.989  23.952  1.00  0.00     0.126 C 
BRANCH  11  12
ATOM     12  S   UNL A   1      32.566  20.684  25.112  1.00  0.00     0.054 S 
ATOM     13  O   UNL A   1      33.408  20.837  26.346  1.00  0.00    -0.254 OA
BRANCH  12  14
ATOM     14  C   UNL A   1      33.048  19.115  24.401  1.00  0.00     0.040 A 
ATOM     15  C   UNL A   1      32.528  18.756  23.150  1.00  0.00     0.018 A 
ATOM     16  C   UNL A   1      33.858  18.209  25.087  1.00  0.00     0.038 A 
ATOM     17  C   UNL A   1      32.914  17.563  22.537  1.00  0.00     0.003 A 
ATOM     18  C   UNL A   1      34.258  17.027  24.464  1.00  0.00     0.042 A 
ATOM     19  C   UNL A   1      33.801  16.707  23.185  1.00  0.00     0.020 A 
ATOM     20  Cl  UNL A   1      35.351  15.968  25.268  1.00  0.00    -0.084 Cl
ENDBRANCH  12  14
ENDBRANCH  11  12
ENDBRANCH   8  11
ENDBRANCH   5   8
ENDBRANCH   3   4
ENDBRANCH   2   3
ENDBRANCH   1   2
BRANCH   1  21
ATOM     21  C   UNL A   1      36.734  20.369  24.986  1.00  0.00     0.002 C 
BRANCH  21  22
ATOM     22  C   UNL A   1      37.997  19.507  24.923  1.00  0.00     0.021 C 
BRANCH  22  23
ATOM     23  C   UNL A   1      39.174  20.023  25.743  1.00  0.00     0.116 C 
BRANCH  23  24
ATOM     24  N   UNL A   1      40.225  19.030  25.888  1.00  0.00    -0.352 N 
ATOM     25  C   UNL A   1      41.567  19.201  26.110  1.00  0.00     0.251 C 
ATOM     26  H   UNL A   1      39.929  18.094  25.815  1.00  0.00     0.163 HD
ATOM     27  O   UNL A   1      42.333  18.241  26.018  1.00  0.00    -0.269 OA
BRANCH  25  28
ATOM     28  C   UNL A   1      42.109  20.536  26.440  1.00  0.00     0.039 A 
ATOM     29  C   UNL A   1      42.553  21.358  25.400  1.00  0.00     0.014 A 
ATOM     30  C   UNL A   1      42.207  20.973  27.765  1.00  0.00     0.014 A 
ATOM     31  C   UNL A   1      43.039  22.636  25.683  1.00  0.00     0.010 A 
ATOM     32  C   UNL A   1      42.622  22.274  28.039  1.00  0.00     0.010 A 
ATOM     33  C   UNL A   1      43.048  23.118  27.002  1.00  0.00    -0.014 A 
BRANCH  33  34
ATOM     34  C   UNL A   1      43.496  24.502  27.309  1.00  0.00     0.031 A 
ATOM     35  C   UNL A   1      42.525  25.513  27.853  1.00  0.00     0.074 A 
ATOM     36  C   UNL A   1      44.767  24.863  27.045  1.00  0.00     0.049 A 
ATOM     37  N   UNL A   1      42.716  26.778  28.132  1.00  0.00    -0.248 NA
ATOM     38  C   UNL A   1      41.150  25.047  28.092  1.00  0.00     0.031 C 
ATOM     39  C   UNL A   1      45.792  23.989  26.473  1.00  0.00     0.029 A 
ATOM     40  N   UNL A   1      45.412  26.063  27.215  1.00  0.00    -0.354 N 
ATOM     41  C   UNL A   1      41.487  27.260  28.566  1.00  0.00     0.074 A 
ATOM     42  C   UNL A   1      40.545  26.167  28.463  1.00  0.00     0.031 C 
ATOM     43  C   UNL A   1      46.942  24.673  26.361  1.00  0.00     0.029 A 
ATOM     44  C   UNL A   1      46.726  26.043  26.815  1.00  0.00     0.049 A 
ATOM     45  H   UNL A   1      44.975  26.862  27.588  1.00  0.00     0.167 HD
ATOM     46  C   UNL A   1      41.179  28.495  29.031  1.00  0.00     0.037 A 
ATOM     47  C   UNL A   1      47.651  27.023  26.807  1.00  0.00     0.037 A 
ATOM     48  C   UNL A   1      42.125  29.573  29.154  1.00  0.00     0.049 A 
ATOM     49  C   UNL A   1      47.279  28.388  27.321  1.00  0.00     0.074 A 
ATOM     50  C   UNL A   1      41.924  30.842  29.669  1.00  0.00     0.029 A 
ATOM     51  N   UNL A   1      43.451  29.512  28.752  1.00  0.00    -0.354 N 
ATOM     52  N   UNL A   1      46.133  28.811  27.796  1.00  0.00    -0.248 NA
ATOM     53  C   UNL A   1      48.334  29.411  27.304  1.00  0.00     0.031 C 
ATOM     54  C   UNL A   1      43.114  31.564  29.531  1.00  0.00     0.029 A 
ATOM     55  C   UNL A   1      44.073  30.728  28.983  1.00  0.00     0.049 A 
ATOM     56  H   UNL A   1      43.886  28.720  28.359  1.00  0.00     0.167 HD
ATOM     57  C   UNL A   1      46.336  30.134  28.163  1.00  0.00     0.074 A 
ATOM     58  C   UNL A   1      47.721  30.440  27.870  1.00  0.00     0.031 C 
ATOM     59  C   UNL A   1      45.455  31.017  28.694  1.00  0.00     0.037 A 
BRANCH  46  60
ATOM     60  C   UNL A   1      39.757  28.749  29.445  1.00  0.00     0.064 A 
ATOM     61  C   UNL A   1      39.314  28.494  30.752  1.00  0.00     0.173 A 
ATOM     62  C   UNL A   1      38.839  29.297  28.537  1.00  0.00     0.173 A 
ATOM     63  F   UNL A   1      40.149  27.961  31.657  1.00  0.00    -0.203 F 
ATOM     64  C   UNL A   1      37.997  28.752  31.125  1.00  0.00     0.198 A 
ATOM     65  C   UNL A   1      37.531  29.584  28.923  1.00  0.00     0.198 A 
ATOM     66  F   UNL A   1      39.211  29.567  27.277  1.00  0.00    -0.203 F 
ATOM     67  F   UNL A   1      37.584  28.455  32.365  1.00  0.00    -0.200 F 
ATOM     68  C   UNL A   1      37.110  29.304  30.214  1.00  0.00     0.200 A 
ATOM     69  F   UNL A   1      36.680  30.132  28.046  1.00  0.00    -0.200 F 
ATOM     70  F   UNL A   1      35.846  29.562  30.579  1.00  0.00    -0.200 F 
ENDBRANCH  46  60
BRANCH  47  71
ATOM     71  C   UNL A   1      49.025  26.745  26.312  1.00  0.00     0.064 A 
ATOM     72  C   UNL A   1      49.369  26.973  24.971  1.00  0.00     0.173 A 
ATOM     73  C   UNL A   1      50.018  26.235  27.161  1.00  0.00     0.173 A 
ATOM     74  F   UNL A   1      48.448  27.442  24.115  1.00  0.00    -0.203 F 
ATOM     75  C   UNL A   1      50.644  26.678  24.495  1.00  0.00     0.198 A 
ATOM     76  C   UNL A   1      51.302  25.970  26.689  1.00  0.00     0.198 A 
ATOM     77  F   UNL A   1      49.742  26.003  28.453  1.00  0.00    -0.203 F 
ATOM     78  F   UNL A   1      50.929  26.857  23.198  1.00  0.00    -0.200 F 
ATOM     79  C   UNL A   1      51.612  26.182  25.355  1.00  0.00     0.200 A 
ATOM     80  F   UNL A   1      52.238  25.504  27.529  1.00  0.00    -0.200 F 
ATOM     81  F   UNL A   1      52.838  25.901  24.897  1.00  0.00    -0.200 F 
ENDBRANCH  47  71
BRANCH  59  82
ATOM     82  C   UNL A   1      45.970  32.387  29.030  1.00  0.00     0.064 A 
ATOM     83  C   UNL A   1      46.549  32.674  30.275  1.00  0.00     0.173 A 
ATOM     84  C   UNL A   1      45.915  33.418  28.079  1.00  0.00     0.173 A 
ATOM     85  F   UNL A   1      46.613  31.728  31.224  1.00  0.00    -0.203 F 
ATOM     86  C   UNL A   1      47.026  33.949  30.565  1.00  0.00     0.198 A 
ATOM     87  C   UNL A   1      46.423  34.683  28.361  1.00  0.00     0.198 A 
ATOM     88  F   UNL A   1      45.378  33.195  26.869  1.00  0.00    -0.203 F 
ATOM     89  F   UNL A   1      47.526  34.214  31.780  1.00  0.00    -0.200 F 
ATOM     90  C   UNL A   1      46.970  34.949  29.607  1.00  0.00     0.200 A 
ATOM     91  F   UNL A   1      46.382  35.643  27.428  1.00  0.00    -0.200 F 
ATOM     92  F   UNL A   1      47.437  36.175  29.886  1.00  0.00    -0.200 F 
ENDBRANCH  59  82
ENDBRANCH  33  34
ENDBRANCH  25  28
ENDBRANCH  23  24
ENDBRANCH  22  23
ENDBRANCH  21  22
ENDBRANCH   1  21
TORSDOF 16
ENDMDL
MODEL 2
REMARK VINA RESULT:     -11.4      1.185      2.279
REMARK SMILES CC(C)(C[S@](=O)c1cccc(Cl)c1)C(=O)NCCCCCCNC(=O)c1ccc(-c2c3nc(c(-c4c(F)c(F)c(F)c(F)c4F)c4ccc([nH]4)c(-c4c(F)c(F)c(F)c(F)c4F)c4nc(c(-c5c(F)c(F)c(F)c(F)c5F)c5ccc2[nH]5)C=C4)C=C3)cc1
REMARK SMILES IDX 19 1 18 2 17 3 16 4 14 5 15 6 2 8 1 9 3 10 4 11 5 12 6 13
REMARK SMILES IDX 7 14 8 15 13 16 9 17 11 18 10 19 12 20 20 21 21 22 22 23
REMARK SMILES IDX 23 24 24 25 25 27 26 28 27 29 88 30 28 31 87 32 29 33 30 34
REMARK SMILES IDX 31 35 81 36 32 37 86 38 80 39 82 40 33 41 85 42 79 43 78 44
REMARK SMILES IDX 34 46 66 47 46 48 65 49 47 50 50 51 64 52 83 53 48 54 49 55
REMARK SMILES IDX 63 57 84 58 51 59 35 60 36 61 44 62 37 63 38 64 42 65 45 66
REMARK SMILES IDX 39 67 40 68 43 69 41 70 67 71 68 72 76 73 69 74 70 75 74 76
REMARK SMILES IDX 77 77 71 78 72 79 75 80 73 81 52 82 53 83 61 84 54 85 55 86
REMARK SMILES IDX 59 87 62 88 56 89 57 90 60 91 58 92
REMARK H PARENT 16 7 23 26 82 45 50 56
REMARK Flexibility Score: inf
ROOT
ATOM      1  C   UNL A   1      36.730  21.909  25.582  1.00  0.00     0.002 C 
ENDROOT
BRANCH   1   2
ATOM      2  C   UNL A   1      35.415  22.679  25.724  1.00  0.00     0.021 C 
BRANCH   2   3
ATOM      3  C   UNL A   1      35.505  24.178  25.452  1.00  0.00     0.116 C 
BRANCH   3   4
ATOM      4  N   UNL A   1      34.846  24.577  24.220  1.00  0.00    -0.356 N 
ATOM      5  C   UNL A   1      33.847  25.457  23.942  1.00  0.00     0.226 C 
ATOM      6  O   UNL A   1      33.652  25.694  22.746  1.00  0.00    -0.274 OA
ATOM      7  H   UNL A   1      35.195  24.115  23.423  1.00  0.00     0.163 HD
BRANCH   5   8
ATOM      8  C   UNL A   1      33.025  26.172  25.025  1.00  0.00     0.055 C 
ATOM      9  C   UNL A   1      31.891  27.007  24.385  1.00  0.00     0.022 C 
ATOM     10  C   UNL A   1      33.953  27.240  25.664  1.00  0.00     0.022 C 
BRANCH   8  11
ATOM     11  C   UNL A   1      32.463  25.249  26.119  1.00  0.00     0.126 C 
BRANCH  11  12
ATOM     12  S   UNL A   1      31.034  24.141  25.891  1.00  0.00     0.054 S 
ATOM     13  O   UNL A   1      30.663  23.624  27.251  1.00  0.00    -0.254 OA
BRANCH  12  14
ATOM     14  C   UNL A   1      31.607  22.712  24.981  1.00  0.00     0.040 A 
ATOM     15  C   UNL A   1      31.671  22.787  23.583  1.00  0.00     0.018 A 
ATOM     16  C   UNL A   1      31.913  21.506  25.613  1.00  0.00     0.038 A 
ATOM     17  C   UNL A   1      32.156  21.713  22.836  1.00  0.00     0.003 A 
ATOM     18  C   UNL A   1      32.416  20.441  24.866  1.00  0.00     0.042 A 
ATOM     19  C   UNL A   1      32.554  20.544  23.482  1.00  0.00     0.020 A 
ATOM     20  Cl  UNL A   1      32.903  18.996  25.666  1.00  0.00    -0.084 Cl
ENDBRANCH  12  14
ENDBRANCH  11  12
ENDBRANCH   8  11
ENDBRANCH   5   8
ENDBRANCH   3   4
ENDBRANCH   2   3
ENDBRANCH   1   2
BRANCH   1  21
ATOM     21  C   UNL A   1      36.660  20.625  24.749  1.00  0.00     0.002 C 
BRANCH  21  22
ATOM     22  C   UNL A   1      37.777  19.609  25.001  1.00  0.00     0.021 C 
BRANCH  22  23
ATOM     23  C   UNL A   1      39.002  20.159  25.724  1.00  0.00     0.116 C 
BRANCH  23  24
ATOM     24  N   UNL A   1      40.035  19.154  25.904  1.00  0.00    -0.352 N 
ATOM     25  C   UNL A   1      41.379  19.310  26.126  1.00  0.00     0.251 C 
ATOM     26  H   UNL A   1      39.723  18.221  25.860  1.00  0.00     0.163 HD
ATOM     27  O   UNL A   1      42.129  18.334  26.068  1.00  0.00    -0.269 OA
BRANCH  25  28
ATOM     28  C   UNL A   1      41.942  20.645  26.415  1.00  0.00     0.039 A 
ATOM     29  C   UNL A   1      42.229  21.500  25.347  1.00  0.00     0.014 A 
ATOM     30  C   UNL A   1      42.214  21.051  27.725  1.00  0.00     0.014 A 
ATOM     31  C   UNL A   1      42.731  22.779  25.595  1.00  0.00     0.010 A 
ATOM     32  C   UNL A   1      42.645  22.352  27.976  1.00  0.00     0.010 A 
ATOM     33  C   UNL A   1      42.913  23.228  26.913  1.00  0.00    -0.014 A 
BRANCH  33  34
ATOM     34  C   UNL A   1      43.380  24.611  27.194  1.00  0.00     0.031 A 
ATOM     35  C   UNL A   1      42.429  25.638  27.745  1.00  0.00     0.074 A 
ATOM     36  C   UNL A   1      44.648  24.958  26.899  1.00  0.00     0.049 A 
ATOM     37  N   UNL A   1      42.637  26.905  28.004  1.00  0.00    -0.248 NA
ATOM     38  C   UNL A   1      41.056  25.188  28.019  1.00  0.00     0.031 C 
ATOM     39  C   UNL A   1      45.653  24.067  26.317  1.00  0.00     0.029 A 
ATOM     40  N   UNL A   1      45.307  26.154  27.040  1.00  0.00    -0.354 N 
ATOM     41  C   UNL A   1      41.422  27.403  28.458  1.00  0.00     0.074 A 
ATOM     42  C   UNL A   1      40.468  26.317  28.388  1.00  0.00     0.031 C 
ATOM     43  C   UNL A   1      46.806  24.740  26.171  1.00  0.00     0.029 A 
ATOM     44  C   UNL A   1      46.612  26.117  26.613  1.00  0.00     0.049 A 
ATOM     45  H   UNL A   1      44.885  26.962  27.413  1.00  0.00     0.167 HD
ATOM     46  C   UNL A   1      41.135  28.646  28.914  1.00  0.00     0.037 A 
ATOM     47  C   UNL A   1      47.545  27.088  26.573  1.00  0.00     0.037 A 
ATOM     48  C   UNL A   1      42.093  29.717  29.004  1.00  0.00     0.049 A 
ATOM     49  C   UNL A   1      47.196  28.463  27.078  1.00  0.00     0.074 A 
ATOM     50  C   UNL A   1      41.914  30.994  29.507  1.00  0.00     0.029 A 
ATOM     51  N   UNL A   1      43.410  29.639  28.574  1.00  0.00    -0.354 N 
ATOM     52  N   UNL A   1      46.065  28.902  27.572  1.00  0.00    -0.248 NA
ATOM     53  C   UNL A   1      48.260  29.476  27.026  1.00  0.00     0.031 C 
ATOM     54  C   UNL A   1      43.107  31.704  29.334  1.00  0.00     0.029 A 
ATOM     55  C   UNL A   1      44.047  30.852  28.778  1.00  0.00     0.049 A 
ATOM     56  H   UNL A   1      43.829  28.839  28.183  1.00  0.00     0.167 HD
ATOM     57  C   UNL A   1      46.287  30.228  27.917  1.00  0.00     0.074 A 
ATOM     58  C   UNL A   1      47.668  30.518  27.591  1.00  0.00     0.031 C 
ATOM     59  C   UNL A   1      45.425  31.125  28.456  1.00  0.00     0.037 A 
BRANCH  46  60
ATOM     60  C   UNL A   1      39.725  28.918  29.354  1.00  0.00     0.064 A 
ATOM     61  C   UNL A   1      38.745  29.367  28.456  1.00  0.00     0.173 A 
ATOM     62  C   UNL A   1      39.337  28.683  30.682  1.00  0.00     0.173 A 
ATOM     63  F   UNL A   1      39.065  29.618  27.177  1.00  0.00    -0.203 F 
ATOM     64  C   UNL A   1      37.437  29.598  28.876  1.00  0.00     0.198 A 
ATOM     65  C   UNL A   1      38.020  28.883  31.092  1.00  0.00     0.198 A 
ATOM     66  F   UNL A   1      40.231  28.245  31.582  1.00  0.00    -0.203 F 
ATOM     67  F   UNL A   1      36.531  30.073  28.011  1.00  0.00    -0.200 F 
ATOM     68  C   UNL A   1      37.075  29.347  30.191  1.00  0.00     0.200 A 
ATOM     69  F   UNL A   1      37.667  28.626  32.359  1.00  0.00    -0.200 F 
ATOM     70  F   UNL A   1      35.812  29.559  30.591  1.00  0.00    -0.200 F 
ENDBRANCH  46  60
BRANCH  47  71
ATOM     71  C   UNL A   1      48.906  26.792  26.053  1.00  0.00     0.064 A 
ATOM     72  C   UNL A   1      49.231  27.022  24.708  1.00  0.00     0.173 A 
ATOM     73  C   UNL A   1      49.905  26.261  26.882  1.00  0.00     0.173 A 
ATOM     74  F   UNL A   1      48.303  27.510  23.871  1.00  0.00    -0.203 F 
ATOM     75  C   UNL A   1      50.493  26.710  24.208  1.00  0.00     0.198 A 
ATOM     76  C   UNL A   1      51.177  25.979  26.387  1.00  0.00     0.198 A 
ATOM     77  F   UNL A   1      49.648  26.026  28.177  1.00  0.00    -0.203 F 
ATOM     78  F   UNL A   1      50.758  26.893  22.907  1.00  0.00    -0.200 F 
ATOM     79  C   UNL A   1      51.467  26.194  25.048  1.00  0.00     0.200 A 
ATOM     80  F   UNL A   1      52.120  25.494  27.207  1.00  0.00    -0.200 F 
ATOM     81  F   UNL A   1      52.681  25.896  24.568  1.00  0.00    -0.200 F 
ENDBRANCH  47  71
BRANCH  59  82
ATOM     82  C   UNL A   1      45.959  32.495  28.764  1.00  0.00     0.064 A 
ATOM     83  C   UNL A   1      45.885  33.543  27.834  1.00  0.00     0.173 A 
ATOM     84  C   UNL A   1      46.520  32.771  30.020  1.00  0.00     0.173 A 
ATOM     85  F   UNL A   1      45.371  33.327  26.613  1.00  0.00    -0.203 F 
ATOM     86  C   UNL A   1      46.379  34.807  28.140  1.00  0.00     0.198 A 
ATOM     87  C   UNL A   1      46.983  34.046  30.334  1.00  0.00     0.198 A 
ATOM     88  F   UNL A   1      46.607  31.807  30.949  1.00  0.00    -0.203 F 
ATOM     89  F   UNL A   1      46.346  35.778  27.217  1.00  0.00    -0.200 F 
ATOM     90  C   UNL A   1      46.920  35.060  29.391  1.00  0.00     0.200 A 
ATOM     91  F   UNL A   1      47.491  34.291  31.550  1.00  0.00    -0.200 F 
ATOM     92  F   UNL A   1      47.390  36.280  29.687  1.00  0.00    -0.200 F 
ENDBRANCH  59  82
ENDBRANCH  33  34
ENDBRANCH  25  28
ENDBRANCH  23  24
ENDBRANCH  22  23
ENDBRANCH  21  22
ENDBRANCH   1  21
TORSDOF 16
ENDMDL
MODEL 3
REMARK VINA RESULT:     -11.3      5.616     10.894
REMARK SMILES CC(C)(C[S@](=O)c1cccc(Cl)c1)C(=O)NCCCCCCNC(=O)c1ccc(-c2c3nc(c(-c4c(F)c(F)c(F)c(F)c4F)c4ccc([nH]4)c(-c4c(F)c(F)c(F)c(F)c4F)c4nc(c(-c5c(F)c(F)c(F)c(F)c5F)c5ccc2[nH]5)C=C4)C=C3)cc1
REMARK SMILES IDX 19 1 18 2 17 3 16 4 14 5 15 6 2 8 1 9 3 10 4 11 5 12 6 13
REMARK SMILES IDX 7 14 8 15 13 16 9 17 11 18 10 19 12 20 20 21 21 22 22 23
REMARK SMILES IDX 23 24 24 25 25 27 26 28 27 29 88 30 28 31 87 32 29 33 30 34
REMARK SMILES IDX 31 35 81 36 32 37 86 38 80 39 82 40 33 41 85 42 79 43 78 44
REMARK SMILES IDX 34 46 66 47 46 48 65 49 47 50 50 51 64 52 83 53 48 54 49 55
REMARK SMILES IDX 63 57 84 58 51 59 35 60 36 61 44 62 37 63 38 64 42 65 45 66
REMARK SMILES IDX 39 67 40 68 43 69 41 70 67 71 68 72 76 73 69 74 70 75 74 76
REMARK SMILES IDX 77 77 71 78 72 79 75 80 73 81 52 82 53 83 61 84 54 85 55 86
REMARK SMILES IDX 59 87 62 88 56 89 57 90 60 91 58 92
REMARK H PARENT 16 7 23 26 82 45 50 56
REMARK Flexibility Score: inf
ROOT
ATOM      1  C   UNL A   1      32.346  29.935  26.876  1.00  0.00     0.002 C 
ENDROOT
BRANCH   1   2
ATOM      2  C   UNL A   1      31.779  28.582  27.313  1.00  0.00     0.021 C 
BRANCH   2   3
ATOM      3  C   UNL A   1      31.820  27.484  26.252  1.00  0.00     0.116 C 
BRANCH   3   4
ATOM      4  N   UNL A   1      31.388  26.190  26.751  1.00  0.00    -0.356 N 
ATOM      5  C   UNL A   1      31.797  24.916  26.507  1.00  0.00     0.226 C 
ATOM      6  O   UNL A   1      31.332  24.047  27.251  1.00  0.00    -0.274 OA
ATOM      7  H   UNL A   1      30.647  26.247  27.397  1.00  0.00     0.163 HD
BRANCH   5   8
ATOM      8  C   UNL A   1      32.815  24.549  25.417  1.00  0.00     0.055 C 
ATOM      9  C   UNL A   1      34.006  25.535  25.430  1.00  0.00     0.022 C 
ATOM     10  C   UNL A   1      32.129  24.819  24.050  1.00  0.00     0.022 C 
BRANCH   8  11
ATOM     11  C   UNL A   1      33.317  23.097  25.470  1.00  0.00     0.126 C 
BRANCH  11  12
ATOM     12  S   UNL A   1      32.493  21.696  24.645  1.00  0.00     0.054 S 
ATOM     13  O   UNL A   1      31.381  21.251  25.551  1.00  0.00    -0.254 OA
BRANCH  12  14
ATOM     14  C   UNL A   1      33.654  20.336  24.617  1.00  0.00     0.040 A 
ATOM     15  C   UNL A   1      34.992  20.587  24.954  1.00  0.00     0.018 A 
ATOM     16  C   UNL A   1      33.287  19.058  24.194  1.00  0.00     0.038 A 
ATOM     17  C   UNL A   1      35.922  19.547  24.990  1.00  0.00     0.003 A 
ATOM     18  C   UNL A   1      34.213  18.016  24.251  1.00  0.00     0.042 A 
ATOM     19  C   UNL A   1      35.525  18.252  24.662  1.00  0.00     0.020 A 
ATOM     20  Cl  UNL A   1      33.723  16.418  23.840  1.00  0.00    -0.084 Cl
ENDBRANCH  12  14
ENDBRANCH  11  12
ENDBRANCH   8  11
ENDBRANCH   5   8
ENDBRANCH   3   4
ENDBRANCH   2   3
ENDBRANCH   1   2
BRANCH   1  21
ATOM     21  C   UNL A   1      31.403  30.810  26.044  1.00  0.00     0.002 C 
BRANCH  21  22
ATOM     22  C   UNL A   1      31.275  32.265  26.501  1.00  0.00     0.021 C 
BRANCH  22  23
ATOM     23  C   UNL A   1      32.477  32.815  27.261  1.00  0.00     0.116 C 
BRANCH  23  24
ATOM     24  N   UNL A   1      32.312  34.213  27.620  1.00  0.00    -0.352 N 
ATOM     25  C   UNL A   1      32.942  34.948  28.591  1.00  0.00     0.251 C 
ATOM     26  H   UNL A   1      31.648  34.707  27.086  1.00  0.00     0.163 HD
ATOM     27  O   UNL A   1      32.535  36.076  28.870  1.00  0.00    -0.269 OA
BRANCH  25  28
ATOM     28  C   UNL A   1      34.098  34.389  29.323  1.00  0.00     0.039 A 
ATOM     29  C   UNL A   1      33.861  33.604  30.456  1.00  0.00     0.014 A 
ATOM     30  C   UNL A   1      35.410  34.653  28.920  1.00  0.00     0.014 A 
ATOM     31  C   UNL A   1      34.935  33.038  31.147  1.00  0.00     0.010 A 
ATOM     32  C   UNL A   1      36.475  34.028  29.565  1.00  0.00     0.010 A 
ATOM     33  C   UNL A   1      36.249  33.218  30.689  1.00  0.00    -0.014 A 
BRANCH  33  34
ATOM     34  C   UNL A   1      37.396  32.563  31.373  1.00  0.00     0.031 A 
ATOM     35  C   UNL A   1      38.108  31.408  30.726  1.00  0.00     0.074 A 
ATOM     36  C   UNL A   1      37.759  32.975  32.603  1.00  0.00     0.049 A 
ATOM     37  N   UNL A   1      39.092  30.677  31.189  1.00  0.00    -0.248 NA
ATOM     38  C   UNL A   1      37.637  31.003  29.392  1.00  0.00     0.031 C 
ATOM     39  C   UNL A   1      37.117  34.053  33.357  1.00  0.00     0.029 A 
ATOM     40  N   UNL A   1      38.752  32.530  33.441  1.00  0.00    -0.354 N 
ATOM     41  C   UNL A   1      39.348  29.723  30.211  1.00  0.00     0.074 A 
ATOM     42  C   UNL A   1      38.382  29.932  29.154  1.00  0.00     0.031 C 
ATOM     43  C   UNL A   1      37.745  34.201  34.534  1.00  0.00     0.029 A 
ATOM     44  C   UNL A   1      38.806  33.205  34.636  1.00  0.00     0.049 A 
ATOM     45  H   UNL A   1      39.365  31.797  33.208  1.00  0.00     0.167 HD
ATOM     46  C   UNL A   1      40.315  28.775  30.188  1.00  0.00     0.037 A 
ATOM     47  C   UNL A   1      39.617  33.035  35.698  1.00  0.00     0.037 A 
ATOM     48  C   UNL A   1      41.289  28.586  31.230  1.00  0.00     0.049 A 
ATOM     49  C   UNL A   1      40.678  31.968  35.648  1.00  0.00     0.074 A 
ATOM     50  C   UNL A   1      42.345  27.692  31.272  1.00  0.00     0.029 A 
ATOM     51  N   UNL A   1      41.323  29.298  32.421  1.00  0.00    -0.354 N 
ATOM     52  N   UNL A   1      40.956  31.120  34.689  1.00  0.00    -0.248 NA
ATOM     53  C   UNL A   1      41.543  31.840  36.830  1.00  0.00     0.031 C 
ATOM     54  C   UNL A   1      42.986  27.829  32.508  1.00  0.00     0.029 A 
ATOM     55  C   UNL A   1      42.366  28.847  33.214  1.00  0.00     0.049 A 
ATOM     56  H   UNL A   1      40.698  30.018  32.665  1.00  0.00     0.167 HD
ATOM     57  C   UNL A   1      42.044  30.381  35.134  1.00  0.00     0.074 A 
ATOM     58  C   UNL A   1      42.386  30.892  36.445  1.00  0.00     0.031 C 
ATOM     59  C   UNL A   1      42.700  29.371  34.514  1.00  0.00     0.037 A 
BRANCH  46  60
ATOM     60  C   UNL A   1      40.372  27.867  28.992  1.00  0.00     0.064 A 
ATOM     61  C   UNL A   1      41.162  28.171  27.873  1.00  0.00     0.173 A 
ATOM     62  C   UNL A   1      39.664  26.656  28.984  1.00  0.00     0.173 A 
ATOM     63  F   UNL A   1      41.851  29.322  27.824  1.00  0.00    -0.203 F 
ATOM     64  C   UNL A   1      41.218  27.311  26.779  1.00  0.00     0.198 A 
ATOM     65  C   UNL A   1      39.748  25.782  27.903  1.00  0.00     0.198 A 
ATOM     66  F   UNL A   1      38.899  26.312  30.031  1.00  0.00    -0.203 F 
ATOM     67  F   UNL A   1      41.941  27.645  25.702  1.00  0.00    -0.200 F 
ATOM     68  C   UNL A   1      40.518  26.113  26.799  1.00  0.00     0.200 A 
ATOM     69  F   UNL A   1      39.084  24.618  27.930  1.00  0.00    -0.200 F 
ATOM     70  F   UNL A   1      40.582  25.281  25.750  1.00  0.00    -0.200 F 
ENDBRANCH  46  60
BRANCH  47  71
ATOM     71  C   UNL A   1      39.471  33.906  36.894  1.00  0.00     0.064 A 
ATOM     72  C   UNL A   1      40.101  35.158  36.956  1.00  0.00     0.173 A 
ATOM     73  C   UNL A   1      38.712  33.505  38.002  1.00  0.00     0.173 A 
ATOM     74  F   UNL A   1      40.854  35.579  35.928  1.00  0.00    -0.203 F 
ATOM     75  C   UNL A   1      39.997  35.961  38.089  1.00  0.00     0.198 A 
ATOM     76  C   UNL A   1      38.584  34.323  39.123  1.00  0.00     0.198 A 
ATOM     77  F   UNL A   1      38.085  32.319  37.993  1.00  0.00    -0.203 F 
ATOM     78  F   UNL A   1      40.653  37.129  38.140  1.00  0.00    -0.200 F 
ATOM     79  C   UNL A   1      39.235  35.546  39.170  1.00  0.00     0.200 A 
ATOM     80  F   UNL A   1      37.833  33.924  40.159  1.00  0.00    -0.200 F 
ATOM     81  F   UNL A   1      39.135  36.320  40.258  1.00  0.00    -0.200 F 
ENDBRANCH  47  71
BRANCH  59  82
ATOM     82  C   UNL A   1      43.880  28.774  35.227  1.00  0.00     0.064 A 
ATOM     83  C   UNL A   1      43.745  27.674  36.087  1.00  0.00     0.173 A 
ATOM     84  C   UNL A   1      45.168  29.289  35.019  1.00  0.00     0.173 A 
ATOM     85  F   UNL A   1      42.532  27.153  36.331  1.00  0.00    -0.203 F 
ATOM     86  C   UNL A   1      44.851  27.131  36.734  1.00  0.00     0.198 A 
ATOM     87  C   UNL A   1      46.277  28.723  35.641  1.00  0.00     0.198 A 
ATOM     88  F   UNL A   1      45.355  30.336  34.199  1.00  0.00    -0.203 F 
ATOM     89  F   UNL A   1      44.690  26.114  37.592  1.00  0.00    -0.200 F 
ATOM     90  C   UNL A   1      46.116  27.650  36.505  1.00  0.00     0.200 A 
ATOM     91  F   UNL A   1      47.501  29.216  35.407  1.00  0.00    -0.200 F 
ATOM     92  F   UNL A   1      47.182  27.121  37.124  1.00  0.00    -0.200 F 
ENDBRANCH  59  82
ENDBRANCH  33  34
ENDBRANCH  25  28
ENDBRANCH  23  24
ENDBRANCH  22  23
ENDBRANCH  21  22
ENDBRANCH   1  21
TORSDOF 16
ENDMDL
