MODEL 1
REMARK VINA RESULT:     -13.0      0.000      0.000
REMARK SMILES C[C@@H](C(=O)NCCCCCCNC(=O)c1ccc(-c2c3nc(c(-c4c(F)c(F)c(F)c(F)c4F)c4ccc([nH]4)c(-c4c(F)c(F)c(F)c(F)c4F)c4nc(c(-c5c(F)c(F)c(F)c(F)c5F)c5ccc2[nH]5)C=C4)C=C3)cc1)c1ccc2c(c1)[nH]c1ccc(Cl)cc12
REMARK SMILES IDX 9 1 8 2 7 3 6 4 5 5 3 6 4 7 2 9 1 10 78 11 79 12 83 13 80 14
REMARK SMILES IDX 82 15 81 16 84 17 91 18 85 19 90 21 86 22 88 23 87 24 89 25
REMARK SMILES IDX 10 26 11 27 12 28 13 29 14 31 15 32 16 33 77 34 17 35 76 36
REMARK SMILES IDX 18 37 19 38 20 39 70 40 21 41 75 42 69 43 71 44 22 45 74 46
REMARK SMILES IDX 68 47 67 48 23 50 55 51 35 52 54 53 36 54 39 55 53 56 72 57
REMARK SMILES IDX 37 58 38 59 52 61 73 62 40 63 24 64 25 65 33 66 26 67 27 68
REMARK SMILES IDX 31 69 34 70 28 71 29 72 32 73 30 74 56 75 57 76 65 77 58 78
REMARK SMILES IDX 59 79 63 80 66 81 60 82 61 83 64 84 62 85 41 86 42 87 50 88
REMARK SMILES IDX 43 89 44 90 48 91 51 92 45 93 46 94 49 95 47 96
REMARK H PARENT 5 8 84 20 12 30 71 49 39 60
REMARK Flexibility Score: inf
ROOT
ATOM      1  C   UNL A   1      31.964  30.477  26.179  1.00  0.00     0.002 C 
ENDROOT
BRANCH   1   2
ATOM      2  C   UNL A   1      32.551  29.585  27.278  1.00  0.00     0.002 C 
BRANCH   2   3
ATOM      3  C   UNL A   1      31.737  28.321  27.597  1.00  0.00     0.021 C 
BRANCH   3   4
ATOM      4  C   UNL A   1      31.462  27.428  26.384  1.00  0.00     0.116 C 
BRANCH   4   5
ATOM      5  N   UNL A   1      30.964  26.145  26.829  1.00  0.00    -0.356 N 
ATOM      6  C   UNL A   1      30.775  25.004  26.109  1.00  0.00     0.227 C 
ATOM      7  O   UNL A   1      29.936  24.212  26.544  1.00  0.00    -0.274 OA
ATOM      8  H   UNL A   1      30.731  26.088  27.784  1.00  0.00     0.163 HD
BRANCH   6   9
ATOM      9  C   UNL A   1      31.633  24.734  24.855  1.00  0.00     0.105 C 
ATOM     10  C   UNL A   1      30.808  23.877  23.889  1.00  0.00     0.023 C 
BRANCH   9  11
ATOM     11  C   UNL A   1      32.999  24.142  25.234  1.00  0.00    -0.034 A 
ATOM     12  C   UNL A   1      34.098  24.926  25.614  1.00  0.00     0.005 A 
ATOM     13  C   UNL A   1      33.159  22.743  25.167  1.00  0.00     0.031 A 
ATOM     14  C   UNL A   1      35.367  24.360  25.828  1.00  0.00     0.011 A 
ATOM     15  C   UNL A   1      34.446  22.213  25.278  1.00  0.00     0.047 A 
ATOM     16  C   UNL A   1      35.556  22.982  25.605  1.00  0.00     0.007 A 
ATOM     17  N   UNL A   1      34.884  20.934  25.043  1.00  0.00    -0.355 N 
ATOM     18  C   UNL A   1      36.693  22.109  25.587  1.00  0.00     0.009 A 
ATOM     19  C   UNL A   1      36.251  20.859  25.152  1.00  0.00     0.047 A 
ATOM     20  H   UNL A   1      34.298  20.173  24.825  1.00  0.00     0.167 HD
ATOM     21  C   UNL A   1      38.070  22.284  25.838  1.00  0.00     0.031 A 
ATOM     22  C   UNL A   1      37.113  19.790  24.889  1.00  0.00     0.028 A 
ATOM     23  C   UNL A   1      38.941  21.214  25.604  1.00  0.00     0.041 A 
ATOM     24  C   UNL A   1      38.475  19.994  25.117  1.00  0.00     0.022 A 
ATOM     25  Cl  UNL A   1      40.624  21.414  25.909  1.00  0.00    -0.084 Cl
ENDBRANCH   9  11
ENDBRANCH   6   9
ENDBRANCH   4   5
ENDBRANCH   3   4
ENDBRANCH   2   3
ENDBRANCH   1   2
BRANCH   1  26
ATOM     26  C   UNL A   1      31.620  31.898  26.622  1.00  0.00     0.021 C 
BRANCH  26  27
ATOM     27  C   UNL A   1      32.745  32.617  27.357  1.00  0.00     0.116 C 
BRANCH  27  28
ATOM     28  N   UNL A   1      32.430  34.012  27.622  1.00  0.00    -0.352 N 
ATOM     29  C   UNL A   1      32.996  34.862  28.546  1.00  0.00     0.251 C 
ATOM     30  H   UNL A   1      31.717  34.401  27.065  1.00  0.00     0.163 HD
ATOM     31  O   UNL A   1      32.514  35.960  28.769  1.00  0.00    -0.269 OA
BRANCH  29  32
ATOM     32  C   UNL A   1      34.192  34.411  29.289  1.00  0.00     0.039 A 
ATOM     33  C   UNL A   1      34.028  33.753  30.511  1.00  0.00     0.014 A 
ATOM     34  C   UNL A   1      35.468  34.611  28.756  1.00  0.00     0.014 A 
ATOM     35  C   UNL A   1      35.144  33.233  31.169  1.00  0.00     0.010 A 
ATOM     36  C   UNL A   1      36.567  34.032  29.376  1.00  0.00     0.010 A 
ATOM     37  C   UNL A   1      36.417  33.338  30.588  1.00  0.00    -0.014 A 
BRANCH  37  38
ATOM     38  C   UNL A   1      37.623  32.747  31.220  1.00  0.00     0.031 A 
ATOM     39  C   UNL A   1      38.314  31.591  30.556  1.00  0.00     0.074 A 
ATOM     40  C   UNL A   1      38.017  33.161  32.439  1.00  0.00     0.049 A 
ATOM     41  N   UNL A   1      39.254  30.807  31.017  1.00  0.00    -0.248 NA
ATOM     42  C   UNL A   1      37.852  31.248  29.202  1.00  0.00     0.031 C 
ATOM     43  C   UNL A   1      37.403  34.247  33.202  1.00  0.00     0.029 A 
ATOM     44  N   UNL A   1      39.009  32.691  33.264  1.00  0.00    -0.354 N 
ATOM     45  C   UNL A   1      39.470  29.859  30.026  1.00  0.00     0.074 A 
ATOM     46  C   UNL A   1      38.533  30.139  28.960  1.00  0.00     0.031 C 
ATOM     47  C   UNL A   1      38.025  34.356  34.386  1.00  0.00     0.029 A 
ATOM     48  C   UNL A   1      39.050  33.319  34.484  1.00  0.00     0.049 A 
ATOM     49  H   UNL A   1      39.629  31.971  33.006  1.00  0.00     0.167 HD
ATOM     50  C   UNL A   1      40.378  28.855  30.005  1.00  0.00     0.037 A 
ATOM     51  C   UNL A   1      39.809  33.072  35.569  1.00  0.00     0.037 A 
ATOM     52  C   UNL A   1      41.326  28.604  31.058  1.00  0.00     0.049 A 
ATOM     53  C   UNL A   1      40.819  31.958  35.524  1.00  0.00     0.074 A 
ATOM     54  C   UNL A   1      42.339  27.662  31.100  1.00  0.00     0.029 A 
ATOM     55  N   UNL A   1      41.373  29.299  32.258  1.00  0.00    -0.354 N 
ATOM     56  N   UNL A   1      41.061  31.104  34.559  1.00  0.00    -0.248 NA
ATOM     57  C   UNL A   1      41.661  31.772  36.713  1.00  0.00     0.031 C 
ATOM     58  C   UNL A   1      42.966  27.754  32.347  1.00  0.00     0.029 A 
ATOM     59  C   UNL A   1      42.381  28.790  33.059  1.00  0.00     0.049 A 
ATOM     60  H   UNL A   1      40.778  30.044  32.504  1.00  0.00     0.167 HD
ATOM     61  C   UNL A   1      42.101  30.302  35.008  1.00  0.00     0.074 A 
ATOM     62  C   UNL A   1      42.444  30.770  36.336  1.00  0.00     0.031 C 
ATOM     63  C   UNL A   1      42.719  29.276  34.374  1.00  0.00     0.037 A 
BRANCH  50  64
ATOM     64  C   UNL A   1      40.371  27.945  28.810  1.00  0.00     0.064 A 
ATOM     65  C   UNL A   1      39.650  26.742  28.799  1.00  0.00     0.173 A 
ATOM     66  C   UNL A   1      41.100  28.280  27.659  1.00  0.00     0.173 A 
ATOM     67  F   UNL A   1      38.943  26.367  29.877  1.00  0.00    -0.203 F 
ATOM     68  C   UNL A   1      39.697  25.886  27.701  1.00  0.00     0.198 A 
ATOM     69  C   UNL A   1      41.118  27.440  26.549  1.00  0.00     0.198 A 
ATOM     70  F   UNL A   1      41.802  29.423  27.612  1.00  0.00    -0.203 F 
ATOM     71  F   UNL A   1      39.057  24.709  27.743  1.00  0.00    -0.200 F 
ATOM     72  C   UNL A   1      40.427  26.238  26.576  1.00  0.00     0.200 A 
ATOM     73  F   UNL A   1      41.813  27.788  25.458  1.00  0.00    -0.200 F 
ATOM     74  F   UNL A   1      40.477  25.412  25.523  1.00  0.00    -0.200 F 
ENDBRANCH  50  64
BRANCH  51  75
ATOM     75  C   UNL A   1      39.639  33.911  36.783  1.00  0.00     0.064 A 
ATOM     76  C   UNL A   1      40.254  35.166  36.882  1.00  0.00     0.173 A 
ATOM     77  C   UNL A   1      38.822  33.496  37.845  1.00  0.00     0.173 A 
ATOM     78  F   UNL A   1      41.057  35.596  35.899  1.00  0.00    -0.203 F 
ATOM     79  C   UNL A   1      40.060  35.974  38.001  1.00  0.00     0.198 A 
ATOM     80  C   UNL A   1      38.609  34.316  38.952  1.00  0.00     0.198 A 
ATOM     81  F   UNL A   1      38.204  32.307  37.793  1.00  0.00    -0.203 F 
ATOM     82  F   UNL A   1      40.679  37.160  38.081  1.00  0.00    -0.200 F 
ATOM     83  C   UNL A   1      39.231  35.553  39.030  1.00  0.00     0.200 A 
ATOM     84  F   UNL A   1      37.795  33.913  39.935  1.00  0.00    -0.200 F 
ATOM     85  F   UNL A   1      39.032  36.339  40.096  1.00  0.00    -0.200 F 
ENDBRANCH  51  75
BRANCH  63  86
ATOM     86  C   UNL A   1      43.862  28.606  35.079  1.00  0.00     0.064 A 
ATOM     87  C   UNL A   1      45.175  29.083  34.975  1.00  0.00     0.173 A 
ATOM     88  C   UNL A   1      43.619  27.525  35.942  1.00  0.00     0.173 A 
ATOM     89  F   UNL A   1      45.459  30.103  34.152  1.00  0.00    -0.203 F 
ATOM     90  C   UNL A   1      46.206  28.499  35.706  1.00  0.00     0.198 A 
ATOM     91  C   UNL A   1      44.647  26.961  36.691  1.00  0.00     0.198 A 
ATOM     92  F   UNL A   1      42.378  27.036  36.079  1.00  0.00    -0.203 F 
ATOM     93  F   UNL A   1      47.460  28.956  35.575  1.00  0.00    -0.200 F 
ATOM     94  C   UNL A   1      45.940  27.448  36.571  1.00  0.00     0.200 A 
ATOM     95  F   UNL A   1      44.385  25.956  37.537  1.00  0.00    -0.200 F 
ATOM     96  F   UNL A   1      46.931  26.904  37.292  1.00  0.00    -0.200 F 
ENDBRANCH  63  86
ENDBRANCH  37  38
ENDBRANCH  29  32
ENDBRANCH  27  28
ENDBRANCH  26  27
ENDBRANCH   1  26
TORSDOF 14
ENDMDL
MODEL 2
REMARK VINA RESULT:     -12.8      1.588      1.911
REMARK SMILES C[C@@H](C(=O)NCCCCCCNC(=O)c1ccc(-c2c3nc(c(-c4c(F)c(F)c(F)c(F)c4F)c4ccc([nH]4)c(-c4c(F)c(F)c(F)c(F)c4F)c4nc(c(-c5c(F)c(F)c(F)c(F)c5F)c5ccc2[nH]5)C=C4)C=C3)cc1)c1ccc2c(c1)[nH]c1ccc(Cl)cc12
REMARK SMILES IDX 9 1 8 2 7 3 6 4 5 5 3 6 4 7 2 9 1 10 78 11 79 12 83 13 80 14
REMARK SMILES IDX 82 15 81 16 84 17 91 18 85 19 90 21 86 22 88 23 87 24 89 25
REMARK SMILES IDX 10 26 11 27 12 28 13 29 14 31 15 32 16 33 77 34 17 35 76 36
REMARK SMILES IDX 18 37 19 38 20 39 70 40 21 41 75 42 69 43 71 44 22 45 74 46
REMARK SMILES IDX 68 47 67 48 23 50 55 51 35 52 54 53 36 54 39 55 53 56 72 57
REMARK SMILES IDX 37 58 38 59 52 61 73 62 40 63 24 64 25 65 33 66 26 67 27 68
REMARK SMILES IDX 31 69 34 70 28 71 29 72 32 73 30 74 56 75 57 76 65 77 58 78
REMARK SMILES IDX 59 79 63 80 66 81 60 82 61 83 64 84 62 85 41 86 42 87 50 88
REMARK SMILES IDX 43 89 44 90 48 91 51 92 45 93 46 94 49 95 47 96
REMARK H PARENT 5 8 84 20 12 30 71 49 39 60
REMARK Flexibility Score: inf
ROOT
ATOM      1  C   UNL A   1      31.913  30.404  26.319  1.00  0.00     0.002 C 
ENDROOT
BRANCH   1   2
ATOM      2  C   UNL A   1      33.303  29.914  26.741  1.00  0.00     0.002 C 
BRANCH   2   3
ATOM      3  C   UNL A   1      33.921  28.842  25.828  1.00  0.00     0.021 C 
BRANCH   3   4
ATOM      4  C   UNL A   1      33.604  27.403  26.245  1.00  0.00     0.116 C 
BRANCH   4   5
ATOM      5  N   UNL A   1      32.403  26.957  25.572  1.00  0.00    -0.356 N 
ATOM      6  C   UNL A   1      32.260  26.482  24.304  1.00  0.00     0.227 C 
ATOM      7  O   UNL A   1      31.145  26.606  23.792  1.00  0.00    -0.274 OA
ATOM      8  H   UNL A   1      31.576  27.004  26.104  1.00  0.00     0.163 HD
BRANCH   6   9
ATOM      9  C   UNL A   1      33.444  25.777  23.608  1.00  0.00     0.105 C 
ATOM     10  C   UNL A   1      33.359  26.075  22.107  1.00  0.00     0.023 C 
BRANCH   9  11
ATOM     11  C   UNL A   1      33.490  24.283  23.965  1.00  0.00    -0.034 A 
ATOM     12  C   UNL A   1      34.456  23.726  24.815  1.00  0.00     0.005 A 
ATOM     13  C   UNL A   1      32.528  23.431  23.386  1.00  0.00     0.031 A 
ATOM     14  C   UNL A   1      34.546  22.337  25.016  1.00  0.00     0.011 A 
ATOM     15  C   UNL A   1      32.698  22.051  23.512  1.00  0.00     0.047 A 
ATOM     16  C   UNL A   1      33.681  21.479  24.310  1.00  0.00     0.007 A 
ATOM     17  N   UNL A   1      32.034  21.031  22.879  1.00  0.00    -0.355 N 
ATOM     18  C   UNL A   1      33.573  20.057  24.158  1.00  0.00     0.009 A 
ATOM     19  C   UNL A   1      32.591  19.816  23.196  1.00  0.00     0.047 A 
ATOM     20  H   UNL A   1      31.263  21.153  22.278  1.00  0.00     0.167 HD
ATOM     21  C   UNL A   1      34.263  18.956  24.703  1.00  0.00     0.031 A 
ATOM     22  C   UNL A   1      32.304  18.542  22.696  1.00  0.00     0.028 A 
ATOM     23  C   UNL A   1      33.968  17.672  24.230  1.00  0.00     0.041 A 
ATOM     24  C   UNL A   1      33.021  17.469  23.229  1.00  0.00     0.022 A 
ATOM     25  Cl  UNL A   1      34.804  16.318  24.889  1.00  0.00    -0.084 Cl
ENDBRANCH   9  11
ENDBRANCH   6   9
ENDBRANCH   4   5
ENDBRANCH   3   4
ENDBRANCH   2   3
ENDBRANCH   1   2
BRANCH   1  26
ATOM     26  C   UNL A   1      31.587  31.838  26.735  1.00  0.00     0.021 C 
BRANCH  26  27
ATOM     27  C   UNL A   1      32.756  32.595  27.355  1.00  0.00     0.116 C 
BRANCH  27  28
ATOM     28  N   UNL A   1      32.437  33.990  27.613  1.00  0.00    -0.352 N 
ATOM     29  C   UNL A   1      33.005  34.848  28.529  1.00  0.00     0.251 C 
ATOM     30  H   UNL A   1      31.721  34.373  27.057  1.00  0.00     0.163 HD
ATOM     31  O   UNL A   1      32.521  35.945  28.748  1.00  0.00    -0.269 OA
BRANCH  29  32
ATOM     32  C   UNL A   1      34.205  34.405  29.269  1.00  0.00     0.039 A 
ATOM     33  C   UNL A   1      34.049  33.748  30.492  1.00  0.00     0.014 A 
ATOM     34  C   UNL A   1      35.479  34.613  28.733  1.00  0.00     0.014 A 
ATOM     35  C   UNL A   1      35.171  33.235  31.148  1.00  0.00     0.010 A 
ATOM     36  C   UNL A   1      36.584  34.042  29.350  1.00  0.00     0.010 A 
ATOM     37  C   UNL A   1      36.441  33.348  30.563  1.00  0.00    -0.014 A 
BRANCH  37  38
ATOM     38  C   UNL A   1      37.653  32.766  31.193  1.00  0.00     0.031 A 
ATOM     39  C   UNL A   1      38.363  31.629  30.516  1.00  0.00     0.074 A 
ATOM     40  C   UNL A   1      38.035  33.168  32.419  1.00  0.00     0.049 A 
ATOM     41  N   UNL A   1      39.312  30.853  30.970  1.00  0.00    -0.248 NA
ATOM     42  C   UNL A   1      37.912  31.299  29.155  1.00  0.00     0.031 C 
ATOM     43  C   UNL A   1      37.402  34.234  33.195  1.00  0.00     0.029 A 
ATOM     44  N   UNL A   1      39.030  32.701  33.242  1.00  0.00    -0.354 N 
ATOM     45  C   UNL A   1      39.547  29.921  29.967  1.00  0.00     0.074 A 
ATOM     46  C   UNL A   1      38.610  30.203  28.900  1.00  0.00     0.031 C 
ATOM     47  C   UNL A   1      38.018  34.335  34.383  1.00  0.00     0.029 A 
ATOM     48  C   UNL A   1      39.056  33.313  34.471  1.00  0.00     0.049 A 
ATOM     49  H   UNL A   1      39.662  31.994  32.977  1.00  0.00     0.167 HD
ATOM     50  C   UNL A   1      40.469  28.931  29.936  1.00  0.00     0.037 A 
ATOM     51  C   UNL A   1      39.814  33.061  35.556  1.00  0.00     0.037 A 
ATOM     52  C   UNL A   1      41.415  28.679  30.990  1.00  0.00     0.049 A 
ATOM     53  C   UNL A   1      40.840  31.962  35.500  1.00  0.00     0.074 A 
ATOM     54  C   UNL A   1      42.442  27.751  31.024  1.00  0.00     0.029 A 
ATOM     55  N   UNL A   1      41.447  29.357  32.200  1.00  0.00    -0.354 N 
ATOM     56  N   UNL A   1      41.100  31.125  34.524  1.00  0.00    -0.248 NA
ATOM     57  C   UNL A   1      41.680  31.771  36.690  1.00  0.00     0.031 C 
ATOM     58  C   UNL A   1      43.062  27.834  32.275  1.00  0.00     0.029 A 
ATOM     59  C   UNL A   1      42.459  28.851  32.999  1.00  0.00     0.049 A 
ATOM     60  H   UNL A   1      40.841  30.090  32.454  1.00  0.00     0.167 HD
ATOM     61  C   UNL A   1      42.149  30.332  34.967  1.00  0.00     0.074 A 
ATOM     62  C   UNL A   1      42.479  30.786  36.303  1.00  0.00     0.031 C 
ATOM     63  C   UNL A   1      42.784  29.324  34.322  1.00  0.00     0.037 A 
BRANCH  50  64
ATOM     64  C   UNL A   1      40.480  28.038  28.729  1.00  0.00     0.064 A 
ATOM     65  C   UNL A   1      39.772  26.827  28.695  1.00  0.00     0.173 A 
ATOM     66  C   UNL A   1      41.215  28.397  27.588  1.00  0.00     0.173 A 
ATOM     67  F   UNL A   1      39.062  26.430  29.763  1.00  0.00    -0.203 F 
ATOM     68  C   UNL A   1      39.837  25.988  27.586  1.00  0.00     0.198 A 
ATOM     69  C   UNL A   1      41.249  27.573  26.467  1.00  0.00     0.198 A 
ATOM     70  F   UNL A   1      41.904  29.547  27.562  1.00  0.00    -0.203 F 
ATOM     71  F   UNL A   1      39.209  24.804  27.607  1.00  0.00    -0.200 F 
ATOM     72  C   UNL A   1      40.571  26.363  26.472  1.00  0.00     0.200 A 
ATOM     73  F   UNL A   1      41.948  27.943  25.386  1.00  0.00    -0.200 F 
ATOM     74  F   UNL A   1      40.637  25.553  25.407  1.00  0.00    -0.200 F 
ENDBRANCH  50  64
BRANCH  51  75
ATOM     75  C   UNL A   1      39.627  33.880  36.780  1.00  0.00     0.064 A 
ATOM     76  C   UNL A   1      40.226  35.140  36.901  1.00  0.00     0.173 A 
ATOM     77  C   UNL A   1      38.808  33.441  37.832  1.00  0.00     0.173 A 
ATOM     78  F   UNL A   1      41.030  35.594  35.930  1.00  0.00    -0.203 F 
ATOM     79  C   UNL A   1      40.016  35.931  38.030  1.00  0.00     0.198 A 
ATOM     80  C   UNL A   1      38.579  34.242  38.949  1.00  0.00     0.198 A 
ATOM     81  F   UNL A   1      38.206  32.245  37.759  1.00  0.00    -0.203 F 
ATOM     82  F   UNL A   1      40.620  37.123  38.132  1.00  0.00    -0.200 F 
ATOM     83  C   UNL A   1      39.186  35.485  39.048  1.00  0.00     0.200 A 
ATOM     84  F   UNL A   1      37.763  33.815  39.921  1.00  0.00    -0.200 F 
ATOM     85  F   UNL A   1      38.971  36.253  40.124  1.00  0.00    -0.200 F 
ENDBRANCH  51  75
BRANCH  63  86
ATOM     86  C   UNL A   1      43.933  28.660  35.022  1.00  0.00     0.064 A 
ATOM     87  C   UNL A   1      45.241  29.154  34.926  1.00  0.00     0.173 A 
ATOM     88  C   UNL A   1      43.701  27.568  35.873  1.00  0.00     0.173 A 
ATOM     89  F   UNL A   1      45.515  30.187  34.115  1.00  0.00    -0.203 F 
ATOM     90  C   UNL A   1      46.278  28.575  35.655  1.00  0.00     0.198 A 
ATOM     91  C   UNL A   1      44.735  27.009  36.619  1.00  0.00     0.198 A 
ATOM     92  F   UNL A   1      42.466  27.062  36.003  1.00  0.00    -0.203 F 
ATOM     93  F   UNL A   1      47.526  29.049  35.531  1.00  0.00    -0.200 F 
ATOM     94  C   UNL A   1      46.022  27.513  36.508  1.00  0.00     0.200 A 
ATOM     95  F   UNL A   1      44.483  25.993  37.454  1.00  0.00    -0.200 F 
ATOM     96  F   UNL A   1      47.017  26.973  37.225  1.00  0.00    -0.200 F 
ENDBRANCH  63  86
ENDBRANCH  37  38
ENDBRANCH  29  32
ENDBRANCH  27  28
ENDBRANCH  26  27
ENDBRANCH   1  26
TORSDOF 14
ENDMDL
MODEL 3
REMARK VINA RESULT:     -12.8      1.563      2.462
REMARK SMILES C[C@@H](C(=O)NCCCCCCNC(=O)c1ccc(-c2c3nc(c(-c4c(F)c(F)c(F)c(F)c4F)c4ccc([nH]4)c(-c4c(F)c(F)c(F)c(F)c4F)c4nc(c(-c5c(F)c(F)c(F)c(F)c5F)c5ccc2[nH]5)C=C4)C=C3)cc1)c1ccc2c(c1)[nH]c1ccc(Cl)cc12
REMARK SMILES IDX 9 1 8 2 7 3 6 4 5 5 3 6 4 7 2 9 1 10 78 11 79 12 83 13 80 14
REMARK SMILES IDX 82 15 81 16 84 17 91 18 85 19 90 21 86 22 88 23 87 24 89 25
REMARK SMILES IDX 10 26 11 27 12 28 13 29 14 31 15 32 16 33 77 34 17 35 76 36
REMARK SMILES IDX 18 37 19 38 20 39 70 40 21 41 75 42 69 43 71 44 22 45 74 46
REMARK SMILES IDX 68 47 67 48 23 50 55 51 35 52 54 53 36 54 39 55 53 56 72 57
REMARK SMILES IDX 37 58 38 59 52 61 73 62 40 63 24 64 25 65 33 66 26 67 27 68
REMARK SMILES IDX 31 69 34 70 28 71 29 72 32 73 30 74 56 75 57 76 65 77 58 78
REMARK SMILES IDX 59 79 63 80 66 81 60 82 61 83 64 84 62 85 41 86 42 87 50 88
REMARK SMILES IDX 43 89 44 90 48 91 51 92 45 93 46 94 49 95 47 96
REMARK H PARENT 5 8 84 20 12 30 71 49 39 60
REMARK Flexibility Score: inf
ROOT
ATOM      1  C   UNL A   1      32.050  30.265  26.145  1.00  0.00     0.002 C 
ENDROOT
BRANCH   1   2
ATOM      2  C   UNL A   1      32.415  29.274  27.255  1.00  0.00     0.002 C 
BRANCH   2   3
ATOM      3  C   UNL A   1      31.624  27.956  27.239  1.00  0.00     0.021 C 
BRANCH   3   4
ATOM      4  C   UNL A   1      32.117  26.941  26.203  1.00  0.00     0.116 C 
BRANCH   4   5
ATOM      5  N   UNL A   1      30.989  26.413  25.467  1.00  0.00    -0.356 N 
ATOM      6  C   UNL A   1      30.933  25.998  24.171  1.00  0.00     0.227 C 
ATOM      7  O   UNL A   1      29.826  26.036  23.629  1.00  0.00    -0.274 OA
ATOM      8  H   UNL A   1      30.147  26.345  25.972  1.00  0.00     0.163 HD
BRANCH   6   9
ATOM      9  C   UNL A   1      32.203  25.458  23.479  1.00  0.00     0.105 C 
ATOM     10  C   UNL A   1      32.080  25.733  21.977  1.00  0.00     0.023 C 
BRANCH   9  11
ATOM     11  C   UNL A   1      32.453  23.988  23.846  1.00  0.00    -0.034 A 
ATOM     12  C   UNL A   1      33.353  23.587  24.844  1.00  0.00     0.005 A 
ATOM     13  C   UNL A   1      31.764  22.995  23.120  1.00  0.00     0.031 A 
ATOM     14  C   UNL A   1      33.652  22.231  25.063  1.00  0.00     0.011 A 
ATOM     15  C   UNL A   1      32.152  21.664  23.278  1.00  0.00     0.047 A 
ATOM     16  C   UNL A   1      33.078  21.252  24.229  1.00  0.00     0.007 A 
ATOM     17  N   UNL A   1      31.791  20.559  22.549  1.00  0.00    -0.355 N 
ATOM     18  C   UNL A   1      33.249  19.838  24.067  1.00  0.00     0.009 A 
ATOM     19  C   UNL A   1      32.494  19.453  22.958  1.00  0.00     0.047 A 
ATOM     20  H   UNL A   1      31.118  20.559  21.829  1.00  0.00     0.167 HD
ATOM     21  C   UNL A   1      34.026  18.861  24.722  1.00  0.00     0.031 A 
ATOM     22  C   UNL A   1      32.522  18.161  22.423  1.00  0.00     0.028 A 
ATOM     23  C   UNL A   1      34.043  17.557  24.213  1.00  0.00     0.041 A 
ATOM     24  C   UNL A   1      33.321  17.216  23.071  1.00  0.00     0.022 A 
ATOM     25  Cl  UNL A   1      34.986  16.354  25.005  1.00  0.00    -0.084 Cl
ENDBRANCH   9  11
ENDBRANCH   6   9
ENDBRANCH   4   5
ENDBRANCH   3   4
ENDBRANCH   2   3
ENDBRANCH   1   2
BRANCH   1  26
ATOM     26  C   UNL A   1      31.688  31.668  26.631  1.00  0.00     0.021 C 
BRANCH  26  27
ATOM     27  C   UNL A   1      32.850  32.439  27.248  1.00  0.00     0.116 C 
BRANCH  27  28
ATOM     28  N   UNL A   1      32.503  33.821  27.540  1.00  0.00    -0.352 N 
ATOM     29  C   UNL A   1      33.030  34.656  28.500  1.00  0.00     0.251 C 
ATOM     30  H   UNL A   1      31.798  34.212  26.976  1.00  0.00     0.163 HD
ATOM     31  O   UNL A   1      32.524  35.739  28.738  1.00  0.00    -0.269 OA
BRANCH  29  32
ATOM     32  C   UNL A   1      34.215  34.207  29.261  1.00  0.00     0.039 A 
ATOM     33  C   UNL A   1      34.033  33.458  30.427  1.00  0.00     0.014 A 
ATOM     34  C   UNL A   1      35.501  34.499  28.799  1.00  0.00     0.014 A 
ATOM     35  C   UNL A   1      35.145  32.942  31.096  1.00  0.00     0.010 A 
ATOM     36  C   UNL A   1      36.600  33.927  29.424  1.00  0.00     0.010 A 
ATOM     37  C   UNL A   1      36.434  33.143  30.578  1.00  0.00    -0.014 A 
BRANCH  37  38
ATOM     38  C   UNL A   1      37.640  32.562  31.220  1.00  0.00     0.031 A 
ATOM     39  C   UNL A   1      38.346  31.413  30.561  1.00  0.00     0.074 A 
ATOM     40  C   UNL A   1      38.020  32.979  32.442  1.00  0.00     0.049 A 
ATOM     41  N   UNL A   1      39.289  30.637  31.030  1.00  0.00    -0.248 NA
ATOM     42  C   UNL A   1      37.899  31.067  29.203  1.00  0.00     0.031 C 
ATOM     43  C   UNL A   1      37.390  34.058  33.202  1.00  0.00     0.029 A 
ATOM     44  N   UNL A   1      39.009  32.517  33.276  1.00  0.00    -0.354 N 
ATOM     45  C   UNL A   1      39.522  29.692  30.040  1.00  0.00     0.074 A 
ATOM     46  C   UNL A   1      38.591  29.964  28.966  1.00  0.00     0.031 C 
ATOM     47  C   UNL A   1      38.002  34.172  34.391  1.00  0.00     0.029 A 
ATOM     48  C   UNL A   1      39.034  33.145  34.496  1.00  0.00     0.049 A 
ATOM     49  H   UNL A   1      39.638  31.803  33.022  1.00  0.00     0.167 HD
ATOM     50  C   UNL A   1      40.439  28.695  30.025  1.00  0.00     0.037 A 
ATOM     51  C   UNL A   1      39.787  32.903  35.587  1.00  0.00     0.037 A 
ATOM     52  C   UNL A   1      41.380  28.452  31.086  1.00  0.00     0.049 A 
ATOM     53  C   UNL A   1      40.807  31.798  35.550  1.00  0.00     0.074 A 
ATOM     54  C   UNL A   1      42.402  27.520  31.136  1.00  0.00     0.029 A 
ATOM     55  N   UNL A   1      41.412  29.147  32.287  1.00  0.00    -0.354 N 
ATOM     56  N   UNL A   1      41.065  30.947  34.587  1.00  0.00    -0.248 NA
ATOM     57  C   UNL A   1      41.641  31.619  36.746  1.00  0.00     0.031 C 
ATOM     58  C   UNL A   1      43.018  27.616  32.389  1.00  0.00     0.029 A 
ATOM     59  C   UNL A   1      42.418  28.646  33.096  1.00  0.00     0.049 A 
ATOM     60  H   UNL A   1      40.808  29.886  32.529  1.00  0.00     0.167 HD
ATOM     61  C   UNL A   1      42.108  30.154  35.044  1.00  0.00     0.074 A 
ATOM     62  C   UNL A   1      42.436  30.624  36.375  1.00  0.00     0.031 C 
ATOM     63  C   UNL A   1      42.740  29.134  34.414  1.00  0.00     0.037 A 
BRANCH  50  64
ATOM     64  C   UNL A   1      40.450  27.787  28.830  1.00  0.00     0.064 A 
ATOM     65  C   UNL A   1      41.226  28.064  27.695  1.00  0.00     0.173 A 
ATOM     66  C   UNL A   1      39.670  26.620  28.819  1.00  0.00     0.173 A 
ATOM     67  F   UNL A   1      41.983  29.173  27.648  1.00  0.00    -0.203 F 
ATOM     68  C   UNL A   1      41.184  27.237  26.576  1.00  0.00     0.198 A 
ATOM     69  C   UNL A   1      39.657  25.775  27.712  1.00  0.00     0.198 A 
ATOM     70  F   UNL A   1      38.915  26.301  29.881  1.00  0.00    -0.203 F 
ATOM     71  F   UNL A   1      41.879  27.562  25.477  1.00  0.00    -0.200 F 
ATOM     72  C   UNL A   1      40.403  26.091  26.588  1.00  0.00     0.200 A 
ATOM     73  F   UNL A   1      38.913  24.661  27.730  1.00  0.00    -0.200 F 
ATOM     74  F   UNL A   1      40.359  25.298  25.509  1.00  0.00    -0.200 F 
ENDBRANCH  50  64
BRANCH  51  75
ATOM     75  C   UNL A   1      39.599  33.740  36.800  1.00  0.00     0.064 A 
ATOM     76  C   UNL A   1      40.220  34.990  36.915  1.00  0.00     0.173 A 
ATOM     77  C   UNL A   1      38.759  33.328  37.846  1.00  0.00     0.173 A 
ATOM     78  F   UNL A   1      41.046  35.418  35.949  1.00  0.00    -0.203 F 
ATOM     79  C   UNL A   1      40.011  35.797  38.032  1.00  0.00     0.198 A 
ATOM     80  C   UNL A   1      38.531  34.146  38.951  1.00  0.00     0.198 A 
ATOM     81  F   UNL A   1      38.135  32.142  37.778  1.00  0.00    -0.203 F 
ATOM     82  F   UNL A   1      40.636  36.978  38.128  1.00  0.00    -0.200 F 
ATOM     83  C   UNL A   1      39.160  35.378  39.044  1.00  0.00     0.200 A 
ATOM     84  F   UNL A   1      37.695  33.745  39.917  1.00  0.00    -0.200 F 
ATOM     85  F   UNL A   1      38.946  36.162  40.109  1.00  0.00    -0.200 F 
ENDBRANCH  51  75
BRANCH  63  86
ATOM     86  C   UNL A   1      43.883  28.473  35.128  1.00  0.00     0.064 A 
ATOM     87  C   UNL A   1      43.695  27.341  35.931  1.00  0.00     0.173 A 
ATOM     88  C   UNL A   1      45.196  28.930  34.928  1.00  0.00     0.173 A 
ATOM     89  F   UNL A   1      42.459  26.876  36.164  1.00  0.00    -0.203 F 
ATOM     90  C   UNL A   1      44.781  26.691  36.513  1.00  0.00     0.198 A 
ATOM     91  C   UNL A   1      46.279  28.262  35.489  1.00  0.00     0.198 A 
ATOM     92  F   UNL A   1      45.427  30.007  34.163  1.00  0.00    -0.203 F 
ATOM     93  F   UNL A   1      44.577  25.622  37.298  1.00  0.00    -0.200 F 
ATOM     94  C   UNL A   1      46.071  27.144  36.283  1.00  0.00     0.200 A 
ATOM     95  F   UNL A   1      47.526  28.693  35.253  1.00  0.00    -0.200 F 
ATOM     96  F   UNL A   1      47.115  26.503  36.825  1.00  0.00    -0.200 F 
ENDBRANCH  63  86
ENDBRANCH  37  38
ENDBRANCH  29  32
ENDBRANCH  27  28
ENDBRANCH  26  27
ENDBRANCH   1  26
TORSDOF 14
ENDMDL
