MODEL 1
REMARK VINA RESULT:     -11.1      0.000      0.000
REMARK SMILES O=C(CCCCCN1C(=O)/C(=C/c2cccc(O)c2)SC1=S)NCCCCCCNC(=O)c1ccc(-c2c3nc(c(-c4c(F)c(F)c(F)c(F)c4F)c4ccc([nH]4)c(-c4c(F)c(F)c(F)c(F)c4F)c4nc(c(-c5c(F)c(F)c(F)c(F)c5F)c5ccc2[nH]5)C=C4)C=C3)cc1
REMARK SMILES IDX 24 1 23 2 1 3 2 4 3 6 4 7 5 8 6 9 7 10 8 11 9 12 21 13 10 14
REMARK SMILES IDX 11 15 20 16 22 17 12 18 13 19 14 20 19 21 15 22 17 23 16 24
REMARK SMILES IDX 18 25 25 27 26 28 27 29 28 30 29 31 30 32 31 33 32 35 33 36
REMARK SMILES IDX 34 37 95 38 35 39 94 40 36 41 37 42 38 43 88 44 39 45 93 46
REMARK SMILES IDX 87 47 89 48 40 49 92 50 86 51 85 52 41 54 73 55 53 56 72 57
REMARK SMILES IDX 54 58 57 59 71 60 90 61 55 62 56 63 70 65 91 66 58 67 42 68
REMARK SMILES IDX 43 69 51 70 44 71 45 72 49 73 52 74 46 75 47 76 50 77 48 78
REMARK SMILES IDX 74 79 75 80 83 81 76 82 77 83 81 84 84 85 78 86 79 87 82 88
REMARK SMILES IDX 80 89 59 90 60 91 68 92 61 93 62 94 66 95 69 96 63 97 64 98
REMARK SMILES IDX 67 99 65 100
REMARK H PARENT 23 5 18 26 30 34 89 53 57 64
REMARK Flexibility Score: inf
ROOT
ATOM      1  C   UNL A   1      35.627  30.735  28.326  1.00  0.00     0.116 C 
ENDROOT
BRANCH   1   2
ATOM      2  N   UNL A   1      34.210  30.558  28.111  1.00  0.00    -0.356 N 
ATOM      3  O   UNL A   1      34.358  29.054  26.384  1.00  0.00    -0.275 OA
ATOM      4  C   UNL A   1      33.684  29.710  27.169  1.00  0.00     0.219 C 
ATOM      5  H   UNL A   1      33.586  31.072  28.671  1.00  0.00     0.163 HD
BRANCH   4   6
ATOM      6  C   UNL A   1      32.171  29.666  27.185  1.00  0.00     0.100 C 
BRANCH   6   7
ATOM      7  C   UNL A   1      31.617  28.241  27.175  1.00  0.00     0.010 C 
BRANCH   7   8
ATOM      8  C   UNL A   1      31.407  27.582  25.804  1.00  0.00     0.002 C 
BRANCH   8   9
ATOM      9  C   UNL A   1      31.719  26.083  25.717  1.00  0.00     0.022 C 
BRANCH   9  10
ATOM     10  C   UNL A   1      30.758  25.264  24.838  1.00  0.00     0.127 C 
BRANCH  10  11
ATOM     11  N   UNL A   1      31.376  24.039  24.327  1.00  0.00    -0.293 N 
ATOM     12  C   UNL A   1      31.132  22.849  25.000  1.00  0.00     0.266 C 
ATOM     13  C   UNL A   1      32.182  23.956  23.210  1.00  0.00     0.148 C 
ATOM     14  O   UNL A   1      30.371  22.698  25.943  1.00  0.00    -0.268 OA
ATOM     15  C   UNL A   1      31.961  21.758  24.427  1.00  0.00     0.081 C 
ATOM     16  S   UNL A   1      32.840  22.334  23.069  1.00  0.00    -0.054 SA
ATOM     17  S   UNL A   1      32.544  25.141  22.094  1.00  0.00    -0.052 S 
ATOM     18  C   UNL A   1      31.998  20.532  24.966  1.00  0.00     0.029 C 
BRANCH  18  19
ATOM     19  C   UNL A   1      32.877  19.455  24.503  1.00  0.00    -0.021 A 
ATOM     20  C   UNL A   1      32.388  18.481  23.619  1.00  0.00     0.008 A 
ATOM     21  C   UNL A   1      34.197  19.379  24.949  1.00  0.00     0.054 A 
ATOM     22  C   UNL A   1      33.206  17.428  23.208  1.00  0.00     0.004 A 
ATOM     23  C   UNL A   1      35.005  18.325  24.531  1.00  0.00     0.116 A 
ATOM     24  C   UNL A   1      34.520  17.346  23.667  1.00  0.00     0.046 A 
BRANCH  23  25
ATOM     25  O   UNL A   1      36.285  18.281  25.001  1.00  0.00    -0.508 OA
ATOM     26  H   UNL A   1      36.813  19.054  24.992  1.00  0.00     0.293 HD
ENDBRANCH  23  25
ENDBRANCH  18  19
ENDBRANCH  10  11
ENDBRANCH   9  10
ENDBRANCH   8   9
ENDBRANCH   7   8
ENDBRANCH   6   7
ENDBRANCH   4   6
ENDBRANCH   1   2
BRANCH   1  27
ATOM     27  C   UNL A   1      36.046  32.167  27.998  1.00  0.00     0.021 C 
BRANCH  27  28
ATOM     28  C   UNL A   1      35.379  33.248  28.864  1.00  0.00     0.002 C 
BRANCH  28  29
ATOM     29  C   UNL A   1      35.210  34.614  28.195  1.00  0.00     0.002 C 
BRANCH  29  30
ATOM     30  C   UNL A   1      34.056  35.459  28.735  1.00  0.00     0.021 C 
BRANCH  30  31
ATOM     31  C   UNL A   1      33.096  34.715  29.658  1.00  0.00     0.116 C 
BRANCH  31  32
ATOM     32  N   UNL A   1      32.483  35.587  30.649  1.00  0.00    -0.352 N 
ATOM     33  C   UNL A   1      32.793  35.740  31.979  1.00  0.00     0.251 C 
ATOM     34  H   UNL A   1      31.743  36.147  30.319  1.00  0.00     0.163 HD
ATOM     35  O   UNL A   1      32.072  36.407  32.713  1.00  0.00    -0.269 OA
BRANCH  33  36
ATOM     36  C   UNL A   1      33.986  35.066  32.533  1.00  0.00     0.039 A 
ATOM     37  C   UNL A   1      33.838  33.804  33.116  1.00  0.00     0.014 A 
ATOM     38  C   UNL A   1      35.248  35.662  32.457  1.00  0.00     0.014 A 
ATOM     39  C   UNL A   1      34.967  33.108  33.552  1.00  0.00     0.010 A 
ATOM     40  C   UNL A   1      36.379  34.937  32.822  1.00  0.00     0.010 A 
ATOM     41  C   UNL A   1      36.250  33.650  33.367  1.00  0.00    -0.014 A 
BRANCH  41  42
ATOM     42  C   UNL A   1      37.470  32.875  33.712  1.00  0.00     0.031 A 
ATOM     43  C   UNL A   1      38.226  33.171  34.975  1.00  0.00     0.074 A 
ATOM     44  C   UNL A   1      37.939  31.955  32.846  1.00  0.00     0.049 A 
ATOM     45  N   UNL A   1      39.352  32.658  35.407  1.00  0.00    -0.248 NA
ATOM     46  C   UNL A   1      37.657  34.201  35.858  1.00  0.00     0.031 C 
ATOM     47  C   UNL A   1      37.325  31.614  31.562  1.00  0.00     0.029 A 
ATOM     48  N   UNL A   1      39.051  31.153  32.905  1.00  0.00    -0.354 N 
ATOM     49  C   UNL A   1      39.628  33.309  36.602  1.00  0.00     0.074 A 
ATOM     50  C   UNL A   1      38.586  34.292  36.799  1.00  0.00     0.031 C 
ATOM     51  C   UNL A   1      38.059  30.665  30.962  1.00  0.00     0.029 A 
ATOM     52  C   UNL A   1      39.219  30.361  31.795  1.00  0.00     0.049 A 
ATOM     53  H   UNL A   1      39.670  31.145  33.671  1.00  0.00     0.167 HD
ATOM     54  C   UNL A   1      40.647  33.088  37.468  1.00  0.00     0.037 A 
ATOM     55  C   UNL A   1      40.204  29.501  31.474  1.00  0.00     0.037 A 
ATOM     56  C   UNL A   1      41.676  32.100  37.272  1.00  0.00     0.049 A 
ATOM     57  C   UNL A   1      41.337  29.288  32.441  1.00  0.00     0.074 A 
ATOM     58  C   UNL A   1      42.715  31.758  38.119  1.00  0.00     0.029 A 
ATOM     59  N   UNL A   1      41.804  31.306  36.142  1.00  0.00    -0.354 N 
ATOM     60  N   UNL A   1      41.545  29.851  33.607  1.00  0.00    -0.248 NA
ATOM     61  C   UNL A   1      42.368  28.317  32.052  1.00  0.00     0.031 C 
ATOM     62  C   UNL A   1      43.507  30.800  37.476  1.00  0.00     0.029 A 
ATOM     63  C   UNL A   1      42.925  30.498  36.255  1.00  0.00     0.049 A 
ATOM     64  H   UNL A   1      41.189  31.314  35.373  1.00  0.00     0.167 HD
ATOM     65  C   UNL A   1      42.714  29.287  34.100  1.00  0.00     0.074 A 
ATOM     66  C   UNL A   1      43.161  28.324  33.115  1.00  0.00     0.031 C 
ATOM     67  C   UNL A   1      43.360  29.545  35.264  1.00  0.00     0.037 A 
BRANCH  54  68
ATOM     68  C   UNL A   1      40.699  33.938  38.707  1.00  0.00     0.064 A 
ATOM     69  C   UNL A   1      40.006  33.586  39.876  1.00  0.00     0.173 A 
ATOM     70  C   UNL A   1      41.472  35.110  38.734  1.00  0.00     0.173 A 
ATOM     71  F   UNL A   1      39.245  32.480  39.902  1.00  0.00    -0.203 F 
ATOM     72  C   UNL A   1      40.051  34.393  41.010  1.00  0.00     0.198 A 
ATOM     73  C   UNL A   1      41.544  35.896  39.882  1.00  0.00     0.198 A 
ATOM     74  F   UNL A   1      42.162  35.491  37.649  1.00  0.00    -0.203 F 
ATOM     75  F   UNL A   1      39.332  34.066  42.091  1.00  0.00    -0.200 F 
ATOM     76  C   UNL A   1      40.826  35.543  41.013  1.00  0.00     0.200 A 
ATOM     77  F   UNL A   1      42.306  36.999  39.890  1.00  0.00    -0.200 F 
ATOM     78  F   UNL A   1      40.872  36.317  42.107  1.00  0.00    -0.200 F 
ENDBRANCH  54  68
BRANCH  55  79
ATOM     79  C   UNL A   1      40.157  28.776  30.177  1.00  0.00     0.064 A 
ATOM     80  C   UNL A   1      40.767  29.303  29.030  1.00  0.00     0.173 A 
ATOM     81  C   UNL A   1      39.509  27.538  30.059  1.00  0.00     0.173 A 
ATOM     82  F   UNL A   1      41.382  30.494  29.087  1.00  0.00    -0.203 F 
ATOM     83  C   UNL A   1      40.716  28.629  27.813  1.00  0.00     0.198 A 
ATOM     84  C   UNL A   1      39.485  26.849  28.849  1.00  0.00     0.198 A 
ATOM     85  F   UNL A   1      38.915  26.986  31.128  1.00  0.00    -0.203 F 
ATOM     86  F   UNL A   1      41.268  29.176  26.722  1.00  0.00    -0.200 F 
ATOM     87  C   UNL A   1      40.081  27.398  27.724  1.00  0.00     0.200 A 
ATOM     88  F   UNL A   1      38.886  25.652  28.772  1.00  0.00    -0.200 F 
ATOM     89  F   UNL A   1      40.039  26.746  26.555  1.00  0.00    -0.200 F 
ENDBRANCH  55  79
BRANCH  67  90
ATOM     90  C   UNL A   1      44.607  28.757  35.551  1.00  0.00     0.064 A 
ATOM     91  C   UNL A   1      45.876  29.223  35.181  1.00  0.00     0.173 A 
ATOM     92  C   UNL A   1      44.534  27.540  36.247  1.00  0.00     0.173 A 
ATOM     93  F   UNL A   1      46.002  30.373  34.501  1.00  0.00    -0.203 F 
ATOM     94  C   UNL A   1      47.023  28.490  35.475  1.00  0.00     0.198 A 
ATOM     95  C   UNL A   1      45.684  26.826  36.569  1.00  0.00     0.198 A 
ATOM     96  F   UNL A   1      43.344  27.050  36.630  1.00  0.00    -0.203 F 
ATOM     97  F   UNL A   1      48.222  28.932  35.069  1.00  0.00    -0.200 F 
ATOM     98  C   UNL A   1      46.927  27.298  36.177  1.00  0.00     0.200 A 
ATOM     99  F   UNL A   1      45.590  25.681  37.261  1.00  0.00    -0.200 F 
ATOM    100  F   UNL A   1      48.033  26.599  36.469  1.00  0.00    -0.200 F 
ENDBRANCH  67  90
ENDBRANCH  41  42
ENDBRANCH  33  36
ENDBRANCH  31  32
ENDBRANCH  30  31
ENDBRANCH  29  30
ENDBRANCH  28  29
ENDBRANCH  27  28
ENDBRANCH   1  27
TORSDOF 20
ENDMDL
MODEL 2
REMARK VINA RESULT:     -11.0      1.343      2.289
REMARK SMILES O=C(CCCCCN1C(=O)/C(=C/c2cccc(O)c2)SC1=S)NCCCCCCNC(=O)c1ccc(-c2c3nc(c(-c4c(F)c(F)c(F)c(F)c4F)c4ccc([nH]4)c(-c4c(F)c(F)c(F)c(F)c4F)c4nc(c(-c5c(F)c(F)c(F)c(F)c5F)c5ccc2[nH]5)C=C4)C=C3)cc1
REMARK SMILES IDX 24 1 23 2 1 3 2 4 3 6 4 7 5 8 6 9 7 10 8 11 9 12 21 13 10 14
REMARK SMILES IDX 11 15 20 16 22 17 12 18 13 19 14 20 19 21 15 22 17 23 16 24
REMARK SMILES IDX 18 25 25 27 26 28 27 29 28 30 29 31 30 32 31 33 32 35 33 36
REMARK SMILES IDX 34 37 95 38 35 39 94 40 36 41 37 42 38 43 88 44 39 45 93 46
REMARK SMILES IDX 87 47 89 48 40 49 92 50 86 51 85 52 41 54 73 55 53 56 72 57
REMARK SMILES IDX 54 58 57 59 71 60 90 61 55 62 56 63 70 65 91 66 58 67 42 68
REMARK SMILES IDX 43 69 51 70 44 71 45 72 49 73 52 74 46 75 47 76 50 77 48 78
REMARK SMILES IDX 74 79 75 80 83 81 76 82 77 83 81 84 84 85 78 86 79 87 82 88
REMARK SMILES IDX 80 89 59 90 60 91 68 92 61 93 62 94 66 95 69 96 63 97 64 98
REMARK SMILES IDX 67 99 65 100
REMARK H PARENT 23 5 18 26 30 34 89 53 57 64
REMARK Flexibility Score: inf
ROOT
ATOM      1  C   UNL A   1      35.076  30.631  28.534  1.00  0.00     0.116 C 
ENDROOT
BRANCH   1   2
ATOM      2  N   UNL A   1      33.830  30.702  27.808  1.00  0.00    -0.356 N 
ATOM      3  O   UNL A   1      34.243  28.986  26.341  1.00  0.00    -0.275 OA
ATOM      4  C   UNL A   1      33.500  29.856  26.780  1.00  0.00     0.219 C 
ATOM      5  H   UNL A   1      33.180  31.396  28.064  1.00  0.00     0.163 HD
BRANCH   4   6
ATOM      6  C   UNL A   1      32.113  30.105  26.224  1.00  0.00     0.100 C 
BRANCH   6   7
ATOM      7  C   UNL A   1      31.531  28.886  25.509  1.00  0.00     0.010 C 
BRANCH   7   8
ATOM      8  C   UNL A   1      30.858  29.128  24.150  1.00  0.00     0.002 C 
BRANCH   8   9
ATOM      9  C   UNL A   1      31.214  28.141  23.032  1.00  0.00     0.022 C 
BRANCH   9  10
ATOM     10  C   UNL A   1      30.731  26.697  23.254  1.00  0.00     0.127 C 
BRANCH  10  11
ATOM     11  N   UNL A   1      31.840  25.747  23.355  1.00  0.00    -0.293 N 
ATOM     12  C   UNL A   1      32.142  25.218  24.603  1.00  0.00     0.266 C 
ATOM     13  C   UNL A   1      32.618  25.311  22.302  1.00  0.00     0.148 C 
ATOM     14  O   UNL A   1      31.512  25.399  25.633  1.00  0.00    -0.268 OA
ATOM     15  C   UNL A   1      33.381  24.402  24.527  1.00  0.00     0.081 C 
ATOM     16  S   UNL A   1      33.934  24.317  22.904  1.00  0.00    -0.054 SA
ATOM     17  S   UNL A   1      32.431  25.613  20.672  1.00  0.00    -0.052 S 
ATOM     18  C   UNL A   1      33.953  23.871  25.616  1.00  0.00     0.029 C 
BRANCH  18  19
ATOM     19  C   UNL A   1      35.228  23.150  25.607  1.00  0.00    -0.021 A 
ATOM     20  C   UNL A   1      36.430  23.846  25.800  1.00  0.00     0.008 A 
ATOM     21  C   UNL A   1      35.258  21.771  25.392  1.00  0.00     0.054 A 
ATOM     22  C   UNL A   1      37.651  23.173  25.751  1.00  0.00     0.004 A 
ATOM     23  C   UNL A   1      36.482  21.109  25.346  1.00  0.00     0.116 A 
ATOM     24  C   UNL A   1      37.680  21.798  25.519  1.00  0.00     0.046 A 
BRANCH  23  25
ATOM     25  O   UNL A   1      36.468  19.763  25.119  1.00  0.00    -0.508 OA
ATOM     26  H   UNL A   1      36.186  19.432  24.291  1.00  0.00     0.293 HD
ENDBRANCH  23  25
ENDBRANCH  18  19
ENDBRANCH  10  11
ENDBRANCH   9  10
ENDBRANCH   8   9
ENDBRANCH   7   8
ENDBRANCH   6   7
ENDBRANCH   4   6
ENDBRANCH   1   2
BRANCH   1  27
ATOM     27  C   UNL A   1      36.074  31.653  27.991  1.00  0.00     0.021 C 
BRANCH  27  28
ATOM     28  C   UNL A   1      35.593  33.112  28.039  1.00  0.00     0.002 C 
BRANCH  28  29
ATOM     29  C   UNL A   1      34.921  33.538  29.347  1.00  0.00     0.002 C 
BRANCH  29  30
ATOM     30  C   UNL A   1      33.598  34.287  29.178  1.00  0.00     0.021 C 
BRANCH  30  31
ATOM     31  C   UNL A   1      33.630  35.748  29.612  1.00  0.00     0.116 C 
BRANCH  31  32
ATOM     32  N   UNL A   1      32.664  36.043  30.660  1.00  0.00    -0.352 N 
ATOM     33  C   UNL A   1      32.682  35.675  31.984  1.00  0.00     0.251 C 
ATOM     34  H   UNL A   1      31.889  36.582  30.380  1.00  0.00     0.163 HD
ATOM     35  O   UNL A   1      31.706  35.875  32.698  1.00  0.00    -0.269 OA
BRANCH  33  36
ATOM     36  C   UNL A   1      33.875  35.002  32.538  1.00  0.00     0.039 A 
ATOM     37  C   UNL A   1      33.745  33.705  33.043  1.00  0.00     0.014 A 
ATOM     38  C   UNL A   1      35.121  35.635  32.539  1.00  0.00     0.014 A 
ATOM     39  C   UNL A   1      34.878  33.015  33.477  1.00  0.00     0.010 A 
ATOM     40  C   UNL A   1      36.260  34.920  32.900  1.00  0.00     0.010 A 
ATOM     41  C   UNL A   1      36.150  33.601  33.366  1.00  0.00    -0.014 A 
BRANCH  41  42
ATOM     42  C   UNL A   1      37.380  32.840  33.708  1.00  0.00     0.031 A 
ATOM     43  C   UNL A   1      38.141  33.149  34.964  1.00  0.00     0.074 A 
ATOM     44  C   UNL A   1      37.854  31.921  32.843  1.00  0.00     0.049 A 
ATOM     45  N   UNL A   1      39.274  32.650  35.392  1.00  0.00    -0.248 NA
ATOM     46  C   UNL A   1      37.566  34.176  35.847  1.00  0.00     0.031 C 
ATOM     47  C   UNL A   1      37.235  31.569  31.563  1.00  0.00     0.029 A 
ATOM     48  N   UNL A   1      38.975  31.130  32.899  1.00  0.00    -0.354 N 
ATOM     49  C   UNL A   1      39.550  33.308  36.583  1.00  0.00     0.074 A 
ATOM     50  C   UNL A   1      38.499  34.281  36.782  1.00  0.00     0.031 C 
ATOM     51  C   UNL A   1      37.976  30.624  30.963  1.00  0.00     0.029 A 
ATOM     52  C   UNL A   1      39.144  30.336  31.791  1.00  0.00     0.049 A 
ATOM     53  H   UNL A   1      39.598  31.132  33.661  1.00  0.00     0.167 HD
ATOM     54  C   UNL A   1      40.576  33.101  37.444  1.00  0.00     0.037 A 
ATOM     55  C   UNL A   1      40.136  29.485  31.467  1.00  0.00     0.037 A 
ATOM     56  C   UNL A   1      41.615  32.123  37.246  1.00  0.00     0.049 A 
ATOM     57  C   UNL A   1      41.276  29.288  32.429  1.00  0.00     0.074 A 
ATOM     58  C   UNL A   1      42.662  31.795  38.088  1.00  0.00     0.029 A 
ATOM     59  N   UNL A   1      41.744  31.325  36.118  1.00  0.00    -0.354 N 
ATOM     60  N   UNL A   1      41.486  29.857  33.591  1.00  0.00    -0.248 NA
ATOM     61  C   UNL A   1      42.315  28.325  32.038  1.00  0.00     0.031 C 
ATOM     62  C   UNL A   1      43.460  30.843  37.444  1.00  0.00     0.029 A 
ATOM     63  C   UNL A   1      42.874  30.530  36.229  1.00  0.00     0.049 A 
ATOM     64  H   UNL A   1      41.125  31.324  35.353  1.00  0.00     0.167 HD
ATOM     65  C   UNL A   1      42.663  29.308  34.080  1.00  0.00     0.074 A 
ATOM     66  C   UNL A   1      43.114  28.346  33.095  1.00  0.00     0.031 C 
ATOM     67  C   UNL A   1      43.313  29.577  35.239  1.00  0.00     0.037 A 
BRANCH  54  68
ATOM     68  C   UNL A   1      40.627  33.957  38.679  1.00  0.00     0.064 A 
ATOM     69  C   UNL A   1      41.350  35.159  38.716  1.00  0.00     0.173 A 
ATOM     70  C   UNL A   1      39.924  33.581  39.835  1.00  0.00     0.173 A 
ATOM     71  F   UNL A   1      42.047  35.561  37.642  1.00  0.00    -0.203 F 
ATOM     72  C   UNL A   1      41.401  35.932  39.874  1.00  0.00     0.198 A 
ATOM     73  C   UNL A   1      39.948  34.376  40.979  1.00  0.00     0.198 A 
ATOM     74  F   UNL A   1      39.209  32.446  39.854  1.00  0.00    -0.203 F 
ATOM     75  F   UNL A   1      42.148  37.044  39.902  1.00  0.00    -0.200 F 
ATOM     76  C   UNL A   1      40.695  35.543  41.001  1.00  0.00     0.200 A 
ATOM     77  F   UNL A   1      39.251  34.006  42.063  1.00  0.00    -0.200 F 
ATOM     78  F   UNL A   1      40.742  36.290  42.113  1.00  0.00    -0.200 F 
ENDBRANCH  54  68
BRANCH  55  79
ATOM     79  C   UNL A   1      40.089  28.754  30.174  1.00  0.00     0.064 A 
ATOM     80  C   UNL A   1      40.664  29.295  29.015  1.00  0.00     0.173 A 
ATOM     81  C   UNL A   1      39.477  27.496  30.071  1.00  0.00     0.173 A 
ATOM     82  F   UNL A   1      41.243  30.504  29.057  1.00  0.00    -0.203 F 
ATOM     83  C   UNL A   1      40.612  28.615  27.800  1.00  0.00     0.198 A 
ATOM     84  C   UNL A   1      39.454  26.803  28.863  1.00  0.00     0.198 A 
ATOM     85  F   UNL A   1      38.918  26.931  31.151  1.00  0.00    -0.203 F 
ATOM     86  F   UNL A   1      41.129  29.175  26.699  1.00  0.00    -0.200 F 
ATOM     87  C   UNL A   1      40.013  27.366  27.726  1.00  0.00     0.200 A 
ATOM     88  F   UNL A   1      38.890  25.588  28.801  1.00  0.00    -0.200 F 
ATOM     89  F   UNL A   1      39.972  26.708  26.560  1.00  0.00    -0.200 F 
ENDBRANCH  55  79
BRANCH  67  90
ATOM     90  C   UNL A   1      44.570  28.803  35.522  1.00  0.00     0.064 A 
ATOM     91  C   UNL A   1      44.545  27.577  36.201  1.00  0.00     0.173 A 
ATOM     92  C   UNL A   1      45.812  29.275  35.067  1.00  0.00     0.173 A 
ATOM     93  F   UNL A   1      43.386  27.088  36.670  1.00  0.00    -0.203 F 
ATOM     94  C   UNL A   1      45.717  26.863  36.435  1.00  0.00     0.198 A 
ATOM     95  C   UNL A   1      46.977  28.542  35.273  1.00  0.00     0.198 A 
ATOM     96  F   UNL A   1      45.893  30.441  34.407  1.00  0.00    -0.203 F 
ATOM     97  F   UNL A   1      45.675  25.716  37.128  1.00  0.00    -0.200 F 
ATOM     98  C   UNL A   1      46.930  27.341  35.964  1.00  0.00     0.200 A 
ATOM     99  F   UNL A   1      48.147  29.000  34.804  1.00  0.00    -0.200 F 
ATOM    100  F   UNL A   1      48.056  26.647  36.180  1.00  0.00    -0.200 F 
ENDBRANCH  67  90
ENDBRANCH  41  42
ENDBRANCH  33  36
ENDBRANCH  31  32
ENDBRANCH  30  31
ENDBRANCH  29  30
ENDBRANCH  28  29
ENDBRANCH  27  28
ENDBRANCH   1  27
TORSDOF 20
ENDMDL
MODEL 3
REMARK VINA RESULT:     -10.9      0.902      7.063
REMARK SMILES O=C(CCCCCN1C(=O)/C(=C/c2cccc(O)c2)SC1=S)NCCCCCCNC(=O)c1ccc(-c2c3nc(c(-c4c(F)c(F)c(F)c(F)c4F)c4ccc([nH]4)c(-c4c(F)c(F)c(F)c(F)c4F)c4nc(c(-c5c(F)c(F)c(F)c(F)c5F)c5ccc2[nH]5)C=C4)C=C3)cc1
REMARK SMILES IDX 24 1 23 2 1 3 2 4 3 6 4 7 5 8 6 9 7 10 8 11 9 12 21 13 10 14
REMARK SMILES IDX 11 15 20 16 22 17 12 18 13 19 14 20 19 21 15 22 17 23 16 24
REMARK SMILES IDX 18 25 25 27 26 28 27 29 28 30 29 31 30 32 31 33 32 35 33 36
REMARK SMILES IDX 34 37 95 38 35 39 94 40 36 41 37 42 38 43 88 44 39 45 93 46
REMARK SMILES IDX 87 47 89 48 40 49 92 50 86 51 85 52 41 54 73 55 53 56 72 57
REMARK SMILES IDX 54 58 57 59 71 60 90 61 55 62 56 63 70 65 91 66 58 67 42 68
REMARK SMILES IDX 43 69 51 70 44 71 45 72 49 73 52 74 46 75 47 76 50 77 48 78
REMARK SMILES IDX 74 79 75 80 83 81 76 82 77 83 81 84 84 85 78 86 79 87 82 88
REMARK SMILES IDX 80 89 59 90 60 91 68 92 61 93 62 94 66 95 69 96 63 97 64 98
REMARK SMILES IDX 67 99 65 100
REMARK H PARENT 23 5 18 26 30 34 89 53 57 64
REMARK Flexibility Score: inf
ROOT
ATOM      1  C   UNL A   1      35.628  30.232  28.665  1.00  0.00     0.116 C 
ENDROOT
BRANCH   1   2
ATOM      2  N   UNL A   1      34.269  30.205  28.177  1.00  0.00    -0.356 N 
ATOM      3  O   UNL A   1      34.543  28.538  26.624  1.00  0.00    -0.275 OA
ATOM      4  C   UNL A   1      33.826  29.341  27.207  1.00  0.00     0.219 C 
ATOM      5  H   UNL A   1      33.623  30.842  28.560  1.00  0.00     0.163 HD
BRANCH   4   6
ATOM      6  C   UNL A   1      32.346  29.480  26.916  1.00  0.00     0.100 C 
BRANCH   6   7
ATOM      7  C   UNL A   1      31.668  28.140  26.629  1.00  0.00     0.010 C 
BRANCH   7   8
ATOM      8  C   UNL A   1      31.017  27.967  25.250  1.00  0.00     0.002 C 
BRANCH   8   9
ATOM      9  C   UNL A   1      31.175  26.590  24.593  1.00  0.00     0.022 C 
BRANCH   9  10
ATOM     10  C   UNL A   1      32.529  25.901  24.834  1.00  0.00     0.127 C 
BRANCH  10  11
ATOM     11  N   UNL A   1      32.573  24.546  24.282  1.00  0.00    -0.293 N 
ATOM     12  C   UNL A   1      32.446  23.475  25.156  1.00  0.00     0.266 C 
ATOM     13  C   UNL A   1      32.720  24.231  22.946  1.00  0.00     0.148 C 
ATOM     14  O   UNL A   1      32.210  23.545  26.352  1.00  0.00    -0.268 OA
ATOM     15  C   UNL A   1      32.669  22.196  24.434  1.00  0.00     0.081 C 
ATOM     16  S   UNL A   1      32.895  22.495  22.758  1.00  0.00    -0.054 SA
ATOM     17  S   UNL A   1      32.738  25.254  21.629  1.00  0.00    -0.052 S 
ATOM     18  C   UNL A   1      32.712  21.017  25.068  1.00  0.00     0.029 C 
BRANCH  18  19
ATOM     19  C   UNL A   1      33.032  19.743  24.419  1.00  0.00    -0.021 A 
ATOM     20  C   UNL A   1      34.182  19.033  24.794  1.00  0.00     0.008 A 
ATOM     21  C   UNL A   1      32.208  19.236  23.413  1.00  0.00     0.054 A 
ATOM     22  C   UNL A   1      34.516  17.841  24.151  1.00  0.00     0.004 A 
ATOM     23  C   UNL A   1      32.550  18.046  22.778  1.00  0.00     0.116 A 
ATOM     24  C   UNL A   1      33.700  17.345  23.135  1.00  0.00     0.046 A 
BRANCH  23  25
ATOM     25  O   UNL A   1      31.725  17.592  21.791  1.00  0.00    -0.508 OA
ATOM     26  H   UNL A   1      31.415  16.709  21.809  1.00  0.00     0.293 HD
ENDBRANCH  23  25
ENDBRANCH  18  19
ENDBRANCH  10  11
ENDBRANCH   9  10
ENDBRANCH   8   9
ENDBRANCH   7   8
ENDBRANCH   6   7
ENDBRANCH   4   6
ENDBRANCH   1   2
BRANCH   1  27
ATOM     27  C   UNL A   1      36.423  31.342  27.981  1.00  0.00     0.021 C 
BRANCH  27  28
ATOM     28  C   UNL A   1      35.733  32.716  27.969  1.00  0.00     0.002 C 
BRANCH  28  29
ATOM     29  C   UNL A   1      35.069  33.128  29.286  1.00  0.00     0.002 C 
BRANCH  29  30
ATOM     30  C   UNL A   1      33.704  33.801  29.137  1.00  0.00     0.021 C 
BRANCH  30  31
ATOM     31  C   UNL A   1      33.672  35.275  29.526  1.00  0.00     0.116 C 
BRANCH  31  32
ATOM     32  N   UNL A   1      32.693  35.559  30.565  1.00  0.00    -0.352 N 
ATOM     33  C   UNL A   1      32.754  35.286  31.910  1.00  0.00     0.251 C 
ATOM     34  H   UNL A   1      31.873  36.011  30.261  1.00  0.00     0.163 HD
ATOM     35  O   UNL A   1      31.771  35.452  32.623  1.00  0.00    -0.269 OA
BRANCH  33  36
ATOM     36  C   UNL A   1      34.005  34.753  32.491  1.00  0.00     0.039 A 
ATOM     37  C   UNL A   1      34.015  33.449  32.991  1.00  0.00     0.014 A 
ATOM     38  C   UNL A   1      35.167  35.528  32.522  1.00  0.00     0.014 A 
ATOM     39  C   UNL A   1      35.211  32.894  33.450  1.00  0.00     0.010 A 
ATOM     40  C   UNL A   1      36.373  34.949  32.909  1.00  0.00     0.010 A 
ATOM     41  C   UNL A   1      36.408  33.624  33.370  1.00  0.00    -0.014 A 
BRANCH  41  42
ATOM     42  C   UNL A   1      37.710  33.011  33.739  1.00  0.00     0.031 A 
ATOM     43  C   UNL A   1      38.366  32.014  32.828  1.00  0.00     0.074 A 
ATOM     44  C   UNL A   1      38.263  33.295  34.935  1.00  0.00     0.049 A 
ATOM     45  N   UNL A   1      39.458  31.314  33.013  1.00  0.00    -0.248 NA
ATOM     46  C   UNL A   1      37.690  31.746  31.549  1.00  0.00     0.031 C 
ATOM     47  C   UNL A   1      37.696  34.205  35.932  1.00  0.00     0.029 A 
ATOM     48  N   UNL A   1      39.414  32.833  35.524  1.00  0.00    -0.354 N 
ATOM     49  C   UNL A   1      39.593  30.521  31.881  1.00  0.00     0.074 A 
ATOM     50  C   UNL A   1      38.443  30.780  31.043  1.00  0.00     0.031 C 
ATOM     51  C   UNL A   1      38.506  34.246  37.001  1.00  0.00     0.029 A 
ATOM     52  C   UNL A   1      39.625  33.332  36.786  1.00  0.00     0.049 A 
ATOM     53  H   UNL A   1      40.030  32.204  35.083  1.00  0.00     0.167 HD
ATOM     54  C   UNL A   1      40.597  29.669  31.562  1.00  0.00     0.037 A 
ATOM     55  C   UNL A   1      40.598  33.071  37.679  1.00  0.00     0.037 A 
ATOM     56  C   UNL A   1      41.745  29.422  32.396  1.00  0.00     0.049 A 
ATOM     57  C   UNL A   1      41.692  32.105  37.311  1.00  0.00     0.074 A 
ATOM     58  C   UNL A   1      42.846  28.626  32.135  1.00  0.00     0.029 A 
ATOM     59  N   UNL A   1      41.932  29.959  33.662  1.00  0.00    -0.354 N 
ATOM     60  N   UNL A   1      41.853  31.420  36.205  1.00  0.00    -0.248 NA
ATOM     61  C   UNL A   1      42.744  31.881  38.312  1.00  0.00     0.031 C 
ATOM     62  C   UNL A   1      43.669  28.631  33.266  1.00  0.00     0.029 A 
ATOM     63  C   UNL A   1      43.115  29.483  34.207  1.00  0.00     0.049 A 
ATOM     64  H   UNL A   1      41.317  30.585  34.107  1.00  0.00     0.167 HD
ATOM     65  C   UNL A   1      43.031  30.704  36.365  1.00  0.00     0.074 A 
ATOM     66  C   UNL A   1      43.555  31.051  37.670  1.00  0.00     0.031 C 
ATOM     67  C   UNL A   1      43.624  29.835  35.510  1.00  0.00     0.037 A 
BRANCH  54  68
ATOM     68  C   UNL A   1      40.495  28.937  30.253  1.00  0.00     0.064 A 
ATOM     69  C   UNL A   1      39.787  27.730  30.135  1.00  0.00     0.173 A 
ATOM     70  C   UNL A   1      41.093  29.460  29.096  1.00  0.00     0.173 A 
ATOM     71  F   UNL A   1      39.204  27.181  31.211  1.00  0.00    -0.203 F 
ATOM     72  C   UNL A   1      39.716  27.055  28.918  1.00  0.00     0.198 A 
ATOM     73  C   UNL A   1      40.988  28.800  27.873  1.00  0.00     0.198 A 
ATOM     74  F   UNL A   1      41.775  30.614  29.148  1.00  0.00    -0.203 F 
ATOM     75  F   UNL A   1      39.086  25.875  28.846  1.00  0.00    -0.200 F 
ATOM     76  C   UNL A   1      40.311  27.594  27.788  1.00  0.00     0.200 A 
ATOM     77  F   UNL A   1      41.550  29.331  26.778  1.00  0.00    -0.200 F 
ATOM     78  F   UNL A   1      40.237  26.945  26.617  1.00  0.00    -0.200 F 
ENDBRANCH  54  68
BRANCH  55  79
ATOM     79  C   UNL A   1      40.581  33.739  39.007  1.00  0.00     0.064 A 
ATOM     80  C   UNL A   1      41.365  34.875  39.257  1.00  0.00     0.173 A 
ATOM     81  C   UNL A   1      39.776  33.261  40.051  1.00  0.00     0.173 A 
ATOM     82  F   UNL A   1      42.167  35.358  38.297  1.00  0.00    -0.203 F 
ATOM     83  C   UNL A   1      41.356  35.495  40.504  1.00  0.00     0.198 A 
ATOM     84  C   UNL A   1      39.744  33.901  41.288  1.00  0.00     0.198 A 
ATOM     85  F   UNL A   1      39.002  32.181  39.863  1.00  0.00    -0.203 F 
ATOM     86  F   UNL A   1      42.148  36.551  40.730  1.00  0.00    -0.200 F 
ATOM     87  C   UNL A   1      40.540  35.012  41.517  1.00  0.00     0.200 A 
ATOM     88  F   UNL A   1      38.940  33.441  42.258  1.00  0.00    -0.200 F 
ATOM     89  F   UNL A   1      40.526  35.615  42.713  1.00  0.00    -0.200 F 
ENDBRANCH  55  79
BRANCH  67  90
ATOM     90  C   UNL A   1      44.923  29.216  35.944  1.00  0.00     0.064 A 
ATOM     91  C   UNL A   1      46.147  29.882  35.787  1.00  0.00     0.173 A 
ATOM     92  C   UNL A   1      44.936  27.959  36.568  1.00  0.00     0.173 A 
ATOM     93  F   UNL A   1      46.191  31.080  35.183  1.00  0.00    -0.203 F 
ATOM     94  C   UNL A   1      47.338  29.302  36.215  1.00  0.00     0.198 A 
ATOM     95  C   UNL A   1      46.125  27.397  37.026  1.00  0.00     0.198 A 
ATOM     96  F   UNL A   1      43.792  27.280  36.749  1.00  0.00    -0.203 F 
ATOM     97  F   UNL A   1      48.502  29.936  36.010  1.00  0.00    -0.200 F 
ATOM     98  C   UNL A   1      47.325  28.065  36.842  1.00  0.00     0.200 A 
ATOM     99  F   UNL A   1      46.108  26.208  37.645  1.00  0.00    -0.200 F 
ATOM    100  F   UNL A   1      48.472  27.514  37.264  1.00  0.00    -0.200 F 
ENDBRANCH  67  90
ENDBRANCH  41  42
ENDBRANCH  33  36
ENDBRANCH  31  32
ENDBRANCH  30  31
ENDBRANCH  29  30
ENDBRANCH  28  29
ENDBRANCH  27  28
ENDBRANCH   1  27
TORSDOF 20
ENDMDL
