MODEL 1
REMARK VINA RESULT:     -12.6      0.000      0.000
REMARK SMILES O=C(NCCCCCCNC(=O)[C@@H]1CCCC[C@H]1C(=O)Nc1ccc(NC(=O)c2ccco2)cc1)c1ccc(-c2c3nc(c(-c4c(F)c(F)c(F)c(F)c4F)c4ccc([nH]4)c(-c4c(F)c(F)c(F)c(F)c4F)c4nc(c(-c5c(F)c(F)c(F)c(F)c5F)c5ccc2[nH]5)C=C4)C=C3)cc1
REMARK SMILES IDX 7 1 6 2 5 3 4 4 3 5 1 6 2 7 36 9 37 10 98 11 38 12 97 13
REMARK SMILES IDX 39 14 40 15 41 16 91 17 42 18 96 19 90 20 92 21 43 22 95 23
REMARK SMILES IDX 89 24 88 25 44 27 76 28 56 29 75 30 57 31 60 32 74 33 93 34
REMARK SMILES IDX 58 35 59 36 73 38 94 39 61 40 45 41 46 42 54 43 47 44 48 45
REMARK SMILES IDX 52 46 55 47 49 48 50 49 53 50 51 51 77 52 78 53 86 54 79 55
REMARK SMILES IDX 80 56 84 57 87 58 81 59 82 60 85 61 83 62 62 63 63 64 71 65
REMARK SMILES IDX 64 66 65 67 69 68 72 69 66 70 67 71 70 72 68 73 8 74 9 75
REMARK SMILES IDX 10 76 11 77 12 79 13 80 14 81 18 82 15 83 17 84 16 85 19 86
REMARK SMILES IDX 20 87 21 88 22 90 23 91 35 92 24 93 34 94 25 95 26 96 27 97
REMARK SMILES IDX 28 99 29 100 30 101 33 102 31 103 32 104
REMARK H PARENT 3 8 92 26 60 37 10 78 21 89 26 98
REMARK Flexibility Score: inf
ROOT
ATOM      1  C   UNL A   1      30.263  30.652  24.354  1.00  0.00     0.002 C 
ENDROOT
BRANCH   1   2
ATOM      2  C   UNL A   1      31.272  30.679  25.504  1.00  0.00     0.002 C 
BRANCH   2   3
ATOM      3  C   UNL A   1      31.137  31.808  26.522  1.00  0.00     0.021 C 
BRANCH   3   4
ATOM      4  C   UNL A   1      32.426  32.501  26.928  1.00  0.00     0.116 C 
BRANCH   4   5
ATOM      5  N   UNL A   1      32.236  33.847  27.437  1.00  0.00    -0.352 N 
ATOM      6  O   UNL A   1      32.652  35.633  28.761  1.00  0.00    -0.269 OA
ATOM      7  C   UNL A   1      32.990  34.519  28.371  1.00  0.00     0.251 C 
ATOM      8  H   UNL A   1      31.469  34.340  27.068  1.00  0.00     0.163 HD
BRANCH   7   9
ATOM      9  C   UNL A   1      34.197  33.874  28.934  1.00  0.00     0.039 A 
ATOM     10  C   UNL A   1      34.086  32.759  29.768  1.00  0.00     0.014 A 
ATOM     11  C   UNL A   1      35.455  34.409  28.643  1.00  0.00     0.014 A 
ATOM     12  C   UNL A   1      35.211  32.277  30.427  1.00  0.00     0.010 A 
ATOM     13  C   UNL A   1      36.599  33.861  29.234  1.00  0.00     0.010 A 
ATOM     14  C   UNL A   1      36.483  32.810  30.154  1.00  0.00    -0.014 A 
BRANCH  14  15
ATOM     15  C   UNL A   1      37.669  32.187  30.795  1.00  0.00     0.031 A 
ATOM     16  C   UNL A   1      38.108  32.563  32.181  1.00  0.00     0.074 A 
ATOM     17  C   UNL A   1      38.322  31.223  30.116  1.00  0.00     0.049 A 
ATOM     18  N   UNL A   1      39.082  32.062  32.900  1.00  0.00    -0.248 NA
ATOM     19  C   UNL A   1      37.366  33.642  32.849  1.00  0.00     0.031 C 
ATOM     20  C   UNL A   1      38.003  30.797  28.751  1.00  0.00     0.029 A 
ATOM     21  N   UNL A   1      39.361  30.408  30.482  1.00  0.00    -0.354 N 
ATOM     22  C   UNL A   1      39.080  32.770  34.095  1.00  0.00     0.074 A 
ATOM     23  C   UNL A   1      38.023  33.754  33.996  1.00  0.00     0.031 C 
ATOM     24  C   UNL A   1      38.787  29.763  28.417  1.00  0.00     0.029 A 
ATOM     25  C   UNL A   1      39.702  29.490  29.519  1.00  0.00     0.049 A 
ATOM     26  H   UNL A   1      39.818  30.474  31.352  1.00  0.00     0.167 HD
ATOM     27  C   UNL A   1      39.880  32.603  35.175  1.00  0.00     0.037 A 
ATOM     28  C   UNL A   1      40.651  28.537  29.519  1.00  0.00     0.037 A 
ATOM     29  C   UNL A   1      40.927  31.616  35.268  1.00  0.00     0.049 A 
ATOM     30  C   UNL A   1      41.511  28.367  30.736  1.00  0.00     0.074 A 
ATOM     31  C   UNL A   1      41.790  31.366  36.322  1.00  0.00     0.029 A 
ATOM     32  N   UNL A   1      41.250  30.710  34.268  1.00  0.00    -0.354 N 
ATOM     33  N   UNL A   1      41.482  29.031  31.865  1.00  0.00    -0.248 NA
ATOM     34  C   UNL A   1      42.533  27.315  30.679  1.00  0.00     0.031 C 
ATOM     35  C   UNL A   1      42.654  30.331  35.948  1.00  0.00     0.029 A 
ATOM     36  C   UNL A   1      42.304  29.907  34.677  1.00  0.00     0.049 A 
ATOM     37  H   UNL A   1      40.798  30.647  33.395  1.00  0.00     0.167 HD
ATOM     38  C   UNL A   1      42.481  28.482  32.653  1.00  0.00     0.074 A 
ATOM     39  C   UNL A   1      43.071  27.402  31.888  1.00  0.00     0.031 C 
ATOM     40  C   UNL A   1      42.884  28.846  33.895  1.00  0.00     0.037 A 
BRANCH  27  41
ATOM     41  C   UNL A   1      39.665  33.511  36.352  1.00  0.00     0.064 A 
ATOM     42  C   UNL A   1      40.262  34.777  36.418  1.00  0.00     0.173 A 
ATOM     43  C   UNL A   1      38.803  33.137  37.394  1.00  0.00     0.173 A 
ATOM     44  F   UNL A   1      41.103  35.178  35.452  1.00  0.00    -0.203 F 
ATOM     45  C   UNL A   1      40.016  35.631  37.490  1.00  0.00     0.198 A 
ATOM     46  C   UNL A   1      38.540  34.002  38.454  1.00  0.00     0.198 A 
ATOM     47  F   UNL A   1      38.201  31.938  37.377  1.00  0.00    -0.203 F 
ATOM     48  F   UNL A   1      40.622  36.826  37.547  1.00  0.00    -0.200 F 
ATOM     49  C   UNL A   1      39.150  35.247  38.503  1.00  0.00     0.200 A 
ATOM     50  F   UNL A   1      37.694  33.634  39.425  1.00  0.00    -0.200 F 
ATOM     51  F   UNL A   1      38.904  36.074  39.528  1.00  0.00    -0.200 F 
ENDBRANCH  27  41
BRANCH  28  52
ATOM     52  C   UNL A   1      40.827  27.679  28.320  1.00  0.00     0.064 A 
ATOM     53  C   UNL A   1      41.684  28.057  27.278  1.00  0.00     0.173 A 
ATOM     54  C   UNL A   1      40.156  26.453  28.202  1.00  0.00     0.173 A 
ATOM     55  F   UNL A   1      42.334  29.229  27.337  1.00  0.00    -0.203 F 
ATOM     56  C   UNL A   1      41.851  27.248  26.157  1.00  0.00     0.198 A 
ATOM     57  C   UNL A   1      40.348  25.630  27.097  1.00  0.00     0.198 A 
ATOM     58  F   UNL A   1      39.331  26.043  29.178  1.00  0.00    -0.203 F 
ATOM     59  F   UNL A   1      42.646  27.650  25.155  1.00  0.00    -0.200 F 
ATOM     60  C   UNL A   1      41.190  26.031  26.071  1.00  0.00     0.200 A 
ATOM     61  F   UNL A   1      39.722  24.448  27.027  1.00  0.00    -0.200 F 
ATOM     62  F   UNL A   1      41.360  25.249  24.997  1.00  0.00    -0.200 F 
ENDBRANCH  28  52
BRANCH  40  63
ATOM     63  C   UNL A   1      44.015  28.063  34.492  1.00  0.00     0.064 A 
ATOM     64  C   UNL A   1      43.783  26.891  35.227  1.00  0.00     0.173 A 
ATOM     65  C   UNL A   1      45.341  28.487  34.328  1.00  0.00     0.173 A 
ATOM     66  F   UNL A   1      42.530  26.456  35.427  1.00  0.00    -0.203 F 
ATOM     67  C   UNL A   1      44.837  26.189  35.805  1.00  0.00     0.198 A 
ATOM     68  C   UNL A   1      46.395  27.768  34.884  1.00  0.00     0.198 A 
ATOM     69  F   UNL A   1      45.615  29.600  33.631  1.00  0.00    -0.203 F 
ATOM     70  F   UNL A   1      44.588  25.104  36.549  1.00  0.00    -0.200 F 
ATOM     71  C   UNL A   1      46.141  26.626  35.630  1.00  0.00     0.200 A 
ATOM     72  F   UNL A   1      47.656  28.185  34.708  1.00  0.00    -0.200 F 
ATOM     73  F   UNL A   1      47.156  25.952  36.190  1.00  0.00    -0.200 F 
ENDBRANCH  40  63
ENDBRANCH  14  15
ENDBRANCH   7   9
ENDBRANCH   4   5
ENDBRANCH   3   4
ENDBRANCH   2   3
ENDBRANCH   1   2
BRANCH   1  74
ATOM     74  C   UNL A   1      30.056  29.322  23.624  1.00  0.00     0.021 C 
BRANCH  74  75
ATOM     75  C   UNL A   1      30.509  29.260  22.173  1.00  0.00     0.116 C 
BRANCH  75  76
ATOM     76  N   UNL A   1      30.979  27.959  21.759  1.00  0.00    -0.356 N 
ATOM     77  C   UNL A   1      31.593  26.993  22.489  1.00  0.00     0.223 C 
ATOM     78  H   UNL A   1      30.834  27.742  20.809  1.00  0.00     0.163 HD
ATOM     79  O   UNL A   1      31.733  25.881  21.976  1.00  0.00    -0.275 OA
BRANCH  77  80
ATOM     80  C   UNL A   1      32.164  27.272  23.874  1.00  0.00     0.091 C 
ATOM     81  C   UNL A   1      33.536  27.955  23.900  1.00  0.00     0.014 C 
ATOM     82  C   UNL A   1      32.014  26.041  24.779  1.00  0.00     0.091 C 
ATOM     83  C   UNL A   1      34.039  28.141  25.328  1.00  0.00     0.001 C 
ATOM     84  C   UNL A   1      32.672  26.204  26.157  1.00  0.00     0.014 C 
ATOM     85  C   UNL A   1      34.072  26.806  26.061  1.00  0.00     0.001 C 
BRANCH  82  86
ATOM     86  C   UNL A   1      30.589  25.452  24.888  1.00  0.00     0.228 C 
ATOM     87  O   UNL A   1      29.637  26.235  25.004  1.00  0.00    -0.274 OA
ATOM     88  N   UNL A   1      30.278  24.130  24.709  1.00  0.00    -0.326 N 
ATOM     89  H   UNL A   1      29.314  23.947  24.627  1.00  0.00     0.169 HD
BRANCH  88  90
ATOM     90  C   UNL A   1      31.091  23.000  24.624  1.00  0.00     0.041 A 
ATOM     91  C   UNL A   1      31.698  22.701  23.410  1.00  0.00     0.028 A 
ATOM     92  C   UNL A   1      31.278  22.127  25.685  1.00  0.00     0.028 A 
ATOM     93  C   UNL A   1      32.671  21.696  23.346  1.00  0.00     0.028 A 
ATOM     94  C   UNL A   1      32.286  21.162  25.640  1.00  0.00     0.028 A 
ATOM     95  C   UNL A   1      33.057  20.997  24.488  1.00  0.00     0.041 A 
BRANCH  95  96
ATOM     96  N   UNL A   1      34.179  20.157  24.605  1.00  0.00    -0.319 N 
ATOM     97  C   UNL A   1      35.511  20.379  24.887  1.00  0.00     0.291 C 
ATOM     98  H   UNL A   1      33.967  19.207  24.454  1.00  0.00     0.170 HD
ATOM     99  O   UNL A   1      36.232  19.384  25.001  1.00  0.00    -0.265 OA
BRANCH  97 100
ATOM    100  C   UNL A   1      36.012  21.716  25.055  1.00  0.00     0.191 A 
ATOM    101  C   UNL A   1      36.868  22.496  24.299  1.00  0.00     0.056 A 
ATOM    102  O   UNL A   1      35.615  22.413  26.164  1.00  0.00    -0.459 OA
ATOM    103  C   UNL A   1      37.037  23.711  25.011  1.00  0.00     0.043 A 
ATOM    104  C   UNL A   1      36.242  23.615  26.128  1.00  0.00     0.196 A 
ENDBRANCH  97 100
ENDBRANCH  95  96
ENDBRANCH  88  90
ENDBRANCH  82  86
ENDBRANCH  77  80
ENDBRANCH  75  76
ENDBRANCH  74  75
ENDBRANCH   1  74
TORSDOF 17
ENDMDL
MODEL 2
REMARK VINA RESULT:     -12.5      1.806      4.951
REMARK SMILES O=C(NCCCCCCNC(=O)[C@@H]1CCCC[C@H]1C(=O)Nc1ccc(NC(=O)c2ccco2)cc1)c1ccc(-c2c3nc(c(-c4c(F)c(F)c(F)c(F)c4F)c4ccc([nH]4)c(-c4c(F)c(F)c(F)c(F)c4F)c4nc(c(-c5c(F)c(F)c(F)c(F)c5F)c5ccc2[nH]5)C=C4)C=C3)cc1
REMARK SMILES IDX 7 1 6 2 5 3 4 4 3 5 1 6 2 7 36 9 37 10 98 11 38 12 97 13
REMARK SMILES IDX 39 14 40 15 41 16 91 17 42 18 96 19 90 20 92 21 43 22 95 23
REMARK SMILES IDX 89 24 88 25 44 27 76 28 56 29 75 30 57 31 60 32 74 33 93 34
REMARK SMILES IDX 58 35 59 36 73 38 94 39 61 40 45 41 46 42 54 43 47 44 48 45
REMARK SMILES IDX 52 46 55 47 49 48 50 49 53 50 51 51 77 52 78 53 86 54 79 55
REMARK SMILES IDX 80 56 84 57 87 58 81 59 82 60 85 61 83 62 62 63 63 64 71 65
REMARK SMILES IDX 64 66 65 67 69 68 72 69 66 70 67 71 70 72 68 73 8 74 9 75
REMARK SMILES IDX 10 76 11 77 12 79 13 80 14 81 18 82 15 83 17 84 16 85 19 86
REMARK SMILES IDX 20 87 21 88 22 90 23 91 35 92 24 93 34 94 25 95 26 96 27 97
REMARK SMILES IDX 28 99 29 100 30 101 33 102 31 103 32 104
REMARK H PARENT 3 8 92 26 60 37 10 78 21 89 26 98
REMARK Flexibility Score: inf
ROOT
ATOM      1  C   UNL A   1      32.420  29.754  27.254  1.00  0.00     0.002 C 
ENDROOT
BRANCH   1   2
ATOM      2  C   UNL A   1      31.685  30.628  26.236  1.00  0.00     0.002 C 
BRANCH   2   3
ATOM      3  C   UNL A   1      31.413  32.078  26.629  1.00  0.00     0.021 C 
BRANCH   3   4
ATOM      4  C   UNL A   1      32.635  32.936  26.907  1.00  0.00     0.116 C 
BRANCH   4   5
ATOM      5  N   UNL A   1      32.335  34.190  27.573  1.00  0.00    -0.352 N 
ATOM      6  O   UNL A   1      32.563  35.802  29.143  1.00  0.00    -0.269 OA
ATOM      7  C   UNL A   1      32.989  34.768  28.635  1.00  0.00     0.251 C 
ATOM      8  H   UNL A   1      31.564  34.689  27.219  1.00  0.00     0.163 HD
BRANCH   7   9
ATOM      9  C   UNL A   1      34.194  34.115  29.193  1.00  0.00     0.039 A 
ATOM     10  C   UNL A   1      34.078  33.072  30.114  1.00  0.00     0.014 A 
ATOM     11  C   UNL A   1      35.458  34.571  28.805  1.00  0.00     0.014 A 
ATOM     12  C   UNL A   1      35.213  32.592  30.758  1.00  0.00     0.010 A 
ATOM     13  C   UNL A   1      36.605  34.019  29.385  1.00  0.00     0.010 A 
ATOM     14  C   UNL A   1      36.491  33.046  30.387  1.00  0.00    -0.014 A 
BRANCH  14  15
ATOM     15  C   UNL A   1      37.681  32.421  31.020  1.00  0.00     0.031 A 
ATOM     16  C   UNL A   1      38.123  32.790  32.407  1.00  0.00     0.074 A 
ATOM     17  C   UNL A   1      38.333  31.462  30.334  1.00  0.00     0.049 A 
ATOM     18  N   UNL A   1      39.101  32.287  33.120  1.00  0.00    -0.248 NA
ATOM     19  C   UNL A   1      37.382  33.865  33.084  1.00  0.00     0.031 C 
ATOM     20  C   UNL A   1      38.010  31.044  28.967  1.00  0.00     0.029 A 
ATOM     21  N   UNL A   1      39.375  30.647  30.692  1.00  0.00    -0.354 N 
ATOM     22  C   UNL A   1      39.101  32.989  34.319  1.00  0.00     0.074 A 
ATOM     23  C   UNL A   1      38.043  33.971  34.230  1.00  0.00     0.031 C 
ATOM     24  C   UNL A   1      38.794  30.013  28.626  1.00  0.00     0.029 A 
ATOM     25  C   UNL A   1      39.713  29.735  29.723  1.00  0.00     0.049 A 
ATOM     26  H   UNL A   1      39.834  30.709  31.561  1.00  0.00     0.167 HD
ATOM     27  C   UNL A   1      39.906  32.816  35.396  1.00  0.00     0.037 A 
ATOM     28  C   UNL A   1      40.664  28.784  29.714  1.00  0.00     0.037 A 
ATOM     29  C   UNL A   1      40.955  31.830  35.480  1.00  0.00     0.049 A 
ATOM     30  C   UNL A   1      41.528  28.608  30.927  1.00  0.00     0.074 A 
ATOM     31  C   UNL A   1      41.821  31.576  36.529  1.00  0.00     0.029 A 
ATOM     32  N   UNL A   1      41.276  30.931  34.474  1.00  0.00    -0.354 N 
ATOM     33  N   UNL A   1      41.502  29.266  32.060  1.00  0.00    -0.248 NA
ATOM     34  C   UNL A   1      42.551  27.558  30.861  1.00  0.00     0.031 C 
ATOM     35  C   UNL A   1      42.686  30.545  36.147  1.00  0.00     0.029 A 
ATOM     36  C   UNL A   1      42.333  30.128  34.874  1.00  0.00     0.049 A 
ATOM     37  H   UNL A   1      40.821  30.872  33.602  1.00  0.00     0.167 HD
ATOM     38  C   UNL A   1      42.505  28.714  32.842  1.00  0.00     0.074 A 
ATOM     39  C   UNL A   1      43.093  27.639  32.069  1.00  0.00     0.031 C 
ATOM     40  C   UNL A   1      42.911  29.072  34.084  1.00  0.00     0.037 A 
BRANCH  27  41
ATOM     41  C   UNL A   1      39.693  33.717  36.578  1.00  0.00     0.064 A 
ATOM     42  C   UNL A   1      38.843  33.353  37.632  1.00  0.00     0.173 A 
ATOM     43  C   UNL A   1      40.393  34.928  36.689  1.00  0.00     0.173 A 
ATOM     44  F   UNL A   1      38.142  32.211  37.570  1.00  0.00    -0.203 F 
ATOM     45  C   UNL A   1      38.691  34.173  38.748  1.00  0.00     0.198 A 
ATOM     46  C   UNL A   1      40.258  35.736  37.816  1.00  0.00     0.198 A 
ATOM     47  F   UNL A   1      41.224  35.321  35.712  1.00  0.00    -0.203 F 
ATOM     48  F   UNL A   1      37.849  33.819  39.729  1.00  0.00    -0.200 F 
ATOM     49  C   UNL A   1      39.404  35.359  38.843  1.00  0.00     0.200 A 
ATOM     50  F   UNL A   1      40.956  36.875  37.912  1.00  0.00    -0.200 F 
ATOM     51  F   UNL A   1      39.266  36.142  39.922  1.00  0.00    -0.200 F 
ENDBRANCH  27  41
BRANCH  28  52
ATOM     52  C   UNL A   1      40.838  27.933  28.510  1.00  0.00     0.064 A 
ATOM     53  C   UNL A   1      40.185  26.699  28.395  1.00  0.00     0.173 A 
ATOM     54  C   UNL A   1      41.646  28.348  27.441  1.00  0.00     0.173 A 
ATOM     55  F   UNL A   1      39.416  26.251  29.398  1.00  0.00    -0.203 F 
ATOM     56  C   UNL A   1      40.347  25.904  27.262  1.00  0.00     0.198 A 
ATOM     57  C   UNL A   1      41.782  27.569  26.296  1.00  0.00     0.198 A 
ATOM     58  F   UNL A   1      42.285  29.527  27.501  1.00  0.00    -0.203 F 
ATOM     59  F   UNL A   1      39.744  24.710  27.192  1.00  0.00    -0.200 F 
ATOM     60  C   UNL A   1      41.138  26.344  26.210  1.00  0.00     0.200 A 
ATOM     61  F   UNL A   1      42.531  28.006  25.275  1.00  0.00    -0.200 F 
ATOM     62  F   UNL A   1      41.284  25.584  25.116  1.00  0.00    -0.200 F 
ENDBRANCH  28  52
BRANCH  40  63
ATOM     63  C   UNL A   1      44.045  28.287  34.673  1.00  0.00     0.064 A 
ATOM     64  C   UNL A   1      45.376  28.708  34.529  1.00  0.00     0.173 A 
ATOM     65  C   UNL A   1      43.801  27.105  35.388  1.00  0.00     0.173 A 
ATOM     66  F   UNL A   1      45.661  29.822  33.839  1.00  0.00    -0.203 F 
ATOM     67  C   UNL A   1      46.424  27.956  35.052  1.00  0.00     0.198 A 
ATOM     68  C   UNL A   1      44.849  26.370  35.933  1.00  0.00     0.198 A 
ATOM     69  F   UNL A   1      42.545  26.664  35.555  1.00  0.00    -0.203 F 
ATOM     70  F   UNL A   1      47.690  28.346  34.856  1.00  0.00    -0.200 F 
ATOM     71  C   UNL A   1      46.159  26.790  35.756  1.00  0.00     0.200 A 
ATOM     72  F   UNL A   1      44.593  25.248  36.619  1.00  0.00    -0.200 F 
ATOM     73  F   UNL A   1      47.169  26.064  36.256  1.00  0.00    -0.200 F 
ENDBRANCH  40  63
ENDBRANCH  14  15
ENDBRANCH   7   9
ENDBRANCH   4   5
ENDBRANCH   3   4
ENDBRANCH   2   3
ENDBRANCH   1   2
BRANCH   1  74
ATOM     74  C   UNL A   1      31.806  28.394  27.595  1.00  0.00     0.021 C 
BRANCH  74  75
ATOM     75  C   UNL A   1      31.391  27.517  26.424  1.00  0.00     0.116 C 
BRANCH  75  76
ATOM     76  N   UNL A   1      30.831  26.244  26.810  1.00  0.00    -0.356 N 
ATOM     77  C   UNL A   1      31.291  24.991  26.564  1.00  0.00     0.223 C 
ATOM     78  H   UNL A   1      29.994  26.293  27.328  1.00  0.00     0.163 HD
ATOM     79  O   UNL A   1      30.757  24.051  27.157  1.00  0.00    -0.275 OA
BRANCH  77  80
ATOM     80  C   UNL A   1      32.383  24.723  25.536  1.00  0.00     0.091 C 
ATOM     81  C   UNL A   1      33.813  25.045  25.988  1.00  0.00     0.014 C 
ATOM     82  C   UNL A   1      31.979  25.270  24.160  1.00  0.00     0.091 C 
ATOM     83  C   UNL A   1      34.820  24.790  24.871  1.00  0.00     0.001 C 
ATOM     84  C   UNL A   1      33.079  25.141  23.096  1.00  0.00     0.014 C 
ATOM     85  C   UNL A   1      34.445  25.577  23.622  1.00  0.00     0.001 C 
BRANCH  82  86
ATOM     86  C   UNL A   1      30.604  24.806  23.626  1.00  0.00     0.228 C 
ATOM     87  O   UNL A   1      30.369  23.591  23.586  1.00  0.00    -0.274 OA
ATOM     88  N   UNL A   1      29.560  25.643  23.337  1.00  0.00    -0.326 N 
ATOM     89  H   UNL A   1      28.701  25.185  23.187  1.00  0.00     0.169 HD
BRANCH  88  90
ATOM     90  C   UNL A   1      29.502  27.033  23.219  1.00  0.00     0.041 A 
ATOM     91  C   UNL A   1      28.288  27.673  23.428  1.00  0.00     0.028 A 
ATOM     92  C   UNL A   1      30.595  27.800  22.847  1.00  0.00     0.028 A 
ATOM     93  C   UNL A   1      28.241  29.070  23.514  1.00  0.00     0.028 A 
ATOM     94  C   UNL A   1      30.566  29.189  22.985  1.00  0.00     0.028 A 
ATOM     95  C   UNL A   1      29.402  29.834  23.410  1.00  0.00     0.041 A 
BRANCH  95  96
ATOM     96  N   UNL A   1      29.527  31.199  23.724  1.00  0.00    -0.319 N 
ATOM     97  C   UNL A   1      29.134  32.362  23.093  1.00  0.00     0.291 C 
ATOM     98  H   UNL A   1      29.994  31.358  24.575  1.00  0.00     0.170 HD
ATOM     99  O   UNL A   1      29.329  33.419  23.698  1.00  0.00    -0.265 OA
BRANCH  97 100
ATOM    100  C   UNL A   1      28.510  32.319  21.799  1.00  0.00     0.191 A 
ATOM    101  C   UNL A   1      28.470  31.350  20.812  1.00  0.00     0.056 A 
ATOM    102  O   UNL A   1      27.809  33.421  21.389  1.00  0.00    -0.459 OA
ATOM    103  C   UNL A   1      27.748  31.912  19.728  1.00  0.00     0.043 A 
ATOM    104  C   UNL A   1      27.355  33.165  20.137  1.00  0.00     0.196 A 
ENDBRANCH  97 100
ENDBRANCH  95  96
ENDBRANCH  88  90
ENDBRANCH  82  86
ENDBRANCH  77  80
ENDBRANCH  75  76
ENDBRANCH  74  75
ENDBRANCH   1  74
TORSDOF 17
ENDMDL
MODEL 3
REMARK VINA RESULT:     -12.5      2.490      5.153
REMARK SMILES O=C(NCCCCCCNC(=O)[C@@H]1CCCC[C@H]1C(=O)Nc1ccc(NC(=O)c2ccco2)cc1)c1ccc(-c2c3nc(c(-c4c(F)c(F)c(F)c(F)c4F)c4ccc([nH]4)c(-c4c(F)c(F)c(F)c(F)c4F)c4nc(c(-c5c(F)c(F)c(F)c(F)c5F)c5ccc2[nH]5)C=C4)C=C3)cc1
REMARK SMILES IDX 7 1 6 2 5 3 4 4 3 5 1 6 2 7 36 9 37 10 98 11 38 12 97 13
REMARK SMILES IDX 39 14 40 15 41 16 91 17 42 18 96 19 90 20 92 21 43 22 95 23
REMARK SMILES IDX 89 24 88 25 44 27 76 28 56 29 75 30 57 31 60 32 74 33 93 34
REMARK SMILES IDX 58 35 59 36 73 38 94 39 61 40 45 41 46 42 54 43 47 44 48 45
REMARK SMILES IDX 52 46 55 47 49 48 50 49 53 50 51 51 77 52 78 53 86 54 79 55
REMARK SMILES IDX 80 56 84 57 87 58 81 59 82 60 85 61 83 62 62 63 63 64 71 65
REMARK SMILES IDX 64 66 65 67 69 68 72 69 66 70 67 71 70 72 68 73 8 74 9 75
REMARK SMILES IDX 10 76 11 77 12 79 13 80 14 81 18 82 15 83 17 84 16 85 19 86
REMARK SMILES IDX 20 87 21 88 22 90 23 91 35 92 24 93 34 94 25 95 26 96 27 97
REMARK SMILES IDX 28 99 29 100 30 101 33 102 31 103 32 104
REMARK H PARENT 3 8 92 26 60 37 10 78 21 89 26 98
REMARK Flexibility Score: inf
ROOT
ATOM      1  C   UNL A   1      34.116  25.075  26.126  1.00  0.00     0.002 C 
ENDROOT
BRANCH   1   2
ATOM      2  C   UNL A   1      34.001  26.192  25.086  1.00  0.00     0.002 C 
BRANCH   2   3
ATOM      3  C   UNL A   1      34.309  27.613  25.553  1.00  0.00     0.021 C 
BRANCH   3   4
ATOM      4  C   UNL A   1      33.685  28.033  26.872  1.00  0.00     0.116 C 
BRANCH   4   5
ATOM      5  N   UNL A   1      33.460  29.462  26.987  1.00  0.00    -0.352 N 
ATOM      6  O   UNL A   1      33.912  31.579  27.644  1.00  0.00    -0.269 OA
ATOM      7  C   UNL A   1      34.281  30.411  27.549  1.00  0.00     0.251 C 
ATOM      8  H   UNL A   1      32.611  29.793  26.616  1.00  0.00     0.163 HD
BRANCH   7   9
ATOM      9  C   UNL A   1      35.603  30.010  28.079  1.00  0.00     0.039 A 
ATOM     10  C   UNL A   1      35.734  29.541  29.388  1.00  0.00     0.014 A 
ATOM     11  C   UNL A   1      36.730  30.128  27.260  1.00  0.00     0.014 A 
ATOM     12  C   UNL A   1      37.001  29.338  29.923  1.00  0.00     0.010 A 
ATOM     13  C   UNL A   1      37.998  29.831  27.773  1.00  0.00     0.010 A 
ATOM     14  C   UNL A   1      38.146  29.463  29.117  1.00  0.00    -0.014 A 
BRANCH  14  15
ATOM     15  C   UNL A   1      39.469  29.123  29.701  1.00  0.00     0.031 A 
ATOM     16  C   UNL A   1      40.018  29.855  30.892  1.00  0.00     0.074 A 
ATOM     17  C   UNL A   1      40.152  28.093  29.165  1.00  0.00     0.049 A 
ATOM     18  N   UNL A   1      41.127  29.632  31.556  1.00  0.00    -0.248 NA
ATOM     19  C   UNL A   1      39.232  30.986  31.406  1.00  0.00     0.031 C 
ATOM     20  C   UNL A   1      39.730  27.330  27.988  1.00  0.00     0.029 A 
ATOM     21  N   UNL A   1      41.322  27.490  29.548  1.00  0.00    -0.354 N 
ATOM     22  C   UNL A   1      41.177  30.598  32.552  1.00  0.00     0.074 A 
ATOM     23  C   UNL A   1      40.001  31.426  32.393  1.00  0.00     0.031 C 
ATOM     24  C   UNL A   1      40.592  26.325  27.781  1.00  0.00     0.029 A 
ATOM     25  C   UNL A   1      41.658  26.408  28.772  1.00  0.00     0.049 A 
ATOM     26  H   UNL A   1      41.867  27.802  30.307  1.00  0.00     0.167 HD
ATOM     27  C   UNL A   1      42.115  30.766  33.516  1.00  0.00     0.037 A 
ATOM     28  C   UNL A   1      42.713  25.576  28.845  1.00  0.00     0.037 A 
ATOM     29  C   UNL A   1      43.281  29.933  33.672  1.00  0.00     0.049 A 
ATOM     30  C   UNL A   1      43.725  25.780  29.932  1.00  0.00     0.074 A 
ATOM     31  C   UNL A   1      44.287  30.021  34.620  1.00  0.00     0.029 A 
ATOM     32  N   UNL A   1      43.594  28.852  32.861  1.00  0.00    -0.354 N 
ATOM     33  N   UNL A   1      43.748  26.685  30.879  1.00  0.00    -0.248 NA
ATOM     34  C   UNL A   1      44.857  24.845  29.962  1.00  0.00     0.031 C 
ATOM     35  C   UNL A   1      45.224  29.014  34.362  1.00  0.00     0.029 A 
ATOM     36  C   UNL A   1      44.782  28.272  33.280  1.00  0.00     0.049 A 
ATOM     37  H   UNL A   1      43.053  28.543  32.098  1.00  0.00     0.167 HD
ATOM     38  C   UNL A   1      44.895  26.434  31.617  1.00  0.00     0.074 A 
ATOM     39  C   UNL A   1      45.520  25.265  31.032  1.00  0.00     0.031 C 
ATOM     40  C   UNL A   1      45.393  27.117  32.676  1.00  0.00     0.037 A 
BRANCH  27  41
ATOM     41  C   UNL A   1      41.928  31.901  34.482  1.00  0.00     0.064 A 
ATOM     42  C   UNL A   1      42.469  33.171  34.233  1.00  0.00     0.173 A 
ATOM     43  C   UNL A   1      41.149  31.735  35.637  1.00  0.00     0.173 A 
ATOM     44  F   UNL A   1      43.231  33.379  33.148  1.00  0.00    -0.203 F 
ATOM     45  C   UNL A   1      42.247  34.229  35.111  1.00  0.00     0.198 A 
ATOM     46  C   UNL A   1      40.910  32.801  36.502  1.00  0.00     0.198 A 
ATOM     47  F   UNL A   1      40.603  30.542  35.919  1.00  0.00    -0.203 F 
ATOM     48  F   UNL A   1      42.800  35.426  34.868  1.00  0.00    -0.200 F 
ATOM     49  C   UNL A   1      41.463  34.046  36.239  1.00  0.00     0.200 A 
ATOM     50  F   UNL A   1      40.142  32.626  37.585  1.00  0.00    -0.200 F 
ATOM     51  F   UNL A   1      41.241  35.068  37.078  1.00  0.00    -0.200 F 
ENDBRANCH  27  41
BRANCH  28  52
ATOM     52  C   UNL A   1      42.852  24.481  27.852  1.00  0.00     0.064 A 
ATOM     53  C   UNL A   1      43.384  24.720  26.579  1.00  0.00     0.173 A 
ATOM     54  C   UNL A   1      42.473  23.167  28.166  1.00  0.00     0.173 A 
ATOM     55  F   UNL A   1      43.745  25.963  26.227  1.00  0.00    -0.203 F 
ATOM     56  C   UNL A   1      43.518  23.690  25.651  1.00  0.00     0.198 A 
ATOM     57  C   UNL A   1      42.636  22.132  27.250  1.00  0.00     0.198 A 
ATOM     58  F   UNL A   1      41.966  22.886  29.376  1.00  0.00    -0.203 F 
ATOM     59  F   UNL A   1      43.993  23.952  24.426  1.00  0.00    -0.200 F 
ATOM     60  C   UNL A   1      43.152  22.395  25.990  1.00  0.00     0.200 A 
ATOM     61  F   UNL A   1      42.299  20.881  27.589  1.00  0.00    -0.200 F 
ATOM     62  F   UNL A   1      43.291  21.403  25.101  1.00  0.00    -0.200 F 
ENDBRANCH  28  52
BRANCH  40  63
ATOM     63  C   UNL A   1      46.676  26.607  33.261  1.00  0.00     0.064 A 
ATOM     64  C   UNL A   1      46.683  25.606  34.244  1.00  0.00     0.173 A 
ATOM     65  C   UNL A   1      47.909  27.123  32.836  1.00  0.00     0.173 A 
ATOM     66  F   UNL A   1      45.528  25.096  34.696  1.00  0.00    -0.203 F 
ATOM     67  C   UNL A   1      47.877  25.163  34.804  1.00  0.00     0.198 A 
ATOM     68  C   UNL A   1      49.103  26.658  33.379  1.00  0.00     0.198 A 
ATOM     69  F   UNL A   1      47.954  28.079  31.896  1.00  0.00    -0.203 F 
ATOM     70  F   UNL A   1      47.858  24.247  35.781  1.00  0.00    -0.200 F 
ATOM     71  C   UNL A   1      49.086  25.686  34.369  1.00  0.00     0.200 A 
ATOM     72  F   UNL A   1      50.271  27.158  32.953  1.00  0.00    -0.200 F 
ATOM     73  F   UNL A   1      50.236  25.263  34.912  1.00  0.00    -0.200 F 
ENDBRANCH  40  63
ENDBRANCH  14  15
ENDBRANCH   7   9
ENDBRANCH   4   5
ENDBRANCH   3   4
ENDBRANCH   2   3
ENDBRANCH   1   2
BRANCH   1  74
ATOM     74  C   UNL A   1      32.853  24.273  26.448  1.00  0.00     0.021 C 
BRANCH  74  75
ATOM     75  C   UNL A   1      33.046  22.955  27.182  1.00  0.00     0.116 C 
BRANCH  75  76
ATOM     76  N   UNL A   1      32.355  21.840  26.580  1.00  0.00    -0.356 N 
ATOM     77  C   UNL A   1      32.730  21.059  25.533  1.00  0.00     0.223 C 
ATOM     78  H   UNL A   1      31.488  21.612  26.987  1.00  0.00     0.163 HD
ATOM     79  O   UNL A   1      32.076  20.038  25.311  1.00  0.00    -0.275 OA
BRANCH  77  80
ATOM     80  C   UNL A   1      33.872  21.451  24.605  1.00  0.00     0.091 C 
ATOM     81  C   UNL A   1      35.227  21.687  25.284  1.00  0.00     0.014 C 
ATOM     82  C   UNL A   1      33.420  22.540  23.621  1.00  0.00     0.091 C 
ATOM     83  C   UNL A   1      36.286  22.123  24.276  1.00  0.00     0.001 C 
ATOM     84  C   UNL A   1      34.551  23.071  22.727  1.00  0.00     0.014 C 
ATOM     85  C   UNL A   1      35.824  23.362  23.518  1.00  0.00     0.001 C 
BRANCH  82  86
ATOM     86  C   UNL A   1      32.143  22.228  22.808  1.00  0.00     0.228 C 
ATOM     87  O   UNL A   1      32.006  21.088  22.344  1.00  0.00    -0.274 OA
ATOM     88  N   UNL A   1      31.071  23.071  22.691  1.00  0.00    -0.326 N 
ATOM     89  H   UNL A   1      30.268  22.657  22.300  1.00  0.00     0.169 HD
BRANCH  88  90
ATOM     90  C   UNL A   1      30.920  24.417  23.030  1.00  0.00     0.041 A 
ATOM     91  C   UNL A   1      30.129  24.748  24.122  1.00  0.00     0.028 A 
ATOM     92  C   UNL A   1      31.483  25.445  22.289  1.00  0.00     0.028 A 
ATOM     93  C   UNL A   1      30.120  26.062  24.605  1.00  0.00     0.028 A 
ATOM     94  C   UNL A   1      31.522  26.745  22.797  1.00  0.00     0.028 A 
ATOM     95  C   UNL A   1      30.910  27.048  24.016  1.00  0.00     0.041 A 
BRANCH  95  96
ATOM     96  N   UNL A   1      31.181  28.321  24.548  1.00  0.00    -0.319 N 
ATOM     97  C   UNL A   1      30.652  29.577  24.333  1.00  0.00     0.291 C 
ATOM     98  H   UNL A   1      31.903  28.314  25.217  1.00  0.00     0.170 HD
ATOM     99  O   UNL A   1      31.071  30.490  25.048  1.00  0.00    -0.265 OA
BRANCH  97 100
ATOM    100  C   UNL A   1      29.643  29.785  23.329  1.00  0.00     0.191 A 
ATOM    101  C   UNL A   1      28.308  29.430  23.258  1.00  0.00     0.056 A 
ATOM    102  O   UNL A   1      30.004  30.447  22.188  1.00  0.00    -0.459 OA
ATOM    103  C   UNL A   1      27.848  29.857  21.987  1.00  0.00     0.043 A 
ATOM    104  C   UNL A   1      28.913  30.484  21.383  1.00  0.00     0.196 A 
ENDBRANCH  97 100
ENDBRANCH  95  96
ENDBRANCH  88  90
ENDBRANCH  82  86
ENDBRANCH  77  80
ENDBRANCH  75  76
ENDBRANCH  74  75
ENDBRANCH   1  74
TORSDOF 17
ENDMDL
