MODEL 1
REMARK VINA RESULT:     -10.4      0.000      0.000
REMARK SMILES CCc1ccc(C(=O)NC[C@@H](CC(C)C)C(=O)NCCCCCCNC(=O)c2ccc(-c3c4nc(c(-c5c(F)c(F)c(F)c(F)c5F)c5ccc([nH]5)c(-c5c(F)c(F)c(F)c(F)c5F)c5nc(c(-c6c(F)c(F)c(F)c(F)c6F)c6ccc3[nH]6)C=C5)C=C4)cc2)s1
REMARK SMILES IDX 20 1 19 2 18 3 16 4 17 5 11 7 10 8 9 9 7 10 8 11 6 13 3 14
REMARK SMILES IDX 4 15 91 16 5 17 2 18 1 19 12 20 13 21 14 22 15 23 21 24
REMARK SMILES IDX 22 25 23 26 24 27 25 28 26 29 27 31 28 32 29 33 90 34 30 35
REMARK SMILES IDX 89 36 31 37 32 38 33 39 83 40 34 41 88 42 82 43 84 44 35 45
REMARK SMILES IDX 87 46 81 47 80 48 36 50 68 51 48 52 67 53 49 54 52 55 66 56
REMARK SMILES IDX 85 57 50 58 51 59 65 61 86 62 53 63 37 64 38 65 46 66 39 67
REMARK SMILES IDX 40 68 44 69 47 70 41 71 42 72 45 73 43 74 69 75 70 76 78 77
REMARK SMILES IDX 71 78 72 79 76 80 79 81 73 82 74 83 77 84 75 85 54 86 55 87
REMARK SMILES IDX 63 88 56 89 57 90 61 91 64 92 58 93 59 94 62 95 60 96
REMARK H PARENT 18 6 9 12 25 30 84 49 52 60
REMARK Flexibility Score: inf
ROOT
ATOM      1  C   UNL A   1      33.889  27.193  24.175  1.00  0.00     0.021 C 
ENDROOT
BRANCH   1   2
ATOM      2  C   UNL A   1      33.138  25.912  23.849  1.00  0.00     0.116 C 
BRANCH   2   3
ATOM      3  N   UNL A   1      33.950  24.936  23.157  1.00  0.00    -0.356 N 
ATOM      4  C   UNL A   1      34.815  23.999  23.628  1.00  0.00     0.224 C 
ATOM      5  O   UNL A   1      35.227  23.165  22.814  1.00  0.00    -0.275 OA
ATOM      6  H   UNL A   1      33.861  24.953  22.176  1.00  0.00     0.163 HD
BRANCH   4   7
ATOM      7  C   UNL A   1      35.273  23.930  25.083  1.00  0.00     0.098 C 
BRANCH   7   8
ATOM      8  C   UNL A   1      34.530  22.878  25.919  1.00  0.00     0.129 C 
BRANCH   8   9
ATOM      9  N   UNL A   1      33.110  23.146  26.056  1.00  0.00    -0.351 N 
ATOM     10  C   UNL A   1      32.010  22.539  25.493  1.00  0.00     0.261 C 
ATOM     11  O   UNL A   1      30.938  22.823  26.037  1.00  0.00    -0.268 OA
ATOM     12  H   UNL A   1      32.896  23.896  26.658  1.00  0.00     0.163 HD
BRANCH  10  13
ATOM     13  C   UNL A   1      32.114  21.645  24.341  1.00  0.00     0.092 A 
ATOM     14  C   UNL A   1      32.303  19.532  23.016  1.00  0.00     0.005 A 
ATOM     15  C   UNL A   1      32.045  20.630  22.225  1.00  0.00     0.016 A 
ATOM     16  S   UNL A   1      32.471  19.985  24.656  1.00  0.00    -0.135 S 
ATOM     17  C   UNL A   1      31.917  21.833  22.986  1.00  0.00     0.026 A 
BRANCH  14  18
ATOM     18  C   UNL A   1      32.378  18.083  22.622  1.00  0.00     0.043 C 
ATOM     19  C   UNL A   1      33.629  17.389  23.138  1.00  0.00     0.010 C 
ENDBRANCH  14  18
ENDBRANCH  10  13
ENDBRANCH   8   9
ENDBRANCH   7   8
BRANCH   7  20
ATOM     20  C   UNL A   1      36.815  23.931  25.263  1.00  0.00     0.018 C 
BRANCH  20  21
ATOM     21  C   UNL A   1      37.475  22.646  25.808  1.00  0.00    -0.017 C 
ATOM     22  C   UNL A   1      37.589  21.557  24.733  1.00  0.00     0.007 C 
ATOM     23  C   UNL A   1      38.881  22.927  26.351  1.00  0.00     0.007 C 
ENDBRANCH  20  21
ENDBRANCH   7  20
ENDBRANCH   4   7
ENDBRANCH   2   3
ENDBRANCH   1   2
BRANCH   1  24
ATOM     24  C   UNL A   1      33.005  28.438  24.263  1.00  0.00     0.002 C 
BRANCH  24  25
ATOM     25  C   UNL A   1      32.015  28.478  25.433  1.00  0.00     0.002 C 
BRANCH  25  26
ATOM     26  C   UNL A   1      32.534  27.951  26.774  1.00  0.00     0.021 C 
BRANCH  26  27
ATOM     27  C   UNL A   1      33.864  28.532  27.234  1.00  0.00     0.116 C 
BRANCH  27  28
ATOM     28  N   UNL A   1      33.757  29.920  27.646  1.00  0.00    -0.352 N 
ATOM     29  C   UNL A   1      34.671  30.706  28.299  1.00  0.00     0.251 C 
ATOM     30  H   UNL A   1      32.904  30.360  27.426  1.00  0.00     0.163 HD
ATOM     31  O   UNL A   1      34.351  31.824  28.693  1.00  0.00    -0.269 OA
BRANCH  29  32
ATOM     32  C   UNL A   1      36.032  30.196  28.559  1.00  0.00     0.039 A 
ATOM     33  C   UNL A   1      36.994  30.321  27.553  1.00  0.00     0.014 A 
ATOM     34  C   UNL A   1      36.365  29.597  29.777  1.00  0.00     0.014 A 
ATOM     35  C   UNL A   1      38.301  29.896  27.789  1.00  0.00     0.010 A 
ATOM     36  C   UNL A   1      37.686  29.246  30.040  1.00  0.00     0.010 A 
ATOM     37  C   UNL A   1      38.667  29.387  29.047  1.00  0.00    -0.014 A 
BRANCH  37  38
ATOM     38  C   UNL A   1      40.072  29.002  29.333  1.00  0.00     0.031 A 
ATOM     39  C   UNL A   1      40.974  29.933  30.095  1.00  0.00     0.074 A 
ATOM     40  C   UNL A   1      40.548  27.832  28.865  1.00  0.00     0.049 A 
ATOM     41  N   UNL A   1      42.238  29.791  30.406  1.00  0.00    -0.248 NA
ATOM     42  C   UNL A   1      40.386  31.203  30.548  1.00  0.00     0.031 C 
ATOM     43  C   UNL A   1      39.784  26.866  28.074  1.00  0.00     0.029 A 
ATOM     44  N   UNL A   1      41.790  27.259  28.978  1.00  0.00    -0.354 N 
ATOM     45  C   UNL A   1      42.595  30.953  31.080  1.00  0.00     0.074 A 
ATOM     46  C   UNL A   1      41.433  31.814  31.081  1.00  0.00     0.031 C 
ATOM     47  C   UNL A   1      40.563  25.809  27.799  1.00  0.00     0.029 A 
ATOM     48  C   UNL A   1      41.893  26.039  28.354  1.00  0.00     0.049 A 
ATOM     49  H   UNL A   1      42.535  27.681  29.463  1.00  0.00     0.167 HD
ATOM     50  C   UNL A   1      43.777  31.260  31.666  1.00  0.00     0.037 A 
ATOM     51  C   UNL A   1      42.945  25.207  28.233  1.00  0.00     0.037 A 
ATOM     52  C   UNL A   1      44.925  30.390  31.674  1.00  0.00     0.049 A 
ATOM     53  C   UNL A   1      44.253  25.585  28.876  1.00  0.00     0.074 A 
ATOM     54  C   UNL A   1      46.151  30.587  32.286  1.00  0.00     0.029 A 
ATOM     55  N   UNL A   1      44.991  29.162  31.034  1.00  0.00    -0.354 N 
ATOM     56  N   UNL A   1      44.556  26.653  29.573  1.00  0.00    -0.248 NA
ATOM     57  C   UNL A   1      45.364  24.636  28.719  1.00  0.00     0.031 C 
ATOM     58  C   UNL A   1      46.977  29.505  31.967  1.00  0.00     0.029 A 
ATOM     59  C   UNL A   1      46.246  28.602  31.212  1.00  0.00     0.049 A 
ATOM     60  H   UNL A   1      44.253  28.748  30.528  1.00  0.00     0.167 HD
ATOM     61  C   UNL A   1      45.878  26.489  29.965  1.00  0.00     0.074 A 
ATOM     62  C   UNL A   1      46.312  25.210  29.443  1.00  0.00     0.031 C 
ATOM     63  C   UNL A   1      46.662  27.324  30.692  1.00  0.00     0.037 A 
BRANCH  50  64
ATOM     64  C   UNL A   1      43.891  32.593  32.349  1.00  0.00     0.064 A 
ATOM     65  C   UNL A   1      43.566  32.758  33.704  1.00  0.00     0.173 A 
ATOM     66  C   UNL A   1      44.371  33.712  31.651  1.00  0.00     0.173 A 
ATOM     67  F   UNL A   1      43.092  31.724  34.416  1.00  0.00    -0.203 F 
ATOM     68  C   UNL A   1      43.690  33.998  34.327  1.00  0.00     0.198 A 
ATOM     69  C   UNL A   1      44.526  34.942  32.286  1.00  0.00     0.198 A 
ATOM     70  F   UNL A   1      44.702  33.611  30.355  1.00  0.00    -0.203 F 
ATOM     71  F   UNL A   1      43.325  34.142  35.608  1.00  0.00    -0.200 F 
ATOM     72  C   UNL A   1      44.178  35.086  33.620  1.00  0.00     0.200 A 
ATOM     73  F   UNL A   1      45.013  35.989  31.605  1.00  0.00    -0.200 F 
ATOM     74  F   UNL A   1      44.307  36.275  34.223  1.00  0.00    -0.200 F 
ENDBRANCH  50  64
BRANCH  51  75
ATOM     75  C   UNL A   1      42.802  23.927  27.489  1.00  0.00     0.064 A 
ATOM     76  C   UNL A   1      43.111  23.847  26.123  1.00  0.00     0.173 A 
ATOM     77  C   UNL A   1      42.339  22.763  28.120  1.00  0.00     0.173 A 
ATOM     78  F   UNL A   1      43.541  24.936  25.470  1.00  0.00    -0.203 F 
ATOM     79  C   UNL A   1      42.935  22.662  25.413  1.00  0.00     0.198 A 
ATOM     80  C   UNL A   1      42.195  21.570  27.416  1.00  0.00     0.198 A 
ATOM     81  F   UNL A   1      42.035  22.782  29.426  1.00  0.00    -0.203 F 
ATOM     82  F   UNL A   1      43.184  22.629  24.096  1.00  0.00    -0.200 F 
ATOM     83  C   UNL A   1      42.482  21.523  26.060  1.00  0.00     0.200 A 
ATOM     84  F   UNL A   1      41.773  20.467  28.050  1.00  0.00    -0.200 F 
ATOM     85  F   UNL A   1      42.313  20.383  25.377  1.00  0.00    -0.200 F 
ENDBRANCH  51  75
BRANCH  63  86
ATOM     86  C   UNL A   1      48.059  26.863  30.999  1.00  0.00     0.064 A 
ATOM     87  C   UNL A   1      49.152  27.228  30.201  1.00  0.00     0.173 A 
ATOM     88  C   UNL A   1      48.309  26.071  32.131  1.00  0.00     0.173 A 
ATOM     89  F   UNL A   1      48.966  27.973  29.100  1.00  0.00    -0.203 F 
ATOM     90  C   UNL A   1      50.439  26.792  30.505  1.00  0.00     0.198 A 
ATOM     91  C   UNL A   1      49.602  25.666  32.453  1.00  0.00     0.198 A 
ATOM     92  F   UNL A   1      47.301  25.699  32.934  1.00  0.00    -0.203 F 
ATOM     93  F   UNL A   1      51.459  27.107  29.696  1.00  0.00    -0.200 F 
ATOM     94  C   UNL A   1      50.664  26.018  31.634  1.00  0.00     0.200 A 
ATOM     95  F   UNL A   1      49.819  24.934  33.554  1.00  0.00    -0.200 F 
ATOM     96  F   UNL A   1      51.904  25.606  31.930  1.00  0.00    -0.200 F 
ENDBRANCH  63  86
ENDBRANCH  37  38
ENDBRANCH  29  32
ENDBRANCH  27  28
ENDBRANCH  26  27
ENDBRANCH  25  26
ENDBRANCH  24  25
ENDBRANCH   1  24
TORSDOF 19
ENDMDL
MODEL 2
REMARK VINA RESULT:     -10.3      1.686      2.450
REMARK SMILES CCc1ccc(C(=O)NC[C@@H](CC(C)C)C(=O)NCCCCCCNC(=O)c2ccc(-c3c4nc(c(-c5c(F)c(F)c(F)c(F)c5F)c5ccc([nH]5)c(-c5c(F)c(F)c(F)c(F)c5F)c5nc(c(-c6c(F)c(F)c(F)c(F)c6F)c6ccc3[nH]6)C=C5)C=C4)cc2)s1
REMARK SMILES IDX 20 1 19 2 18 3 16 4 17 5 11 7 10 8 9 9 7 10 8 11 6 13 3 14
REMARK SMILES IDX 4 15 91 16 5 17 2 18 1 19 12 20 13 21 14 22 15 23 21 24
REMARK SMILES IDX 22 25 23 26 24 27 25 28 26 29 27 31 28 32 29 33 90 34 30 35
REMARK SMILES IDX 89 36 31 37 32 38 33 39 83 40 34 41 88 42 82 43 84 44 35 45
REMARK SMILES IDX 87 46 81 47 80 48 36 50 68 51 48 52 67 53 49 54 52 55 66 56
REMARK SMILES IDX 85 57 50 58 51 59 65 61 86 62 53 63 37 64 38 65 46 66 39 67
REMARK SMILES IDX 40 68 44 69 47 70 41 71 42 72 45 73 43 74 69 75 70 76 78 77
REMARK SMILES IDX 71 78 72 79 76 80 79 81 73 82 74 83 77 84 75 85 54 86 55 87
REMARK SMILES IDX 63 88 56 89 57 90 61 91 64 92 58 93 59 94 62 95 60 96
REMARK H PARENT 18 6 9 12 25 30 84 49 52 60
REMARK Flexibility Score: inf
ROOT
ATOM      1  C   UNL A   1      31.857  28.189  23.570  1.00  0.00     0.021 C 
ENDROOT
BRANCH   1   2
ATOM      2  C   UNL A   1      31.127  27.465  22.450  1.00  0.00     0.116 C 
BRANCH   2   3
ATOM      3  N   UNL A   1      32.005  26.675  21.615  1.00  0.00    -0.356 N 
ATOM      4  C   UNL A   1      32.730  25.558  21.887  1.00  0.00     0.224 C 
ATOM      5  O   UNL A   1      33.242  24.980  20.923  1.00  0.00    -0.275 OA
ATOM      6  H   UNL A   1      32.092  27.003  20.691  1.00  0.00     0.163 HD
BRANCH   4   7
ATOM      7  C   UNL A   1      32.920  24.998  23.295  1.00  0.00     0.098 C 
BRANCH   7   8
ATOM      8  C   UNL A   1      32.146  23.697  23.556  1.00  0.00     0.129 C 
BRANCH   8   9
ATOM      9  N   UNL A   1      32.155  22.784  22.429  1.00  0.00    -0.351 N 
ATOM     10  C   UNL A   1      32.111  21.408  22.370  1.00  0.00     0.261 C 
ATOM     11  O   UNL A   1      31.846  20.954  21.252  1.00  0.00    -0.268 OA
ATOM     12  H   UNL A   1      32.201  23.225  21.550  1.00  0.00     0.163 HD
BRANCH  10  13
ATOM     13  C   UNL A   1      32.370  20.567  23.537  1.00  0.00     0.092 A 
ATOM     14  C   UNL A   1      32.892  18.536  24.903  1.00  0.00     0.005 A 
ATOM     15  C   UNL A   1      32.926  19.696  25.646  1.00  0.00     0.016 A 
ATOM     16  S   UNL A   1      32.440  18.860  23.285  1.00  0.00    -0.135 S 
ATOM     17  C   UNL A   1      32.648  20.857  24.860  1.00  0.00     0.026 A 
BRANCH  14  18
ATOM     18  C   UNL A   1      33.249  17.137  25.321  1.00  0.00     0.043 C 
ATOM     19  C   UNL A   1      34.302  16.499  24.428  1.00  0.00     0.010 C 
ENDBRANCH  14  18
ENDBRANCH  10  13
ENDBRANCH   8   9
ENDBRANCH   7   8
BRANCH   7  20
ATOM     20  C   UNL A   1      34.394  24.984  23.779  1.00  0.00     0.018 C 
BRANCH  20  21
ATOM     21  C   UNL A   1      34.967  23.647  24.296  1.00  0.00    -0.017 C 
ATOM     22  C   UNL A   1      35.848  22.955  23.248  1.00  0.00     0.007 C 
ATOM     23  C   UNL A   1      35.807  23.852  25.563  1.00  0.00     0.007 C 
ENDBRANCH  20  21
ENDBRANCH   7  20
ENDBRANCH   4   7
ENDBRANCH   2   3
ENDBRANCH   1   2
BRANCH   1  24
ATOM     24  C   UNL A   1      31.030  28.379  24.843  1.00  0.00     0.002 C 
BRANCH  24  25
ATOM     25  C   UNL A   1      31.780  28.186  26.167  1.00  0.00     0.002 C 
BRANCH  25  26
ATOM     26  C   UNL A   1      33.167  27.545  26.069  1.00  0.00     0.021 C 
BRANCH  26  27
ATOM     27  C   UNL A   1      34.342  28.500  26.229  1.00  0.00     0.116 C 
BRANCH  27  28
ATOM     28  N   UNL A   1      33.939  29.811  26.701  1.00  0.00    -0.352 N 
ATOM     29  C   UNL A   1      34.541  30.627  27.624  1.00  0.00     0.251 C 
ATOM     30  H   UNL A   1      33.112  30.167  26.302  1.00  0.00     0.163 HD
ATOM     31  O   UNL A   1      33.977  31.650  28.003  1.00  0.00    -0.269 OA
BRANCH  29  32
ATOM     32  C   UNL A   1      35.856  30.260  28.187  1.00  0.00     0.039 A 
ATOM     33  C   UNL A   1      35.897  29.639  29.437  1.00  0.00     0.014 A 
ATOM     34  C   UNL A   1      37.042  30.525  27.495  1.00  0.00     0.014 A 
ATOM     35  C   UNL A   1      37.121  29.234  29.969  1.00  0.00     0.010 A 
ATOM     36  C   UNL A   1      38.254  30.050  27.990  1.00  0.00     0.010 A 
ATOM     37  C   UNL A   1      38.306  29.404  29.235  1.00  0.00    -0.014 A 
BRANCH  37  38
ATOM     38  C   UNL A   1      39.605  28.909  29.758  1.00  0.00     0.031 A 
ATOM     39  C   UNL A   1      40.317  29.657  30.851  1.00  0.00     0.074 A 
ATOM     40  C   UNL A   1      40.163  27.810  29.215  1.00  0.00     0.049 A 
ATOM     41  N   UNL A   1      41.476  29.404  31.407  1.00  0.00    -0.248 NA
ATOM     42  C   UNL A   1      39.654  30.862  31.371  1.00  0.00     0.031 C 
ATOM     43  C   UNL A   1      39.590  27.026  28.120  1.00  0.00     0.029 A 
ATOM     44  N   UNL A   1      41.340  27.166  29.503  1.00  0.00    -0.354 N 
ATOM     45  C   UNL A   1      41.680  30.420  32.332  1.00  0.00     0.074 A 
ATOM     46  C   UNL A   1      40.558  31.326  32.221  1.00  0.00     0.031 C 
ATOM     47  C   UNL A   1      40.401  25.991  27.849  1.00  0.00     0.029 A 
ATOM     48  C   UNL A   1      41.571  26.062  28.718  1.00  0.00     0.049 A 
ATOM     49  H   UNL A   1      41.959  27.465  30.207  1.00  0.00     0.167 HD
ATOM     50  C   UNL A   1      42.700  30.569  33.212  1.00  0.00     0.037 A 
ATOM     51  C   UNL A   1      42.614  25.210  28.696  1.00  0.00     0.037 A 
ATOM     52  C   UNL A   1      43.807  29.654  33.327  1.00  0.00     0.049 A 
ATOM     53  C   UNL A   1      43.744  25.413  29.669  1.00  0.00     0.074 A 
ATOM     54  C   UNL A   1      44.862  29.688  34.223  1.00  0.00     0.029 A 
ATOM     55  N   UNL A   1      44.005  28.546  32.518  1.00  0.00    -0.354 N 
ATOM     56  N   UNL A   1      43.890  26.336  30.589  1.00  0.00    -0.248 NA
ATOM     57  C   UNL A   1      44.852  24.450  29.605  1.00  0.00     0.031 C 
ATOM     58  C   UNL A   1      45.728  28.634  33.916  1.00  0.00     0.029 A 
ATOM     59  C   UNL A   1      45.180  27.904  32.873  1.00  0.00     0.049 A 
ATOM     60  H   UNL A   1      43.399  28.258  31.797  1.00  0.00     0.167 HD
ATOM     61  C   UNL A   1      45.087  26.046  31.233  1.00  0.00     0.074 A 
ATOM     62  C   UNL A   1      45.615  24.850  30.610  1.00  0.00     0.031 C 
ATOM     63  C   UNL A   1      45.692  26.710  32.248  1.00  0.00     0.037 A 
BRANCH  50  64
ATOM     64  C   UNL A   1      42.668  31.764  34.121  1.00  0.00     0.064 A 
ATOM     65  C   UNL A   1      41.999  31.735  35.355  1.00  0.00     0.173 A 
ATOM     66  C   UNL A   1      43.350  32.940  33.775  1.00  0.00     0.173 A 
ATOM     67  F   UNL A   1      41.322  30.640  35.731  1.00  0.00    -0.203 F 
ATOM     68  C   UNL A   1      41.991  32.848  36.192  1.00  0.00     0.198 A 
ATOM     69  C   UNL A   1      43.368  34.039  34.630  1.00  0.00     0.198 A 
ATOM     70  F   UNL A   1      44.011  33.023  32.610  1.00  0.00    -0.203 F 
ATOM     71  F   UNL A   1      41.302  32.814  37.342  1.00  0.00    -0.200 F 
ATOM     72  C   UNL A   1      42.682  33.995  35.835  1.00  0.00     0.200 A 
ATOM     73  F   UNL A   1      44.050  35.142  34.289  1.00  0.00    -0.200 F 
ATOM     74  F   UNL A   1      42.682  35.061  36.647  1.00  0.00    -0.200 F 
ENDBRANCH  50  64
BRANCH  51  75
ATOM     75  C   UNL A   1      42.632  24.079  27.730  1.00  0.00     0.064 A 
ATOM     76  C   UNL A   1      42.225  22.793  28.116  1.00  0.00     0.173 A 
ATOM     77  C   UNL A   1      43.073  24.252  26.410  1.00  0.00     0.173 A 
ATOM     78  F   UNL A   1      41.813  22.571  29.373  1.00  0.00    -0.203 F 
ATOM     79  C   UNL A   1      42.286  21.721  27.228  1.00  0.00     0.198 A 
ATOM     80  C   UNL A   1      43.100  23.187  25.513  1.00  0.00     0.198 A 
ATOM     81  F   UNL A   1      43.467  25.462  25.986  1.00  0.00    -0.203 F 
ATOM     82  F   UNL A   1      41.944  20.493  27.641  1.00  0.00    -0.200 F 
ATOM     83  C   UNL A   1      42.718  21.920  25.926  1.00  0.00     0.200 A 
ATOM     84  F   UNL A   1      43.503  23.387  24.251  1.00  0.00    -0.200 F 
ATOM     85  F   UNL A   1      42.775  20.889  25.072  1.00  0.00    -0.200 F 
ENDBRANCH  51  75
BRANCH  63  86
ATOM     86  C   UNL A   1      46.976  26.137  32.777  1.00  0.00     0.064 A 
ATOM     87  C   UNL A   1      48.226  26.546  32.289  1.00  0.00     0.173 A 
ATOM     88  C   UNL A   1      46.955  25.189  33.812  1.00  0.00     0.173 A 
ATOM     89  F   UNL A   1      48.301  27.439  31.291  1.00  0.00    -0.203 F 
ATOM     90  C   UNL A   1      49.404  26.003  32.794  1.00  0.00     0.198 A 
ATOM     91  C   UNL A   1      48.136  24.675  34.340  1.00  0.00     0.198 A 
ATOM     92  F   UNL A   1      45.787  24.769  34.321  1.00  0.00    -0.203 F 
ATOM     93  F   UNL A   1      50.584  26.367  32.273  1.00  0.00    -0.200 F 
ATOM     94  C   UNL A   1      49.359  25.075  33.824  1.00  0.00     0.200 A 
ATOM     95  F   UNL A   1      48.090  23.793  35.347  1.00  0.00    -0.200 F 
ATOM     96  F   UNL A   1      50.495  24.560  34.315  1.00  0.00    -0.200 F 
ENDBRANCH  63  86
ENDBRANCH  37  38
ENDBRANCH  29  32
ENDBRANCH  27  28
ENDBRANCH  26  27
ENDBRANCH  25  26
ENDBRANCH  24  25
ENDBRANCH   1  24
TORSDOF 19
ENDMDL
MODEL 3
REMARK VINA RESULT:     -10.1      2.915      4.093
REMARK SMILES CCc1ccc(C(=O)NC[C@@H](CC(C)C)C(=O)NCCCCCCNC(=O)c2ccc(-c3c4nc(c(-c5c(F)c(F)c(F)c(F)c5F)c5ccc([nH]5)c(-c5c(F)c(F)c(F)c(F)c5F)c5nc(c(-c6c(F)c(F)c(F)c(F)c6F)c6ccc3[nH]6)C=C5)C=C4)cc2)s1
REMARK SMILES IDX 20 1 19 2 18 3 16 4 17 5 11 7 10 8 9 9 7 10 8 11 6 13 3 14
REMARK SMILES IDX 4 15 91 16 5 17 2 18 1 19 12 20 13 21 14 22 15 23 21 24
REMARK SMILES IDX 22 25 23 26 24 27 25 28 26 29 27 31 28 32 29 33 90 34 30 35
REMARK SMILES IDX 89 36 31 37 32 38 33 39 83 40 34 41 88 42 82 43 84 44 35 45
REMARK SMILES IDX 87 46 81 47 80 48 36 50 68 51 48 52 67 53 49 54 52 55 66 56
REMARK SMILES IDX 85 57 50 58 51 59 65 61 86 62 53 63 37 64 38 65 46 66 39 67
REMARK SMILES IDX 40 68 44 69 47 70 41 71 42 72 45 73 43 74 69 75 70 76 78 77
REMARK SMILES IDX 71 78 72 79 76 80 79 81 73 82 74 83 77 84 75 85 54 86 55 87
REMARK SMILES IDX 63 88 56 89 57 90 61 91 64 92 58 93 59 94 62 95 60 96
REMARK H PARENT 18 6 9 12 25 30 84 49 52 60
REMARK Flexibility Score: inf
ROOT
ATOM      1  C   UNL A   1      33.147  27.254  24.554  1.00  0.00     0.021 C 
ENDROOT
BRANCH   1   2
ATOM      2  C   UNL A   1      32.593  25.838  24.529  1.00  0.00     0.116 C 
BRANCH   2   3
ATOM      3  N   UNL A   1      33.244  24.988  23.556  1.00  0.00    -0.356 N 
ATOM      4  C   UNL A   1      34.236  24.070  23.693  1.00  0.00     0.224 C 
ATOM      5  O   UNL A   1      34.463  23.347  22.717  1.00  0.00    -0.275 OA
ATOM      6  H   UNL A   1      32.911  25.094  22.635  1.00  0.00     0.163 HD
BRANCH   4   7
ATOM      7  C   UNL A   1      35.048  23.890  24.974  1.00  0.00     0.098 C 
BRANCH   7   8
ATOM      8  C   UNL A   1      34.443  22.877  25.957  1.00  0.00     0.129 C 
BRANCH   8   9
ATOM      9  N   UNL A   1      33.098  22.461  25.604  1.00  0.00    -0.351 N 
ATOM     10  C   UNL A   1      32.563  21.214  25.364  1.00  0.00     0.261 C 
ATOM     11  O   UNL A   1      31.328  21.181  25.370  1.00  0.00    -0.268 OA
ATOM     12  H   UNL A   1      32.454  23.201  25.520  1.00  0.00     0.163 HD
BRANCH  10  13
ATOM     13  C   UNL A   1      33.397  20.040  25.115  1.00  0.00     0.092 A 
ATOM     14  C   UNL A   1      34.036  17.664  24.664  1.00  0.00     0.005 A 
ATOM     15  C   UNL A   1      35.101  18.530  24.539  1.00  0.00     0.016 A 
ATOM     16  S   UNL A   1      32.624  18.496  25.151  1.00  0.00    -0.135 S 
ATOM     17  C   UNL A   1      34.729  19.890  24.777  1.00  0.00     0.026 A 
BRANCH  14  18
ATOM     18  C   UNL A   1      33.981  16.190  24.374  1.00  0.00     0.043 C 
ATOM     19  C   UNL A   1      32.944  15.456  25.209  1.00  0.00     0.010 C 
ENDBRANCH  14  18
ENDBRANCH  10  13
ENDBRANCH   8   9
ENDBRANCH   7   8
BRANCH   7  20
ATOM     20  C   UNL A   1      36.574  23.737  24.742  1.00  0.00     0.018 C 
BRANCH  20  21
ATOM     21  C   UNL A   1      37.382  22.935  25.784  1.00  0.00    -0.017 C 
ATOM     22  C   UNL A   1      37.971  21.649  25.191  1.00  0.00     0.007 C 
ATOM     23  C   UNL A   1      38.536  23.766  26.357  1.00  0.00     0.007 C 
ENDBRANCH  20  21
ENDBRANCH   7  20
ENDBRANCH   4   7
ENDBRANCH   2   3
ENDBRANCH   1   2
BRANCH   1  24
ATOM     24  C   UNL A   1      32.465  28.215  23.578  1.00  0.00     0.002 C 
BRANCH  24  25
ATOM     25  C   UNL A   1      31.382  29.121  24.176  1.00  0.00     0.002 C 
BRANCH  25  26
ATOM     26  C   UNL A   1      31.511  29.432  25.670  1.00  0.00     0.021 C 
BRANCH  26  27
ATOM     27  C   UNL A   1      32.816  30.094  26.090  1.00  0.00     0.116 C 
BRANCH  27  28
ATOM     28  N   UNL A   1      32.642  31.482  26.477  1.00  0.00    -0.352 N 
ATOM     29  C   UNL A   1      33.368  32.235  27.363  1.00  0.00     0.251 C 
ATOM     30  H   UNL A   1      31.893  31.950  26.042  1.00  0.00     0.163 HD
ATOM     31  O   UNL A   1      32.987  33.361  27.672  1.00  0.00    -0.269 OA
BRANCH  29  32
ATOM     32  C   UNL A   1      34.595  31.681  27.972  1.00  0.00     0.039 A 
ATOM     33  C   UNL A   1      35.726  32.496  28.052  1.00  0.00     0.014 A 
ATOM     34  C   UNL A   1      34.636  30.372  28.460  1.00  0.00     0.014 A 
ATOM     35  C   UNL A   1      36.881  32.017  28.669  1.00  0.00     0.010 A 
ATOM     36  C   UNL A   1      35.762  29.923  29.145  1.00  0.00     0.010 A 
ATOM     37  C   UNL A   1      36.898  30.739  29.252  1.00  0.00    -0.014 A 
BRANCH  37  38
ATOM     38  C   UNL A   1      38.097  30.249  29.978  1.00  0.00     0.031 A 
ATOM     39  C   UNL A   1      38.373  30.705  31.383  1.00  0.00     0.074 A 
ATOM     40  C   UNL A   1      38.962  29.428  29.350  1.00  0.00     0.049 A 
ATOM     41  N   UNL A   1      39.387  30.419  32.162  1.00  0.00    -0.248 NA
ATOM     42  C   UNL A   1      37.396  31.623  31.987  1.00  0.00     0.031 C 
ATOM     43  C   UNL A   1      38.827  28.952  27.972  1.00  0.00     0.029 A 
ATOM     44  N   UNL A   1      40.130  28.854  29.785  1.00  0.00    -0.354 N 
ATOM     45  C   UNL A   1      39.171  31.126  33.338  1.00  0.00     0.074 A 
ATOM     46  C   UNL A   1      37.964  31.901  33.150  1.00  0.00     0.031 C 
ATOM     47  C   UNL A   1      39.853  28.138  27.685  1.00  0.00     0.029 A 
ATOM     48  C   UNL A   1      40.743  28.066  28.840  1.00  0.00     0.049 A 
ATOM     49  H   UNL A   1      40.494  28.991  30.689  1.00  0.00     0.167 HD
ATOM     50  C   UNL A   1      39.900  31.110  34.480  1.00  0.00     0.037 A 
ATOM     51  C   UNL A   1      41.897  27.374  28.896  1.00  0.00     0.037 A 
ATOM     52  C   UNL A   1      41.093  30.324  34.665  1.00  0.00     0.049 A 
ATOM     53  C   UNL A   1      42.699  27.393  30.170  1.00  0.00     0.074 A 
ATOM     54  C   UNL A   1      41.873  30.197  35.802  1.00  0.00     0.029 A 
ATOM     55  N   UNL A   1      41.681  29.536  33.687  1.00  0.00    -0.354 N 
ATOM     56  N   UNL A   1      42.445  28.007  31.300  1.00  0.00    -0.248 NA
ATOM     57  C   UNL A   1      43.945  26.614  30.177  1.00  0.00     0.031 C 
ATOM     58  C   UNL A   1      42.965  29.381  35.492  1.00  0.00     0.029 A 
ATOM     59  C   UNL A   1      42.831  28.944  34.184  1.00  0.00     0.049 A 
ATOM     60  H   UNL A   1      41.332  29.416  32.774  1.00  0.00     0.167 HD
ATOM     61  C   UNL A   1      43.480  27.664  32.161  1.00  0.00     0.074 A 
ATOM     62  C   UNL A   1      44.354  26.772  31.427  1.00  0.00     0.031 C 
ATOM     63  C   UNL A   1      43.688  28.052  33.443  1.00  0.00     0.037 A 
BRANCH  50  64
ATOM     64  C   UNL A   1      39.430  31.968  35.620  1.00  0.00     0.064 A 
ATOM     65  C   UNL A   1      38.484  31.507  36.549  1.00  0.00     0.173 A 
ATOM     66  C   UNL A   1      39.963  33.251  35.812  1.00  0.00     0.173 A 
ATOM     67  F   UNL A   1      37.934  30.291  36.407  1.00  0.00    -0.203 F 
ATOM     68  C   UNL A   1      38.069  32.309  37.609  1.00  0.00     0.198 A 
ATOM     69  C   UNL A   1      39.571  34.038  36.893  1.00  0.00     0.198 A 
ATOM     70  F   UNL A   1      40.875  33.741  34.958  1.00  0.00    -0.203 F 
ATOM     71  F   UNL A   1      37.126  31.867  38.453  1.00  0.00    -0.200 F 
ATOM     72  C   UNL A   1      38.619  33.569  37.785  1.00  0.00     0.200 A 
ATOM     73  F   UNL A   1      40.115  35.250  37.071  1.00  0.00    -0.200 F 
ATOM     74  F   UNL A   1      38.226  34.336  38.812  1.00  0.00    -0.200 F 
ENDBRANCH  50  64
BRANCH  51  75
ATOM     75  C   UNL A   1      42.356  26.593  27.717  1.00  0.00     0.064 A 
ATOM     76  C   UNL A   1      41.872  25.298  27.475  1.00  0.00     0.173 A 
ATOM     77  C   UNL A   1      43.299  27.113  26.819  1.00  0.00     0.173 A 
ATOM     78  F   UNL A   1      40.984  24.749  28.315  1.00  0.00    -0.203 F 
ATOM     79  C   UNL A   1      42.336  24.546  26.398  1.00  0.00     0.198 A 
ATOM     80  C   UNL A   1      43.736  26.373  25.723  1.00  0.00     0.198 A 
ATOM     81  F   UNL A   1      43.790  28.348  26.998  1.00  0.00    -0.203 F 
ATOM     82  F   UNL A   1      41.898  23.291  26.223  1.00  0.00    -0.200 F 
ATOM     83  C   UNL A   1      43.263  25.085  25.520  1.00  0.00     0.200 A 
ATOM     84  F   UNL A   1      44.619  26.904  24.867  1.00  0.00    -0.200 F 
ATOM     85  F   UNL A   1      43.707  24.361  24.483  1.00  0.00    -0.200 F 
ENDBRANCH  51  75
BRANCH  63  86
ATOM     86  C   UNL A   1      44.886  27.485  34.150  1.00  0.00     0.064 A 
ATOM     87  C   UNL A   1      44.842  26.245  34.805  1.00  0.00     0.173 A 
ATOM     88  C   UNL A   1      46.107  28.178  34.140  1.00  0.00     0.173 A 
ATOM     89  F   UNL A   1      43.697  25.549  34.855  1.00  0.00    -0.203 F 
ATOM     90  C   UNL A   1      45.965  25.736  35.451  1.00  0.00     0.198 A 
ATOM     91  C   UNL A   1      47.238  27.650  34.757  1.00  0.00     0.198 A 
ATOM     92  F   UNL A   1      46.208  29.364  33.522  1.00  0.00    -0.203 F 
ATOM     93  F   UNL A   1      45.883  24.577  36.119  1.00  0.00    -0.200 F 
ATOM     94  C   UNL A   1      47.163  26.434  35.421  1.00  0.00     0.200 A 
ATOM     95  F   UNL A   1      48.399  28.317  34.710  1.00  0.00    -0.200 F 
ATOM     96  F   UNL A   1      48.246  25.939  36.037  1.00  0.00    -0.200 F 
ENDBRANCH  63  86
ENDBRANCH  37  38
ENDBRANCH  29  32
ENDBRANCH  27  28
ENDBRANCH  26  27
ENDBRANCH  25  26
ENDBRANCH  24  25
ENDBRANCH   1  24
TORSDOF 19
ENDMDL
