MODEL 1
REMARK VINA RESULT:     -13.3      0.000      0.000
REMARK SMILES COc1ccccc1C(=O)N1[C@@H](C(=O)NCCCCCCNC(=O)c2ccc(-c3c4nc(c(-c5c(F)c(F)c(F)c(F)c5F)c5ccc([nH]5)c(-c5c(F)c(F)c(F)c(F)c5F)c5nc(c(-c6c(F)c(F)c(F)c(F)c6F)c6ccc3[nH]6)C=C5)C=C4)cc2)COC12CC[NH+](Cc1ccccc1)CC2
REMARK SMILES IDX 18 1 17 2 16 3 15 4 13 5 14 6 12 8 11 9 90 10 88 11 89 12
REMARK SMILES IDX 91 13 102 14 92 15 101 16 93 17 9 19 10 20 8 21 3 22 4 23
REMARK SMILES IDX 5 24 7 25 6 26 2 27 1 28 94 29 95 30 96 31 100 32 97 33
REMARK SMILES IDX 99 34 98 35 19 36 20 37 21 38 22 39 23 40 24 42 25 43 26 44
REMARK SMILES IDX 87 45 27 46 86 47 28 48 29 49 30 50 80 51 31 52 85 53 79 54
REMARK SMILES IDX 81 55 32 56 84 57 78 58 77 59 33 61 65 62 45 63 64 64 46 65
REMARK SMILES IDX 49 66 63 67 82 68 47 69 48 70 62 72 83 73 50 74 34 75 35 76
REMARK SMILES IDX 43 77 36 78 37 79 41 80 44 81 38 82 39 83 42 84 40 85 66 86
REMARK SMILES IDX 67 87 75 88 68 89 69 90 73 91 76 92 70 93 71 94 74 95 72 96
REMARK SMILES IDX 51 97 52 98 60 99 53 100 54 101 58 102 61 103 55 104 56 105
REMARK SMILES IDX 59 106 57 107
REMARK H PARENT 15 7 93 18 22 41 81 60 49 71
REMARK Flexibility Score: inf
ROOT
ATOM      1  C   UNL A   1      31.961  29.957  25.227  1.00  0.00     0.002 C 
ENDROOT
BRANCH   1   2
ATOM      2  C   UNL A   1      30.716  29.548  24.445  1.00  0.00     0.021 C 
BRANCH   2   3
ATOM      3  C   UNL A   1      30.966  29.284  22.972  1.00  0.00     0.116 C 
BRANCH   3   4
ATOM      4  N   UNL A   1      32.344  29.072  22.596  1.00  0.00    -0.354 N 
ATOM      5  C   UNL A   1      33.004  27.893  22.364  1.00  0.00     0.245 C 
ATOM      6  O   UNL A   1      34.180  27.990  21.993  1.00  0.00    -0.273 OA
ATOM      7  H   UNL A   1      32.886  29.889  22.492  1.00  0.00     0.163 HD
BRANCH   5   8
ATOM      8  C   UNL A   1      32.393  26.497  22.657  1.00  0.00     0.203 C 
ATOM      9  N   UNL A   1      32.927  25.762  23.799  1.00  0.00    -0.295 N 
ATOM     10  C   UNL A   1      33.513  24.490  23.339  1.00  0.00     0.155 C 
ATOM     11  C   UNL A   1      32.629  25.577  21.480  1.00  0.00     0.198 C 
ATOM     12  O   UNL A   1      33.688  24.689  21.911  1.00  0.00    -0.352 OA
ATOM     13  C   UNL A   1      34.840  24.159  24.032  1.00  0.00     0.120 C 
ATOM     14  C   UNL A   1      32.575  23.276  23.383  1.00  0.00     0.120 C 
ATOM     15  C   UNL A   1      35.470  22.854  23.576  1.00  0.00     0.267 C 
ATOM     16  C   UNL A   1      33.318  22.002  22.917  1.00  0.00     0.267 C 
ATOM     17  N   UNL A   1      34.555  21.724  23.640  1.00  0.00    -0.331 N 
ATOM     18  H   UNL A   1      35.001  20.970  23.118  1.00  0.00     0.348 HD
BRANCH   9  19
ATOM     19  C   UNL A   1      32.452  26.071  25.080  1.00  0.00     0.260 C 
ATOM     20  O   UNL A   1      32.962  26.966  25.755  1.00  0.00    -0.269 OA
BRANCH  19  21
ATOM     21  C   UNL A   1      31.399  25.244  25.751  1.00  0.00     0.082 A 
ATOM     22  C   UNL A   1      31.683  24.078  26.467  1.00  0.00     0.131 A 
ATOM     23  C   UNL A   1      30.674  23.252  26.977  1.00  0.00     0.047 A 
ATOM     24  C   UNL A   1      29.364  23.703  26.981  1.00  0.00     0.004 A 
ATOM     25  C   UNL A   1      30.094  25.738  25.868  1.00  0.00     0.018 A 
ATOM     26  C   UNL A   1      29.090  24.981  26.501  1.00  0.00     0.001 A 
BRANCH  22  27
ATOM     27  O   UNL A   1      32.952  23.761  26.869  1.00  0.00    -0.496 OA
ATOM     28  C   UNL A   1      32.893  22.581  27.685  1.00  0.00     0.278 C 
ENDBRANCH  22  27
ENDBRANCH  19  21
ENDBRANCH   9  19
BRANCH  17  29
ATOM     29  C   UNL A   1      34.458  21.006  24.921  1.00  0.00     0.299 C 
BRANCH  29  30
ATOM     30  C   UNL A   1      34.095  19.534  24.910  1.00  0.00     0.006 A 
ATOM     31  C   UNL A   1      34.988  18.572  24.429  1.00  0.00     0.009 A 
ATOM     32  C   UNL A   1      32.840  19.096  25.373  1.00  0.00     0.009 A 
ATOM     33  C   UNL A   1      34.656  17.215  24.482  1.00  0.00     0.001 A 
ATOM     34  C   UNL A   1      32.564  17.739  25.539  1.00  0.00     0.001 A 
ATOM     35  C   UNL A   1      33.480  16.794  25.100  1.00  0.00     0.000 A 
ENDBRANCH  29  30
ENDBRANCH  17  29
ENDBRANCH   5   8
ENDBRANCH   3   4
ENDBRANCH   2   3
ENDBRANCH   1   2
BRANCH   1  36
ATOM     36  C   UNL A   1      31.724  30.505  26.644  1.00  0.00     0.002 C 
BRANCH  36  37
ATOM     37  C   UNL A   1      31.541  32.020  26.772  1.00  0.00     0.021 C 
BRANCH  37  38
ATOM     38  C   UNL A   1      32.760  32.789  27.269  1.00  0.00     0.116 C 
BRANCH  38  39
ATOM     39  N   UNL A   1      32.442  34.154  27.656  1.00  0.00    -0.352 N 
ATOM     40  C   UNL A   1      33.002  34.951  28.623  1.00  0.00     0.251 C 
ATOM     41  H   UNL A   1      31.710  34.571  27.145  1.00  0.00     0.163 HD
ATOM     42  O   UNL A   1      32.504  36.032  28.898  1.00  0.00    -0.269 OA
BRANCH  40  43
ATOM     43  C   UNL A   1      34.198  34.483  29.354  1.00  0.00     0.039 A 
ATOM     44  C   UNL A   1      34.027  33.912  30.618  1.00  0.00     0.014 A 
ATOM     45  C   UNL A   1      35.474  34.602  28.799  1.00  0.00     0.014 A 
ATOM     46  C   UNL A   1      35.130  33.392  31.295  1.00  0.00     0.010 A 
ATOM     47  C   UNL A   1      36.562  34.020  29.443  1.00  0.00     0.010 A 
ATOM     48  C   UNL A   1      36.398  33.405  30.694  1.00  0.00    -0.014 A 
BRANCH  48  49
ATOM     49  C   UNL A   1      37.563  32.754  31.343  1.00  0.00     0.031 A 
ATOM     50  C   UNL A   1      38.223  31.571  30.697  1.00  0.00     0.074 A 
ATOM     51  C   UNL A   1      37.963  33.176  32.557  1.00  0.00     0.049 A 
ATOM     52  N   UNL A   1      39.181  30.806  31.155  1.00  0.00    -0.248 NA
ATOM     53  C   UNL A   1      37.721  31.180  29.371  1.00  0.00     0.031 C 
ATOM     54  C   UNL A   1      37.366  34.285  33.304  1.00  0.00     0.029 A 
ATOM     55  N   UNL A   1      38.949  32.708  33.389  1.00  0.00    -0.354 N 
ATOM     56  C   UNL A   1      39.381  29.832  30.185  1.00  0.00     0.074 A 
ATOM     57  C   UNL A   1      38.416  30.076  29.135  1.00  0.00     0.031 C 
ATOM     58  C   UNL A   1      38.000  34.416  34.479  1.00  0.00     0.029 A 
ATOM     59  C   UNL A   1      39.014  33.372  34.590  1.00  0.00     0.049 A 
ATOM     60  H   UNL A   1      39.552  31.969  33.148  1.00  0.00     0.167 HD
ATOM     61  C   UNL A   1      40.299  28.836  30.170  1.00  0.00     0.037 A 
ATOM     62  C   UNL A   1      39.786  33.148  35.671  1.00  0.00     0.037 A 
ATOM     63  C   UNL A   1      41.267  28.617  31.213  1.00  0.00     0.049 A 
ATOM     64  C   UNL A   1      40.784  32.023  35.639  1.00  0.00     0.074 A 
ATOM     65  C   UNL A   1      42.299  27.695  31.251  1.00  0.00     0.029 A 
ATOM     66  N   UNL A   1      41.312  29.316  32.411  1.00  0.00    -0.354 N 
ATOM     67  N   UNL A   1      41.031  31.167  34.677  1.00  0.00    -0.248 NA
ATOM     68  C   UNL A   1      41.610  31.832  36.839  1.00  0.00     0.031 C 
ATOM     69  C   UNL A   1      42.921  27.790  32.499  1.00  0.00     0.029 A 
ATOM     70  C   UNL A   1      42.321  28.813  33.215  1.00  0.00     0.049 A 
ATOM     71  H   UNL A   1      40.714  30.061  32.653  1.00  0.00     0.167 HD
ATOM     72  C   UNL A   1      42.045  30.344  35.148  1.00  0.00     0.074 A 
ATOM     73  C   UNL A   1      42.384  30.819  36.474  1.00  0.00     0.031 C 
ATOM     74  C   UNL A   1      42.639  29.289  34.538  1.00  0.00     0.037 A 
BRANCH  61  75
ATOM     75  C   UNL A   1      40.289  27.898  28.997  1.00  0.00     0.064 A 
ATOM     76  C   UNL A   1      39.548  26.707  29.004  1.00  0.00     0.173 A 
ATOM     77  C   UNL A   1      41.012  28.212  27.835  1.00  0.00     0.173 A 
ATOM     78  F   UNL A   1      38.846  26.355  30.091  1.00  0.00    -0.203 F 
ATOM     79  C   UNL A   1      39.561  25.847  27.908  1.00  0.00     0.198 A 
ATOM     80  C   UNL A   1      40.995  27.367  26.728  1.00  0.00     0.198 A 
ATOM     81  F   UNL A   1      41.732  29.342  27.769  1.00  0.00    -0.203 F 
ATOM     82  F   UNL A   1      38.891  24.687  27.961  1.00  0.00    -0.200 F 
ATOM     83  C   UNL A   1      40.277  26.181  26.769  1.00  0.00     0.200 A 
ATOM     84  F   UNL A   1      41.675  27.699  25.623  1.00  0.00    -0.200 F 
ATOM     85  F   UNL A   1      40.284  25.355  25.714  1.00  0.00    -0.200 F 
ENDBRANCH  61  75
BRANCH  62  86
ATOM     86  C   UNL A   1      39.630  34.005  36.876  1.00  0.00     0.064 A 
ATOM     87  C   UNL A   1      40.275  35.245  36.970  1.00  0.00     0.173 A 
ATOM     88  C   UNL A   1      38.816  33.611  37.948  1.00  0.00     0.173 A 
ATOM     89  F   UNL A   1      41.079  35.659  35.979  1.00  0.00    -0.203 F 
ATOM     90  C   UNL A   1      40.121  36.053  38.096  1.00  0.00     0.198 A 
ATOM     91  C   UNL A   1      38.638  34.432  39.060  1.00  0.00     0.198 A 
ATOM     92  F   UNL A   1      38.171  32.435  37.906  1.00  0.00    -0.203 F 
ATOM     93  F   UNL A   1      40.779  37.217  38.177  1.00  0.00    -0.200 F 
ATOM     94  C   UNL A   1      39.298  35.649  39.136  1.00  0.00     0.200 A 
ATOM     95  F   UNL A   1      37.826  34.047  40.053  1.00  0.00    -0.200 F 
ATOM     96  F   UNL A   1      39.140  36.432  40.212  1.00  0.00    -0.200 F 
ENDBRANCH  62  86
BRANCH  74  97
ATOM     97  C   UNL A   1      43.721  28.572  35.294  1.00  0.00     0.064 A 
ATOM     98  C   UNL A   1      45.061  28.976  35.212  1.00  0.00     0.173 A 
ATOM     99  C   UNL A   1      43.405  27.515  36.161  1.00  0.00     0.173 A 
ATOM    100  F   UNL A   1      45.418  29.970  34.384  1.00  0.00    -0.203 F 
ATOM    101  C   UNL A   1      46.048  28.339  35.960  1.00  0.00     0.198 A 
ATOM    102  C   UNL A   1      44.388  26.902  36.931  1.00  0.00     0.198 A 
ATOM    103  F   UNL A   1      42.137  27.094  36.280  1.00  0.00    -0.203 F 
ATOM    104  F   UNL A   1      47.329  28.715  35.837  1.00  0.00    -0.200 F 
ATOM    105  C   UNL A   1      45.709  27.310  36.827  1.00  0.00     0.200 A 
ATOM    106  F   UNL A   1      44.056  25.919  37.781  1.00  0.00    -0.200 F 
ATOM    107  F   UNL A   1      46.657  26.710  37.559  1.00  0.00    -0.200 F 
ENDBRANCH  74  97
ENDBRANCH  48  49
ENDBRANCH  40  43
ENDBRANCH  38  39
ENDBRANCH  37  38
ENDBRANCH  36  37
ENDBRANCH   1  36
TORSDOF 18
ENDMDL
MODEL 2
REMARK VINA RESULT:     -12.7      1.717      7.491
REMARK SMILES COc1ccccc1C(=O)N1[C@@H](C(=O)NCCCCCCNC(=O)c2ccc(-c3c4nc(c(-c5c(F)c(F)c(F)c(F)c5F)c5ccc([nH]5)c(-c5c(F)c(F)c(F)c(F)c5F)c5nc(c(-c6c(F)c(F)c(F)c(F)c6F)c6ccc3[nH]6)C=C5)C=C4)cc2)COC12CC[NH+](Cc1ccccc1)CC2
REMARK SMILES IDX 18 1 17 2 16 3 15 4 13 5 14 6 12 8 11 9 90 10 88 11 89 12
REMARK SMILES IDX 91 13 102 14 92 15 101 16 93 17 9 19 10 20 8 21 3 22 4 23
REMARK SMILES IDX 5 24 7 25 6 26 2 27 1 28 94 29 95 30 96 31 100 32 97 33
REMARK SMILES IDX 99 34 98 35 19 36 20 37 21 38 22 39 23 40 24 42 25 43 26 44
REMARK SMILES IDX 87 45 27 46 86 47 28 48 29 49 30 50 80 51 31 52 85 53 79 54
REMARK SMILES IDX 81 55 32 56 84 57 78 58 77 59 33 61 65 62 45 63 64 64 46 65
REMARK SMILES IDX 49 66 63 67 82 68 47 69 48 70 62 72 83 73 50 74 34 75 35 76
REMARK SMILES IDX 43 77 36 78 37 79 41 80 44 81 38 82 39 83 42 84 40 85 66 86
REMARK SMILES IDX 67 87 75 88 68 89 69 90 73 91 76 92 70 93 71 94 74 95 72 96
REMARK SMILES IDX 51 97 52 98 60 99 53 100 54 101 58 102 61 103 55 104 56 105
REMARK SMILES IDX 59 106 57 107
REMARK H PARENT 15 7 93 18 22 41 81 60 49 71
REMARK Flexibility Score: inf
ROOT
ATOM      1  C   UNL A   1      34.580  32.059  28.072  1.00  0.00     0.002 C 
ENDROOT
BRANCH   1   2
ATOM      2  C   UNL A   1      33.300  31.808  27.277  1.00  0.00     0.021 C 
BRANCH   2   3
ATOM      3  C   UNL A   1      33.165  30.393  26.747  1.00  0.00     0.116 C 
BRANCH   3   4
ATOM      4  N   UNL A   1      32.164  29.574  27.388  1.00  0.00    -0.354 N 
ATOM      5  C   UNL A   1      31.810  28.277  27.122  1.00  0.00     0.245 C 
ATOM      6  O   UNL A   1      30.954  27.781  27.864  1.00  0.00    -0.273 OA
ATOM      7  H   UNL A   1      31.665  30.008  28.119  1.00  0.00     0.163 HD
BRANCH   5   8
ATOM      8  C   UNL A   1      32.331  27.480  25.896  1.00  0.00     0.203 C 
ATOM      9  N   UNL A   1      31.564  26.310  25.485  1.00  0.00    -0.295 N 
ATOM     10  C   UNL A   1      32.410  25.105  25.579  1.00  0.00     0.155 C 
ATOM     11  C   UNL A   1      33.712  26.937  26.189  1.00  0.00     0.198 C 
ATOM     12  O   UNL A   1      33.509  25.524  26.431  1.00  0.00    -0.352 OA
ATOM     13  C   UNL A   1      31.667  23.899  26.166  1.00  0.00     0.120 C 
ATOM     14  C   UNL A   1      33.137  24.704  24.289  1.00  0.00     0.120 C 
ATOM     15  C   UNL A   1      32.514  22.643  26.278  1.00  0.00     0.267 C 
ATOM     16  C   UNL A   1      33.953  23.409  24.508  1.00  0.00     0.267 C 
ATOM     17  N   UNL A   1      33.180  22.289  25.034  1.00  0.00    -0.331 N 
ATOM     18  H   UNL A   1      33.874  21.582  25.276  1.00  0.00     0.348 HD
BRANCH   9  19
ATOM     19  C   UNL A   1      30.427  26.495  24.689  1.00  0.00     0.260 C 
ATOM     20  O   UNL A   1      29.549  25.635  24.615  1.00  0.00    -0.269 OA
BRANCH  19  21
ATOM     21  C   UNL A   1      30.285  27.678  23.781  1.00  0.00     0.082 A 
ATOM     22  C   UNL A   1      31.227  28.007  22.803  1.00  0.00     0.131 A 
ATOM     23  C   UNL A   1      31.140  29.186  22.052  1.00  0.00     0.047 A 
ATOM     24  C   UNL A   1      29.979  29.941  22.104  1.00  0.00     0.004 A 
ATOM     25  C   UNL A   1      29.076  28.381  23.735  1.00  0.00     0.018 A 
ATOM     26  C   UNL A   1      28.917  29.490  22.884  1.00  0.00     0.001 A 
BRANCH  22  27
ATOM     27  O   UNL A   1      32.189  27.127  22.391  1.00  0.00    -0.496 OA
ATOM     28  C   UNL A   1      33.462  27.792  22.416  1.00  0.00     0.278 C 
ENDBRANCH  22  27
ENDBRANCH  19  21
ENDBRANCH   9  19
BRANCH  17  29
ATOM     29  C   UNL A   1      32.426  21.462  24.077  1.00  0.00     0.299 C 
BRANCH  29  30
ATOM     30  C   UNL A   1      32.875  20.035  23.830  1.00  0.00     0.006 A 
ATOM     31  C   UNL A   1      33.900  19.458  24.585  1.00  0.00     0.009 A 
ATOM     32  C   UNL A   1      32.280  19.255  22.822  1.00  0.00     0.009 A 
ATOM     33  C   UNL A   1      34.258  18.122  24.380  1.00  0.00     0.001 A 
ATOM     34  C   UNL A   1      32.552  17.892  22.706  1.00  0.00     0.001 A 
ATOM     35  C   UNL A   1      33.540  17.321  23.495  1.00  0.00     0.000 A 
ENDBRANCH  29  30
ENDBRANCH  17  29
ENDBRANCH   5   8
ENDBRANCH   3   4
ENDBRANCH   2   3
ENDBRANCH   1   2
BRANCH   1  36
ATOM     36  C   UNL A   1      34.581  33.295  28.986  1.00  0.00     0.002 C 
BRANCH  36  37
ATOM     37  C   UNL A   1      33.344  34.194  28.925  1.00  0.00     0.021 C 
BRANCH  37  38
ATOM     38  C   UNL A   1      33.560  35.639  29.360  1.00  0.00     0.116 C 
BRANCH  38  39
ATOM     39  N   UNL A   1      32.662  36.044  30.429  1.00  0.00    -0.352 N 
ATOM     40  C   UNL A   1      32.708  35.770  31.773  1.00  0.00     0.251 C 
ATOM     41  H   UNL A   1      31.901  36.600  30.144  1.00  0.00     0.163 HD
ATOM     42  O   UNL A   1      31.778  36.084  32.500  1.00  0.00    -0.269 OA
BRANCH  40  43
ATOM     43  C   UNL A   1      33.878  35.064  32.336  1.00  0.00     0.039 A 
ATOM     44  C   UNL A   1      33.703  33.769  32.831  1.00  0.00     0.014 A 
ATOM     45  C   UNL A   1      35.136  35.670  32.371  1.00  0.00     0.014 A 
ATOM     46  C   UNL A   1      34.805  33.053  33.296  1.00  0.00     0.010 A 
ATOM     47  C   UNL A   1      36.246  34.931  32.768  1.00  0.00     0.010 A 
ATOM     48  C   UNL A   1      36.091  33.613  33.228  1.00  0.00    -0.014 A 
BRANCH  48  49
ATOM     49  C   UNL A   1      37.292  32.829  33.607  1.00  0.00     0.031 A 
ATOM     50  C   UNL A   1      38.032  33.145  34.873  1.00  0.00     0.074 A 
ATOM     51  C   UNL A   1      37.764  31.894  32.759  1.00  0.00     0.049 A 
ATOM     52  N   UNL A   1      39.156  32.646  35.321  1.00  0.00    -0.248 NA
ATOM     53  C   UNL A   1      37.445  34.180  35.738  1.00  0.00     0.031 C 
ATOM     54  C   UNL A   1      37.156  31.534  31.477  1.00  0.00     0.029 A 
ATOM     55  N   UNL A   1      38.876  31.093  32.836  1.00  0.00    -0.354 N 
ATOM     56  C   UNL A   1      39.420  33.318  36.507  1.00  0.00     0.074 A 
ATOM     57  C   UNL A   1      38.365  34.292  36.686  1.00  0.00     0.031 C 
ATOM     58  C   UNL A   1      37.897  30.582  30.891  1.00  0.00     0.029 A 
ATOM     59  C   UNL A   1      39.057  30.299  31.730  1.00  0.00     0.049 A 
ATOM     60  H   UNL A   1      39.484  31.088  33.610  1.00  0.00     0.167 HD
ATOM     61  C   UNL A   1      40.444  33.128  37.373  1.00  0.00     0.037 A 
ATOM     62  C   UNL A   1      40.060  29.457  31.415  1.00  0.00     0.037 A 
ATOM     63  C   UNL A   1      41.477  32.141  37.194  1.00  0.00     0.049 A 
ATOM     64  C   UNL A   1      41.197  29.276  32.383  1.00  0.00     0.074 A 
ATOM     65  C   UNL A   1      42.506  31.804  38.056  1.00  0.00     0.029 A 
ATOM     66  N   UNL A   1      41.624  31.345  36.066  1.00  0.00    -0.354 N 
ATOM     67  N   UNL A   1      41.388  29.849  33.547  1.00  0.00    -0.248 NA
ATOM     68  C   UNL A   1      42.257  28.335  31.996  1.00  0.00     0.031 C 
ATOM     69  C   UNL A   1      43.314  30.857  37.421  1.00  0.00     0.029 A 
ATOM     70  C   UNL A   1      42.755  30.554  36.190  1.00  0.00     0.049 A 
ATOM     71  H   UNL A   1      41.013  31.343  35.293  1.00  0.00     0.167 HD
ATOM     72  C   UNL A   1      42.580  29.331  34.038  1.00  0.00     0.074 A 
ATOM     73  C   UNL A   1      43.056  28.379  33.054  1.00  0.00     0.031 C 
ATOM     74  C   UNL A   1      43.222  29.620  35.196  1.00  0.00     0.037 A 
BRANCH  61  75
ATOM     75  C   UNL A   1      40.506  34.014  38.585  1.00  0.00     0.064 A 
ATOM     76  C   UNL A   1      41.227  35.217  38.589  1.00  0.00     0.173 A 
ATOM     77  C   UNL A   1      39.809  33.665  39.752  1.00  0.00     0.173 A 
ATOM     78  F   UNL A   1      41.918  35.594  37.503  1.00  0.00    -0.203 F 
ATOM     79  C   UNL A   1      41.279  36.019  39.727  1.00  0.00     0.198 A 
ATOM     80  C   UNL A   1      39.834  34.487  40.876  1.00  0.00     0.198 A 
ATOM     81  F   UNL A   1      39.096  32.530  39.802  1.00  0.00    -0.203 F 
ATOM     82  F   UNL A   1      42.021  37.135  39.724  1.00  0.00    -0.200 F 
ATOM     83  C   UNL A   1      40.576  35.657  40.866  1.00  0.00     0.200 A 
ATOM     84  F   UNL A   1      39.142  34.143  41.971  1.00  0.00    -0.200 F 
ATOM     85  F   UNL A   1      40.623  36.433  41.957  1.00  0.00    -0.200 F 
ENDBRANCH  61  75
BRANCH  62  86
ATOM     86  C   UNL A   1      40.031  28.733  30.117  1.00  0.00     0.064 A 
ATOM     87  C   UNL A   1      40.617  29.282  28.969  1.00  0.00     0.173 A 
ATOM     88  C   UNL A   1      39.436  27.467  30.004  1.00  0.00     0.173 A 
ATOM     89  F   UNL A   1      41.182  30.497  29.022  1.00  0.00    -0.203 F 
ATOM     90  C   UNL A   1      40.598  28.599  27.754  1.00  0.00     0.198 A 
ATOM     91  C   UNL A   1      39.444  26.771  28.796  1.00  0.00     0.198 A 
ATOM     92  F   UNL A   1      38.867  26.894  31.074  1.00  0.00    -0.203 F 
ATOM     93  F   UNL A   1      41.132  29.163  26.663  1.00  0.00    -0.200 F 
ATOM     94  C   UNL A   1      40.019  27.341  27.671  1.00  0.00     0.200 A 
ATOM     95  F   UNL A   1      38.902  25.549  28.726  1.00  0.00    -0.200 F 
ATOM     96  F   UNL A   1      40.013  26.679  26.505  1.00  0.00    -0.200 F 
ENDBRANCH  62  86
BRANCH  74  97
ATOM     97  C   UNL A   1      44.511  28.900  35.470  1.00  0.00     0.064 A 
ATOM     98  C   UNL A   1      44.531  27.654  36.114  1.00  0.00     0.173 A 
ATOM     99  C   UNL A   1      45.732  29.429  35.025  1.00  0.00     0.173 A 
ATOM    100  F   UNL A   1      43.392  27.113  36.574  1.00  0.00    -0.203 F 
ATOM    101  C   UNL A   1      45.728  26.971  36.314  1.00  0.00     0.198 A 
ATOM    102  C   UNL A   1      46.922  28.729  35.198  1.00  0.00     0.198 A 
ATOM    103  F   UNL A   1      45.768  30.615  34.400  1.00  0.00    -0.203 F 
ATOM    104  F   UNL A   1      45.728  25.799  36.965  1.00  0.00    -0.200 F 
ATOM    105  C   UNL A   1      46.920  27.504  35.846  1.00  0.00     0.200 A 
ATOM    106  F   UNL A   1      48.071  29.237  34.730  1.00  0.00    -0.200 F 
ATOM    107  F   UNL A   1      48.069  26.836  36.023  1.00  0.00    -0.200 F 
ENDBRANCH  74  97
ENDBRANCH  48  49
ENDBRANCH  40  43
ENDBRANCH  38  39
ENDBRANCH  37  38
ENDBRANCH  36  37
ENDBRANCH   1  36
TORSDOF 18
ENDMDL
MODEL 3
REMARK VINA RESULT:     -12.6      1.149      2.407
REMARK SMILES COc1ccccc1C(=O)N1[C@@H](C(=O)NCCCCCCNC(=O)c2ccc(-c3c4nc(c(-c5c(F)c(F)c(F)c(F)c5F)c5ccc([nH]5)c(-c5c(F)c(F)c(F)c(F)c5F)c5nc(c(-c6c(F)c(F)c(F)c(F)c6F)c6ccc3[nH]6)C=C5)C=C4)cc2)COC12CC[NH+](Cc1ccccc1)CC2
REMARK SMILES IDX 18 1 17 2 16 3 15 4 13 5 14 6 12 8 11 9 90 10 88 11 89 12
REMARK SMILES IDX 91 13 102 14 92 15 101 16 93 17 9 19 10 20 8 21 3 22 4 23
REMARK SMILES IDX 5 24 7 25 6 26 2 27 1 28 94 29 95 30 96 31 100 32 97 33
REMARK SMILES IDX 99 34 98 35 19 36 20 37 21 38 22 39 23 40 24 42 25 43 26 44
REMARK SMILES IDX 87 45 27 46 86 47 28 48 29 49 30 50 80 51 31 52 85 53 79 54
REMARK SMILES IDX 81 55 32 56 84 57 78 58 77 59 33 61 65 62 45 63 64 64 46 65
REMARK SMILES IDX 49 66 63 67 82 68 47 69 48 70 62 72 83 73 50 74 34 75 35 76
REMARK SMILES IDX 43 77 36 78 37 79 41 80 44 81 38 82 39 83 42 84 40 85 66 86
REMARK SMILES IDX 67 87 75 88 68 89 69 90 73 91 76 92 70 93 71 94 74 95 72 96
REMARK SMILES IDX 51 97 52 98 60 99 53 100 54 101 58 102 61 103 55 104 56 105
REMARK SMILES IDX 59 106 57 107
REMARK H PARENT 15 7 93 18 22 41 81 60 49 71
REMARK Flexibility Score: inf
ROOT
ATOM      1  C   UNL A   1      33.848  29.819  26.871  1.00  0.00     0.002 C 
ENDROOT
BRANCH   1   2
ATOM      2  C   UNL A   1      32.912  30.132  25.707  1.00  0.00     0.021 C 
BRANCH   2   3
ATOM      3  C   UNL A   1      32.067  28.956  25.254  1.00  0.00     0.116 C 
BRANCH   3   4
ATOM      4  N   UNL A   1      31.647  28.046  26.294  1.00  0.00    -0.354 N 
ATOM      5  C   UNL A   1      31.948  26.718  26.452  1.00  0.00     0.245 C 
ATOM      6  O   UNL A   1      31.506  26.176  27.471  1.00  0.00    -0.273 OA
ATOM      7  H   UNL A   1      31.063  28.434  26.986  1.00  0.00     0.163 HD
BRANCH   5   8
ATOM      8  C   UNL A   1      32.687  25.874  25.380  1.00  0.00     0.203 C 
ATOM      9  N   UNL A   1      32.071  24.612  24.982  1.00  0.00    -0.295 N 
ATOM     10  C   UNL A   1      32.983  23.496  25.293  1.00  0.00     0.155 C 
ATOM     11  C   UNL A   1      34.053  25.475  25.894  1.00  0.00     0.198 C 
ATOM     12  O   UNL A   1      33.925  24.074  26.237  1.00  0.00    -0.352 OA
ATOM     13  C   UNL A   1      32.260  22.281  25.887  1.00  0.00     0.120 C 
ATOM     14  C   UNL A   1      33.905  23.057  24.148  1.00  0.00     0.120 C 
ATOM     15  C   UNL A   1      33.175  21.116  26.220  1.00  0.00     0.267 C 
ATOM     16  C   UNL A   1      34.779  21.858  24.585  1.00  0.00     0.267 C 
ATOM     17  N   UNL A   1      34.028  20.721  25.108  1.00  0.00    -0.331 N 
ATOM     18  H   UNL A   1      34.733  20.098  25.500  1.00  0.00     0.348 HD
BRANCH   9  19
ATOM     19  C   UNL A   1      31.041  24.635  24.034  1.00  0.00     0.260 C 
ATOM     20  O   UNL A   1      30.655  23.605  23.482  1.00  0.00    -0.269 OA
BRANCH  19  21
ATOM     21  C   UNL A   1      30.453  25.921  23.540  1.00  0.00     0.082 A 
ATOM     22  C   UNL A   1      31.019  26.672  22.506  1.00  0.00     0.131 A 
ATOM     23  C   UNL A   1      30.527  27.933  22.146  1.00  0.00     0.047 A 
ATOM     24  C   UNL A   1      29.313  28.361  22.659  1.00  0.00     0.004 A 
ATOM     25  C   UNL A   1      29.176  26.311  23.959  1.00  0.00     0.018 A 
ATOM     26  C   UNL A   1      28.601  27.511  23.501  1.00  0.00     0.001 A 
BRANCH  22  27
ATOM     27  O   UNL A   1      31.967  26.157  21.665  1.00  0.00    -0.496 OA
ATOM     28  C   UNL A   1      33.239  26.734  21.999  1.00  0.00     0.278 C 
ENDBRANCH  22  27
ENDBRANCH  19  21
ENDBRANCH   9  19
BRANCH  17  29
ATOM     29  C   UNL A   1      33.473  19.759  24.142  1.00  0.00     0.299 C 
BRANCH  29  30
ATOM     30  C   UNL A   1      33.545  18.278  24.460  1.00  0.00     0.006 A 
ATOM     31  C   UNL A   1      34.721  17.550  24.256  1.00  0.00     0.009 A 
ATOM     32  C   UNL A   1      32.423  17.591  24.959  1.00  0.00     0.009 A 
ATOM     33  C   UNL A   1      34.782  16.200  24.611  1.00  0.00     0.001 A 
ATOM     34  C   UNL A   1      32.525  16.281  25.427  1.00  0.00     0.001 A 
ATOM     35  C   UNL A   1      33.713  15.585  25.260  1.00  0.00     0.000 A 
ENDBRANCH  29  30
ENDBRANCH  17  29
ENDBRANCH   5   8
ENDBRANCH   3   4
ENDBRANCH   2   3
ENDBRANCH   1   2
BRANCH   1  36
ATOM     36  C   UNL A   1      34.227  31.003  27.775  1.00  0.00     0.002 C 
BRANCH  36  37
ATOM     37  C   UNL A   1      33.148  32.065  28.005  1.00  0.00     0.021 C 
BRANCH  37  38
ATOM     38  C   UNL A   1      33.346  33.375  27.251  1.00  0.00     0.116 C 
BRANCH  38  39
ATOM     39  N   UNL A   1      32.813  34.521  27.968  1.00  0.00    -0.352 N 
ATOM     40  C   UNL A   1      33.192  35.065  29.171  1.00  0.00     0.251 C 
ATOM     41  H   UNL A   1      32.062  34.978  27.523  1.00  0.00     0.163 HD
ATOM     42  O   UNL A   1      32.528  35.953  29.684  1.00  0.00    -0.269 OA
BRANCH  40  43
ATOM     43  C   UNL A   1      34.394  34.551  29.859  1.00  0.00     0.039 A 
ATOM     44  C   UNL A   1      34.234  33.892  31.080  1.00  0.00     0.014 A 
ATOM     45  C   UNL A   1      35.666  34.715  29.305  1.00  0.00     0.014 A 
ATOM     46  C   UNL A   1      35.343  33.330  31.712  1.00  0.00     0.010 A 
ATOM     47  C   UNL A   1      36.760  34.094  29.899  1.00  0.00     0.010 A 
ATOM     48  C   UNL A   1      36.608  33.391  31.104  1.00  0.00    -0.014 A 
BRANCH  48  49
ATOM     49  C   UNL A   1      37.779  32.700  31.697  1.00  0.00     0.031 A 
ATOM     50  C   UNL A   1      38.415  31.544  30.984  1.00  0.00     0.074 A 
ATOM     51  C   UNL A   1      38.207  33.061  32.922  1.00  0.00     0.049 A 
ATOM     52  N   UNL A   1      39.375  30.750  31.386  1.00  0.00    -0.248 NA
ATOM     53  C   UNL A   1      37.883  31.220  29.651  1.00  0.00     0.031 C 
ATOM     54  C   UNL A   1      37.636  34.139  33.732  1.00  0.00     0.029 A 
ATOM     55  N   UNL A   1      39.206  32.547  33.711  1.00  0.00    -0.354 N 
ATOM     56  C   UNL A   1      39.547  29.822  30.367  1.00  0.00     0.074 A 
ATOM     57  C   UNL A   1      38.564  30.123  29.350  1.00  0.00     0.031 C 
ATOM     58  C   UNL A   1      38.295  34.209  34.899  1.00  0.00     0.029 A 
ATOM     59  C   UNL A   1      39.301  33.153  34.940  1.00  0.00     0.049 A 
ATOM     60  H   UNL A   1      39.797  31.815  33.423  1.00  0.00     0.167 HD
ATOM     61  C   UNL A   1      40.455  28.820  30.286  1.00  0.00     0.037 A 
ATOM     62  C   UNL A   1      40.092  32.872  35.993  1.00  0.00     0.037 A 
ATOM     63  C   UNL A   1      41.442  28.544  31.297  1.00  0.00     0.049 A 
ATOM     64  C   UNL A   1      41.079  31.742  35.887  1.00  0.00     0.074 A 
ATOM     65  C   UNL A   1      42.466  27.613  31.271  1.00  0.00     0.029 A 
ATOM     66  N   UNL A   1      41.517  29.186  32.526  1.00  0.00    -0.354 N 
ATOM     67  N   UNL A   1      41.299  30.930  34.882  1.00  0.00    -0.248 NA
ATOM     68  C   UNL A   1      41.927  31.487  37.060  1.00  0.00     0.031 C 
ATOM     69  C   UNL A   1      43.115  27.643  32.509  1.00  0.00     0.029 A 
ATOM     70  C   UNL A   1      42.538  28.636  33.285  1.00  0.00     0.049 A 
ATOM     71  H   UNL A   1      40.931  29.923  32.815  1.00  0.00     0.167 HD
ATOM     72  C   UNL A   1      42.315  30.077  35.293  1.00  0.00     0.074 A 
ATOM     73  C   UNL A   1      42.685  30.487  36.633  1.00  0.00     0.031 C 
ATOM     74  C   UNL A   1      42.887  29.047  34.622  1.00  0.00     0.037 A 
BRANCH  61  75
ATOM     75  C   UNL A   1      40.413  27.938  29.071  1.00  0.00     0.064 A 
ATOM     76  C   UNL A   1      41.144  28.237  27.911  1.00  0.00     0.173 A 
ATOM     77  C   UNL A   1      39.652  26.759  29.079  1.00  0.00     0.173 A 
ATOM     78  F   UNL A   1      41.882  29.355  27.846  1.00  0.00    -0.203 F 
ATOM     79  C   UNL A   1      41.083  27.409  26.792  1.00  0.00     0.198 A 
ATOM     80  C   UNL A   1      39.621  25.916  27.971  1.00  0.00     0.198 A 
ATOM     81  F   UNL A   1      38.940  26.420  30.164  1.00  0.00    -0.203 F 
ATOM     82  F   UNL A   1      41.744  27.746  25.675  1.00  0.00    -0.200 F 
ATOM     83  C   UNL A   1      40.329  26.247  26.825  1.00  0.00     0.200 A 
ATOM     84  F   UNL A   1      38.904  24.785  28.011  1.00  0.00    -0.200 F 
ATOM     85  F   UNL A   1      40.276  25.449  25.750  1.00  0.00    -0.200 F 
ENDBRANCH  61  75
BRANCH  62  86
ATOM     86  C   UNL A   1      39.969  33.673  37.240  1.00  0.00     0.064 A 
ATOM     87  C   UNL A   1      40.769  34.801  37.457  1.00  0.00     0.173 A 
ATOM     88  C   UNL A   1      39.032  33.337  38.229  1.00  0.00     0.173 A 
ATOM     89  F   UNL A   1      41.693  35.152  36.550  1.00  0.00    -0.203 F 
ATOM     90  C   UNL A   1      40.647  35.557  38.622  1.00  0.00     0.198 A 
ATOM     91  C   UNL A   1      38.889  34.111  39.380  1.00  0.00     0.198 A 
ATOM     92  F   UNL A   1      38.237  32.269  38.068  1.00  0.00    -0.203 F 
ATOM     93  F   UNL A   1      41.451  36.610  38.822  1.00  0.00    -0.200 F 
ATOM     94  C   UNL A   1      39.702  35.216  39.578  1.00  0.00     0.200 A 
ATOM     95  F   UNL A   1      37.961  33.788  40.290  1.00  0.00    -0.200 F 
ATOM     96  F   UNL A   1      39.576  35.951  40.692  1.00  0.00    -0.200 F 
ENDBRANCH  62  86
BRANCH  74  97
ATOM     97  C   UNL A   1      43.977  28.287  35.321  1.00  0.00     0.064 A 
ATOM     98  C   UNL A   1      45.314  28.706  35.263  1.00  0.00     0.173 A 
ATOM     99  C   UNL A   1      43.673  27.168  36.111  1.00  0.00     0.173 A 
ATOM    100  F   UNL A   1      45.660  29.759  34.507  1.00  0.00    -0.203 F 
ATOM    101  C   UNL A   1      46.309  28.025  35.960  1.00  0.00     0.198 A 
ATOM    102  C   UNL A   1      44.664  26.509  36.832  1.00  0.00     0.198 A 
ATOM    103  F   UNL A   1      42.409  26.730  36.204  1.00  0.00    -0.203 F 
ATOM    104  F   UNL A   1      47.586  28.419  35.860  1.00  0.00    -0.200 F 
ATOM    105  C   UNL A   1      45.981  26.934  36.752  1.00  0.00     0.200 A 
ATOM    106  F   UNL A   1      44.343  25.466  37.611  1.00  0.00    -0.200 F 
ATOM    107  F   UNL A   1      46.937  26.290  37.437  1.00  0.00    -0.200 F 
ENDBRANCH  74  97
ENDBRANCH  48  49
ENDBRANCH  40  43
ENDBRANCH  38  39
ENDBRANCH  37  38
ENDBRANCH  36  37
ENDBRANCH   1  36
TORSDOF 18
ENDMDL
