MODEL 1
REMARK VINA RESULT:     -11.2      0.000      0.000
REMARK SMILES N#CCc1nc(-c2ccccc2)c(CC(=O)NCCCCCCNC(=O)c2ccc(-c3c4nc(c(-c5c(F)c(F)c(F)c(F)c5F)c5ccc([nH]5)c(-c5c(F)c(F)c(F)c(F)c5F)c5nc(c(-c6c(F)c(F)c(F)c(F)c6F)c6ccc3[nH]6)C=C5)C=C4)cc2)s1
REMARK SMILES IDX 20 1 19 2 18 3 17 4 15 5 16 6 14 8 13 9 4 10 5 11 90 12 6 13
REMARK SMILES IDX 3 14 2 15 1 16 7 17 8 18 12 19 9 20 11 21 10 22 21 23 22 24
REMARK SMILES IDX 23 25 24 26 25 27 26 29 27 30 28 31 89 32 29 33 88 34 30 35
REMARK SMILES IDX 31 36 32 37 82 38 33 39 87 40 81 41 83 42 34 43 86 44 80 45
REMARK SMILES IDX 79 46 35 48 67 49 47 50 66 51 48 52 51 53 65 54 84 55 49 56
REMARK SMILES IDX 50 57 64 59 85 60 52 61 36 62 37 63 45 64 38 65 39 66 43 67
REMARK SMILES IDX 46 68 40 69 41 70 44 71 42 72 68 73 69 74 77 75 70 76 71 77
REMARK SMILES IDX 75 78 78 79 72 80 73 81 76 82 74 83 53 84 54 85 62 86 55 87
REMARK SMILES IDX 56 88 60 89 63 90 57 91 58 92 61 93 59 94
REMARK H PARENT 17 7 24 28 83 47 51 58
REMARK Flexibility Score: inf
ROOT
ATOM      1  C   UNL A   1      34.669  32.508  28.657  1.00  0.00     0.002 C 
ENDROOT
BRANCH   1   2
ATOM      2  C   UNL A   1      33.631  31.819  27.761  1.00  0.00     0.021 C 
BRANCH   2   3
ATOM      3  C   UNL A   1      34.068  30.439  27.270  1.00  0.00     0.116 C 
BRANCH   3   4
ATOM      4  N   UNL A   1      33.095  29.425  27.625  1.00  0.00    -0.356 N 
ATOM      5  C   UNL A   1      31.969  29.044  26.954  1.00  0.00     0.225 C 
ATOM      6  O   UNL A   1      31.225  28.216  27.486  1.00  0.00    -0.275 OA
ATOM      7  H   UNL A   1      33.270  28.946  28.467  1.00  0.00     0.163 HD
BRANCH   5   8
ATOM      8  C   UNL A   1      31.688  29.574  25.558  1.00  0.00     0.149 C 
BRANCH   8   9
ATOM      9  C   UNL A   1      31.877  28.534  24.492  1.00  0.00     0.042 A 
ATOM     10  C   UNL A   1      32.607  26.617  23.183  1.00  0.00     0.108 A 
ATOM     11  N   UNL A   1      31.532  27.146  22.638  1.00  0.00    -0.240 NA
ATOM     12  S   UNL A   1      33.206  27.441  24.565  1.00  0.00    -0.121 S 
ATOM     13  C   UNL A   1      31.127  28.258  23.356  1.00  0.00     0.085 A 
BRANCH  10  14
ATOM     14  C   UNL A   1      33.309  25.411  22.661  1.00  0.00     0.187 C 
BRANCH  14  15
ATOM     15  C   UNL A   1      33.100  25.300  21.159  1.00  0.00     0.069 C 
ATOM     16  N   UNL A   1      32.928  25.209  19.913  1.00  0.00    -0.198 NA
ENDBRANCH  14  15
ENDBRANCH  10  14
BRANCH  13  17
ATOM     17  C   UNL A   1      29.917  28.975  22.971  1.00  0.00     0.001 A 
ATOM     18  C   UNL A   1      29.975  30.213  22.320  1.00  0.00     0.010 A 
ATOM     19  C   UNL A   1      28.668  28.433  23.302  1.00  0.00     0.010 A 
ATOM     20  C   UNL A   1      28.803  30.928  22.061  1.00  0.00     0.001 A 
ATOM     21  C   UNL A   1      27.497  29.150  23.044  1.00  0.00     0.001 A 
ATOM     22  C   UNL A   1      27.567  30.402  22.435  1.00  0.00     0.000 A 
ENDBRANCH  13  17
ENDBRANCH   8   9
ENDBRANCH   5   8
ENDBRANCH   3   4
ENDBRANCH   2   3
ENDBRANCH   1   2
BRANCH   1  23
ATOM     23  C   UNL A   1      34.616  34.041  28.646  1.00  0.00     0.002 C 
BRANCH  23  24
ATOM     24  C   UNL A   1      33.218  34.645  28.807  1.00  0.00     0.021 C 
BRANCH  24  25
ATOM     25  C   UNL A   1      33.193  36.058  29.384  1.00  0.00     0.116 C 
BRANCH  25  26
ATOM     26  N   UNL A   1      32.436  36.124  30.623  1.00  0.00    -0.352 N 
ATOM     27  C   UNL A   1      32.666  35.516  31.828  1.00  0.00     0.251 C 
ATOM     28  H   UNL A   1      31.634  36.694  30.591  1.00  0.00     0.163 HD
ATOM     29  O   UNL A   1      31.798  35.545  32.700  1.00  0.00    -0.269 OA
BRANCH  27  30
ATOM     30  C   UNL A   1      33.941  34.815  32.094  1.00  0.00     0.039 A 
ATOM     31  C   UNL A   1      33.904  33.443  32.361  1.00  0.00     0.014 A 
ATOM     32  C   UNL A   1      35.156  35.505  32.151  1.00  0.00     0.014 A 
ATOM     33  C   UNL A   1      35.085  32.760  32.661  1.00  0.00     0.010 A 
ATOM     34  C   UNL A   1      36.342  34.811  32.384  1.00  0.00     0.010 A 
ATOM     35  C   UNL A   1      36.314  33.437  32.665  1.00  0.00    -0.014 A 
BRANCH  35  36
ATOM     36  C   UNL A   1      37.568  32.726  33.015  1.00  0.00     0.031 A 
ATOM     37  C   UNL A   1      38.260  33.013  34.319  1.00  0.00     0.074 A 
ATOM     38  C   UNL A   1      38.100  31.841  32.151  1.00  0.00     0.049 A 
ATOM     39  N   UNL A   1      39.356  32.491  34.809  1.00  0.00    -0.248 NA
ATOM     40  C   UNL A   1      37.650  34.041  35.174  1.00  0.00     0.031 C 
ATOM     41  C   UNL A   1      37.547  31.508  30.838  1.00  0.00     0.029 A 
ATOM     42  N   UNL A   1      39.221  31.059  32.251  1.00  0.00    -0.354 N 
ATOM     43  C   UNL A   1      39.574  33.138  36.017  1.00  0.00     0.074 A 
ATOM     44  C   UNL A   1      38.528  34.127  36.162  1.00  0.00     0.031 C 
ATOM     45  C   UNL A   1      38.312  30.561  30.270  1.00  0.00     0.029 A 
ATOM     46  C   UNL A   1      39.418  30.239  31.169  1.00  0.00     0.049 A 
ATOM     47  H   UNL A   1      39.828  31.082  33.027  1.00  0.00     0.167 HD
ATOM     48  C   UNL A   1      40.544  32.913  36.937  1.00  0.00     0.037 A 
ATOM     49  C   UNL A   1      40.374  29.321  30.936  1.00  0.00     0.037 A 
ATOM     50  C   UNL A   1      41.568  31.912  36.805  1.00  0.00     0.049 A 
ATOM     51  C   UNL A   1      41.428  29.073  31.978  1.00  0.00     0.074 A 
ATOM     52  C   UNL A   1      42.567  31.570  37.701  1.00  0.00     0.029 A 
ATOM     53  N   UNL A   1      41.725  31.088  35.698  1.00  0.00    -0.354 N 
ATOM     54  N   UNL A   1      41.587  29.643  33.147  1.00  0.00    -0.248 NA
ATOM     55  C   UNL A   1      42.429  28.041  31.671  1.00  0.00     0.031 C 
ATOM     56  C   UNL A   1      43.346  30.560  37.122  1.00  0.00     0.029 A 
ATOM     57  C   UNL A   1      42.810  30.246  35.884  1.00  0.00     0.049 A 
ATOM     58  H   UNL A   1      41.149  31.101  34.900  1.00  0.00     0.167 HD
ATOM     59  C   UNL A   1      42.681  29.020  33.731  1.00  0.00     0.074 A 
ATOM     60  C   UNL A   1      43.144  28.022  32.787  1.00  0.00     0.031 C 
ATOM     61  C   UNL A   1      43.249  29.250  34.941  1.00  0.00     0.037 A 
BRANCH  48  62
ATOM     62  C   UNL A   1      40.534  33.776  38.166  1.00  0.00     0.064 A 
ATOM     63  C   UNL A   1      41.349  34.915  38.271  1.00  0.00     0.173 A 
ATOM     64  C   UNL A   1      39.707  33.460  39.253  1.00  0.00     0.173 A 
ATOM     65  F   UNL A   1      42.168  35.253  37.263  1.00  0.00    -0.203 F 
ATOM     66  C   UNL A   1      41.367  35.678  39.434  1.00  0.00     0.198 A 
ATOM     67  C   UNL A   1      39.705  34.244  40.404  1.00  0.00     0.198 A 
ATOM     68  F   UNL A   1      38.903  32.387  39.203  1.00  0.00    -0.203 F 
ATOM     69  F   UNL A   1      42.201  36.724  39.534  1.00  0.00    -0.200 F 
ATOM     70  C   UNL A   1      40.544  35.345  40.499  1.00  0.00     0.200 A 
ATOM     71  F   UNL A   1      38.901  33.928  41.427  1.00  0.00    -0.200 F 
ATOM     72  F   UNL A   1      40.566  36.079  41.620  1.00  0.00    -0.200 F 
ENDBRANCH  48  62
BRANCH  49  73
ATOM     73  C   UNL A   1      40.328  28.514  29.691  1.00  0.00     0.064 A 
ATOM     74  C   UNL A   1      41.029  28.927  28.549  1.00  0.00     0.173 A 
ATOM     75  C   UNL A   1      39.609  27.313  29.621  1.00  0.00     0.173 A 
ATOM     76  F   UNL A   1      41.715  30.079  28.567  1.00  0.00    -0.203 F 
ATOM     77  C   UNL A   1      41.004  28.173  27.379  1.00  0.00     0.198 A 
ATOM     78  C   UNL A   1      39.602  26.549  28.455  1.00  0.00     0.198 A 
ATOM     79  F   UNL A   1      38.927  26.875  30.689  1.00  0.00    -0.203 F 
ATOM     80  F   UNL A   1      41.659  28.605  26.292  1.00  0.00    -0.200 F 
ATOM     81  C   UNL A   1      40.297  26.981  27.335  1.00  0.00     0.200 A 
ATOM     82  F   UNL A   1      38.927  25.392  28.419  1.00  0.00    -0.200 F 
ATOM     83  F   UNL A   1      40.279  26.252  26.211  1.00  0.00    -0.200 F 
ENDBRANCH  49  73
BRANCH  61  84
ATOM     84  C   UNL A   1      44.403  28.377  35.332  1.00  0.00     0.064 A 
ATOM     85  C   UNL A   1      44.216  27.170  36.020  1.00  0.00     0.173 A 
ATOM     86  C   UNL A   1      45.714  28.744  34.989  1.00  0.00     0.173 A 
ATOM     87  F   UNL A   1      42.983  26.785  36.384  1.00  0.00    -0.203 F 
ATOM     88  C   UNL A   1      45.301  26.375  36.376  1.00  0.00     0.198 A 
ATOM     89  C   UNL A   1      46.795  27.932  35.324  1.00  0.00     0.198 A 
ATOM     90  F   UNL A   1      45.946  29.887  34.327  1.00  0.00    -0.203 F 
ATOM     91  F   UNL A   1      45.104  25.248  37.076  1.00  0.00    -0.200 F 
ATOM     92  C   UNL A   1      46.589  26.753  36.023  1.00  0.00     0.200 A 
ATOM     93  F   UNL A   1      48.036  28.296  34.974  1.00  0.00    -0.200 F 
ATOM     94  F   UNL A   1      47.633  25.985  36.366  1.00  0.00    -0.200 F 
ENDBRANCH  61  84
ENDBRANCH  35  36
ENDBRANCH  27  30
ENDBRANCH  25  26
ENDBRANCH  24  25
ENDBRANCH  23  24
ENDBRANCH   1  23
TORSDOF 17
ENDMDL
MODEL 2
REMARK VINA RESULT:     -11.2      7.297     12.847
REMARK SMILES N#CCc1nc(-c2ccccc2)c(CC(=O)NCCCCCCNC(=O)c2ccc(-c3c4nc(c(-c5c(F)c(F)c(F)c(F)c5F)c5ccc([nH]5)c(-c5c(F)c(F)c(F)c(F)c5F)c5nc(c(-c6c(F)c(F)c(F)c(F)c6F)c6ccc3[nH]6)C=C5)C=C4)cc2)s1
REMARK SMILES IDX 20 1 19 2 18 3 17 4 15 5 16 6 14 8 13 9 4 10 5 11 90 12 6 13
REMARK SMILES IDX 3 14 2 15 1 16 7 17 8 18 12 19 9 20 11 21 10 22 21 23 22 24
REMARK SMILES IDX 23 25 24 26 25 27 26 29 27 30 28 31 89 32 29 33 88 34 30 35
REMARK SMILES IDX 31 36 32 37 82 38 33 39 87 40 81 41 83 42 34 43 86 44 80 45
REMARK SMILES IDX 79 46 35 48 67 49 47 50 66 51 48 52 51 53 65 54 84 55 49 56
REMARK SMILES IDX 50 57 64 59 85 60 52 61 36 62 37 63 45 64 38 65 39 66 43 67
REMARK SMILES IDX 46 68 40 69 41 70 44 71 42 72 68 73 69 74 77 75 70 76 71 77
REMARK SMILES IDX 75 78 78 79 72 80 73 81 76 82 74 83 53 84 54 85 62 86 55 87
REMARK SMILES IDX 56 88 60 89 63 90 57 91 58 92 61 93 59 94
REMARK H PARENT 17 7 24 28 83 47 51 58
REMARK Flexibility Score: inf
ROOT
ATOM      1  C   UNL A   1      40.680  21.559  27.270  1.00  0.00     0.002 C 
ENDROOT
BRANCH   1   2
ATOM      2  C   UNL A   1      39.635  22.315  26.439  1.00  0.00     0.021 C 
BRANCH   2   3
ATOM      3  C   UNL A   1      38.527  21.416  25.889  1.00  0.00     0.116 C 
BRANCH   3   4
ATOM      4  N   UNL A   1      37.752  22.103  24.875  1.00  0.00    -0.356 N 
ATOM      5  C   UNL A   1      36.512  21.801  24.391  1.00  0.00     0.225 C 
ATOM      6  O   UNL A   1      36.071  22.472  23.455  1.00  0.00    -0.275 OA
ATOM      7  H   UNL A   1      38.179  22.898  24.482  1.00  0.00     0.163 HD
BRANCH   5   8
ATOM      8  C   UNL A   1      35.674  20.714  25.045  1.00  0.00     0.149 C 
BRANCH   8   9
ATOM      9  C   UNL A   1      34.224  21.087  25.158  1.00  0.00     0.042 A 
ATOM     10  C   UNL A   1      32.110  22.284  25.300  1.00  0.00     0.108 A 
ATOM     11  N   UNL A   1      31.884  21.000  25.118  1.00  0.00    -0.240 NA
ATOM     12  S   UNL A   1      33.763  22.720  25.452  1.00  0.00    -0.121 S 
ATOM     13  C   UNL A   1      33.080  20.304  25.069  1.00  0.00     0.085 A 
BRANCH  10  14
ATOM     14  C   UNL A   1      31.043  23.319  25.403  1.00  0.00     0.187 C 
BRANCH  14  15
ATOM     15  C   UNL A   1      30.220  23.090  26.660  1.00  0.00     0.069 C 
ATOM     16  N   UNL A   1      29.537  22.901  27.703  1.00  0.00    -0.198 NA
ENDBRANCH  14  15
ENDBRANCH  10  14
BRANCH  13  17
ATOM     17  C   UNL A   1      33.080  18.869  24.814  1.00  0.00     0.001 A 
ATOM     18  C   UNL A   1      32.898  17.941  25.847  1.00  0.00     0.010 A 
ATOM     19  C   UNL A   1      33.315  18.406  23.512  1.00  0.00     0.010 A 
ATOM     20  C   UNL A   1      33.012  16.572  25.593  1.00  0.00     0.001 A 
ATOM     21  C   UNL A   1      33.430  17.037  23.260  1.00  0.00     0.001 A 
ATOM     22  C   UNL A   1      33.291  16.123  24.302  1.00  0.00     0.000 A 
ENDBRANCH  13  17
ENDBRANCH   8   9
ENDBRANCH   5   8
ENDBRANCH   3   4
ENDBRANCH   2   3
ENDBRANCH   1   2
BRANCH   1  23
ATOM     23  C   UNL A   1      41.947  21.157  26.504  1.00  0.00     0.002 C 
BRANCH  23  24
ATOM     24  C   UNL A   1      41.935  19.739  25.925  1.00  0.00     0.021 C 
BRANCH  24  25
ATOM     25  C   UNL A   1      43.199  18.928  26.193  1.00  0.00     0.116 C 
BRANCH  25  26
ATOM     26  N   UNL A   1      43.967  18.701  24.980  1.00  0.00    -0.352 N 
ATOM     27  C   UNL A   1      44.652  19.589  24.194  1.00  0.00     0.251 C 
ATOM     28  H   UNL A   1      43.999  17.765  24.675  1.00  0.00     0.163 HD
ATOM     29  O   UNL A   1      45.078  19.229  23.097  1.00  0.00    -0.269 OA
BRANCH  27  30
ATOM     30  C   UNL A   1      44.879  20.980  24.641  1.00  0.00     0.039 A 
ATOM     31  C   UNL A   1      45.519  21.191  25.867  1.00  0.00     0.014 A 
ATOM     32  C   UNL A   1      44.410  22.071  23.902  1.00  0.00     0.014 A 
ATOM     33  C   UNL A   1      45.710  22.491  26.339  1.00  0.00     0.010 A 
ATOM     34  C   UNL A   1      44.659  23.370  24.342  1.00  0.00     0.010 A 
ATOM     35  C   UNL A   1      45.289  23.591  25.574  1.00  0.00    -0.014 A 
BRANCH  35  36
ATOM     36  C   UNL A   1      45.457  24.975  26.085  1.00  0.00     0.031 A 
ATOM     37  C   UNL A   1      46.794  25.656  25.989  1.00  0.00     0.074 A 
ATOM     38  C   UNL A   1      44.417  25.608  26.657  1.00  0.00     0.049 A 
ATOM     39  N   UNL A   1      47.139  26.861  26.369  1.00  0.00    -0.248 NA
ATOM     40  C   UNL A   1      47.894  24.871  25.412  1.00  0.00     0.031 C 
ATOM     41  C   UNL A   1      43.083  25.038  26.847  1.00  0.00     0.029 A 
ATOM     42  N   UNL A   1      44.319  26.871  27.181  1.00  0.00    -0.354 N 
ATOM     43  C   UNL A   1      48.495  26.969  26.092  1.00  0.00     0.074 A 
ATOM     44  C   UNL A   1      48.921  25.693  25.562  1.00  0.00     0.031 C 
ATOM     45  C   UNL A   1      42.289  25.963  27.412  1.00  0.00     0.029 A 
ATOM     46  C   UNL A   1      43.065  27.179  27.642  1.00  0.00     0.049 A 
ATOM     47  H   UNL A   1      45.078  27.499  27.220  1.00  0.00     0.167 HD
ATOM     48  C   UNL A   1      49.308  28.043  26.241  1.00  0.00     0.037 A 
ATOM     49  C   UNL A   1      42.590  28.320  28.176  1.00  0.00     0.037 A 
ATOM     50  C   UNL A   1      48.877  29.321  26.743  1.00  0.00     0.049 A 
ATOM     51  C   UNL A   1      43.504  29.505  28.314  1.00  0.00     0.074 A 
ATOM     52  C   UNL A   1      49.610  30.487  26.887  1.00  0.00     0.029 A 
ATOM     53  N   UNL A   1      47.592  29.599  27.186  1.00  0.00    -0.354 N 
ATOM     54  N   UNL A   1      44.768  29.619  27.988  1.00  0.00    -0.248 NA
ATOM     55  C   UNL A   1      42.918  30.727  28.884  1.00  0.00     0.031 C 
ATOM     56  C   UNL A   1      48.774  31.462  27.446  1.00  0.00     0.029 A 
ATOM     57  C   UNL A   1      47.512  30.915  27.614  1.00  0.00     0.049 A 
ATOM     58  H   UNL A   1      46.847  28.956  27.195  1.00  0.00     0.167 HD
ATOM     59  C   UNL A   1      45.122  30.929  28.279  1.00  0.00     0.074 A 
ATOM     60  C   UNL A   1      43.934  31.574  28.804  1.00  0.00     0.031 C 
ATOM     61  C   UNL A   1      46.320  31.545  28.121  1.00  0.00     0.037 A 
BRANCH  48  62
ATOM     62  C   UNL A   1      50.748  27.869  25.855  1.00  0.00     0.064 A 
ATOM     63  C   UNL A   1      51.737  27.587  26.813  1.00  0.00     0.173 A 
ATOM     64  C   UNL A   1      51.149  27.991  24.517  1.00  0.00     0.173 A 
ATOM     65  F   UNL A   1      51.407  27.473  28.108  1.00  0.00    -0.203 F 
ATOM     66  C   UNL A   1      53.076  27.476  26.449  1.00  0.00     0.198 A 
ATOM     67  C   UNL A   1      52.485  27.850  24.153  1.00  0.00     0.198 A 
ATOM     68  F   UNL A   1      50.244  28.253  23.561  1.00  0.00    -0.203 F 
ATOM     69  F   UNL A   1      54.008  27.269  27.390  1.00  0.00    -0.200 F 
ATOM     70  C   UNL A   1      53.449  27.604  25.120  1.00  0.00     0.200 A 
ATOM     71  F   UNL A   1      52.843  27.962  22.867  1.00  0.00    -0.200 F 
ATOM     72  F   UNL A   1      54.739  27.502  24.772  1.00  0.00    -0.200 F 
ENDBRANCH  48  62
BRANCH  49  73
ATOM     73  C   UNL A   1      41.157  28.415  28.549  1.00  0.00     0.064 A 
ATOM     74  C   UNL A   1      40.724  28.016  29.821  1.00  0.00     0.173 A 
ATOM     75  C   UNL A   1      40.200  28.924  27.660  1.00  0.00     0.173 A 
ATOM     76  F   UNL A   1      41.602  27.506  30.696  1.00  0.00    -0.203 F 
ATOM     77  C   UNL A   1      39.384  28.111  30.187  1.00  0.00     0.198 A 
ATOM     78  C   UNL A   1      38.862  29.038  28.035  1.00  0.00     0.198 A 
ATOM     79  F   UNL A   1      40.568  29.324  26.434  1.00  0.00    -0.203 F 
ATOM     80  F   UNL A   1      38.991  27.694  31.398  1.00  0.00    -0.200 F 
ATOM     81  C   UNL A   1      38.455  28.628  29.296  1.00  0.00     0.200 A 
ATOM     82  F   UNL A   1      37.969  29.550  27.176  1.00  0.00    -0.200 F 
ATOM     83  F   UNL A   1      37.167  28.728  29.651  1.00  0.00    -0.200 F 
ENDBRANCH  49  73
BRANCH  61  84
ATOM     84  C   UNL A   1      46.394  32.999  28.477  1.00  0.00     0.064 A 
ATOM     85  C   UNL A   1      46.128  34.004  27.537  1.00  0.00     0.173 A 
ATOM     86  C   UNL A   1      46.712  33.390  29.788  1.00  0.00     0.173 A 
ATOM     87  F   UNL A   1      45.836  33.680  26.268  1.00  0.00    -0.203 F 
ATOM     88  C   UNL A   1      46.205  35.349  27.887  1.00  0.00     0.198 A 
ATOM     89  C   UNL A   1      46.761  34.736  30.141  1.00  0.00     0.198 A 
ATOM     90  F   UNL A   1      46.970  32.467  30.726  1.00  0.00    -0.203 F 
ATOM     91  F   UNL A   1      45.994  36.295  26.960  1.00  0.00    -0.200 F 
ATOM     92  C   UNL A   1      46.515  35.714  29.189  1.00  0.00     0.200 A 
ATOM     93  F   UNL A   1      47.053  35.086  31.401  1.00  0.00    -0.200 F 
ATOM     94  F   UNL A   1      46.587  37.010  29.525  1.00  0.00    -0.200 F 
ENDBRANCH  61  84
ENDBRANCH  35  36
ENDBRANCH  27  30
ENDBRANCH  25  26
ENDBRANCH  24  25
ENDBRANCH  23  24
ENDBRANCH   1  23
TORSDOF 17
ENDMDL
MODEL 3
REMARK VINA RESULT:     -11.0      6.916     12.323
REMARK SMILES N#CCc1nc(-c2ccccc2)c(CC(=O)NCCCCCCNC(=O)c2ccc(-c3c4nc(c(-c5c(F)c(F)c(F)c(F)c5F)c5ccc([nH]5)c(-c5c(F)c(F)c(F)c(F)c5F)c5nc(c(-c6c(F)c(F)c(F)c(F)c6F)c6ccc3[nH]6)C=C5)C=C4)cc2)s1
REMARK SMILES IDX 20 1 19 2 18 3 17 4 15 5 16 6 14 8 13 9 4 10 5 11 90 12 6 13
REMARK SMILES IDX 3 14 2 15 1 16 7 17 8 18 12 19 9 20 11 21 10 22 21 23 22 24
REMARK SMILES IDX 23 25 24 26 25 27 26 29 27 30 28 31 89 32 29 33 88 34 30 35
REMARK SMILES IDX 31 36 32 37 82 38 33 39 87 40 81 41 83 42 34 43 86 44 80 45
REMARK SMILES IDX 79 46 35 48 67 49 47 50 66 51 48 52 51 53 65 54 84 55 49 56
REMARK SMILES IDX 50 57 64 59 85 60 52 61 36 62 37 63 45 64 38 65 39 66 43 67
REMARK SMILES IDX 46 68 40 69 41 70 44 71 42 72 68 73 69 74 77 75 70 76 71 77
REMARK SMILES IDX 75 78 78 79 72 80 73 81 76 82 74 83 53 84 54 85 62 86 55 87
REMARK SMILES IDX 56 88 60 89 63 90 57 91 58 92 61 93 59 94
REMARK H PARENT 17 7 24 28 83 47 51 58
REMARK Flexibility Score: inf
ROOT
ATOM      1  C   UNL A   1      40.418  21.613  26.878  1.00  0.00     0.002 C 
ENDROOT
BRANCH   1   2
ATOM      2  C   UNL A   1      39.304  21.140  25.935  1.00  0.00     0.021 C 
BRANCH   2   3
ATOM      3  C   UNL A   1      38.145  22.131  25.814  1.00  0.00     0.116 C 
BRANCH   3   4
ATOM      4  N   UNL A   1      37.719  22.271  24.436  1.00  0.00    -0.356 N 
ATOM      5  C   UNL A   1      36.717  23.041  23.921  1.00  0.00     0.225 C 
ATOM      6  O   UNL A   1      36.461  22.941  22.719  1.00  0.00    -0.275 OA
ATOM      7  H   UNL A   1      38.223  21.737  23.780  1.00  0.00     0.163 HD
BRANCH   5   8
ATOM      8  C   UNL A   1      35.990  24.048  24.799  1.00  0.00     0.149 C 
BRANCH   8   9
ATOM      9  C   UNL A   1      34.509  23.811  24.852  1.00  0.00     0.042 A 
ATOM     10  C   UNL A   1      32.289  22.894  25.239  1.00  0.00     0.108 A 
ATOM     11  N   UNL A   1      32.191  24.142  24.834  1.00  0.00    -0.240 NA
ATOM     12  S   UNL A   1      33.887  22.271  25.306  1.00  0.00    -0.121 S 
ATOM     13  C   UNL A   1      33.448  24.664  24.579  1.00  0.00     0.085 A 
BRANCH  10  14
ATOM     14  C   UNL A   1      31.127  22.032  25.597  1.00  0.00     0.187 C 
BRANCH  14  15
ATOM     15  C   UNL A   1      30.273  22.724  26.647  1.00  0.00     0.069 C 
ATOM     16  N   UNL A   1      29.564  23.297  27.518  1.00  0.00    -0.198 NA
ENDBRANCH  14  15
ENDBRANCH  10  14
BRANCH  13  17
ATOM     17  C   UNL A   1      33.591  26.057  24.173  1.00  0.00     0.001 A 
ATOM     18  C   UNL A   1      33.629  27.094  25.113  1.00  0.00     0.010 A 
ATOM     19  C   UNL A   1      33.647  26.369  22.808  1.00  0.00     0.010 A 
ATOM     20  C   UNL A   1      33.657  28.426  24.692  1.00  0.00     0.001 A 
ATOM     21  C   UNL A   1      33.673  27.701  22.388  1.00  0.00     0.001 A 
ATOM     22  C   UNL A   1      33.665  28.727  23.330  1.00  0.00     0.000 A 
ENDBRANCH  13  17
ENDBRANCH   8   9
ENDBRANCH   5   8
ENDBRANCH   3   4
ENDBRANCH   2   3
ENDBRANCH   1   2
BRANCH   1  23
ATOM     23  C   UNL A   1      41.819  21.095  26.532  1.00  0.00     0.002 C 
BRANCH  23  24
ATOM     24  C   UNL A   1      41.860  19.703  25.893  1.00  0.00     0.021 C 
BRANCH  24  25
ATOM     25  C   UNL A   1      43.159  18.934  26.117  1.00  0.00     0.116 C 
BRANCH  25  26
ATOM     26  N   UNL A   1      43.889  18.729  24.876  1.00  0.00    -0.352 N 
ATOM     27  C   UNL A   1      44.553  19.630  24.087  1.00  0.00     0.251 C 
ATOM     28  H   UNL A   1      43.909  17.800  24.553  1.00  0.00     0.163 HD
ATOM     29  O   UNL A   1      44.944  19.290  22.971  1.00  0.00    -0.269 OA
BRANCH  27  30
ATOM     30  C   UNL A   1      44.798  21.012  24.554  1.00  0.00     0.039 A 
ATOM     31  C   UNL A   1      45.443  21.197  25.781  1.00  0.00     0.014 A 
ATOM     32  C   UNL A   1      44.341  22.119  23.832  1.00  0.00     0.014 A 
ATOM     33  C   UNL A   1      45.651  22.488  26.272  1.00  0.00     0.010 A 
ATOM     34  C   UNL A   1      44.608  23.408  24.290  1.00  0.00     0.010 A 
ATOM     35  C   UNL A   1      45.243  23.604  25.525  1.00  0.00    -0.014 A 
BRANCH  35  36
ATOM     36  C   UNL A   1      45.429  24.977  26.055  1.00  0.00     0.031 A 
ATOM     37  C   UNL A   1      46.775  25.641  25.973  1.00  0.00     0.074 A 
ATOM     38  C   UNL A   1      44.396  25.618  26.633  1.00  0.00     0.049 A 
ATOM     39  N   UNL A   1      47.137  26.835  26.371  1.00  0.00    -0.248 NA
ATOM     40  C   UNL A   1      47.866  24.848  25.388  1.00  0.00     0.031 C 
ATOM     41  C   UNL A   1      43.053  25.064  26.811  1.00  0.00     0.029 A 
ATOM     42  N   UNL A   1      44.314  26.875  27.174  1.00  0.00    -0.354 N 
ATOM     43  C   UNL A   1      48.495  26.928  26.099  1.00  0.00     0.074 A 
ATOM     44  C   UNL A   1      48.905  25.653  25.553  1.00  0.00     0.031 C 
ATOM     45  C   UNL A   1      42.271  25.992  27.387  1.00  0.00     0.029 A 
ATOM     46  C   UNL A   1      43.063  27.194  27.636  1.00  0.00     0.049 A 
ATOM     47  H   UNL A   1      45.082  27.491  27.225  1.00  0.00     0.167 HD
ATOM     48  C   UNL A   1      49.322  27.988  26.266  1.00  0.00     0.037 A 
ATOM     49  C   UNL A   1      42.603  28.334  28.185  1.00  0.00     0.037 A 
ATOM     50  C   UNL A   1      48.909  29.265  26.784  1.00  0.00     0.049 A 
ATOM     51  C   UNL A   1      43.534  29.504  28.342  1.00  0.00     0.074 A 
ATOM     52  C   UNL A   1      49.657  30.418  26.946  1.00  0.00     0.029 A 
ATOM     53  N   UNL A   1      47.626  29.555  27.228  1.00  0.00    -0.354 N 
ATOM     54  N   UNL A   1      44.800  29.604  28.021  1.00  0.00    -0.248 NA
ATOM     55  C   UNL A   1      42.963  30.726  28.927  1.00  0.00     0.031 C 
ATOM     56  C   UNL A   1      48.834  31.396  27.517  1.00  0.00     0.029 A 
ATOM     57  C   UNL A   1      47.564  30.866  27.673  1.00  0.00     0.049 A 
ATOM     58  H   UNL A   1      46.872  28.922  27.225  1.00  0.00     0.167 HD
ATOM     59  C   UNL A   1      45.172  30.905  28.331  1.00  0.00     0.074 A 
ATOM     60  C   UNL A   1      43.992  31.559  28.862  1.00  0.00     0.031 C 
ATOM     61  C   UNL A   1      46.379  31.505  28.185  1.00  0.00     0.037 A 
BRANCH  48  62
ATOM     62  C   UNL A   1      50.761  27.798  25.882  1.00  0.00     0.064 A 
ATOM     63  C   UNL A   1      51.193  27.944  24.553  1.00  0.00     0.173 A 
ATOM     64  C   UNL A   1      51.720  27.460  26.848  1.00  0.00     0.173 A 
ATOM     65  F   UNL A   1      50.313  28.254  23.589  1.00  0.00    -0.203 F 
ATOM     66  C   UNL A   1      52.520  27.716  24.202  1.00  0.00     0.198 A 
ATOM     67  C   UNL A   1      53.053  27.263  26.497  1.00  0.00     0.198 A 
ATOM     68  F   UNL A   1      51.363  27.314  28.133  1.00  0.00    -0.203 F 
ATOM     69  F   UNL A   1      52.895  27.800  22.917  1.00  0.00    -0.200 F 
ATOM     70  C   UNL A   1      53.450  27.379  25.173  1.00  0.00     0.200 A 
ATOM     71  F   UNL A   1      53.952  26.948  27.439  1.00  0.00    -0.200 F 
ATOM     72  F   UNL A   1      54.727  27.157  24.832  1.00  0.00    -0.200 F 
ENDBRANCH  48  62
BRANCH  49  73
ATOM     73  C   UNL A   1      41.170  28.444  28.554  1.00  0.00     0.064 A 
ATOM     74  C   UNL A   1      40.233  28.933  27.634  1.00  0.00     0.173 A 
ATOM     75  C   UNL A   1      40.706  28.047  29.815  1.00  0.00     0.173 A 
ATOM     76  F   UNL A   1      40.637  29.342  26.422  1.00  0.00    -0.203 F 
ATOM     77  C   UNL A   1      38.884  29.031  27.964  1.00  0.00     0.198 A 
ATOM     78  C   UNL A   1      39.351  28.124  30.137  1.00  0.00     0.198 A 
ATOM     79  F   UNL A   1      41.564  27.567  30.727  1.00  0.00    -0.203 F 
ATOM     80  F   UNL A   1      38.013  29.529  27.076  1.00  0.00    -0.200 F 
ATOM     81  C   UNL A   1      38.443  28.620  29.213  1.00  0.00     0.200 A 
ATOM     82  F   UNL A   1      38.926  27.716  31.341  1.00  0.00    -0.200 F 
ATOM     83  F   UNL A   1      37.144  28.705  29.529  1.00  0.00    -0.200 F 
ENDBRANCH  49  73
BRANCH  61  84
ATOM     84  C   UNL A   1      46.473  32.953  28.563  1.00  0.00     0.064 A 
ATOM     85  C   UNL A   1      46.829  33.357  29.857  1.00  0.00     0.173 A 
ATOM     86  C   UNL A   1      46.225  33.950  27.606  1.00  0.00     0.173 A 
ATOM     87  F   UNL A   1      47.059  32.442  30.810  1.00  0.00    -0.203 F 
ATOM     88  C   UNL A   1      46.908  34.707  30.188  1.00  0.00     0.198 A 
ATOM     89  C   UNL A   1      46.331  35.299  27.933  1.00  0.00     0.198 A 
ATOM     90  F   UNL A   1      45.885  33.615  26.352  1.00  0.00    -0.203 F 
ATOM     91  F   UNL A   1      47.203  35.072  31.444  1.00  0.00    -0.200 F 
ATOM     92  C   UNL A   1      46.665  35.676  29.225  1.00  0.00     0.200 A 
ATOM     93  F   UNL A   1      46.104  36.233  27.000  1.00  0.00    -0.200 F 
ATOM     94  F   UNL A   1      46.742  36.976  29.545  1.00  0.00    -0.200 F 
ENDBRANCH  61  84
ENDBRANCH  35  36
ENDBRANCH  27  30
ENDBRANCH  25  26
ENDBRANCH  24  25
ENDBRANCH  23  24
ENDBRANCH   1  23
TORSDOF 17
ENDMDL
