MODEL 1
REMARK VINA RESULT:     -12.4      0.000      0.000
REMARK SMILES CC1(C)[C@H](C(=O)NCCCCCCNC(=O)c2ccc(-c3c4nc(c(-c5c(F)c(F)c(F)c(F)c5F)c5ccc([nH]5)c(-c5c(F)c(F)c(F)c(F)c5F)c5nc(c(-c6c(F)c(F)c(F)c(F)c6F)c6ccc3[nH]6)C=C5)C=C4)cc2)[C@H]1C(=O)Nc1cccc2[nH]ccc12
REMARK SMILES IDX 10 1 9 2 8 3 7 4 5 5 6 6 4 8 1 9 2 10 3 11 80 12 81 13 82 14
REMARK SMILES IDX 83 15 84 17 85 18 92 19 86 20 88 21 91 22 87 23 89 24 90 25
REMARK SMILES IDX 11 27 12 28 13 29 14 30 15 31 16 33 17 34 18 35 79 36 19 37
REMARK SMILES IDX 78 38 20 39 21 40 22 41 72 42 23 43 77 44 71 45 73 46 24 47
REMARK SMILES IDX 76 48 70 49 69 50 25 52 57 53 37 54 56 55 38 56 41 57 55 58
REMARK SMILES IDX 74 59 39 60 40 61 54 63 75 64 42 65 26 66 27 67 35 68 28 69
REMARK SMILES IDX 29 70 33 71 36 72 30 73 31 74 34 75 32 76 58 77 59 78 67 79
REMARK SMILES IDX 60 80 61 81 65 82 68 83 62 84 63 85 66 86 64 87 43 88 44 89
REMARK SMILES IDX 52 90 45 91 46 92 50 93 53 94 47 95 48 96 51 97 49 98
REMARK H PARENT 7 7 83 16 89 26 14 32 73 51 41 62
REMARK Flexibility Score: inf
ROOT
ATOM      1  C   UNL A   1      35.301  33.456  29.016  1.00  0.00     0.002 C 
ENDROOT
BRANCH   1   2
ATOM      2  C   UNL A   1      36.065  32.551  28.045  1.00  0.00     0.021 C 
BRANCH   2   3
ATOM      3  C   UNL A   1      35.383  31.212  27.759  1.00  0.00     0.116 C 
BRANCH   3   4
ATOM      4  N   UNL A   1      33.958  31.365  27.632  1.00  0.00    -0.356 N 
ATOM      5  C   UNL A   1      32.992  30.700  26.939  1.00  0.00     0.224 C 
ATOM      6  O   UNL A   1      31.845  31.127  27.098  1.00  0.00    -0.275 OA
ATOM      7  H   UNL A   1      33.604  32.116  28.161  1.00  0.00     0.163 HD
BRANCH   5   8
ATOM      8  C   UNL A   1      33.152  29.531  26.031  1.00  0.00     0.098 C 
ATOM      9  C   UNL A   1      33.830  27.102  25.935  1.00  0.00     0.013 C 
ATOM     10  C   UNL A   1      32.694  28.070  26.144  1.00  0.00    -0.011 C 
ATOM     11  C   UNL A   1      31.630  27.396  26.965  1.00  0.00     0.013 C 
ATOM     12  C   UNL A   1      32.127  29.032  25.081  1.00  0.00     0.098 C 
BRANCH  12  13
ATOM     13  C   UNL A   1      32.184  28.758  23.611  1.00  0.00     0.228 C 
ATOM     14  O   UNL A   1      33.258  28.972  23.050  1.00  0.00    -0.274 OA
ATOM     15  N   UNL A   1      31.229  28.031  22.941  1.00  0.00    -0.325 N 
ATOM     16  H   UNL A   1      31.573  27.344  22.326  1.00  0.00     0.169 HD
BRANCH  15  17
ATOM     17  C   UNL A   1      29.838  28.134  23.010  1.00  0.00     0.050 A 
ATOM     18  C   UNL A   1      29.125  27.065  23.562  1.00  0.00     0.027 A 
ATOM     19  C   UNL A   1      29.112  29.196  22.422  1.00  0.00     0.023 A 
ATOM     20  C   UNL A   1      27.743  27.142  23.726  1.00  0.00     0.004 A 
ATOM     21  C   UNL A   1      27.739  29.281  22.663  1.00  0.00     0.047 A 
ATOM     22  C   UNL A   1      29.421  30.263  21.524  1.00  0.00     0.030 A 
ATOM     23  C   UNL A   1      27.032  28.282  23.339  1.00  0.00     0.027 A 
ATOM     24  N   UNL A   1      27.304  30.478  22.139  1.00  0.00    -0.361 N 
ATOM     25  C   UNL A   1      28.304  31.059  21.407  1.00  0.00     0.083 A 
ATOM     26  H   UNL A   1      26.406  30.859  22.272  1.00  0.00     0.166 HD
ENDBRANCH  15  17
ENDBRANCH  12  13
ENDBRANCH   5   8
ENDBRANCH   3   4
ENDBRANCH   2   3
ENDBRANCH   1   2
BRANCH   1  27
ATOM     27  C   UNL A   1      34.719  34.730  28.394  1.00  0.00     0.002 C 
BRANCH  27  28
ATOM     28  C   UNL A   1      33.364  35.170  28.955  1.00  0.00     0.021 C 
BRANCH  28  29
ATOM     29  C   UNL A   1      33.412  36.434  29.809  1.00  0.00     0.116 C 
BRANCH  29  30
ATOM     30  N   UNL A   1      32.472  36.368  30.916  1.00  0.00    -0.352 N 
ATOM     31  C   UNL A   1      32.511  35.598  32.050  1.00  0.00     0.251 C 
ATOM     32  H   UNL A   1      31.692  36.966  30.842  1.00  0.00     0.163 HD
ATOM     33  O   UNL A   1      31.511  35.484  32.753  1.00  0.00    -0.269 OA
BRANCH  31  34
ATOM     34  C   UNL A   1      33.758  34.901  32.428  1.00  0.00     0.039 A 
ATOM     35  C   UNL A   1      33.689  33.567  32.834  1.00  0.00     0.014 A 
ATOM     36  C   UNL A   1      34.983  35.574  32.426  1.00  0.00     0.014 A 
ATOM     37  C   UNL A   1      34.857  32.893  33.197  1.00  0.00     0.010 A 
ATOM     38  C   UNL A   1      36.155  34.883  32.720  1.00  0.00     0.010 A 
ATOM     39  C   UNL A   1      36.102  33.540  33.121  1.00  0.00    -0.014 A 
BRANCH  39  40
ATOM     40  C   UNL A   1      37.355  32.830  33.477  1.00  0.00     0.031 A 
ATOM     41  C   UNL A   1      38.062  33.145  34.767  1.00  0.00     0.074 A 
ATOM     42  C   UNL A   1      37.884  31.942  32.615  1.00  0.00     0.049 A 
ATOM     43  N   UNL A   1      39.192  32.673  35.230  1.00  0.00    -0.248 NA
ATOM     44  C   UNL A   1      37.428  34.147  35.640  1.00  0.00     0.031 C 
ATOM     45  C   UNL A   1      37.316  31.589  31.313  1.00  0.00     0.029 A 
ATOM     46  N   UNL A   1      39.023  31.180  32.699  1.00  0.00    -0.354 N 
ATOM     47  C   UNL A   1      39.409  33.327  36.436  1.00  0.00     0.074 A 
ATOM     48  C   UNL A   1      38.324  34.268  36.609  1.00  0.00     0.031 C 
ATOM     49  C   UNL A   1      38.097  30.664  30.729  1.00  0.00     0.029 A 
ATOM     50  C   UNL A   1      39.236  30.386  31.599  1.00  0.00     0.049 A 
ATOM     51  H   UNL A   1      39.629  31.201  33.475  1.00  0.00     0.167 HD
ATOM     52  C   UNL A   1      40.411  33.140  37.329  1.00  0.00     0.037 A 
ATOM     53  C   UNL A   1      40.240  29.534  31.323  1.00  0.00     0.037 A 
ATOM     54  C   UNL A   1      41.473  32.184  37.164  1.00  0.00     0.049 A 
ATOM     55  C   UNL A   1      41.337  29.341  32.336  1.00  0.00     0.074 A 
ATOM     56  C   UNL A   1      42.502  31.877  38.037  1.00  0.00     0.029 A 
ATOM     57  N   UNL A   1      41.642  31.378  36.048  1.00  0.00    -0.354 N 
ATOM     58  N   UNL A   1      41.494  29.913  33.505  1.00  0.00    -0.248 NA
ATOM     59  C   UNL A   1      42.389  28.375  31.995  1.00  0.00     0.031 C 
ATOM     60  C   UNL A   1      43.320  30.918  37.430  1.00  0.00     0.029 A 
ATOM     61  C   UNL A   1      42.770  30.587  36.201  1.00  0.00     0.049 A 
ATOM     62  H   UNL A   1      41.049  31.368  35.262  1.00  0.00     0.167 HD
ATOM     63  C   UNL A   1      42.643  29.357  34.051  1.00  0.00     0.074 A 
ATOM     64  C   UNL A   1      43.132  28.388  33.092  1.00  0.00     0.031 C 
ATOM     65  C   UNL A   1      43.238  29.621  35.240  1.00  0.00     0.037 A 
BRANCH  52  66
ATOM     66  C   UNL A   1      40.403  33.988  38.570  1.00  0.00     0.064 A 
ATOM     67  C   UNL A   1      39.715  33.593  39.727  1.00  0.00     0.173 A 
ATOM     68  C   UNL A   1      41.126  35.190  38.616  1.00  0.00     0.173 A 
ATOM     69  F   UNL A   1      38.999  32.458  39.733  1.00  0.00    -0.203 F 
ATOM     70  C   UNL A   1      39.728  34.382  40.874  1.00  0.00     0.198 A 
ATOM     71  C   UNL A   1      41.162  35.961  39.774  1.00  0.00     0.198 A 
ATOM     72  F   UNL A   1      41.806  35.612  37.539  1.00  0.00    -0.203 F 
ATOM     73  F   UNL A   1      39.024  34.008  41.951  1.00  0.00    -0.200 F 
ATOM     74  C   UNL A   1      40.458  35.561  40.900  1.00  0.00     0.200 A 
ATOM     75  F   UNL A   1      41.879  37.093  39.802  1.00  0.00    -0.200 F 
ATOM     76  F   UNL A   1      40.476  36.315  42.007  1.00  0.00    -0.200 F 
ENDBRANCH  52  66
BRANCH  53  77
ATOM     77  C   UNL A   1      40.242  28.775  30.045  1.00  0.00     0.064 A 
ATOM     78  C   UNL A   1      40.879  29.286  28.905  1.00  0.00     0.173 A 
ATOM     79  C   UNL A   1      39.600  27.534  29.932  1.00  0.00     0.173 A 
ATOM     80  F   UNL A   1      41.491  30.478  28.958  1.00  0.00    -0.203 F 
ATOM     81  C   UNL A   1      40.853  28.595  27.696  1.00  0.00     0.198 A 
ATOM     82  C   UNL A   1      39.600  26.830  28.730  1.00  0.00     0.198 A 
ATOM     83  F   UNL A   1      38.980  26.999  30.995  1.00  0.00    -0.203 F 
ATOM     84  F   UNL A   1      41.429  29.128  26.609  1.00  0.00    -0.200 F 
ATOM     85  C   UNL A   1      40.218  27.365  27.610  1.00  0.00     0.200 A 
ATOM     86  F   UNL A   1      38.999  25.635  28.656  1.00  0.00    -0.200 F 
ATOM     87  F   UNL A   1      40.197  26.700  26.447  1.00  0.00    -0.200 F 
ENDBRANCH  53  77
BRANCH  65  88
ATOM     88  C   UNL A   1      44.461  28.824  35.588  1.00  0.00     0.064 A 
ATOM     89  C   UNL A   1      44.377  27.605  36.277  1.00  0.00     0.173 A 
ATOM     90  C   UNL A   1      45.732  29.274  35.200  1.00  0.00     0.173 A 
ATOM     91  F   UNL A   1      43.187  27.139  36.683  1.00  0.00    -0.203 F 
ATOM     92  C   UNL A   1      45.525  26.880  36.590  1.00  0.00     0.198 A 
ATOM     93  C   UNL A   1      46.874  28.531  35.487  1.00  0.00     0.198 A 
ATOM     94  F   UNL A   1      45.867  30.429  34.532  1.00  0.00    -0.203 F 
ATOM     95  F   UNL A   1      45.425  25.746  37.296  1.00  0.00    -0.200 F 
ATOM     96  C   UNL A   1      46.770  27.340  36.190  1.00  0.00     0.200 A 
ATOM     97  F   UNL A   1      48.076  28.969  35.086  1.00  0.00    -0.200 F 
ATOM     98  F   UNL A   1      47.873  26.639  36.488  1.00  0.00    -0.200 F 
ENDBRANCH  65  88
ENDBRANCH  39  40
ENDBRANCH  31  34
ENDBRANCH  29  30
ENDBRANCH  28  29
ENDBRANCH  27  28
ENDBRANCH   1  27
TORSDOF 15
ENDMDL
MODEL 2
REMARK VINA RESULT:     -12.3      2.012      7.872
REMARK SMILES CC1(C)[C@H](C(=O)NCCCCCCNC(=O)c2ccc(-c3c4nc(c(-c5c(F)c(F)c(F)c(F)c5F)c5ccc([nH]5)c(-c5c(F)c(F)c(F)c(F)c5F)c5nc(c(-c6c(F)c(F)c(F)c(F)c6F)c6ccc3[nH]6)C=C5)C=C4)cc2)[C@H]1C(=O)Nc1cccc2[nH]ccc12
REMARK SMILES IDX 10 1 9 2 8 3 7 4 5 5 6 6 4 8 1 9 2 10 3 11 80 12 81 13 82 14
REMARK SMILES IDX 83 15 84 17 85 18 92 19 86 20 88 21 91 22 87 23 89 24 90 25
REMARK SMILES IDX 11 27 12 28 13 29 14 30 15 31 16 33 17 34 18 35 79 36 19 37
REMARK SMILES IDX 78 38 20 39 21 40 22 41 72 42 23 43 77 44 71 45 73 46 24 47
REMARK SMILES IDX 76 48 70 49 69 50 25 52 57 53 37 54 56 55 38 56 41 57 55 58
REMARK SMILES IDX 74 59 39 60 40 61 54 63 75 64 42 65 26 66 27 67 35 68 28 69
REMARK SMILES IDX 29 70 33 71 36 72 30 73 31 74 34 75 32 76 58 77 59 78 67 79
REMARK SMILES IDX 60 80 61 81 65 82 68 83 62 84 63 85 66 86 64 87 43 88 44 89
REMARK SMILES IDX 52 90 45 91 46 92 50 93 53 94 47 95 48 96 51 97 49 98
REMARK H PARENT 7 7 83 16 89 26 14 32 73 51 41 62
REMARK Flexibility Score: inf
ROOT
ATOM      1  C   UNL A   1      32.659  29.946  26.454  1.00  0.00     0.002 C 
ENDROOT
BRANCH   1   2
ATOM      2  C   UNL A   1      32.381  28.562  27.049  1.00  0.00     0.021 C 
BRANCH   2   3
ATOM      3  C   UNL A   1      31.309  27.760  26.309  1.00  0.00     0.116 C 
BRANCH   3   4
ATOM      4  N   UNL A   1      31.186  26.429  26.844  1.00  0.00    -0.356 N 
ATOM      5  C   UNL A   1      31.748  25.228  26.534  1.00  0.00     0.224 C 
ATOM      6  O   UNL A   1      31.398  24.286  27.249  1.00  0.00    -0.275 OA
ATOM      7  H   UNL A   1      30.557  26.376  27.599  1.00  0.00     0.163 HD
BRANCH   5   8
ATOM      8  C   UNL A   1      32.727  24.923  25.455  1.00  0.00     0.098 C 
ATOM      9  C   UNL A   1      35.161  24.453  24.984  1.00  0.00     0.013 C 
ATOM     10  C   UNL A   1      33.822  23.855  25.331  1.00  0.00    -0.011 C 
ATOM     11  C   UNL A   1      34.046  22.539  26.024  1.00  0.00     0.013 C 
ATOM     12  C   UNL A   1      32.574  23.863  24.426  1.00  0.00     0.098 C 
BRANCH  12  13
ATOM     13  C   UNL A   1      32.641  23.910  22.933  1.00  0.00     0.228 C 
ATOM     14  O   UNL A   1      32.898  22.853  22.357  1.00  0.00    -0.274 OA
ATOM     15  N   UNL A   1      32.158  24.960  22.188  1.00  0.00    -0.325 N 
ATOM     16  H   UNL A   1      31.606  24.712  21.412  1.00  0.00     0.169 HD
BRANCH  15  17
ATOM     17  C   UNL A   1      32.343  26.332  22.380  1.00  0.00     0.050 A 
ATOM     18  C   UNL A   1      33.653  26.823  22.395  1.00  0.00     0.027 A 
ATOM     19  C   UNL A   1      31.287  27.216  22.699  1.00  0.00     0.023 A 
ATOM     20  C   UNL A   1      33.896  28.192  22.506  1.00  0.00     0.004 A 
ATOM     21  C   UNL A   1      31.552  28.587  22.735  1.00  0.00     0.047 A 
ATOM     22  C   UNL A   1      29.920  27.068  23.084  1.00  0.00     0.030 A 
ATOM     23  C   UNL A   1      32.844  29.106  22.612  1.00  0.00     0.027 A 
ATOM     24  N   UNL A   1      30.346  29.233  22.888  1.00  0.00    -0.361 N 
ATOM     25  C   UNL A   1      29.357  28.323  23.147  1.00  0.00     0.083 A 
ATOM     26  H   UNL A   1      30.214  30.207  22.821  1.00  0.00     0.166 HD
ENDBRANCH  15  17
ENDBRANCH  12  13
ENDBRANCH   5   8
ENDBRANCH   3   4
ENDBRANCH   2   3
ENDBRANCH   1   2
BRANCH   1  27
ATOM     27  C   UNL A   1      31.413  30.722  26.011  1.00  0.00     0.002 C 
BRANCH  27  28
ATOM     28  C   UNL A   1      31.339  32.172  26.500  1.00  0.00     0.021 C 
BRANCH  28  29
ATOM     29  C   UNL A   1      32.602  32.671  27.196  1.00  0.00     0.116 C 
BRANCH  29  30
ATOM     30  N   UNL A   1      32.474  34.060  27.607  1.00  0.00    -0.352 N 
ATOM     31  C   UNL A   1      33.086  34.726  28.638  1.00  0.00     0.251 C 
ATOM     32  H   UNL A   1      31.856  34.603  27.066  1.00  0.00     0.163 HD
ATOM     33  O   UNL A   1      32.671  35.824  28.995  1.00  0.00    -0.269 OA
BRANCH  31  34
ATOM     34  C   UNL A   1      34.248  34.122  29.322  1.00  0.00     0.039 A 
ATOM     35  C   UNL A   1      34.026  33.278  30.412  1.00  0.00     0.014 A 
ATOM     36  C   UNL A   1      35.552  34.422  28.918  1.00  0.00     0.014 A 
ATOM     37  C   UNL A   1      35.112  32.700  31.072  1.00  0.00     0.010 A 
ATOM     38  C   UNL A   1      36.631  33.791  29.531  1.00  0.00     0.010 A 
ATOM     39  C   UNL A   1      36.422  32.934  30.622  1.00  0.00    -0.014 A 
BRANCH  39  40
ATOM     40  C   UNL A   1      37.586  32.306  31.295  1.00  0.00     0.031 A 
ATOM     41  C   UNL A   1      38.344  31.196  30.618  1.00  0.00     0.074 A 
ATOM     42  C   UNL A   1      37.926  32.697  32.538  1.00  0.00     0.049 A 
ATOM     43  N   UNL A   1      39.351  30.489  31.063  1.00  0.00    -0.248 NA
ATOM     44  C   UNL A   1      37.890  30.814  29.271  1.00  0.00     0.031 C 
ATOM     45  C   UNL A   1      37.237  33.728  33.316  1.00  0.00     0.029 A 
ATOM     46  N   UNL A   1      38.931  32.269  33.369  1.00  0.00    -0.354 N 
ATOM     47  C   UNL A   1      39.641  29.572  30.061  1.00  0.00     0.074 A 
ATOM     48  C   UNL A   1      38.670  29.776  29.007  1.00  0.00     0.031 C 
ATOM     49  C   UNL A   1      37.852  33.868  34.502  1.00  0.00     0.029 A 
ATOM     50  C   UNL A   1      38.954  32.914  34.581  1.00  0.00     0.049 A 
ATOM     51  H   UNL A   1      39.573  31.566  33.119  1.00  0.00     0.167 HD
ATOM     52  C   UNL A   1      40.641  28.659  30.014  1.00  0.00     0.037 A 
ATOM     53  C   UNL A   1      39.771  32.749  35.638  1.00  0.00     0.037 A 
ATOM     54  C   UNL A   1      41.619  28.479  31.054  1.00  0.00     0.049 A 
ATOM     55  C   UNL A   1      40.879  31.733  35.557  1.00  0.00     0.074 A 
ATOM     56  C   UNL A   1      42.706  27.624  31.078  1.00  0.00     0.029 A 
ATOM     57  N   UNL A   1      41.627  29.169  32.258  1.00  0.00    -0.354 N 
ATOM     58  N   UNL A   1      41.186  30.920  34.576  1.00  0.00    -0.248 NA
ATOM     59  C   UNL A   1      41.758  31.619  36.728  1.00  0.00     0.031 C 
ATOM     60  C   UNL A   1      43.345  27.763  32.315  1.00  0.00     0.029 A 
ATOM     61  C   UNL A   1      42.689  28.745  33.040  1.00  0.00     0.049 A 
ATOM     62  H   UNL A   1      40.974  29.859  32.519  1.00  0.00     0.167 HD
ATOM     63  C   UNL A   1      42.310  30.223  34.996  1.00  0.00     0.074 A 
ATOM     64  C   UNL A   1      42.640  30.720  36.315  1.00  0.00     0.031 C 
ATOM     65  C   UNL A   1      43.009  29.258  34.348  1.00  0.00     0.037 A 
BRANCH  52  66
ATOM     66  C   UNL A   1      40.730  27.786  28.795  1.00  0.00     0.064 A 
ATOM     67  C   UNL A   1      39.993  26.597  28.686  1.00  0.00     0.173 A 
ATOM     68  C   UNL A   1      41.530  28.163  27.706  1.00  0.00     0.173 A 
ATOM     69  F   UNL A   1      39.221  26.185  29.703  1.00  0.00    -0.203 F 
ATOM     70  C   UNL A   1      40.076  25.805  27.544  1.00  0.00     0.198 A 
ATOM     71  C   UNL A   1      41.586  27.385  26.553  1.00  0.00     0.198 A 
ATOM     72  F   UNL A   1      42.251  29.294  27.756  1.00  0.00    -0.203 F 
ATOM     73  F   UNL A   1      39.399  24.649  27.482  1.00  0.00    -0.200 F 
ATOM     74  C   UNL A   1      40.865  26.203  26.475  1.00  0.00     0.200 A 
ATOM     75  F   UNL A   1      42.338  27.778  25.516  1.00  0.00    -0.200 F 
ATOM     76  F   UNL A   1      40.936  25.443  25.373  1.00  0.00    -0.200 F 
ENDBRANCH  52  66
BRANCH  53  77
ATOM     77  C   UNL A   1      39.592  33.586  36.853  1.00  0.00     0.064 A 
ATOM     78  C   UNL A   1      38.794  33.147  37.919  1.00  0.00     0.173 A 
ATOM     79  C   UNL A   1      40.204  34.842  36.971  1.00  0.00     0.173 A 
ATOM     80  F   UNL A   1      38.172  31.961  37.846  1.00  0.00    -0.203 F 
ATOM     81  C   UNL A   1      38.595  33.943  39.045  1.00  0.00     0.198 A 
ATOM     82  C   UNL A   1      40.029  35.624  38.110  1.00  0.00     0.198 A 
ATOM     83  F   UNL A   1      40.983  35.306  35.982  1.00  0.00    -0.203 F 
ATOM     84  F   UNL A   1      37.788  33.521  40.028  1.00  0.00    -0.200 F 
ATOM     85  C   UNL A   1      39.217  35.179  39.142  1.00  0.00     0.200 A 
ATOM     86  F   UNL A   1      40.644  36.811  38.207  1.00  0.00    -0.200 F 
ATOM     87  F   UNL A   1      39.028  35.942  40.227  1.00  0.00    -0.200 F 
ENDBRANCH  53  77
BRANCH  65  88
ATOM     88  C   UNL A   1      44.222  28.706  35.039  1.00  0.00     0.064 A 
ATOM     89  C   UNL A   1      45.485  29.300  34.900  1.00  0.00     0.173 A 
ATOM     90  C   UNL A   1      44.110  27.586  35.875  1.00  0.00     0.173 A 
ATOM     91  F   UNL A   1      45.647  30.364  34.101  1.00  0.00    -0.203 F 
ATOM     92  C   UNL A   1      46.598  28.772  35.550  1.00  0.00     0.198 A 
ATOM     93  C   UNL A   1      45.219  27.080  36.549  1.00  0.00     0.198 A 
ATOM     94  F   UNL A   1      42.923  26.985  36.049  1.00  0.00    -0.203 F 
ATOM     95  F   UNL A   1      47.805  29.323  35.360  1.00  0.00    -0.200 F 
ATOM     96  C   UNL A   1      46.463  27.668  36.378  1.00  0.00     0.200 A 
ATOM     97  F   UNL A   1      45.083  26.022  37.361  1.00  0.00    -0.200 F 
ATOM     98  F   UNL A   1      47.534  27.165  37.007  1.00  0.00    -0.200 F 
ENDBRANCH  65  88
ENDBRANCH  39  40
ENDBRANCH  31  34
ENDBRANCH  29  30
ENDBRANCH  28  29
ENDBRANCH  27  28
ENDBRANCH   1  27
TORSDOF 15
ENDMDL
MODEL 3
REMARK VINA RESULT:     -12.3      2.875      4.961
REMARK SMILES CC1(C)[C@H](C(=O)NCCCCCCNC(=O)c2ccc(-c3c4nc(c(-c5c(F)c(F)c(F)c(F)c5F)c5ccc([nH]5)c(-c5c(F)c(F)c(F)c(F)c5F)c5nc(c(-c6c(F)c(F)c(F)c(F)c6F)c6ccc3[nH]6)C=C5)C=C4)cc2)[C@H]1C(=O)Nc1cccc2[nH]ccc12
REMARK SMILES IDX 10 1 9 2 8 3 7 4 5 5 6 6 4 8 1 9 2 10 3 11 80 12 81 13 82 14
REMARK SMILES IDX 83 15 84 17 85 18 92 19 86 20 88 21 91 22 87 23 89 24 90 25
REMARK SMILES IDX 11 27 12 28 13 29 14 30 15 31 16 33 17 34 18 35 79 36 19 37
REMARK SMILES IDX 78 38 20 39 21 40 22 41 72 42 23 43 77 44 71 45 73 46 24 47
REMARK SMILES IDX 76 48 70 49 69 50 25 52 57 53 37 54 56 55 38 56 41 57 55 58
REMARK SMILES IDX 74 59 39 60 40 61 54 63 75 64 42 65 26 66 27 67 35 68 28 69
REMARK SMILES IDX 29 70 33 71 36 72 30 73 31 74 34 75 32 76 58 77 59 78 67 79
REMARK SMILES IDX 60 80 61 81 65 82 68 83 62 84 63 85 66 86 64 87 43 88 44 89
REMARK SMILES IDX 52 90 45 91 46 92 50 93 53 94 47 95 48 96 51 97 49 98
REMARK H PARENT 7 7 83 16 89 26 14 32 73 51 41 62
REMARK Flexibility Score: inf
ROOT
ATOM      1  C   UNL A   1      32.729  29.623  25.577  1.00  0.00     0.002 C 
ENDROOT
BRANCH   1   2
ATOM      2  C   UNL A   1      33.263  28.891  24.341  1.00  0.00     0.021 C 
BRANCH   2   3
ATOM      3  C   UNL A   1      32.341  28.953  23.123  1.00  0.00     0.116 C 
BRANCH   3   4
ATOM      4  N   UNL A   1      32.756  28.028  22.102  1.00  0.00    -0.356 N 
ATOM      5  C   UNL A   1      32.896  26.674  22.051  1.00  0.00     0.224 C 
ATOM      6  O   UNL A   1      33.272  26.227  20.964  1.00  0.00    -0.275 OA
ATOM      7  H   UNL A   1      32.992  28.471  21.255  1.00  0.00     0.163 HD
BRANCH   5   8
ATOM      8  C   UNL A   1      32.644  25.683  23.133  1.00  0.00     0.098 C 
ATOM      9  C   UNL A   1      31.437  23.540  23.694  1.00  0.00     0.013 C 
ATOM     10  C   UNL A   1      32.706  24.149  23.158  1.00  0.00    -0.011 C 
ATOM     11  C   UNL A   1      33.391  23.142  22.277  1.00  0.00     0.013 C 
ATOM     12  C   UNL A   1      33.689  25.027  23.960  1.00  0.00     0.098 C 
BRANCH  12  13
ATOM     13  C   UNL A   1      33.863  24.923  25.441  1.00  0.00     0.228 C 
ATOM     14  O   UNL A   1      33.399  25.840  26.118  1.00  0.00    -0.274 OA
ATOM     15  N   UNL A   1      34.236  23.764  26.079  1.00  0.00    -0.325 N 
ATOM     16  H   UNL A   1      33.706  23.527  26.874  1.00  0.00     0.169 HD
BRANCH  15  17
ATOM     17  C   UNL A   1      35.263  22.874  25.755  1.00  0.00     0.050 A 
ATOM     18  C   UNL A   1      36.567  23.374  25.679  1.00  0.00     0.027 A 
ATOM     19  C   UNL A   1      35.030  21.535  25.365  1.00  0.00     0.023 A 
ATOM     20  C   UNL A   1      37.642  22.520  25.435  1.00  0.00     0.004 A 
ATOM     21  C   UNL A   1      36.128  20.689  25.195  1.00  0.00     0.047 A 
ATOM     22  C   UNL A   1      33.881  20.766  25.010  1.00  0.00     0.030 A 
ATOM     23  C   UNL A   1      37.447  21.148  25.254  1.00  0.00     0.027 A 
ATOM     24  N   UNL A   1      35.639  19.418  24.993  1.00  0.00    -0.361 N 
ATOM     25  C   UNL A   1      34.280  19.460  24.833  1.00  0.00     0.083 A 
ATOM     26  H   UNL A   1      36.185  18.599  24.968  1.00  0.00     0.166 HD
ENDBRANCH  15  17
ENDBRANCH  12  13
ENDBRANCH   5   8
ENDBRANCH   3   4
ENDBRANCH   2   3
ENDBRANCH   1   2
BRANCH   1  27
ATOM     27  C   UNL A   1      31.391  30.343  25.376  1.00  0.00     0.002 C 
BRANCH  27  28
ATOM     28  C   UNL A   1      31.234  31.656  26.147  1.00  0.00     0.021 C 
BRANCH  28  29
ATOM     29  C   UNL A   1      32.488  32.108  26.891  1.00  0.00     0.116 C 
BRANCH  29  30
ATOM     30  N   UNL A   1      32.421  33.517  27.246  1.00  0.00    -0.352 N 
ATOM     31  C   UNL A   1      33.093  34.204  28.225  1.00  0.00     0.251 C 
ATOM     32  H   UNL A   1      31.802  34.059  26.704  1.00  0.00     0.163 HD
ATOM     33  O   UNL A   1      32.728  35.329  28.550  1.00  0.00    -0.269 OA
BRANCH  31  34
ATOM     34  C   UNL A   1      34.259  33.588  28.892  1.00  0.00     0.039 A 
ATOM     35  C   UNL A   1      34.044  32.568  29.821  1.00  0.00     0.014 A 
ATOM     36  C   UNL A   1      35.554  34.046  28.636  1.00  0.00     0.014 A 
ATOM     37  C   UNL A   1      35.133  31.977  30.464  1.00  0.00     0.010 A 
ATOM     38  C   UNL A   1      36.644  33.409  29.223  1.00  0.00     0.010 A 
ATOM     39  C   UNL A   1      36.444  32.377  30.152  1.00  0.00    -0.014 A 
BRANCH  39  40
ATOM     40  C   UNL A   1      37.613  31.740  30.805  1.00  0.00     0.031 A 
ATOM     41  C   UNL A   1      38.044  32.177  32.179  1.00  0.00     0.074 A 
ATOM     42  C   UNL A   1      38.320  30.806  30.140  1.00  0.00     0.049 A 
ATOM     43  N   UNL A   1      39.067  31.780  32.893  1.00  0.00    -0.248 NA
ATOM     44  C   UNL A   1      37.230  33.220  32.825  1.00  0.00     0.031 C 
ATOM     45  C   UNL A   1      38.029  30.335  28.785  1.00  0.00     0.029 A 
ATOM     46  N   UNL A   1      39.433  30.093  30.509  1.00  0.00    -0.354 N 
ATOM     47  C   UNL A   1      39.028  32.531  34.060  1.00  0.00     0.074 A 
ATOM     48  C   UNL A   1      37.913  33.446  33.938  1.00  0.00     0.031 C 
ATOM     49  C   UNL A   1      38.927  29.396  28.444  1.00  0.00     0.029 A 
ATOM     50  C   UNL A   1      39.875  29.224  29.541  1.00  0.00     0.049 A 
ATOM     51  H   UNL A   1      39.872  30.193  31.384  1.00  0.00     0.167 HD
ATOM     52  C   UNL A   1      39.835  32.448  35.145  1.00  0.00     0.037 A 
ATOM     53  C   UNL A   1      40.930  28.389  29.539  1.00  0.00     0.037 A 
ATOM     54  C   UNL A   1      40.926  31.519  35.271  1.00  0.00     0.049 A 
ATOM     55  C   UNL A   1      41.806  28.311  30.761  1.00  0.00     0.074 A 
ATOM     56  C   UNL A   1      41.765  31.315  36.352  1.00  0.00     0.029 A 
ATOM     57  N   UNL A   1      41.328  30.636  34.280  1.00  0.00    -0.354 N 
ATOM     58  N   UNL A   1      41.717  28.976  31.887  1.00  0.00    -0.248 NA
ATOM     59  C   UNL A   1      42.923  27.359  30.714  1.00  0.00     0.031 C 
ATOM     60  C   UNL A   1      42.705  30.341  35.999  1.00  0.00     0.029 A 
ATOM     61  C   UNL A   1      42.417  29.898  34.717  1.00  0.00     0.049 A 
ATOM     62  H   UNL A   1      40.904  30.546  33.397  1.00  0.00     0.167 HD
ATOM     63  C   UNL A   1      42.743  28.503  32.692  1.00  0.00     0.074 A 
ATOM     64  C   UNL A   1      43.432  27.481  31.931  1.00  0.00     0.031 C 
ATOM     65  C   UNL A   1      43.085  28.878  33.950  1.00  0.00     0.037 A 
BRANCH  52  66
ATOM     66  C   UNL A   1      39.565  33.388  36.286  1.00  0.00     0.064 A 
ATOM     67  C   UNL A   1      38.775  33.007  37.381  1.00  0.00     0.173 A 
ATOM     68  C   UNL A   1      40.136  34.669  36.305  1.00  0.00     0.173 A 
ATOM     69  F   UNL A   1      38.196  31.797  37.409  1.00  0.00    -0.203 F 
ATOM     70  C   UNL A   1      38.544  33.884  38.438  1.00  0.00     0.198 A 
ATOM     71  C   UNL A   1      39.929  35.532  37.378  1.00  0.00     0.198 A 
ATOM     72  F   UNL A   1      40.905  35.082  35.285  1.00  0.00    -0.203 F 
ATOM     73  F   UNL A   1      37.747  33.515  39.451  1.00  0.00    -0.200 F 
ATOM     74  C   UNL A   1      39.128  35.142  38.440  1.00  0.00     0.200 A 
ATOM     75  F   UNL A   1      40.504  36.741  37.384  1.00  0.00    -0.200 F 
ATOM     76  F   UNL A   1      38.912  35.981  39.462  1.00  0.00    -0.200 F 
ENDBRANCH  52  66
BRANCH  53  77
ATOM     77  C   UNL A   1      41.199  27.535  28.353  1.00  0.00     0.064 A 
ATOM     78  C   UNL A   1      42.087  27.953  27.351  1.00  0.00     0.173 A 
ATOM     79  C   UNL A   1      40.571  26.292  28.190  1.00  0.00     0.173 A 
ATOM     80  F   UNL A   1      42.699  29.142  27.453  1.00  0.00    -0.203 F 
ATOM     81  C   UNL A   1      42.317  27.172  26.221  1.00  0.00     0.198 A 
ATOM     82  C   UNL A   1      40.824  25.498  27.073  1.00  0.00     0.198 A 
ATOM     83  F   UNL A   1      39.717  25.844  29.122  1.00  0.00    -0.203 F 
ATOM     84  F   UNL A   1      43.132  27.618  25.255  1.00  0.00    -0.200 F 
ATOM     85  C   UNL A   1      41.689  25.943  26.085  1.00  0.00     0.200 A 
ATOM     86  F   UNL A   1      40.228  24.305  26.953  1.00  0.00    -0.200 F 
ATOM     87  F   UNL A   1      41.912  25.191  24.998  1.00  0.00    -0.200 F 
ENDBRANCH  53  77
BRANCH  65  88
ATOM     88  C   UNL A   1      44.229  28.152  34.596  1.00  0.00     0.064 A 
ATOM     89  C   UNL A   1      45.546  28.630  34.517  1.00  0.00     0.173 A 
ATOM     90  C   UNL A   1      43.998  26.979  35.330  1.00  0.00     0.173 A 
ATOM     91  F   UNL A   1      45.821  29.739  33.815  1.00  0.00    -0.203 F 
ATOM     92  C   UNL A   1      46.593  27.942  35.124  1.00  0.00     0.198 A 
ATOM     93  C   UNL A   1      45.044  26.311  35.963  1.00  0.00     0.198 A 
ATOM     94  F   UNL A   1      42.756  26.484  35.444  1.00  0.00    -0.203 F 
ATOM     95  F   UNL A   1      47.850  28.387  34.990  1.00  0.00    -0.200 F 
ATOM     96  C   UNL A   1      46.341  26.788  35.851  1.00  0.00     0.200 A 
ATOM     97  F   UNL A   1      44.795  25.205  36.678  1.00  0.00    -0.200 F 
ATOM     98  F   UNL A   1      47.350  26.130  36.439  1.00  0.00    -0.200 F 
ENDBRANCH  65  88
ENDBRANCH  39  40
ENDBRANCH  31  34
ENDBRANCH  29  30
ENDBRANCH  28  29
ENDBRANCH  27  28
ENDBRANCH   1  27
TORSDOF 15
ENDMDL
