MODEL 1
REMARK VINA RESULT:     -12.4      0.000      0.000
REMARK SMILES Cc1ccc2occ(/C=N/NC(=O)CCC(=O)Nc3ccc(C(=O)NCCCCCCNC(=O)c4ccc(-c5c6nc(c(-c7c(F)c(F)c(F)c(F)c7F)c7ccc([nH]7)c(-c7c(F)c(F)c(F)c(F)c7F)c7nc(c(-c8c(F)c(F)c(F)c(F)c8F)c8ccc5[nH]8)C=C7)C=C6)cc4)cc3)c(=O)c2c1
REMARK SMILES IDX 26 1 25 2 23 3 24 4 22 6 19 7 20 8 99 9 21 10 98 11 18 12
REMARK SMILES IDX 16 13 17 14 15 16 14 17 12 18 11 19 13 21 10 22 9 23 8 24
REMARK SMILES IDX 1 25 2 26 3 27 103 28 4 29 102 30 5 31 100 32 6 33 101 34
REMARK SMILES IDX 7 35 27 36 28 37 29 38 30 39 31 40 32 41 33 42 34 44 35 45
REMARK SMILES IDX 36 46 97 47 37 48 96 49 38 50 39 51 40 52 90 53 41 54 95 55
REMARK SMILES IDX 89 56 91 57 42 58 94 59 88 60 87 61 43 63 75 64 55 65 74 66
REMARK SMILES IDX 56 67 59 68 73 69 92 70 57 71 58 72 72 74 93 75 60 76 44 77
REMARK SMILES IDX 45 78 53 79 46 80 47 81 51 82 54 83 48 84 49 85 52 86 50 87
REMARK SMILES IDX 76 88 77 89 85 90 78 91 79 92 83 93 86 94 80 95 81 96 84 97
REMARK SMILES IDX 82 98 61 99 62 100 70 101 63 102 64 103 68 104 71 105 65 106
REMARK SMILES IDX 66 107 69 108 67 109
REMARK H PARENT 25 5 18 15 11 20 32 43 91 62 59 73
REMARK Flexibility Score: inf
ROOT
ATOM      1  C   UNL A   1      35.156  30.230  27.588  1.00  0.00     0.116 C 
ENDROOT
BRANCH   1   2
ATOM      2  N   UNL A   1      34.103  29.235  27.812  1.00  0.00    -0.352 N 
ATOM      3  C   UNL A   1      32.784  29.118  27.418  1.00  0.00     0.251 C 
ATOM      4  O   UNL A   1      32.156  28.118  27.763  1.00  0.00    -0.269 OA
ATOM      5  H   UNL A   1      34.404  28.481  28.368  1.00  0.00     0.163 HD
BRANCH   3   6
ATOM      6  C   UNL A   1      32.123  30.112  26.536  1.00  0.00     0.039 A 
ATOM      7  C   UNL A   1      30.452  31.779  24.982  1.00  0.00     0.041 A 
ATOM      8  C   UNL A   1      31.015  32.263  26.163  1.00  0.00     0.027 A 
ATOM      9  C   UNL A   1      30.767  30.491  24.631  1.00  0.00     0.027 A 
ATOM     10  C   UNL A   1      31.796  31.405  26.973  1.00  0.00     0.016 A 
ATOM     11  C   UNL A   1      31.735  29.755  25.271  1.00  0.00     0.016 A 
BRANCH   7  12
ATOM     12  N   UNL A   1      29.703  32.602  24.123  1.00  0.00    -0.326 N 
ATOM     13  C   UNL A   1      28.531  32.381  23.437  1.00  0.00     0.224 C 
ATOM     14  O   UNL A   1      28.252  33.164  22.520  1.00  0.00    -0.275 OA
ATOM     15  H   UNL A   1      30.087  33.498  23.987  1.00  0.00     0.169 HD
BRANCH  13  16
ATOM     16  C   UNL A   1      27.505  31.326  23.861  1.00  0.00     0.110 C 
BRANCH  16  17
ATOM     17  C   UNL A   1      27.373  29.971  23.138  1.00  0.00     0.112 C 
BRANCH  17  18
ATOM     18  C   UNL A   1      28.301  29.582  21.975  1.00  0.00     0.240 C 
ATOM     19  N   UNL A   1      29.222  28.567  22.120  1.00  0.00    -0.247 N 
ATOM     20  H   UNL A   1      29.772  28.342  21.336  1.00  0.00     0.193 HD
ATOM     21  O   UNL A   1      28.186  30.125  20.870  1.00  0.00    -0.273 OA
BRANCH  19  22
ATOM     22  N   UNL A   1      29.432  27.850  23.253  1.00  0.00    -0.180 NA
ATOM     23  C   UNL A   1      30.335  26.939  23.103  1.00  0.00     0.148 C 
BRANCH  23  24
ATOM     24  C   UNL A   1      30.991  26.209  24.185  1.00  0.00     0.078 A 
ATOM     25  C   UNL A   1      36.464  23.733  25.775  1.00  0.00     0.044 C 
ATOM     26  C   UNL A   1      34.997  24.017  25.891  1.00  0.00    -0.050 A 
ATOM     27  C   UNL A   1      34.170  23.304  26.771  1.00  0.00     0.007 A 
ATOM     28  C   UNL A   1      34.439  25.015  25.093  1.00  0.00     0.019 A 
ATOM     29  C   UNL A   1      32.799  23.583  26.852  1.00  0.00     0.048 A 
ATOM     30  C   UNL A   1      33.067  25.254  25.151  1.00  0.00     0.066 A 
ATOM     31  C   UNL A   1      32.243  24.558  26.032  1.00  0.00     0.137 A 
ATOM     32  C   UNL A   1      32.461  26.178  24.198  1.00  0.00     0.201 A 
ATOM     33  O   UNL A   1      30.886  24.769  26.110  1.00  0.00    -0.463 OA
ATOM     34  O   UNL A   1      33.134  26.836  23.412  1.00  0.00    -0.288 OA
ATOM     35  C   UNL A   1      30.315  25.551  25.129  1.00  0.00     0.209 A 
ENDBRANCH  23  24
ENDBRANCH  19  22
ENDBRANCH  17  18
ENDBRANCH  16  17
ENDBRANCH  13  16
ENDBRANCH   7  12
ENDBRANCH   3   6
ENDBRANCH   1   2
BRANCH   1  36
ATOM     36  C   UNL A   1      35.038  31.381  28.599  1.00  0.00     0.021 C 
BRANCH  36  37
ATOM     37  C   UNL A   1      35.590  32.693  28.031  1.00  0.00     0.002 C 
BRANCH  37  38
ATOM     38  C   UNL A   1      35.630  33.841  29.048  1.00  0.00     0.002 C 
BRANCH  38  39
ATOM     39  C   UNL A   1      34.558  34.915  28.851  1.00  0.00     0.021 C 
BRANCH  39  40
ATOM     40  C   UNL A   1      33.172  34.514  29.347  1.00  0.00     0.116 C 
BRANCH  40  41
ATOM     41  N   UNL A   1      32.647  35.471  30.311  1.00  0.00    -0.352 N 
ATOM     42  C   UNL A   1      32.938  35.627  31.644  1.00  0.00     0.251 C 
ATOM     43  H   UNL A   1      31.980  36.100  29.954  1.00  0.00     0.163 HD
ATOM     44  O   UNL A   1      32.227  36.324  32.355  1.00  0.00    -0.269 OA
BRANCH  42  45
ATOM     45  C   UNL A   1      34.109  34.935  32.222  1.00  0.00     0.039 A 
ATOM     46  C   UNL A   1      33.968  33.613  32.650  1.00  0.00     0.014 A 
ATOM     47  C   UNL A   1      35.338  35.589  32.346  1.00  0.00     0.014 A 
ATOM     48  C   UNL A   1      35.080  32.921  33.129  1.00  0.00     0.010 A 
ATOM     49  C   UNL A   1      36.462  34.877  32.754  1.00  0.00     0.010 A 
ATOM     50  C   UNL A   1      36.345  33.533  33.140  1.00  0.00    -0.014 A 
BRANCH  50  51
ATOM     51  C   UNL A   1      37.564  32.767  33.506  1.00  0.00     0.031 A 
ATOM     52  C   UNL A   1      38.302  33.070  34.778  1.00  0.00     0.074 A 
ATOM     53  C   UNL A   1      38.041  31.845  32.648  1.00  0.00     0.049 A 
ATOM     54  N   UNL A   1      39.417  32.552  35.229  1.00  0.00    -0.248 NA
ATOM     55  C   UNL A   1      37.727  34.106  35.648  1.00  0.00     0.031 C 
ATOM     56  C   UNL A   1      37.436  31.499  31.361  1.00  0.00     0.029 A 
ATOM     57  N   UNL A   1      39.149  31.039  32.722  1.00  0.00    -0.354 N 
ATOM     58  C   UNL A   1      39.678  33.200  36.428  1.00  0.00     0.074 A 
ATOM     59  C   UNL A   1      38.636  34.188  36.609  1.00  0.00     0.031 C 
ATOM     60  C   UNL A   1      38.167  30.535  30.777  1.00  0.00     0.029 A 
ATOM     61  C   UNL A   1      39.316  30.232  31.623  1.00  0.00     0.049 A 
ATOM     62  H   UNL A   1      39.766  31.039  33.489  1.00  0.00     0.167 HD
ATOM     63  C   UNL A   1      40.686  32.978  37.306  1.00  0.00     0.037 A 
ATOM     64  C   UNL A   1      40.294  29.356  31.323  1.00  0.00     0.037 A 
ATOM     65  C   UNL A   1      41.715  31.986  37.123  1.00  0.00     0.049 A 
ATOM     66  C   UNL A   1      41.420  29.154  32.301  1.00  0.00     0.074 A 
ATOM     67  C   UNL A   1      42.742  31.642  37.982  1.00  0.00     0.029 A 
ATOM     68  N   UNL A   1      41.854  31.189  35.995  1.00  0.00    -0.354 N 
ATOM     69  N   UNL A   1      41.614  29.716  33.469  1.00  0.00    -0.248 NA
ATOM     70  C   UNL A   1      42.462  28.192  31.919  1.00  0.00     0.031 C 
ATOM     71  C   UNL A   1      43.540  30.683  37.351  1.00  0.00     0.029 A 
ATOM     72  C   UNL A   1      42.973  30.380  36.123  1.00  0.00     0.049 A 
ATOM     73  H   UNL A   1      41.247  31.196  35.220  1.00  0.00     0.167 HD
ATOM     74  C   UNL A   1      42.783  29.162  33.971  1.00  0.00     0.074 A 
ATOM     75  C   UNL A   1      43.243  28.201  32.991  1.00  0.00     0.031 C 
ATOM     76  C   UNL A   1      43.421  29.429  35.137  1.00  0.00     0.037 A 
BRANCH  63  77
ATOM     77  C   UNL A   1      40.728  33.822  38.548  1.00  0.00     0.064 A 
ATOM     78  C   UNL A   1      40.037  33.455  39.713  1.00  0.00     0.173 A 
ATOM     79  C   UNL A   1      41.509  34.987  38.590  1.00  0.00     0.173 A 
ATOM     80  F   UNL A   1      39.269  32.356  39.726  1.00  0.00    -0.203 F 
ATOM     81  C   UNL A   1      40.103  34.239  40.863  1.00  0.00     0.198 A 
ATOM     82  C   UNL A   1      41.599  35.750  39.751  1.00  0.00     0.198 A 
ATOM     83  F   UNL A   1      42.196  35.380  37.507  1.00  0.00    -0.203 F 
ATOM     84  F   UNL A   1      39.396  33.894  41.948  1.00  0.00    -0.200 F 
ATOM     85  C   UNL A   1      40.890  35.380  40.884  1.00  0.00     0.200 A 
ATOM     86  F   UNL A   1      42.374  36.843  39.775  1.00  0.00    -0.200 F 
ATOM     87  F   UNL A   1      40.963  36.126  41.995  1.00  0.00    -0.200 F 
ENDBRANCH  63  77
BRANCH  64  88
ATOM     88  C   UNL A   1      40.250  28.601  30.044  1.00  0.00     0.064 A 
ATOM     89  C   UNL A   1      40.869  29.102  28.889  1.00  0.00     0.173 A 
ATOM     90  C   UNL A   1      39.583  27.371  29.943  1.00  0.00     0.173 A 
ATOM     91  F   UNL A   1      41.502  30.284  28.929  1.00  0.00    -0.203 F 
ATOM     92  C   UNL A   1      40.801  28.415  27.680  1.00  0.00     0.198 A 
ATOM     93  C   UNL A   1      39.545  26.668  28.741  1.00  0.00     0.198 A 
ATOM     94  F   UNL A   1      38.979  26.844  31.018  1.00  0.00    -0.203 F 
ATOM     95  F   UNL A   1      41.356  28.943  26.580  1.00  0.00    -0.200 F 
ATOM     96  C   UNL A   1      40.145  27.196  27.607  1.00  0.00     0.200 A 
ATOM     97  F   UNL A   1      38.924  25.482  28.680  1.00  0.00    -0.200 F 
ATOM     98  F   UNL A   1      40.083  26.533  26.445  1.00  0.00    -0.200 F 
ENDBRANCH  64  88
BRANCH  76  99
ATOM     99  C   UNL A   1      44.674  28.655  35.429  1.00  0.00     0.064 A 
ATOM    100  C   UNL A   1      44.639  27.415  36.085  1.00  0.00     0.173 A 
ATOM    101  C   UNL A   1      45.925  29.140  35.015  1.00  0.00     0.173 A 
ATOM    102  F   UNL A   1      43.471  26.912  36.516  1.00  0.00    -0.203 F 
ATOM    103  C   UNL A   1      45.809  26.705  36.340  1.00  0.00     0.198 A 
ATOM    104  C   UNL A   1      47.089  28.412  35.241  1.00  0.00     0.198 A 
ATOM    105  F   UNL A   1      46.015  30.318  34.378  1.00  0.00    -0.203 F 
ATOM    106  F   UNL A   1      45.756  25.549  37.016  1.00  0.00    -0.200 F 
ATOM    107  C   UNL A   1      47.032  27.200  35.911  1.00  0.00     0.200 A 
ATOM    108  F   UNL A   1      48.267  28.884  34.810  1.00  0.00    -0.200 F 
ATOM    109  F   UNL A   1      48.156  26.510  36.149  1.00  0.00    -0.200 F 
ENDBRANCH  76  99
ENDBRANCH  50  51
ENDBRANCH  42  45
ENDBRANCH  40  41
ENDBRANCH  39  40
ENDBRANCH  38  39
ENDBRANCH  37  38
ENDBRANCH  36  37
ENDBRANCH   1  36
TORSDOF 19
ENDMDL
MODEL 2
REMARK VINA RESULT:     -11.7      2.237      7.880
REMARK SMILES Cc1ccc2occ(/C=N/NC(=O)CCC(=O)Nc3ccc(C(=O)NCCCCCCNC(=O)c4ccc(-c5c6nc(c(-c7c(F)c(F)c(F)c(F)c7F)c7ccc([nH]7)c(-c7c(F)c(F)c(F)c(F)c7F)c7nc(c(-c8c(F)c(F)c(F)c(F)c8F)c8ccc5[nH]8)C=C7)C=C6)cc4)cc3)c(=O)c2c1
REMARK SMILES IDX 26 1 25 2 23 3 24 4 22 6 19 7 20 8 99 9 21 10 98 11 18 12
REMARK SMILES IDX 16 13 17 14 15 16 14 17 12 18 11 19 13 21 10 22 9 23 8 24
REMARK SMILES IDX 1 25 2 26 3 27 103 28 4 29 102 30 5 31 100 32 6 33 101 34
REMARK SMILES IDX 7 35 27 36 28 37 29 38 30 39 31 40 32 41 33 42 34 44 35 45
REMARK SMILES IDX 36 46 97 47 37 48 96 49 38 50 39 51 40 52 90 53 41 54 95 55
REMARK SMILES IDX 89 56 91 57 42 58 94 59 88 60 87 61 43 63 75 64 55 65 74 66
REMARK SMILES IDX 56 67 59 68 73 69 92 70 57 71 58 72 72 74 93 75 60 76 44 77
REMARK SMILES IDX 45 78 53 79 46 80 47 81 51 82 54 83 48 84 49 85 52 86 50 87
REMARK SMILES IDX 76 88 77 89 85 90 78 91 79 92 83 93 86 94 80 95 81 96 84 97
REMARK SMILES IDX 82 98 61 99 62 100 70 101 63 102 64 103 68 104 71 105 65 106
REMARK SMILES IDX 66 107 69 108 67 109
REMARK H PARENT 25 5 18 15 11 20 32 43 91 62 59 73
REMARK Flexibility Score: inf
ROOT
ATOM      1  C   UNL A   1      29.149  32.735  22.764  1.00  0.00     0.116 C 
ENDROOT
BRANCH   1   2
ATOM      2  N   UNL A   1      28.533  32.049  21.624  1.00  0.00    -0.352 N 
ATOM      3  C   UNL A   1      28.294  30.725  21.307  1.00  0.00     0.251 C 
ATOM      4  O   UNL A   1      27.716  30.471  20.252  1.00  0.00    -0.269 OA
ATOM      5  H   UNL A   1      28.218  32.670  20.930  1.00  0.00     0.163 HD
BRANCH   3   6
ATOM      6  C   UNL A   1      28.640  29.609  22.223  1.00  0.00     0.039 A 
ATOM      7  C   UNL A   1      29.106  27.199  23.623  1.00  0.00     0.041 A 
ATOM      8  C   UNL A   1      30.170  27.876  23.027  1.00  0.00     0.027 A 
ATOM      9  C   UNL A   1      27.865  27.771  23.501  1.00  0.00     0.027 A 
ATOM     10  C   UNL A   1      29.924  29.046  22.270  1.00  0.00     0.016 A 
ATOM     11  C   UNL A   1      27.670  29.037  23.003  1.00  0.00     0.016 A 
BRANCH   7  12
ATOM     12  N   UNL A   1      29.303  26.057  24.418  1.00  0.00    -0.326 N 
ATOM     13  C   UNL A   1      30.245  25.761  25.376  1.00  0.00     0.224 C 
ATOM     14  O   UNL A   1      30.370  24.574  25.704  1.00  0.00    -0.275 OA
ATOM     15  H   UNL A   1      28.649  25.338  24.261  1.00  0.00     0.169 HD
BRANCH  13  16
ATOM     16  C   UNL A   1      31.012  26.838  26.150  1.00  0.00     0.110 C 
BRANCH  16  17
ATOM     17  C   UNL A   1      32.507  26.692  26.498  1.00  0.00     0.112 C 
BRANCH  17  18
ATOM     18  C   UNL A   1      33.608  27.250  25.581  1.00  0.00     0.240 C 
ATOM     19  N   UNL A   1      33.857  26.677  24.352  1.00  0.00    -0.247 N 
ATOM     20  H   UNL A   1      34.555  27.089  23.795  1.00  0.00     0.193 HD
ATOM     21  O   UNL A   1      34.238  28.264  25.900  1.00  0.00    -0.273 OA
BRANCH  19  22
ATOM     22  N   UNL A   1      33.218  25.592  23.845  1.00  0.00    -0.180 NA
ATOM     23  C   UNL A   1      33.859  24.492  24.063  1.00  0.00     0.148 C 
BRANCH  23  24
ATOM     24  C   UNL A   1      33.312  23.146  23.910  1.00  0.00     0.078 A 
ATOM     25  C   UNL A   1      34.781  17.165  24.728  1.00  0.00     0.044 C 
ATOM     26  C   UNL A   1      33.963  18.328  24.257  1.00  0.00    -0.050 A 
ATOM     27  C   UNL A   1      32.903  18.172  23.352  1.00  0.00     0.007 A 
ATOM     28  C   UNL A   1      34.272  19.604  24.726  1.00  0.00     0.019 A 
ATOM     29  C   UNL A   1      32.159  19.278  22.919  1.00  0.00     0.048 A 
ATOM     30  C   UNL A   1      33.553  20.702  24.256  1.00  0.00     0.066 A 
ATOM     31  C   UNL A   1      32.491  20.551  23.367  1.00  0.00     0.137 A 
ATOM     32  C   UNL A   1      33.986  22.048  24.617  1.00  0.00     0.201 A 
ATOM     33  O   UNL A   1      31.766  21.615  22.882  1.00  0.00    -0.463 OA
ATOM     34  O   UNL A   1      34.899  22.247  25.411  1.00  0.00    -0.288 OA
ATOM     35  C   UNL A   1      32.258  22.877  23.136  1.00  0.00     0.209 A 
ENDBRANCH  23  24
ENDBRANCH  19  22
ENDBRANCH  17  18
ENDBRANCH  16  17
ENDBRANCH  13  16
ENDBRANCH   7  12
ENDBRANCH   3   6
ENDBRANCH   1   2
BRANCH   1  36
ATOM     36  C   UNL A   1      29.096  31.852  24.021  1.00  0.00     0.021 C 
BRANCH  36  37
ATOM     37  C   UNL A   1      30.189  32.231  25.026  1.00  0.00     0.002 C 
BRANCH  37  38
ATOM     38  C   UNL A   1      31.039  31.044  25.496  1.00  0.00     0.002 C 
BRANCH  38  39
ATOM     39  C   UNL A   1      31.669  31.210  26.881  1.00  0.00     0.021 C 
BRANCH  39  40
ATOM     40  C   UNL A   1      32.920  32.082  26.898  1.00  0.00     0.116 C 
BRANCH  40  41
ATOM     41  N   UNL A   1      32.611  33.463  27.240  1.00  0.00    -0.352 N 
ATOM     42  C   UNL A   1      33.077  34.239  28.273  1.00  0.00     0.251 C 
ATOM     43  H   UNL A   1      31.970  33.908  26.641  1.00  0.00     0.163 HD
ATOM     44  O   UNL A   1      32.529  35.297  28.547  1.00  0.00    -0.269 OA
BRANCH  42  45
ATOM     45  C   UNL A   1      34.236  33.781  29.066  1.00  0.00     0.039 A 
ATOM     46  C   UNL A   1      34.020  32.914  30.140  1.00  0.00     0.014 A 
ATOM     47  C   UNL A   1      35.530  34.208  28.754  1.00  0.00     0.014 A 
ATOM     48  C   UNL A   1      35.110  32.414  30.852  1.00  0.00     0.010 A 
ATOM     49  C   UNL A   1      36.620  33.652  29.417  1.00  0.00     0.010 A 
ATOM     50  C   UNL A   1      36.420  32.741  30.465  1.00  0.00    -0.014 A 
BRANCH  50  51
ATOM     51  C   UNL A   1      37.593  32.104  31.116  1.00  0.00     0.031 A 
ATOM     52  C   UNL A   1      38.358  31.018  30.415  1.00  0.00     0.074 A 
ATOM     53  C   UNL A   1      37.920  32.460  32.373  1.00  0.00     0.049 A 
ATOM     54  N   UNL A   1      39.365  30.303  30.851  1.00  0.00    -0.248 NA
ATOM     55  C   UNL A   1      37.923  30.673  29.053  1.00  0.00     0.031 C 
ATOM     56  C   UNL A   1      37.221  33.467  33.172  1.00  0.00     0.029 A 
ATOM     57  N   UNL A   1      38.914  32.008  33.204  1.00  0.00    -0.354 N 
ATOM     58  C   UNL A   1      39.678  29.424  29.825  1.00  0.00     0.074 A 
ATOM     59  C   UNL A   1      38.722  29.656  28.763  1.00  0.00     0.031 C 
ATOM     60  C   UNL A   1      37.821  33.574  34.369  1.00  0.00     0.029 A 
ATOM     61  C   UNL A   1      38.914  32.610  34.439  1.00  0.00     0.049 A 
ATOM     62  H   UNL A   1      39.565  31.318  32.941  1.00  0.00     0.167 HD
ATOM     63  C   UNL A   1      40.685  28.519  29.766  1.00  0.00     0.037 A 
ATOM     64  C   UNL A   1      39.697  32.398  35.514  1.00  0.00     0.037 A 
ATOM     65  C   UNL A   1      41.639  28.299  30.823  1.00  0.00     0.049 A 
ATOM     66  C   UNL A   1      40.785  31.361  35.433  1.00  0.00     0.074 A 
ATOM     67  C   UNL A   1      42.730  27.450  30.836  1.00  0.00     0.029 A 
ATOM     68  N   UNL A   1      41.605  28.925  32.061  1.00  0.00    -0.354 N 
ATOM     69  N   UNL A   1      41.123  30.591  34.428  1.00  0.00    -0.248 NA
ATOM     70  C   UNL A   1      41.604  31.168  36.637  1.00  0.00     0.031 C 
ATOM     71  C   UNL A   1      43.321  27.514  32.102  1.00  0.00     0.029 A 
ATOM     72  C   UNL A   1      42.637  28.452  32.859  1.00  0.00     0.049 A 
ATOM     73  H   UNL A   1      40.948  29.605  32.333  1.00  0.00     0.167 HD
ATOM     74  C   UNL A   1      42.203  29.839  34.868  1.00  0.00     0.074 A 
ATOM     75  C   UNL A   1      42.481  30.264  36.224  1.00  0.00     0.031 C 
ATOM     76  C   UNL A   1      42.900  28.881  34.209  1.00  0.00     0.037 A 
BRANCH  63  77
ATOM     77  C   UNL A   1      40.809  27.693  28.517  1.00  0.00     0.064 A 
ATOM     78  C   UNL A   1      40.140  26.469  28.371  1.00  0.00     0.173 A 
ATOM     79  C   UNL A   1      41.570  28.156  27.432  1.00  0.00     0.173 A 
ATOM     80  F   UNL A   1      39.407  25.976  29.381  1.00  0.00    -0.203 F 
ATOM     81  C   UNL A   1      40.250  25.725  27.199  1.00  0.00     0.198 A 
ATOM     82  C   UNL A   1      41.651  27.426  26.248  1.00  0.00     0.198 A 
ATOM     83  F   UNL A   1      42.225  29.323  27.513  1.00  0.00    -0.203 F 
ATOM     84  F   UNL A   1      39.639  24.536  27.102  1.00  0.00    -0.200 F 
ATOM     85  C   UNL A   1      40.998  26.208  26.136  1.00  0.00     0.200 A 
ATOM     86  F   UNL A   1      42.360  27.902  25.216  1.00  0.00    -0.200 F 
ATOM     87  F   UNL A   1      41.093  25.497  25.003  1.00  0.00    -0.200 F 
ENDBRANCH  63  77
BRANCH  64  88
ATOM     88  C   UNL A   1      39.484  33.185  36.757  1.00  0.00     0.064 A 
ATOM     89  C   UNL A   1      40.176  34.384  36.978  1.00  0.00     0.173 A 
ATOM     90  C   UNL A   1      38.594  32.753  37.752  1.00  0.00     0.173 A 
ATOM     91  F   UNL A   1      41.053  34.829  36.066  1.00  0.00    -0.203 F 
ATOM     92  C   UNL A   1      40.004  35.108  38.156  1.00  0.00     0.198 A 
ATOM     93  C   UNL A   1      38.398  33.495  38.915  1.00  0.00     0.198 A 
ATOM     94  F   UNL A   1      37.904  31.615  37.589  1.00  0.00    -0.203 F 
ATOM     95  F   UNL A   1      40.717  36.223  38.364  1.00  0.00    -0.200 F 
ATOM     96  C   UNL A   1      39.111  34.667  39.121  1.00  0.00     0.200 A 
ATOM     97  F   UNL A   1      37.522  33.074  39.837  1.00  0.00    -0.200 F 
ATOM     98  F   UNL A   1      38.943  35.365  40.252  1.00  0.00    -0.200 F 
ENDBRANCH  64  88
BRANCH  76  99
ATOM     99  C   UNL A   1      44.046  28.240  34.938  1.00  0.00     0.064 A 
ATOM    100  C   UNL A   1      45.341  28.778  34.894  1.00  0.00     0.173 A 
ATOM    101  C   UNL A   1      43.841  27.093  35.720  1.00  0.00     0.173 A 
ATOM    102  F   UNL A   1      45.596  29.865  34.148  1.00  0.00    -0.203 F 
ATOM    103  C   UNL A   1      46.391  28.177  35.582  1.00  0.00     0.198 A 
ATOM    104  C   UNL A   1      44.885  26.514  36.434  1.00  0.00     0.198 A 
ATOM    105  F   UNL A   1      42.620  26.540  35.802  1.00  0.00    -0.203 F 
ATOM    106  F   UNL A   1      47.630  28.678  35.482  1.00  0.00    -0.200 F 
ATOM    107  C   UNL A   1      46.161  27.050  36.358  1.00  0.00     0.200 A 
ATOM    108  F   UNL A   1      44.657  25.436  37.197  1.00  0.00    -0.200 F 
ATOM    109  F   UNL A   1      47.171  26.478  37.028  1.00  0.00    -0.200 F 
ENDBRANCH  76  99
ENDBRANCH  50  51
ENDBRANCH  42  45
ENDBRANCH  40  41
ENDBRANCH  39  40
ENDBRANCH  38  39
ENDBRANCH  37  38
ENDBRANCH  36  37
ENDBRANCH   1  36
TORSDOF 19
ENDMDL
MODEL 3
REMARK VINA RESULT:     -11.6      6.613     12.291
REMARK SMILES Cc1ccc2occ(/C=N/NC(=O)CCC(=O)Nc3ccc(C(=O)NCCCCCCNC(=O)c4ccc(-c5c6nc(c(-c7c(F)c(F)c(F)c(F)c7F)c7ccc([nH]7)c(-c7c(F)c(F)c(F)c(F)c7F)c7nc(c(-c8c(F)c(F)c(F)c(F)c8F)c8ccc5[nH]8)C=C7)C=C6)cc4)cc3)c(=O)c2c1
REMARK SMILES IDX 26 1 25 2 23 3 24 4 22 6 19 7 20 8 99 9 21 10 98 11 18 12
REMARK SMILES IDX 16 13 17 14 15 16 14 17 12 18 11 19 13 21 10 22 9 23 8 24
REMARK SMILES IDX 1 25 2 26 3 27 103 28 4 29 102 30 5 31 100 32 6 33 101 34
REMARK SMILES IDX 7 35 27 36 28 37 29 38 30 39 31 40 32 41 33 42 34 44 35 45
REMARK SMILES IDX 36 46 97 47 37 48 96 49 38 50 39 51 40 52 90 53 41 54 95 55
REMARK SMILES IDX 89 56 91 57 42 58 94 59 88 60 87 61 43 63 75 64 55 65 74 66
REMARK SMILES IDX 56 67 59 68 73 69 92 70 57 71 58 72 72 74 93 75 60 76 44 77
REMARK SMILES IDX 45 78 53 79 46 80 47 81 51 82 54 83 48 84 49 85 52 86 50 87
REMARK SMILES IDX 76 88 77 89 85 90 78 91 79 92 83 93 86 94 80 95 81 96 84 97
REMARK SMILES IDX 82 98 61 99 62 100 70 101 63 102 64 103 68 104 71 105 65 106
REMARK SMILES IDX 66 107 69 108 67 109
REMARK H PARENT 25 5 18 15 11 20 32 43 91 62 59 73
REMARK Flexibility Score: inf
ROOT
ATOM      1  C   UNL A   1      40.459  21.909  27.575  1.00  0.00     0.116 C 
ENDROOT
BRANCH   1   2
ATOM      2  N   UNL A   1      39.780  23.161  27.227  1.00  0.00    -0.352 N 
ATOM      3  C   UNL A   1      38.659  23.478  26.484  1.00  0.00     0.251 C 
ATOM      4  O   UNL A   1      38.327  24.659  26.401  1.00  0.00    -0.269 OA
ATOM      5  H   UNL A   1      40.222  23.953  27.608  1.00  0.00     0.163 HD
BRANCH   3   6
ATOM      6  C   UNL A   1      37.802  22.445  25.850  1.00  0.00     0.039 A 
ATOM      7  C   UNL A   1      36.228  20.235  25.058  1.00  0.00     0.041 A 
ATOM      8  C   UNL A   1      35.616  21.443  25.390  1.00  0.00     0.027 A 
ATOM      9  C   UNL A   1      37.599  20.199  25.124  1.00  0.00     0.027 A 
ATOM     10  C   UNL A   1      36.401  22.527  25.851  1.00  0.00     0.016 A 
ATOM     11  C   UNL A   1      38.369  21.323  25.307  1.00  0.00     0.016 A 
BRANCH   7  12
ATOM     12  N   UNL A   1      35.499  19.144  24.557  1.00  0.00    -0.326 N 
ATOM     13  C   UNL A   1      34.250  18.656  24.872  1.00  0.00     0.224 C 
ATOM     14  O   UNL A   1      33.975  17.510  24.496  1.00  0.00    -0.275 OA
ATOM     15  H   UNL A   1      35.964  18.635  23.855  1.00  0.00     0.169 HD
BRANCH  13  16
ATOM     16  C   UNL A   1      33.158  19.518  25.513  1.00  0.00     0.110 C 
BRANCH  16  17
ATOM     17  C   UNL A   1      32.130  20.300  24.672  1.00  0.00     0.112 C 
BRANCH  17  18
ATOM     18  C   UNL A   1      32.163  20.283  23.135  1.00  0.00     0.240 C 
ATOM     19  N   UNL A   1      32.219  21.461  22.420  1.00  0.00    -0.247 N 
ATOM     20  H   UNL A   1      32.264  21.391  21.439  1.00  0.00     0.193 HD
ATOM     21  O   UNL A   1      32.211  19.213  22.519  1.00  0.00    -0.273 OA
BRANCH  19  22
ATOM     22  N   UNL A   1      32.220  22.708  22.955  1.00  0.00    -0.180 NA
ATOM     23  C   UNL A   1      33.319  23.345  22.725  1.00  0.00     0.148 C 
BRANCH  23  24
ATOM     24  C   UNL A   1      33.521  24.781  22.905  1.00  0.00     0.078 A 
ATOM     25  C   UNL A   1      33.353  29.219  27.251  1.00  0.00     0.044 C 
ATOM     26  C   UNL A   1      33.443  28.652  25.867  1.00  0.00    -0.050 A 
ATOM     27  C   UNL A   1      33.330  29.458  24.725  1.00  0.00     0.007 A 
ATOM     28  C   UNL A   1      33.638  27.280  25.712  1.00  0.00     0.019 A 
ATOM     29  C   UNL A   1      33.408  28.902  23.442  1.00  0.00     0.048 A 
ATOM     30  C   UNL A   1      33.671  26.731  24.431  1.00  0.00     0.066 A 
ATOM     31  C   UNL A   1      33.572  27.529  23.293  1.00  0.00     0.137 A 
ATOM     32  C   UNL A   1      33.706  25.281  24.275  1.00  0.00     0.201 A 
ATOM     33  O   UNL A   1      33.598  27.017  22.017  1.00  0.00    -0.463 OA
ATOM     34  O   UNL A   1      33.815  24.525  25.235  1.00  0.00    -0.288 OA
ATOM     35  C   UNL A   1      33.510  25.647  21.889  1.00  0.00     0.209 A 
ENDBRANCH  23  24
ENDBRANCH  19  22
ENDBRANCH  17  18
ENDBRANCH  16  17
ENDBRANCH  13  16
ENDBRANCH   7  12
ENDBRANCH   3   6
ENDBRANCH   1   2
BRANCH   1  36
ATOM     36  C   UNL A   1      41.688  21.692  26.677  1.00  0.00     0.021 C 
BRANCH  36  37
ATOM     37  C   UNL A   1      41.715  20.278  26.087  1.00  0.00     0.002 C 
BRANCH  37  38
ATOM     38  C   UNL A   1      42.263  19.215  27.048  1.00  0.00     0.002 C 
BRANCH  38  39
ATOM     39  C   UNL A   1      43.068  18.097  26.382  1.00  0.00     0.021 C 
BRANCH  39  40
ATOM     40  C   UNL A   1      44.520  18.461  26.088  1.00  0.00     0.116 C 
BRANCH  40  41
ATOM     41  N   UNL A   1      44.778  18.543  24.657  1.00  0.00    -0.352 N 
ATOM     42  C   UNL A   1      44.795  19.637  23.827  1.00  0.00     0.251 C 
ATOM     43  H   UNL A   1      44.968  17.683  24.218  1.00  0.00     0.163 HD
ATOM     44  O   UNL A   1      44.792  19.491  22.613  1.00  0.00    -0.269 OA
BRANCH  42  45
ATOM     45  C   UNL A   1      44.799  20.995  24.409  1.00  0.00     0.039 A 
ATOM     46  C   UNL A   1      45.388  21.192  25.660  1.00  0.00     0.014 A 
ATOM     47  C   UNL A   1      44.220  22.068  23.725  1.00  0.00     0.014 A 
ATOM     48  C   UNL A   1      45.467  22.480  26.189  1.00  0.00     0.010 A 
ATOM     49  C   UNL A   1      44.364  23.361  24.219  1.00  0.00     0.010 A 
ATOM     50  C   UNL A   1      44.998  23.580  25.452  1.00  0.00    -0.014 A 
BRANCH  50  51
ATOM     51  C   UNL A   1      45.206  24.969  25.932  1.00  0.00     0.031 A 
ATOM     52  C   UNL A   1      46.572  25.591  25.903  1.00  0.00     0.074 A 
ATOM     53  C   UNL A   1      44.167  25.643  26.462  1.00  0.00     0.049 A 
ATOM     54  N   UNL A   1      46.956  26.764  26.340  1.00  0.00    -0.248 NA
ATOM     55  C   UNL A   1      47.657  24.781  25.329  1.00  0.00     0.031 C 
ATOM     56  C   UNL A   1      42.803  25.125  26.588  1.00  0.00     0.029 A 
ATOM     57  N   UNL A   1      44.095  26.901  27.004  1.00  0.00    -0.354 N 
ATOM     58  C   UNL A   1      48.321  26.830  26.099  1.00  0.00     0.074 A 
ATOM     59  C   UNL A   1      48.711  25.559  25.528  1.00  0.00     0.031 C 
ATOM     60  C   UNL A   1      42.026  26.065  27.148  1.00  0.00     0.029 A 
ATOM     61  C   UNL A   1      42.844  27.231  27.466  1.00  0.00     0.049 A 
ATOM     62  H   UNL A   1      44.867  27.510  27.058  1.00  0.00     0.167 HD
ATOM     63  C   UNL A   1      49.168  27.866  26.318  1.00  0.00     0.037 A 
ATOM     64  C   UNL A   1      42.408  28.342  28.091  1.00  0.00     0.037 A 
ATOM     65  C   UNL A   1      48.770  29.132  26.879  1.00  0.00     0.049 A 
ATOM     66  C   UNL A   1      43.378  29.462  28.352  1.00  0.00     0.074 A 
ATOM     67  C   UNL A   1      49.539  30.263  27.083  1.00  0.00     0.029 A 
ATOM     68  N   UNL A   1      47.495  29.428  27.338  1.00  0.00    -0.354 N 
ATOM     69  N   UNL A   1      44.650  29.544  28.048  1.00  0.00    -0.248 NA
ATOM     70  C   UNL A   1      42.849  30.646  29.042  1.00  0.00     0.031 C 
ATOM     71  C   UNL A   1      48.748  31.222  27.722  1.00  0.00     0.029 A 
ATOM     72  C   UNL A   1      47.466  30.713  27.860  1.00  0.00     0.049 A 
ATOM     73  H   UNL A   1      46.724  28.817  27.299  1.00  0.00     0.167 HD
ATOM     74  C   UNL A   1      45.068  30.793  28.487  1.00  0.00     0.074 A 
ATOM     75  C   UNL A   1      43.908  31.444  29.057  1.00  0.00     0.031 C 
ATOM     76  C   UNL A   1      46.303  31.348  28.427  1.00  0.00     0.037 A 
BRANCH  63  77
ATOM     77  C   UNL A   1      50.612  27.676  25.951  1.00  0.00     0.064 A 
ATOM     78  C   UNL A   1      51.067  27.841  24.633  1.00  0.00     0.173 A 
ATOM     79  C   UNL A   1      51.563  27.372  26.937  1.00  0.00     0.173 A 
ATOM     80  F   UNL A   1      50.199  28.123  23.650  1.00  0.00    -0.203 F 
ATOM     81  C   UNL A   1      52.413  27.681  24.313  1.00  0.00     0.198 A 
ATOM     82  C   UNL A   1      52.913  27.245  26.619  1.00  0.00     0.198 A 
ATOM     83  F   UNL A   1      51.185  27.210  28.214  1.00  0.00    -0.203 F 
ATOM     84  F   UNL A   1      52.815  27.797  23.040  1.00  0.00    -0.200 F 
ATOM     85  C   UNL A   1      53.335  27.391  25.307  1.00  0.00     0.200 A 
ATOM     86  F   UNL A   1      53.805  26.982  27.583  1.00  0.00    -0.200 F 
ATOM     87  F   UNL A   1      54.632  27.250  25.000  1.00  0.00    -0.200 F 
ENDBRANCH  63  77
BRANCH  64  88
ATOM     88  C   UNL A   1      40.985  28.451  28.507  1.00  0.00     0.064 A 
ATOM     89  C   UNL A   1      40.015  28.960  27.632  1.00  0.00     0.173 A 
ATOM     90  C   UNL A   1      40.566  28.059  29.787  1.00  0.00     0.173 A 
ATOM     91  F   UNL A   1      40.369  29.367  26.404  1.00  0.00    -0.203 F 
ATOM     92  C   UNL A   1      38.687  29.096  28.029  1.00  0.00     0.198 A 
ATOM     93  C   UNL A   1      39.231  28.164  30.172  1.00  0.00     0.198 A 
ATOM     94  F   UNL A   1      41.452  27.561  30.662  1.00  0.00    -0.203 F 
ATOM     95  F   UNL A   1      37.791  29.634  27.190  1.00  0.00    -0.200 F 
ATOM     96  C   UNL A   1      38.294  28.692  29.296  1.00  0.00     0.200 A 
ATOM     97  F   UNL A   1      38.853  27.757  31.391  1.00  0.00    -0.200 F 
ATOM     98  F   UNL A   1      37.016  28.819  29.677  1.00  0.00    -0.200 F 
ENDBRANCH  64  88
BRANCH  76  99
ATOM     99  C   UNL A   1      46.460  32.738  28.972  1.00  0.00     0.064 A 
ATOM    100  C   UNL A   1      46.838  32.969  30.304  1.00  0.00     0.173 A 
ATOM    101  C   UNL A   1      46.265  33.855  28.145  1.00  0.00     0.173 A 
ATOM    102  F   UNL A   1      47.022  31.937  31.143  1.00  0.00    -0.203 F 
ATOM    103  C   UNL A   1      46.988  34.264  30.792  1.00  0.00     0.198 A 
ATOM    104  C   UNL A   1      46.450  35.148  28.627  1.00  0.00     0.198 A 
ATOM    105  F   UNL A   1      45.908  33.691  26.862  1.00  0.00    -0.203 F 
ATOM    106  F   UNL A   1      47.298  34.461  32.082  1.00  0.00    -0.200 F 
ATOM    107  C   UNL A   1      46.802  35.352  29.952  1.00  0.00     0.200 A 
ATOM    108  F   UNL A   1      46.286  36.196  27.808  1.00  0.00    -0.200 F 
ATOM    109  F   UNL A   1      46.957  36.598  30.421  1.00  0.00    -0.200 F 
ENDBRANCH  76  99
ENDBRANCH  50  51
ENDBRANCH  42  45
ENDBRANCH  40  41
ENDBRANCH  39  40
ENDBRANCH  38  39
ENDBRANCH  37  38
ENDBRANCH  36  37
ENDBRANCH   1  36
TORSDOF 19
ENDMDL
