MODEL 1
REMARK VINA RESULT:     -11.0      0.000      0.000
REMARK SMILES COc1ccc(C2=NN(C(=O)CCC(=O)NCCCCCCNC(=O)c3ccc(-c4c5nc(c(-c6c(F)c(F)c(F)c(F)c6F)c6ccc([nH]6)c(-c6c(F)c(F)c(F)c(F)c6F)c6nc(c(-c7c(F)c(F)c(F)c(F)c7F)c7ccc4[nH]7)C=C6)C=C5)cc3)[C@H](c3ccc(Cl)cc3Cl)C2)cc1
REMARK SMILES IDX 18 1 17 2 16 3 14 4 15 5 13 7 12 8 10 9 11 10 9 11 7 12 8 13
REMARK SMILES IDX 98 14 89 15 6 16 3 17 4 18 100 19 5 20 99 21 2 22 1 23 90 24
REMARK SMILES IDX 91 25 96 26 92 27 95 28 97 29 93 30 94 31 19 32 20 33 21 34
REMARK SMILES IDX 22 35 23 36 24 37 25 39 26 40 27 41 88 42 28 43 87 44 29 45
REMARK SMILES IDX 30 46 31 47 81 48 32 49 86 50 80 51 82 52 33 53 85 54 79 55
REMARK SMILES IDX 78 56 34 58 66 59 46 60 65 61 47 62 50 63 64 64 83 65 48 66
REMARK SMILES IDX 49 67 63 69 84 70 51 71 35 72 36 73 44 74 37 75 38 76 42 77
REMARK SMILES IDX 45 78 39 79 40 80 43 81 41 82 67 83 68 84 76 85 69 86 70 87
REMARK SMILES IDX 74 88 77 89 71 90 72 91 75 92 73 93 52 94 53 95 61 96 54 97
REMARK SMILES IDX 55 98 59 99 62 100 56 101 57 102 60 103 58 104
REMARK H PARENT 16 6 23 38 82 57 50 68
REMARK Flexibility Score: inf
ROOT
ATOM      1  C   UNL A   1      36.834  33.732  35.833  1.00  0.00     0.021 C 
ENDROOT
BRANCH   1   2
ATOM      2  C   UNL A   1      36.746  33.945  33.617  1.00  0.00     0.116 C 
BRANCH   2   3
ATOM      3  N   UNL A   1      35.745  33.565  32.494  1.00  0.00    -0.356 N 
ATOM      4  C   UNL A   1      35.317  32.411  31.905  1.00  0.00     0.220 C 
ATOM      5  O   UNL A   1      34.330  32.549  31.171  1.00  0.00    -0.275 OA
ATOM      6  H   UNL A   1      35.306  34.358  32.110  1.00  0.00     0.163 HD
BRANCH   4   7
ATOM      7  C   UNL A   1      35.885  31.005  32.114  1.00  0.00     0.110 C 
BRANCH   7   8
ATOM      8  C   UNL A   1      37.233  30.763  32.777  1.00  0.00     0.112 C 
BRANCH   8   9
ATOM      9  C   UNL A   1      37.636  29.371  32.459  1.00  0.00     0.243 C 
ATOM     10  O   UNL A   1      37.401  28.422  33.196  1.00  0.00    -0.273 OA
BRANCH   9  11
ATOM     11  N   UNL A   1      38.389  29.343  31.310  1.00  0.00    -0.225 N 
ATOM     12  C   UNL A   1      40.243  27.848  29.582  1.00  0.00     0.071 C 
ATOM     13  N   UNL A   1      39.356  27.720  30.914  1.00  0.00    -0.174 NA
ATOM     14  C   UNL A   1      40.289  29.697  28.914  1.00  0.00     0.091 C 
ATOM     15  C   UNL A   1      38.960  30.682  29.986  1.00  0.00     0.149 C 
BRANCH  12  16
ATOM     16  C   UNL A   1      40.619  26.782  28.579  1.00  0.00    -0.002 A 
ATOM     17  C   UNL A   1      41.742  25.110  26.607  1.00  0.00     0.118 A 
ATOM     18  C   UNL A   1      42.301  25.129  27.876  1.00  0.00     0.047 A 
ATOM     19  C   UNL A   1      40.575  25.836  26.355  1.00  0.00     0.047 A 
ATOM     20  C   UNL A   1      41.739  25.953  28.858  1.00  0.00     0.014 A 
ATOM     21  C   UNL A   1      40.020  26.689  27.330  1.00  0.00     0.014 A 
BRANCH  17  22
ATOM     22  O   UNL A   1      42.378  24.357  25.658  1.00  0.00    -0.497 OA
ATOM     23  C   UNL A   1      43.740  24.070  25.987  1.00  0.00     0.278 C 
ENDBRANCH  17  22
ENDBRANCH  12  16
BRANCH  15  24
ATOM     24  C   UNL A   1      38.061  31.649  29.145  1.00  0.00    -0.004 A 
ATOM     25  C   UNL A   1      38.089  33.032  29.429  1.00  0.00     0.009 A 
ATOM     26  C   UNL A   1      36.905  31.193  28.447  1.00  0.00     0.047 A 
ATOM     27  C   UNL A   1      37.034  33.891  29.078  1.00  0.00     0.021 A 
ATOM     28  C   UNL A   1      35.899  32.073  28.013  1.00  0.00     0.041 A 
ATOM     29  Cl  UNL A   1      36.440  29.531  28.294  1.00  0.00    -0.084 Cl
ATOM     30  C   UNL A   1      35.952  33.410  28.358  1.00  0.00     0.042 A 
ATOM     31  Cl  UNL A   1      34.636  34.447  27.976  1.00  0.00    -0.084 Cl
ENDBRANCH  15  24
ENDBRANCH   9  11
ENDBRANCH   8   9
ENDBRANCH   7   8
ENDBRANCH   4   7
ENDBRANCH   2   3
ENDBRANCH   1   2
BRANCH   1  32
ATOM     32  C   UNL A   1      37.829  32.371  36.713  1.00  0.00     0.002 C 
BRANCH  32  33
ATOM     33  C   UNL A   1      37.794  32.150  38.323  1.00  0.00     0.002 C 
BRANCH  33  34
ATOM     34  C   UNL A   1      38.466  33.094  39.276  1.00  0.00     0.021 C 
BRANCH  34  35
ATOM     35  C   UNL A   1      39.606  33.835  38.663  1.00  0.00     0.116 C 
BRANCH  35  36
ATOM     36  N   UNL A   1      39.781  35.225  39.098  1.00  0.00    -0.352 N 
ATOM     37  C   UNL A   1      40.173  36.281  38.312  1.00  0.00     0.251 C 
ATOM     38  H   UNL A   1      39.599  35.421  40.046  1.00  0.00     0.163 HD
ATOM     39  O   UNL A   1      40.084  37.457  38.622  1.00  0.00    -0.269 OA
BRANCH  37  40
ATOM     40  C   UNL A   1      40.793  35.898  37.058  1.00  0.00     0.039 A 
ATOM     41  C   UNL A   1      42.117  35.455  37.112  1.00  0.00     0.014 A 
ATOM     42  C   UNL A   1      39.915  35.602  36.016  1.00  0.00     0.014 A 
ATOM     43  C   UNL A   1      42.571  34.658  36.085  1.00  0.00     0.010 A 
ATOM     44  C   UNL A   1      40.311  34.646  35.118  1.00  0.00     0.010 A 
ATOM     45  C   UNL A   1      41.652  34.233  35.116  1.00  0.00    -0.014 A 
BRANCH  45  46
ATOM     46  C   UNL A   1      42.100  33.487  33.947  1.00  0.00     0.031 A 
ATOM     47  C   UNL A   1      42.224  32.008  34.129  1.00  0.00     0.074 A 
ATOM     48  C   UNL A   1      42.419  34.155  32.830  1.00  0.00     0.049 A 
ATOM     49  N   UNL A   1      42.750  31.124  33.335  1.00  0.00    -0.248 NA
ATOM     50  C   UNL A   1      41.761  31.454  35.421  1.00  0.00     0.031 C 
ATOM     51  C   UNL A   1      42.333  35.609  32.653  1.00  0.00     0.029 A 
ATOM     52  N   UNL A   1      42.881  33.699  31.634  1.00  0.00    -0.354 N 
ATOM     53  C   UNL A   1      42.715  29.935  34.049  1.00  0.00     0.074 A 
ATOM     54  C   UNL A   1      42.221  30.218  35.370  1.00  0.00     0.031 C 
ATOM     55  C   UNL A   1      42.693  35.919  31.396  1.00  0.00     0.029 A 
ATOM     56  C   UNL A   1      43.090  34.694  30.715  1.00  0.00     0.049 A 
ATOM     57  H   UNL A   1      43.050  32.747  31.448  1.00  0.00     0.167 HD
ATOM     58  C   UNL A   1      43.033  28.705  33.600  1.00  0.00     0.037 A 
ATOM     59  C   UNL A   1      43.569  34.592  29.465  1.00  0.00     0.037 A 
ATOM     60  C   UNL A   1      43.478  28.491  32.254  1.00  0.00     0.049 A 
ATOM     61  C   UNL A   1      43.916  33.206  28.990  1.00  0.00     0.074 A 
ATOM     62  C   UNL A   1      43.801  27.308  31.627  1.00  0.00     0.029 A 
ATOM     63  N   UNL A   1      43.652  29.513  31.325  1.00  0.00    -0.354 N 
ATOM     64  N   UNL A   1      43.841  32.066  29.641  1.00  0.00    -0.248 NA
ATOM     65  C   UNL A   1      44.403  33.084  27.615  1.00  0.00     0.031 C 
ATOM     66  C   UNL A   1      44.238  27.624  30.337  1.00  0.00     0.029 A 
ATOM     67  C   UNL A   1      44.108  28.992  30.132  1.00  0.00     0.049 A 
ATOM     68  H   UNL A   1      43.478  30.467  31.495  1.00  0.00     0.167 HD
ATOM     69  C   UNL A   1      44.246  31.085  28.750  1.00  0.00     0.074 A 
ATOM     70  C   UNL A   1      44.539  31.771  27.503  1.00  0.00     0.031 C 
ATOM     71  C   UNL A   1      44.372  29.745  28.929  1.00  0.00     0.037 A 
BRANCH  58  72
ATOM     72  C   UNL A   1      42.919  27.561  34.562  1.00  0.00     0.064 A 
ATOM     73  C   UNL A   1      41.735  26.817  34.706  1.00  0.00     0.173 A 
ATOM     74  C   UNL A   1      44.005  27.219  35.380  1.00  0.00     0.173 A 
ATOM     75  F   UNL A   1      40.649  27.122  33.977  1.00  0.00    -0.203 F 
ATOM     76  C   UNL A   1      41.636  25.796  35.648  1.00  0.00     0.198 A 
ATOM     77  C   UNL A   1      43.916  26.171  36.292  1.00  0.00     0.198 A 
ATOM     78  F   UNL A   1      45.153  27.909  35.303  1.00  0.00    -0.203 F 
ATOM     79  F   UNL A   1      40.474  25.149  35.814  1.00  0.00    -0.200 F 
ATOM     80  C   UNL A   1      42.729  25.466  36.432  1.00  0.00     0.200 A 
ATOM     81  F   UNL A   1      44.976  25.851  37.047  1.00  0.00    -0.200 F 
ATOM     82  F   UNL A   1      42.638  24.478  37.332  1.00  0.00    -0.200 F 
ENDBRANCH  58  72
BRANCH  59  83
ATOM     83  C   UNL A   1      43.717  35.798  28.610  1.00  0.00     0.064 A 
ATOM     84  C   UNL A   1      44.970  36.389  28.404  1.00  0.00     0.173 A 
ATOM     85  C   UNL A   1      42.614  36.375  27.961  1.00  0.00     0.173 A 
ATOM     86  F   UNL A   1      46.059  35.876  28.995  1.00  0.00    -0.203 F 
ATOM     87  C   UNL A   1      45.110  37.529  27.613  1.00  0.00     0.198 A 
ATOM     88  C   UNL A   1      42.760  37.493  27.142  1.00  0.00     0.198 A 
ATOM     89  F   UNL A   1      41.393  35.838  28.104  1.00  0.00    -0.203 F 
ATOM     90  F   UNL A   1      46.315  38.102  27.476  1.00  0.00    -0.200 F 
ATOM     91  C   UNL A   1      44.005  38.078  26.980  1.00  0.00     0.200 A 
ATOM     92  F   UNL A   1      41.693  38.002  26.510  1.00  0.00    -0.200 F 
ATOM     93  F   UNL A   1      44.142  39.171  26.218  1.00  0.00    -0.200 F 
ENDBRANCH  59  83
BRANCH  71  94
ATOM     94  C   UNL A   1      44.802  28.955  27.732  1.00  0.00     0.064 A 
ATOM     95  C   UNL A   1      46.138  28.575  27.543  1.00  0.00     0.173 A 
ATOM     96  C   UNL A   1      43.849  28.534  26.793  1.00  0.00     0.173 A 
ATOM     97  F   UNL A   1      47.082  28.964  28.413  1.00  0.00    -0.203 F 
ATOM     98  C   UNL A   1      46.512  27.836  26.427  1.00  0.00     0.198 A 
ATOM     99  C   UNL A   1      44.220  27.754  25.706  1.00  0.00     0.198 A 
ATOM    100  F   UNL A   1      42.557  28.861  26.945  1.00  0.00    -0.203 F 
ATOM    101  F   UNL A   1      47.804  27.545  26.225  1.00  0.00    -0.200 F 
ATOM    102  C   UNL A   1      45.552  27.418  25.516  1.00  0.00     0.200 A 
ATOM    103  F   UNL A   1      43.288  27.327  24.843  1.00  0.00    -0.200 F 
ATOM    104  F   UNL A   1      45.914  26.696  24.448  1.00  0.00    -0.200 F 
ENDBRANCH  71  94
ENDBRANCH  45  46
ENDBRANCH  37  40
ENDBRANCH  35  36
ENDBRANCH  34  35
ENDBRANCH  33  34
ENDBRANCH  32  33
ENDBRANCH   1  32
TORSDOF 19
ENDMDL
MODEL 2
REMARK VINA RESULT:     -10.5      1.325      7.157
REMARK SMILES COc1ccc(C2=NN(C(=O)CCC(=O)NCCCCCCNC(=O)c3ccc(-c4c5nc(c(-c6c(F)c(F)c(F)c(F)c6F)c6ccc([nH]6)c(-c6c(F)c(F)c(F)c(F)c6F)c6nc(c(-c7c(F)c(F)c(F)c(F)c7F)c7ccc4[nH]7)C=C6)C=C5)cc3)[C@H](c3ccc(Cl)cc3Cl)C2)cc1
REMARK SMILES IDX 18 1 17 2 16 3 14 4 15 5 13 7 12 8 10 9 11 10 9 11 7 12 8 13
REMARK SMILES IDX 98 14 89 15 6 16 3 17 4 18 100 19 5 20 99 21 2 22 1 23 90 24
REMARK SMILES IDX 91 25 96 26 92 27 95 28 97 29 93 30 94 31 19 32 20 33 21 34
REMARK SMILES IDX 22 35 23 36 24 37 25 39 26 40 27 41 88 42 28 43 87 44 29 45
REMARK SMILES IDX 30 46 31 47 81 48 32 49 86 50 80 51 82 52 33 53 85 54 79 55
REMARK SMILES IDX 78 56 34 58 66 59 46 60 65 61 47 62 50 63 64 64 83 65 48 66
REMARK SMILES IDX 49 67 63 69 84 70 51 71 35 72 36 73 44 74 37 75 38 76 42 77
REMARK SMILES IDX 45 78 39 79 40 80 43 81 41 82 67 83 68 84 76 85 69 86 70 87
REMARK SMILES IDX 74 88 77 89 71 90 72 91 75 92 73 93 52 94 53 95 61 96 54 97
REMARK SMILES IDX 55 98 59 99 62 100 56 101 57 102 60 103 58 104
REMARK H PARENT 16 6 23 38 82 57 50 68
REMARK Flexibility Score: inf
ROOT
ATOM      1  C   UNL A   1      38.189  33.802  37.059  1.00  0.00     0.021 C 
ENDROOT
BRANCH   1   2
ATOM      2  C   UNL A   1      38.657  34.131  34.906  1.00  0.00     0.116 C 
BRANCH   2   3
ATOM      3  N   UNL A   1      39.674  33.562  33.881  1.00  0.00    -0.356 N 
ATOM      4  C   UNL A   1      39.886  32.362  33.266  1.00  0.00     0.220 C 
ATOM      5  O   UNL A   1      40.706  32.402  32.340  1.00  0.00    -0.275 OA
ATOM      6  H   UNL A   1      40.333  34.238  33.604  1.00  0.00     0.163 HD
BRANCH   4   7
ATOM      7  C   UNL A   1      39.180  31.037  33.564  1.00  0.00     0.110 C 
BRANCH   7   8
ATOM      8  C   UNL A   1      37.752  30.758  33.120  1.00  0.00     0.112 C 
BRANCH   8   9
ATOM      9  C   UNL A   1      37.718  29.372  32.593  1.00  0.00     0.243 C 
ATOM     10  O   UNL A   1      37.217  28.437  33.204  1.00  0.00    -0.273 OA
BRANCH   9  11
ATOM     11  N   UNL A   1      38.418  29.292  31.414  1.00  0.00    -0.225 N 
ATOM     12  C   UNL A   1      40.151  27.698  29.648  1.00  0.00     0.071 C 
ATOM     13  N   UNL A   1      39.321  27.631  31.021  1.00  0.00    -0.174 NA
ATOM     14  C   UNL A   1      40.219  29.527  28.929  1.00  0.00     0.091 C 
ATOM     15  C   UNL A   1      38.967  30.579  30.030  1.00  0.00     0.149 C 
BRANCH  12  16
ATOM     16  C   UNL A   1      40.453  26.596  28.659  1.00  0.00    -0.002 A 
ATOM     17  C   UNL A   1      40.713  24.238  27.138  1.00  0.00     0.118 A 
ATOM     18  C   UNL A   1      39.532  24.961  27.068  1.00  0.00     0.047 A 
ATOM     19  C   UNL A   1      41.788  24.739  27.877  1.00  0.00     0.047 A 
ATOM     20  C   UNL A   1      39.405  26.136  27.816  1.00  0.00     0.014 A 
ATOM     21  C   UNL A   1      41.658  25.907  28.655  1.00  0.00     0.014 A 
BRANCH  17  22
ATOM     22  O   UNL A   1      40.758  23.051  26.459  1.00  0.00    -0.497 OA
ATOM     23  C   UNL A   1      39.528  22.322  26.517  1.00  0.00     0.278 C 
ENDBRANCH  17  22
ENDBRANCH  12  16
BRANCH  15  24
ATOM     24  C   UNL A   1      38.059  31.548  29.202  1.00  0.00    -0.004 A 
ATOM     25  C   UNL A   1      38.037  32.920  29.537  1.00  0.00     0.009 A 
ATOM     26  C   UNL A   1      36.934  31.084  28.460  1.00  0.00     0.047 A 
ATOM     27  C   UNL A   1      36.966  33.759  29.192  1.00  0.00     0.021 A 
ATOM     28  C   UNL A   1      35.912  31.949  28.033  1.00  0.00     0.041 A 
ATOM     29  Cl  UNL A   1      36.525  29.415  28.235  1.00  0.00    -0.084 Cl
ATOM     30  C   UNL A   1      35.916  33.274  28.428  1.00  0.00     0.042 A 
ATOM     31  Cl  UNL A   1      34.578  34.284  28.051  1.00  0.00    -0.084 Cl
ENDBRANCH  15  24
ENDBRANCH   9  11
ENDBRANCH   8   9
ENDBRANCH   7   8
ENDBRANCH   4   7
ENDBRANCH   2   3
ENDBRANCH   1   2
BRANCH   1  32
ATOM     32  C   UNL A   1      39.164  34.613  38.476  1.00  0.00     0.002 C 
BRANCH  32  33
ATOM     33  C   UNL A   1      39.269  36.224  38.669  1.00  0.00     0.002 C 
BRANCH  33  34
ATOM     34  C   UNL A   1      40.070  36.847  39.775  1.00  0.00     0.021 C 
BRANCH  34  35
ATOM     35  C   UNL A   1      41.501  36.426  39.774  1.00  0.00     0.116 C 
BRANCH  35  36
ATOM     36  N   UNL A   1      42.476  37.452  39.391  1.00  0.00    -0.352 N 
ATOM     37  C   UNL A   1      43.071  37.593  38.162  1.00  0.00     0.251 C 
ATOM     38  H   UNL A   1      42.728  38.106  40.084  1.00  0.00     0.163 HD
ATOM     39  O   UNL A   1      43.687  38.577  37.789  1.00  0.00    -0.269 OA
BRANCH  37  40
ATOM     40  C   UNL A   1      42.981  36.419  37.315  1.00  0.00     0.039 A 
ATOM     41  C   UNL A   1      41.941  36.387  36.383  1.00  0.00     0.014 A 
ATOM     42  C   UNL A   1      44.145  35.660  37.209  1.00  0.00     0.014 A 
ATOM     43  C   UNL A   1      42.089  35.573  35.281  1.00  0.00     0.010 A 
ATOM     44  C   UNL A   1      44.369  35.022  36.017  1.00  0.00     0.010 A 
ATOM     45  C   UNL A   1      43.318  34.925  35.093  1.00  0.00    -0.014 A 
BRANCH  45  46
ATOM     46  C   UNL A   1      43.491  33.965  34.012  1.00  0.00     0.031 A 
ATOM     47  C   UNL A   1      43.684  34.548  32.649  1.00  0.00     0.074 A 
ATOM     48  C   UNL A   1      43.411  32.655  34.284  1.00  0.00     0.049 A 
ATOM     49  N   UNL A   1      43.694  33.953  31.493  1.00  0.00    -0.248 NA
ATOM     50  C   UNL A   1      43.808  36.021  32.565  1.00  0.00     0.031 C 
ATOM     51  C   UNL A   1      43.188  32.073  35.613  1.00  0.00     0.029 A 
ATOM     52  N   UNL A   1      43.508  31.577  33.459  1.00  0.00    -0.354 N 
ATOM     53  C   UNL A   1      43.781  34.977  30.562  1.00  0.00     0.074 A 
ATOM     54  C   UNL A   1      43.714  36.230  31.266  1.00  0.00     0.031 C 
ATOM     55  C   UNL A   1      43.208  30.734  35.513  1.00  0.00     0.029 A 
ATOM     56  C   UNL A   1      43.381  30.378  34.111  1.00  0.00     0.049 A 
ATOM     57  H   UNL A   1      43.655  31.652  32.488  1.00  0.00     0.167 HD
ATOM     58  C   UNL A   1      43.950  34.857  29.231  1.00  0.00     0.037 A 
ATOM     59  C   UNL A   1      43.393  29.139  33.595  1.00  0.00     0.037 A 
ATOM     60  C   UNL A   1      44.053  33.572  28.602  1.00  0.00     0.049 A 
ATOM     61  C   UNL A   1      43.582  29.034  32.105  1.00  0.00     0.074 A 
ATOM     62  C   UNL A   1      44.265  33.272  27.275  1.00  0.00     0.029 A 
ATOM     63  N   UNL A   1      43.953  32.364  29.289  1.00  0.00    -0.354 N 
ATOM     64  N   UNL A   1      43.714  29.997  31.218  1.00  0.00    -0.248 NA
ATOM     65  C   UNL A   1      43.634  27.684  31.542  1.00  0.00     0.031 C 
ATOM     66  C   UNL A   1      44.224  31.880  27.148  1.00  0.00     0.029 A 
ATOM     67  C   UNL A   1      44.071  31.311  28.407  1.00  0.00     0.049 A 
ATOM     68  H   UNL A   1      43.817  32.276  30.260  1.00  0.00     0.167 HD
ATOM     69  C   UNL A   1      43.891  29.372  29.994  1.00  0.00     0.074 A 
ATOM     70  C   UNL A   1      43.875  27.945  30.265  1.00  0.00     0.031 C 
ATOM     71  C   UNL A   1      44.049  29.911  28.757  1.00  0.00     0.037 A 
BRANCH  58  72
ATOM     72  C   UNL A   1      44.014  36.116  28.420  1.00  0.00     0.064 A 
ATOM     73  C   UNL A   1      42.869  36.700  27.851  1.00  0.00     0.173 A 
ATOM     74  C   UNL A   1      45.247  36.736  28.180  1.00  0.00     0.173 A 
ATOM     75  F   UNL A   1      41.664  36.131  28.015  1.00  0.00    -0.203 F 
ATOM     76  C   UNL A   1      42.962  37.838  27.053  1.00  0.00     0.198 A 
ATOM     77  C   UNL A   1      45.333  37.896  27.416  1.00  0.00     0.198 A 
ATOM     78  F   UNL A   1      46.377  36.210  28.679  1.00  0.00    -0.203 F 
ATOM     79  F   UNL A   1      41.865  38.334  26.465  1.00  0.00    -0.200 F 
ATOM     80  C   UNL A   1      44.192  38.442  26.846  1.00  0.00     0.200 A 
ATOM     81  F   UNL A   1      46.523  38.480  27.220  1.00  0.00    -0.200 F 
ATOM     82  F   UNL A   1      44.281  39.541  26.086  1.00  0.00    -0.200 F 
ENDBRANCH  58  72
BRANCH  59  83
ATOM     83  C   UNL A   1      43.246  27.951  34.474  1.00  0.00     0.064 A 
ATOM     84  C   UNL A   1      44.322  27.479  35.238  1.00  0.00     0.173 A 
ATOM     85  C   UNL A   1      42.023  27.272  34.590  1.00  0.00     0.173 A 
ATOM     86  F   UNL A   1      45.512  28.093  35.170  1.00  0.00    -0.203 F 
ATOM     87  C   UNL A   1      44.191  26.356  36.054  1.00  0.00     0.198 A 
ATOM     88  C   UNL A   1      41.883  26.171  35.434  1.00  0.00     0.198 A 
ATOM     89  F   UNL A   1      40.953  27.693  33.900  1.00  0.00    -0.203 F 
ATOM     90  F   UNL A   1      45.252  25.898  36.734  1.00  0.00    -0.200 F 
ATOM     91  C   UNL A   1      42.971  25.705  36.154  1.00  0.00     0.200 A 
ATOM     92  F   UNL A   1      40.694  25.564  35.548  1.00  0.00    -0.200 F 
ATOM     93  F   UNL A   1      42.845  24.629  36.941  1.00  0.00    -0.200 F 
ENDBRANCH  59  83
BRANCH  71  94
ATOM     94  C   UNL A   1      44.258  28.942  27.636  1.00  0.00     0.064 A 
ATOM     95  C   UNL A   1      45.502  28.338  27.408  1.00  0.00     0.173 A 
ATOM     96  C   UNL A   1      43.181  28.582  26.812  1.00  0.00     0.173 A 
ATOM     97  F   UNL A   1      46.560  28.661  28.166  1.00  0.00    -0.203 F 
ATOM     98  C   UNL A   1      45.670  27.436  26.364  1.00  0.00     0.198 A 
ATOM     99  C   UNL A   1      43.342  27.644  25.802  1.00  0.00     0.198 A 
ATOM    100  F   UNL A   1      41.969  29.123  27.006  1.00  0.00    -0.203 F 
ATOM    101  F   UNL A   1      46.883  26.924  26.116  1.00  0.00    -0.200 F 
ATOM    102  C   UNL A   1      44.588  27.083  25.569  1.00  0.00     0.200 A 
ATOM    103  F   UNL A   1      42.290  27.282  25.054  1.00  0.00    -0.200 F 
ATOM    104  F   UNL A   1      44.751  26.205  24.571  1.00  0.00    -0.200 F 
ENDBRANCH  71  94
ENDBRANCH  45  46
ENDBRANCH  37  40
ENDBRANCH  35  36
ENDBRANCH  34  35
ENDBRANCH  33  34
ENDBRANCH  32  33
ENDBRANCH   1  32
TORSDOF 19
ENDMDL
MODEL 3
REMARK VINA RESULT:     -10.5      1.346      7.312
REMARK SMILES COc1ccc(C2=NN(C(=O)CCC(=O)NCCCCCCNC(=O)c3ccc(-c4c5nc(c(-c6c(F)c(F)c(F)c(F)c6F)c6ccc([nH]6)c(-c6c(F)c(F)c(F)c(F)c6F)c6nc(c(-c7c(F)c(F)c(F)c(F)c7F)c7ccc4[nH]7)C=C6)C=C5)cc3)[C@H](c3ccc(Cl)cc3Cl)C2)cc1
REMARK SMILES IDX 18 1 17 2 16 3 14 4 15 5 13 7 12 8 10 9 11 10 9 11 7 12 8 13
REMARK SMILES IDX 98 14 89 15 6 16 3 17 4 18 100 19 5 20 99 21 2 22 1 23 90 24
REMARK SMILES IDX 91 25 96 26 92 27 95 28 97 29 93 30 94 31 19 32 20 33 21 34
REMARK SMILES IDX 22 35 23 36 24 37 25 39 26 40 27 41 88 42 28 43 87 44 29 45
REMARK SMILES IDX 30 46 31 47 81 48 32 49 86 50 80 51 82 52 33 53 85 54 79 55
REMARK SMILES IDX 78 56 34 58 66 59 46 60 65 61 47 62 50 63 64 64 83 65 48 66
REMARK SMILES IDX 49 67 63 69 84 70 51 71 35 72 36 73 44 74 37 75 38 76 42 77
REMARK SMILES IDX 45 78 39 79 40 80 43 81 41 82 67 83 68 84 76 85 69 86 70 87
REMARK SMILES IDX 74 88 77 89 71 90 72 91 75 92 73 93 52 94 53 95 61 96 54 97
REMARK SMILES IDX 55 98 59 99 62 100 56 101 57 102 60 103 58 104
REMARK H PARENT 16 6 23 38 82 57 50 68
REMARK Flexibility Score: inf
ROOT
ATOM      1  C   UNL A   1      38.311  33.919  37.065  1.00  0.00     0.021 C 
ENDROOT
BRANCH   1   2
ATOM      2  C   UNL A   1      38.720  34.196  34.892  1.00  0.00     0.116 C 
BRANCH   2   3
ATOM      3  N   UNL A   1      39.726  33.621  33.860  1.00  0.00    -0.356 N 
ATOM      4  C   UNL A   1      39.921  32.421  33.239  1.00  0.00     0.220 C 
ATOM      5  O   UNL A   1      40.737  32.456  32.308  1.00  0.00    -0.275 OA
ATOM      6  H   UNL A   1      40.390  34.291  33.582  1.00  0.00     0.163 HD
BRANCH   4   7
ATOM      7  C   UNL A   1      39.203  31.102  33.536  1.00  0.00     0.110 C 
BRANCH   7   8
ATOM      8  C   UNL A   1      37.754  30.859  33.141  1.00  0.00     0.112 C 
BRANCH   8   9
ATOM      9  C   UNL A   1      37.670  29.477  32.607  1.00  0.00     0.243 C 
ATOM     10  O   UNL A   1      37.141  28.556  33.216  1.00  0.00    -0.273 OA
BRANCH   9  11
ATOM     11  N   UNL A   1      38.361  29.380  31.424  1.00  0.00    -0.225 N 
ATOM     12  C   UNL A   1      40.101  27.771  29.679  1.00  0.00     0.071 C 
ATOM     13  N   UNL A   1      39.284  27.724  31.061  1.00  0.00    -0.174 NA
ATOM     14  C   UNL A   1      40.137  29.585  28.918  1.00  0.00     0.091 C 
ATOM     15  C   UNL A   1      38.879  30.643  30.006  1.00  0.00     0.149 C 
BRANCH  12  16
ATOM     16  C   UNL A   1      40.409  26.651  28.712  1.00  0.00    -0.002 A 
ATOM     17  C   UNL A   1      40.662  24.272  27.223  1.00  0.00     0.118 A 
ATOM     18  C   UNL A   1      39.506  25.028  27.099  1.00  0.00     0.047 A 
ATOM     19  C   UNL A   1      41.721  24.750  28.001  1.00  0.00     0.047 A 
ATOM     20  C   UNL A   1      39.384  26.214  27.832  1.00  0.00     0.014 A 
ATOM     21  C   UNL A   1      41.593  25.928  28.762  1.00  0.00     0.014 A 
BRANCH  17  22
ATOM     22  O   UNL A   1      40.699  23.078  26.557  1.00  0.00    -0.497 OA
ATOM     23  C   UNL A   1      40.922  21.958  27.419  1.00  0.00     0.278 C 
ENDBRANCH  17  22
ENDBRANCH  12  16
BRANCH  15  24
ATOM     24  C   UNL A   1      37.950  31.581  29.165  1.00  0.00    -0.004 A 
ATOM     25  C   UNL A   1      37.883  32.953  29.493  1.00  0.00     0.009 A 
ATOM     26  C   UNL A   1      36.847  31.079  28.414  1.00  0.00     0.047 A 
ATOM     27  C   UNL A   1      36.790  33.757  29.133  1.00  0.00     0.021 A 
ATOM     28  C   UNL A   1      35.803  31.910  27.973  1.00  0.00     0.041 A 
ATOM     29  Cl  UNL A   1      36.491  29.397  28.193  1.00  0.00    -0.084 Cl
ATOM     30  C   UNL A   1      35.763  33.236  28.362  1.00  0.00     0.042 A 
ATOM     31  Cl  UNL A   1      34.398  34.203  27.967  1.00  0.00    -0.084 Cl
ENDBRANCH  15  24
ENDBRANCH   9  11
ENDBRANCH   8   9
ENDBRANCH   7   8
ENDBRANCH   4   7
ENDBRANCH   2   3
ENDBRANCH   1   2
BRANCH   1  32
ATOM     32  C   UNL A   1      39.321  34.766  38.435  1.00  0.00     0.002 C 
BRANCH  32  33
ATOM     33  C   UNL A   1      39.284  36.370  38.698  1.00  0.00     0.002 C 
BRANCH  33  34
ATOM     34  C   UNL A   1      40.140  37.031  39.739  1.00  0.00     0.021 C 
BRANCH  34  35
ATOM     35  C   UNL A   1      41.561  36.578  39.704  1.00  0.00     0.116 C 
BRANCH  35  36
ATOM     36  N   UNL A   1      42.550  37.585  39.304  1.00  0.00    -0.352 N 
ATOM     37  C   UNL A   1      43.152  37.692  38.076  1.00  0.00     0.251 C 
ATOM     38  H   UNL A   1      42.806  38.251  39.984  1.00  0.00     0.163 HD
ATOM     39  O   UNL A   1      43.781  38.660  37.684  1.00  0.00    -0.269 OA
BRANCH  37  40
ATOM     40  C   UNL A   1      43.053  36.501  37.254  1.00  0.00     0.039 A 
ATOM     41  C   UNL A   1      41.999  36.446  36.338  1.00  0.00     0.014 A 
ATOM     42  C   UNL A   1      44.217  35.742  37.146  1.00  0.00     0.014 A 
ATOM     43  C   UNL A   1      42.134  35.610  35.252  1.00  0.00     0.010 A 
ATOM     44  C   UNL A   1      44.426  35.081  35.965  1.00  0.00     0.010 A 
ATOM     45  C   UNL A   1      43.361  34.962  35.059  1.00  0.00    -0.014 A 
BRANCH  45  46
ATOM     46  C   UNL A   1      43.521  33.980  33.995  1.00  0.00     0.031 A 
ATOM     47  C   UNL A   1      43.704  34.536  32.619  1.00  0.00     0.074 A 
ATOM     48  C   UNL A   1      43.440  32.676  34.294  1.00  0.00     0.049 A 
ATOM     49  N   UNL A   1      43.700  33.917  31.475  1.00  0.00    -0.248 NA
ATOM     50  C   UNL A   1      43.831  36.006  32.505  1.00  0.00     0.031 C 
ATOM     51  C   UNL A   1      43.228  32.121  35.636  1.00  0.00     0.029 A 
ATOM     52  N   UNL A   1      43.526  31.581  33.489  1.00  0.00    -0.354 N 
ATOM     53  C   UNL A   1      43.782  34.923  30.524  1.00  0.00     0.074 A 
ATOM     54  C   UNL A   1      43.726  36.190  31.203  1.00  0.00     0.031 C 
ATOM     55  C   UNL A   1      43.242  30.780  35.562  1.00  0.00     0.029 A 
ATOM     56  C   UNL A   1      43.401  30.396  34.166  1.00  0.00     0.049 A 
ATOM     57  H   UNL A   1      43.664  31.637  32.516  1.00  0.00     0.167 HD
ATOM     58  C   UNL A   1      43.938  34.776  29.194  1.00  0.00     0.037 A 
ATOM     59  C   UNL A   1      43.404  29.147  33.674  1.00  0.00     0.037 A 
ATOM     60  C   UNL A   1      44.031  33.479  28.589  1.00  0.00     0.049 A 
ATOM     61  C   UNL A   1      43.579  29.012  32.185  1.00  0.00     0.074 A 
ATOM     62  C   UNL A   1      44.230  33.152  27.267  1.00  0.00     0.029 A 
ATOM     63  N   UNL A   1      43.934  32.285  29.300  1.00  0.00    -0.354 N 
ATOM     64  N   UNL A   1      43.706  29.957  31.278  1.00  0.00    -0.248 NA
ATOM     65  C   UNL A   1      43.622  27.652  31.648  1.00  0.00     0.031 C 
ATOM     66  C   UNL A   1      44.183  31.758  27.167  1.00  0.00     0.029 A 
ATOM     67  C   UNL A   1      44.040  31.214  28.438  1.00  0.00     0.049 A 
ATOM     68  H   UNL A   1      43.806  32.216  30.274  1.00  0.00     0.167 HD
ATOM     69  C   UNL A   1      43.869  29.308  30.065  1.00  0.00     0.074 A 
ATOM     70  C   UNL A   1      43.851  27.887  30.364  1.00  0.00     0.031 C 
ATOM     71  C   UNL A   1      44.017  29.821  28.816  1.00  0.00     0.037 A 
BRANCH  58  72
ATOM     72  C   UNL A   1      43.998  36.018  28.357  1.00  0.00     0.064 A 
ATOM     73  C   UNL A   1      45.212  36.655  28.046  1.00  0.00     0.173 A 
ATOM     74  C   UNL A   1      42.816  36.603  27.881  1.00  0.00     0.173 A 
ATOM     75  F   UNL A   1      46.373  36.163  28.506  1.00  0.00    -0.203 F 
ATOM     76  C   UNL A   1      45.236  37.841  27.316  1.00  0.00     0.198 A 
ATOM     77  C   UNL A   1      42.847  37.766  27.116  1.00  0.00     0.198 A 
ATOM     78  F   UNL A   1      41.627  36.053  28.166  1.00  0.00    -0.203 F 
ATOM     79  F   UNL A   1      46.401  38.465  27.093  1.00  0.00    -0.200 F 
ATOM     80  C   UNL A   1      44.055  38.389  26.842  1.00  0.00     0.200 A 
ATOM     81  F   UNL A   1      41.704  38.293  26.656  1.00  0.00    -0.200 F 
ATOM     82  F   UNL A   1      44.079  39.524  26.131  1.00  0.00    -0.200 F 
ENDBRANCH  58  72
BRANCH  59  83
ATOM     83  C   UNL A   1      43.263  27.977  34.578  1.00  0.00     0.064 A 
ATOM     84  C   UNL A   1      44.337  27.530  35.357  1.00  0.00     0.173 A 
ATOM     85  C   UNL A   1      42.044  27.291  34.702  1.00  0.00     0.173 A 
ATOM     86  F   UNL A   1      45.524  28.152  35.283  1.00  0.00    -0.203 F 
ATOM     87  C   UNL A   1      44.211  26.424  36.197  1.00  0.00     0.198 A 
ATOM     88  C   UNL A   1      41.909  26.207  35.569  1.00  0.00     0.198 A 
ATOM     89  F   UNL A   1      40.974  27.688  33.998  1.00  0.00    -0.203 F 
ATOM     90  F   UNL A   1      45.272  25.989  36.892  1.00  0.00    -0.200 F 
ATOM     91  C   UNL A   1      42.996  25.766  36.304  1.00  0.00     0.200 A 
ATOM     92  F   UNL A   1      40.723  25.594  35.689  1.00  0.00    -0.200 F 
ATOM     93  F   UNL A   1      42.875  24.706  37.114  1.00  0.00    -0.200 F 
ENDBRANCH  59  83
BRANCH  71  94
ATOM     94  C   UNL A   1      44.213  28.830  27.712  1.00  0.00     0.064 A 
ATOM     95  C   UNL A   1      43.183  28.515  26.816  1.00  0.00     0.173 A 
ATOM     96  C   UNL A   1      45.467  28.229  27.525  1.00  0.00     0.173 A 
ATOM     97  F   UNL A   1      41.966  29.059  26.964  1.00  0.00    -0.203 F 
ATOM     98  C   UNL A   1      43.390  27.596  25.795  1.00  0.00     0.198 A 
ATOM     99  C   UNL A   1      45.683  27.349  26.474  1.00  0.00     0.198 A 
ATOM    100  F   UNL A   1      46.485  28.516  28.350  1.00  0.00    -0.203 F 
ATOM    101  F   UNL A   1      42.374  27.251  24.993  1.00  0.00    -0.200 F 
ATOM    102  C   UNL A   1      44.642  27.022  25.619  1.00  0.00     0.200 A 
ATOM    103  F   UNL A   1      46.899  26.819  26.288  1.00  0.00    -0.200 F 
ATOM    104  F   UNL A   1      44.842  26.146  24.626  1.00  0.00    -0.200 F 
ENDBRANCH  71  94
ENDBRANCH  45  46
ENDBRANCH  37  40
ENDBRANCH  35  36
ENDBRANCH  34  35
ENDBRANCH  33  34
ENDBRANCH  32  33
ENDBRANCH   1  32
TORSDOF 19
ENDMDL
