MODEL 1
REMARK VINA RESULT:      -9.9      0.000      0.000
REMARK SMILES O=C(CSc1nc(-c2cccc(Br)c2)c[nH]1)NCCCCCCNC(=O)c1ccc(-c2c3nc(c(-c4c(F)c(F)c(F)c(F)c4F)c4ccc([nH]4)c(-c4c(F)c(F)c(F)c(F)c4F)c4nc(c(-c5c(F)c(F)c(F)c(F)c5F)c5ccc2[nH]5)C=C4)C=C3)cc1
REMARK SMILES IDX 20 1 19 2 18 3 17 4 1 5 2 6 3 8 4 9 5 10 6 11 16 12 7 13
REMARK SMILES IDX 15 14 8 16 9 17 14 18 10 19 12 20 11 21 13 22 21 23 22 24
REMARK SMILES IDX 23 25 24 26 25 27 26 29 27 30 28 31 89 32 29 33 88 34 30 35
REMARK SMILES IDX 31 36 32 37 82 38 33 39 87 40 81 41 83 42 34 43 86 44 80 45
REMARK SMILES IDX 79 46 35 48 67 49 47 50 66 51 48 52 51 53 65 54 84 55 49 56
REMARK SMILES IDX 50 57 64 59 85 60 52 61 36 62 37 63 45 64 38 65 39 66 43 67
REMARK SMILES IDX 46 68 40 69 41 70 44 71 42 72 68 73 69 74 77 75 70 76 71 77
REMARK SMILES IDX 75 78 78 79 72 80 73 81 76 82 74 83 53 84 54 85 62 86 55 87
REMARK SMILES IDX 56 88 60 89 63 90 57 91 58 92 61 93 59 94
REMARK H PARENT 17 7 16 15 24 28 83 47 51 58
REMARK Flexibility Score: inf
ROOT
ATOM      1  C   UNL A   1      32.959  35.898  29.284  1.00  0.00     0.002 C 
ENDROOT
BRANCH   1   2
ATOM      2  C   UNL A   1      33.252  37.204  30.034  1.00  0.00     0.021 C 
BRANCH   2   3
ATOM      3  C   UNL A   1      33.170  37.102  31.557  1.00  0.00     0.116 C 
BRANCH   3   4
ATOM      4  N   UNL A   1      34.389  36.572  32.127  1.00  0.00    -0.355 N 
ATOM      5  O   UNL A   1      33.591  34.459  32.521  1.00  0.00    -0.274 OA
ATOM      6  C   UNL A   1      34.523  35.260  32.539  1.00  0.00     0.230 C 
ATOM      7  H   UNL A   1      35.161  37.176  32.227  1.00  0.00     0.163 HD
BRANCH   6   8
ATOM      8  C   UNL A   1      35.877  34.915  33.143  1.00  0.00     0.178 C 
BRANCH   8   9
ATOM      9  S   UNL A   1      35.712  33.972  34.691  1.00  0.00    -0.078 SA
BRANCH   9  10
ATOM     10  C   UNL A   1      37.070  32.920  34.573  1.00  0.00     0.166 A 
ATOM     11  N   UNL A   1      37.176  31.808  33.891  1.00  0.00    -0.223 NA
ATOM     12  N   UNL A   1      38.200  33.200  35.283  1.00  0.00    -0.339 N 
ATOM     13  C   UNL A   1      38.419  31.315  34.217  1.00  0.00     0.089 A 
ATOM     14  C   UNL A   1      39.083  32.180  35.063  1.00  0.00     0.113 A 
ATOM     15  H   UNL A   1      38.352  33.990  35.851  1.00  0.00     0.168 HD
BRANCH  13  16
ATOM     16  C   UNL A   1      38.955  30.057  33.743  1.00  0.00     0.003 A 
ATOM     17  C   UNL A   1      38.141  29.165  33.034  1.00  0.00     0.010 A 
ATOM     18  C   UNL A   1      40.296  29.726  33.978  1.00  0.00     0.026 A 
ATOM     19  C   UNL A   1      38.670  27.970  32.539  1.00  0.00     0.002 A 
ATOM     20  C   UNL A   1      40.813  28.526  33.491  1.00  0.00     0.018 A 
ATOM     21  C   UNL A   1      40.010  27.650  32.765  1.00  0.00     0.016 A 
ATOM     22  Br  UNL A   1      42.624  28.088  33.821  1.00  0.00    -0.051 Br
ENDBRANCH  13  16
ENDBRANCH   9  10
ENDBRANCH   8   9
ENDBRANCH   6   8
ENDBRANCH   3   4
ENDBRANCH   2   3
ENDBRANCH   1   2
BRANCH   1  23
ATOM     23  C   UNL A   1      34.114  35.342  28.444  1.00  0.00     0.002 C 
BRANCH  23  24
ATOM     24  C   UNL A   1      34.861  34.158  29.060  1.00  0.00     0.021 C 
BRANCH  24  25
ATOM     25  C   UNL A   1      35.353  33.116  28.059  1.00  0.00     0.116 C 
BRANCH  25  26
ATOM     26  N   UNL A   1      34.388  32.048  27.843  1.00  0.00    -0.352 N 
ATOM     27  C   UNL A   1      34.592  30.692  27.774  1.00  0.00     0.251 C 
ATOM     28  H   UNL A   1      33.453  32.340  27.732  1.00  0.00     0.163 HD
ATOM     29  O   UNL A   1      33.683  29.944  27.420  1.00  0.00    -0.269 OA
BRANCH  27  30
ATOM     30  C   UNL A   1      35.920  30.130  28.098  1.00  0.00     0.039 A 
ATOM     31  C   UNL A   1      36.922  30.145  27.123  1.00  0.00     0.014 A 
ATOM     32  C   UNL A   1      36.183  29.599  29.364  1.00  0.00     0.014 A 
ATOM     33  C   UNL A   1      38.206  29.696  27.440  1.00  0.00     0.010 A 
ATOM     34  C   UNL A   1      37.480  29.221  29.699  1.00  0.00     0.010 A 
ATOM     35  C   UNL A   1      38.506  29.268  28.743  1.00  0.00    -0.014 A 
BRANCH  35  36
ATOM     36  C   UNL A   1      39.885  28.868  29.134  1.00  0.00     0.031 A 
ATOM     37  C   UNL A   1      40.741  29.810  29.937  1.00  0.00     0.074 A 
ATOM     38  C   UNL A   1      40.394  27.700  28.695  1.00  0.00     0.049 A 
ATOM     39  N   UNL A   1      42.000  29.698  30.278  1.00  0.00    -0.248 NA
ATOM     40  C   UNL A   1      40.106  31.056  30.397  1.00  0.00     0.031 C 
ATOM     41  C   UNL A   1      39.679  26.716  27.880  1.00  0.00     0.029 A 
ATOM     42  N   UNL A   1      41.642  27.147  28.859  1.00  0.00    -0.354 N 
ATOM     43  C   UNL A   1      42.312  30.864  30.964  1.00  0.00     0.074 A 
ATOM     44  C   UNL A   1      41.124  31.689  30.960  1.00  0.00     0.031 C 
ATOM     45  C   UNL A   1      40.492  25.678  27.627  1.00  0.00     0.029 A 
ATOM     46  C   UNL A   1      41.799  25.941  28.218  1.00  0.00     0.049 A 
ATOM     47  H   UNL A   1      42.355  27.575  29.385  1.00  0.00     0.167 HD
ATOM     48  C   UNL A   1      43.481  31.208  31.555  1.00  0.00     0.037 A 
ATOM     49  C   UNL A   1      42.883  25.148  28.105  1.00  0.00     0.037 A 
ATOM     50  C   UNL A   1      44.648  30.366  31.592  1.00  0.00     0.049 A 
ATOM     51  C   UNL A   1      44.173  25.568  28.762  1.00  0.00     0.074 A 
ATOM     52  C   UNL A   1      45.849  30.591  32.242  1.00  0.00     0.029 A 
ATOM     53  N   UNL A   1      44.761  29.143  30.951  1.00  0.00    -0.354 N 
ATOM     54  N   UNL A   1      44.429  26.634  29.480  1.00  0.00    -0.248 NA
ATOM     55  C   UNL A   1      45.326  24.671  28.595  1.00  0.00     0.031 C 
ATOM     56  C   UNL A   1      46.713  29.535  31.941  1.00  0.00     0.029 A 
ATOM     57  C   UNL A   1      46.027  28.619  31.161  1.00  0.00     0.049 A 
ATOM     58  H   UNL A   1      44.050  28.711  30.425  1.00  0.00     0.167 HD
ATOM     59  C   UNL A   1      45.752  26.513  29.885  1.00  0.00     0.074 A 
ATOM     60  C   UNL A   1      46.244  25.266  29.342  1.00  0.00     0.031 C 
ATOM     61  C   UNL A   1      46.493  27.361  30.640  1.00  0.00     0.037 A 
BRANCH  48  62
ATOM     62  C   UNL A   1      43.573  32.553  32.215  1.00  0.00     0.064 A 
ATOM     63  C   UNL A   1      43.891  33.712  31.493  1.00  0.00     0.173 A 
ATOM     64  C   UNL A   1      43.251  32.694  33.575  1.00  0.00     0.173 A 
ATOM     65  F   UNL A   1      44.215  33.631  30.193  1.00  0.00    -0.203 F 
ATOM     66  C   UNL A   1      43.896  34.961  32.109  1.00  0.00     0.198 A 
ATOM     67  C   UNL A   1      43.228  33.947  34.179  1.00  0.00     0.198 A 
ATOM     68  F   UNL A   1      42.933  31.618  34.309  1.00  0.00    -0.203 F 
ATOM     69  F   UNL A   1      44.235  36.051  31.407  1.00  0.00    -0.200 F 
ATOM     70  C   UNL A   1      43.554  35.079  33.448  1.00  0.00     0.200 A 
ATOM     71  F   UNL A   1      42.881  34.061  35.469  1.00  0.00    -0.200 F 
ATOM     72  F   UNL A   1      43.538  36.284  34.034  1.00  0.00    -0.200 F 
ENDBRANCH  48  62
BRANCH  49  73
ATOM     73  C   UNL A   1      42.813  23.872  27.339  1.00  0.00     0.064 A 
ATOM     74  C   UNL A   1      42.391  22.685  27.954  1.00  0.00     0.173 A 
ATOM     75  C   UNL A   1      43.220  23.800  25.999  1.00  0.00     0.173 A 
ATOM     76  F   UNL A   1      42.011  22.697  29.241  1.00  0.00    -0.203 F 
ATOM     77  C   UNL A   1      42.420  21.469  27.274  1.00  0.00     0.198 A 
ATOM     78  C   UNL A   1      43.214  22.589  25.308  1.00  0.00     0.198 A 
ATOM     79  F   UNL A   1      43.630  24.904  25.358  1.00  0.00    -0.203 F 
ATOM     80  F   UNL A   1      42.080  20.340  27.912  1.00  0.00    -0.200 F 
ATOM     81  C   UNL A   1      42.828  21.422  25.951  1.00  0.00     0.200 A 
ATOM     82  F   UNL A   1      43.595  22.550  24.024  1.00  0.00    -0.200 F 
ATOM     83  F   UNL A   1      42.866  20.252  25.299  1.00  0.00    -0.200 F 
ENDBRANCH  49  73
BRANCH  61  84
ATOM     84  C   UNL A   1      47.895  26.943  30.983  1.00  0.00     0.064 A 
ATOM     85  C   UNL A   1      48.178  26.144  32.099  1.00  0.00     0.173 A 
ATOM     86  C   UNL A   1      48.963  27.304  30.147  1.00  0.00     0.173 A 
ATOM     87  F   UNL A   1      47.194  25.784  32.939  1.00  0.00    -0.203 F 
ATOM     88  C   UNL A   1      49.481  25.741  32.380  1.00  0.00     0.198 A 
ATOM     89  C   UNL A   1      50.258  26.871  30.410  1.00  0.00     0.198 A 
ATOM     90  F   UNL A   1      48.745  28.061  29.060  1.00  0.00    -0.203 F 
ATOM     91  F   UNL A   1      49.735  25.018  33.478  1.00  0.00    -0.200 F 
ATOM     92  C   UNL A   1      50.518  26.096  31.529  1.00  0.00     0.200 A 
ATOM     93  F   UNL A   1      51.255  27.200  29.576  1.00  0.00    -0.200 F 
ATOM     94  F   UNL A   1      51.769  25.695  31.793  1.00  0.00    -0.200 F 
ENDBRANCH  61  84
ENDBRANCH  35  36
ENDBRANCH  27  30
ENDBRANCH  25  26
ENDBRANCH  24  25
ENDBRANCH  23  24
ENDBRANCH   1  23
TORSDOF 16
ENDMDL
MODEL 2
REMARK VINA RESULT:      -9.9      4.843     10.764
REMARK SMILES O=C(CSc1nc(-c2cccc(Br)c2)c[nH]1)NCCCCCCNC(=O)c1ccc(-c2c3nc(c(-c4c(F)c(F)c(F)c(F)c4F)c4ccc([nH]4)c(-c4c(F)c(F)c(F)c(F)c4F)c4nc(c(-c5c(F)c(F)c(F)c(F)c5F)c5ccc2[nH]5)C=C4)C=C3)cc1
REMARK SMILES IDX 20 1 19 2 18 3 17 4 1 5 2 6 3 8 4 9 5 10 6 11 16 12 7 13
REMARK SMILES IDX 15 14 8 16 9 17 14 18 10 19 12 20 11 21 13 22 21 23 22 24
REMARK SMILES IDX 23 25 24 26 25 27 26 29 27 30 28 31 89 32 29 33 88 34 30 35
REMARK SMILES IDX 31 36 32 37 82 38 33 39 87 40 81 41 83 42 34 43 86 44 80 45
REMARK SMILES IDX 79 46 35 48 67 49 47 50 66 51 48 52 51 53 65 54 84 55 49 56
REMARK SMILES IDX 50 57 64 59 85 60 52 61 36 62 37 63 45 64 38 65 39 66 43 67
REMARK SMILES IDX 46 68 40 69 41 70 44 71 42 72 68 73 69 74 77 75 70 76 71 77
REMARK SMILES IDX 75 78 78 79 72 80 73 81 76 82 74 83 53 84 54 85 62 86 55 87
REMARK SMILES IDX 56 88 60 89 63 90 57 91 58 92 61 93 59 94
REMARK H PARENT 17 7 16 15 24 28 83 47 51 58
REMARK Flexibility Score: inf
ROOT
ATOM      1  C   UNL A   1      32.525  29.309  26.475  1.00  0.00     0.002 C 
ENDROOT
BRANCH   1   2
ATOM      2  C   UNL A   1      31.664  28.411  27.373  1.00  0.00     0.021 C 
BRANCH   2   3
ATOM      3  C   UNL A   1      31.776  26.916  27.082  1.00  0.00     0.116 C 
BRANCH   3   4
ATOM      4  N   UNL A   1      32.793  26.635  26.093  1.00  0.00    -0.355 N 
ATOM      5  O   UNL A   1      32.833  24.363  26.404  1.00  0.00    -0.274 OA
ATOM      6  C   UNL A   1      33.227  25.356  25.797  1.00  0.00     0.230 C 
ATOM      7  H   UNL A   1      33.198  27.391  25.608  1.00  0.00     0.163 HD
BRANCH   6   8
ATOM      8  C   UNL A   1      34.330  25.282  24.751  1.00  0.00     0.178 C 
BRANCH   8   9
ATOM      9  S   UNL A   1      33.663  25.152  23.063  1.00  0.00    -0.078 SA
BRANCH   9  10
ATOM     10  C   UNL A   1      32.745  26.606  22.967  1.00  0.00     0.166 A 
ATOM     11  N   UNL A   1      31.450  26.756  23.083  1.00  0.00    -0.223 NA
ATOM     12  N   UNL A   1      33.379  27.784  22.701  1.00  0.00    -0.339 N 
ATOM     13  C   UNL A   1      31.228  28.091  22.828  1.00  0.00     0.089 A 
ATOM     14  C   UNL A   1      32.419  28.753  22.613  1.00  0.00     0.113 A 
ATOM     15  H   UNL A   1      34.349  27.913  22.592  1.00  0.00     0.168 HD
BRANCH  13  16
ATOM     16  C   UNL A   1      29.922  28.712  22.784  1.00  0.00     0.003 A 
ATOM     17  C   UNL A   1      28.778  27.979  23.122  1.00  0.00     0.010 A 
ATOM     18  C   UNL A   1      29.792  30.058  22.415  1.00  0.00     0.026 A 
ATOM     19  C   UNL A   1      27.522  28.592  23.122  1.00  0.00     0.002 A 
ATOM     20  C   UNL A   1      28.534  30.659  22.404  1.00  0.00     0.018 A 
ATOM     21  C   UNL A   1      27.399  29.936  22.765  1.00  0.00     0.016 A 
ATOM     22  Br  UNL A   1      28.371  32.475  21.898  1.00  0.00    -0.051 Br
ENDBRANCH  13  16
ENDBRANCH   9  10
ENDBRANCH   8   9
ENDBRANCH   6   8
ENDBRANCH   3   4
ENDBRANCH   2   3
ENDBRANCH   1   2
BRANCH   1  23
ATOM     23  C   UNL A   1      31.784  30.451  25.772  1.00  0.00     0.002 C 
BRANCH  23  24
ATOM     24  C   UNL A   1      31.449  31.656  26.654  1.00  0.00     0.021 C 
BRANCH  24  25
ATOM     25  C   UNL A   1      32.657  32.372  27.251  1.00  0.00     0.116 C 
BRANCH  25  26
ATOM     26  N   UNL A   1      32.392  33.775  27.533  1.00  0.00    -0.352 N 
ATOM     27  C   UNL A   1      32.983  34.603  28.456  1.00  0.00     0.251 C 
ATOM     28  H   UNL A   1      31.689  34.190  26.983  1.00  0.00     0.163 HD
ATOM     29  O   UNL A   1      32.520  35.721  28.673  1.00  0.00    -0.269 OA
BRANCH  27  30
ATOM     30  C   UNL A   1      34.163  34.138  29.214  1.00  0.00     0.039 A 
ATOM     31  C   UNL A   1      33.973  33.394  30.382  1.00  0.00     0.014 A 
ATOM     32  C   UNL A   1      35.457  34.425  28.769  1.00  0.00     0.014 A 
ATOM     33  C   UNL A   1      35.077  32.875  31.062  1.00  0.00     0.010 A 
ATOM     34  C   UNL A   1      36.551  33.846  29.406  1.00  0.00     0.010 A 
ATOM     35  C   UNL A   1      36.374  33.063  30.557  1.00  0.00    -0.014 A 
BRANCH  35  36
ATOM     36  C   UNL A   1      37.561  32.448  31.210  1.00  0.00     0.031 A 
ATOM     37  C   UNL A   1      38.268  31.296  30.551  1.00  0.00     0.074 A 
ATOM     38  C   UNL A   1      37.948  32.870  32.431  1.00  0.00     0.049 A 
ATOM     39  N   UNL A   1      39.245  30.552  31.007  1.00  0.00    -0.248 NA
ATOM     40  C   UNL A   1      37.801  30.909  29.210  1.00  0.00     0.031 C 
ATOM     41  C   UNL A   1      37.323  33.953  33.192  1.00  0.00     0.029 A 
ATOM     42  N   UNL A   1      38.951  32.424  33.257  1.00  0.00    -0.354 N 
ATOM     43  C   UNL A   1      39.487  29.599  30.027  1.00  0.00     0.074 A 
ATOM     44  C   UNL A   1      38.532  29.832  28.965  1.00  0.00     0.031 C 
ATOM     45  C   UNL A   1      37.963  34.097  34.363  1.00  0.00     0.029 A 
ATOM     46  C   UNL A   1      39.011  33.087  34.460  1.00  0.00     0.049 A 
ATOM     47  H   UNL A   1      39.568  31.698  33.011  1.00  0.00     0.167 HD
ATOM     48  C   UNL A   1      40.429  28.628  30.009  1.00  0.00     0.037 A 
ATOM     49  C   UNL A   1      39.809  32.888  35.528  1.00  0.00     0.037 A 
ATOM     50  C   UNL A   1      41.404  28.426  31.049  1.00  0.00     0.049 A 
ATOM     51  C   UNL A   1      40.838  31.787  35.481  1.00  0.00     0.074 A 
ATOM     52  C   UNL A   1      42.454  27.525  31.080  1.00  0.00     0.029 A 
ATOM     53  N   UNL A   1      41.446  29.133  32.241  1.00  0.00    -0.354 N 
ATOM     54  N   UNL A   1      41.112  30.949  34.512  1.00  0.00    -0.248 NA
ATOM     55  C   UNL A   1      41.673  31.607  36.678  1.00  0.00     0.031 C 
ATOM     56  C   UNL A   1      43.092  27.639  32.317  1.00  0.00     0.029 A 
ATOM     57  C   UNL A   1      42.483  28.660  33.029  1.00  0.00     0.049 A 
ATOM     58  H   UNL A   1      40.832  29.860  32.491  1.00  0.00     0.167 HD
ATOM     59  C   UNL A   1      42.174  30.176  34.964  1.00  0.00     0.074 A 
ATOM     60  C   UNL A   1      42.503  30.651  36.290  1.00  0.00     0.031 C 
ATOM     61  C   UNL A   1      42.819  29.163  34.336  1.00  0.00     0.037 A 
BRANCH  48  62
ATOM     62  C   UNL A   1      40.466  27.696  28.832  1.00  0.00     0.064 A 
ATOM     63  C   UNL A   1      39.664  26.547  28.773  1.00  0.00     0.173 A 
ATOM     64  C   UNL A   1      41.250  28.008  27.711  1.00  0.00     0.173 A 
ATOM     65  F   UNL A   1      38.903  26.199  29.823  1.00  0.00    -0.203 F 
ATOM     66  C   UNL A   1      39.657  25.737  27.641  1.00  0.00     0.198 A 
ATOM     67  C   UNL A   1      41.216  27.213  26.569  1.00  0.00     0.198 A 
ATOM     68  F   UNL A   1      42.029  29.100  27.714  1.00  0.00    -0.203 F 
ATOM     69  F   UNL A   1      38.908  24.626  27.619  1.00  0.00    -0.200 F 
ATOM     70  C   UNL A   1      40.423  26.077  26.536  1.00  0.00     0.200 A 
ATOM     71  F   UNL A   1      41.945  27.553  25.496  1.00  0.00    -0.200 F 
ATOM     72  F   UNL A   1      40.398  25.309  25.438  1.00  0.00    -0.200 F 
ENDBRANCH  48  62
BRANCH  49  73
ATOM     73  C   UNL A   1      39.679  33.741  36.742  1.00  0.00     0.064 A 
ATOM     74  C   UNL A   1      40.465  34.891  36.902  1.00  0.00     0.173 A 
ATOM     75  C   UNL A   1      38.813  33.395  37.790  1.00  0.00     0.173 A 
ATOM     76  F   UNL A   1      41.324  35.253  35.938  1.00  0.00    -0.203 F 
ATOM     77  C   UNL A   1      40.423  35.637  38.079  1.00  0.00     0.198 A 
ATOM     78  C   UNL A   1      38.745  34.162  38.952  1.00  0.00     0.198 A 
ATOM     79  F   UNL A   1      38.034  32.308  37.690  1.00  0.00    -0.203 F 
ATOM     80  F   UNL A   1      41.240  36.688  38.231  1.00  0.00    -0.200 F 
ATOM     81  C   UNL A   1      39.561  35.274  39.101  1.00  0.00     0.200 A 
ATOM     82  F   UNL A   1      37.899  33.818  39.932  1.00  0.00    -0.200 F 
ATOM     83  F   UNL A   1      39.527  35.984  40.237  1.00  0.00    -0.200 F 
ENDBRANCH  49  73
BRANCH  61  84
ATOM     84  C   UNL A   1      43.989  28.539  35.041  1.00  0.00     0.064 A 
ATOM     85  C   UNL A   1      43.845  27.409  35.859  1.00  0.00     0.173 A 
ATOM     86  C   UNL A   1      45.283  29.049  34.848  1.00  0.00     0.173 A 
ATOM     87  F   UNL A   1      42.628  26.892  36.088  1.00  0.00    -0.203 F 
ATOM     88  C   UNL A   1      44.949  26.827  36.477  1.00  0.00     0.198 A 
ATOM     89  C   UNL A   1      46.388  28.444  35.438  1.00  0.00     0.198 A 
ATOM     90  F   UNL A   1      45.477  30.123  34.068  1.00  0.00    -0.203 F 
ATOM     91  F   UNL A   1      44.783  25.778  37.292  1.00  0.00    -0.200 F 
ATOM     92  C   UNL A   1      46.220  27.339  36.257  1.00  0.00     0.200 A 
ATOM     93  F   UNL A   1      47.617  28.929  35.209  1.00  0.00    -0.200 F 
ATOM     94  F   UNL A   1      47.284  26.768  36.841  1.00  0.00    -0.200 F 
ENDBRANCH  61  84
ENDBRANCH  35  36
ENDBRANCH  27  30
ENDBRANCH  25  26
ENDBRANCH  24  25
ENDBRANCH  23  24
ENDBRANCH   1  23
TORSDOF 16
ENDMDL
MODEL 3
REMARK VINA RESULT:      -9.9      5.086     10.652
REMARK SMILES O=C(CSc1nc(-c2cccc(Br)c2)c[nH]1)NCCCCCCNC(=O)c1ccc(-c2c3nc(c(-c4c(F)c(F)c(F)c(F)c4F)c4ccc([nH]4)c(-c4c(F)c(F)c(F)c(F)c4F)c4nc(c(-c5c(F)c(F)c(F)c(F)c5F)c5ccc2[nH]5)C=C4)C=C3)cc1
REMARK SMILES IDX 20 1 19 2 18 3 17 4 1 5 2 6 3 8 4 9 5 10 6 11 16 12 7 13
REMARK SMILES IDX 15 14 8 16 9 17 14 18 10 19 12 20 11 21 13 22 21 23 22 24
REMARK SMILES IDX 23 25 24 26 25 27 26 29 27 30 28 31 89 32 29 33 88 34 30 35
REMARK SMILES IDX 31 36 32 37 82 38 33 39 87 40 81 41 83 42 34 43 86 44 80 45
REMARK SMILES IDX 79 46 35 48 67 49 47 50 66 51 48 52 51 53 65 54 84 55 49 56
REMARK SMILES IDX 50 57 64 59 85 60 52 61 36 62 37 63 45 64 38 65 39 66 43 67
REMARK SMILES IDX 46 68 40 69 41 70 44 71 42 72 68 73 69 74 77 75 70 76 71 77
REMARK SMILES IDX 75 78 78 79 72 80 73 81 76 82 74 83 53 84 54 85 62 86 55 87
REMARK SMILES IDX 56 88 60 89 63 90 57 91 58 92 61 93 59 94
REMARK H PARENT 17 7 16 15 24 28 83 47 51 58
REMARK Flexibility Score: inf
ROOT
ATOM      1  C   UNL A   1      32.468  29.681  27.047  1.00  0.00     0.002 C 
ENDROOT
BRANCH   1   2
ATOM      2  C   UNL A   1      31.772  28.370  27.437  1.00  0.00     0.021 C 
BRANCH   2   3
ATOM      3  C   UNL A   1      32.129  27.169  26.563  1.00  0.00     0.116 C 
BRANCH   3   4
ATOM      4  N   UNL A   1      31.514  27.251  25.257  1.00  0.00    -0.355 N 
ATOM      5  O   UNL A   1      33.462  27.493  24.071  1.00  0.00    -0.274 OA
ATOM      6  C   UNL A   1      32.239  27.372  24.087  1.00  0.00     0.230 C 
ATOM      7  H   UNL A   1      30.531  27.220  25.199  1.00  0.00     0.163 HD
BRANCH   6   8
ATOM      8  C   UNL A   1      31.398  27.479  22.822  1.00  0.00     0.178 C 
BRANCH   8   9
ATOM      9  S   UNL A   1      31.906  26.270  21.561  1.00  0.00    -0.078 SA
BRANCH   9  10
ATOM     10  C   UNL A   1      31.953  24.827  22.499  1.00  0.00     0.166 A 
ATOM     11  N   UNL A   1      32.989  24.078  22.782  1.00  0.00    -0.223 NA
ATOM     12  N   UNL A   1      30.796  24.321  23.012  1.00  0.00    -0.339 N 
ATOM     13  C   UNL A   1      32.468  23.005  23.469  1.00  0.00     0.089 A 
ATOM     14  C   UNL A   1      31.107  23.150  23.645  1.00  0.00     0.113 A 
ATOM     15  H   UNL A   1      29.900  24.724  22.939  1.00  0.00     0.168 HD
BRANCH  13  16
ATOM     16  C   UNL A   1      33.241  21.875  23.937  1.00  0.00     0.003 A 
ATOM     17  C   UNL A   1      34.586  22.037  24.291  1.00  0.00     0.010 A 
ATOM     18  C   UNL A   1      32.647  20.611  24.051  1.00  0.00     0.026 A 
ATOM     19  C   UNL A   1      35.320  20.954  24.785  1.00  0.00     0.002 A 
ATOM     20  C   UNL A   1      33.389  19.533  24.532  1.00  0.00     0.018 A 
ATOM     21  C   UNL A   1      34.720  19.699  24.908  1.00  0.00     0.016 A 
ATOM     22  Br  UNL A   1      32.577  17.830  24.676  1.00  0.00    -0.051 Br
ENDBRANCH  13  16
ENDBRANCH   9  10
ENDBRANCH   8   9
ENDBRANCH   6   8
ENDBRANCH   3   4
ENDBRANCH   2   3
ENDBRANCH   1   2
BRANCH   1  23
ATOM     23  C   UNL A   1      31.683  30.592  26.098  1.00  0.00     0.002 C 
BRANCH  23  24
ATOM     24  C   UNL A   1      31.411  32.004  26.620  1.00  0.00     0.021 C 
BRANCH  24  25
ATOM     25  C   UNL A   1      32.593  32.671  27.318  1.00  0.00     0.116 C 
BRANCH  25  26
ATOM     26  N   UNL A   1      32.343  34.071  27.626  1.00  0.00    -0.352 N 
ATOM     27  C   UNL A   1      32.955  34.881  28.551  1.00  0.00     0.251 C 
ATOM     28  H   UNL A   1      31.633  34.500  27.094  1.00  0.00     0.163 HD
ATOM     29  O   UNL A   1      32.504  35.998  28.793  1.00  0.00    -0.269 OA
BRANCH  27  30
ATOM     30  C   UNL A   1      34.145  34.396  29.280  1.00  0.00     0.039 A 
ATOM     31  C   UNL A   1      33.969  33.641  30.444  1.00  0.00     0.014 A 
ATOM     32  C   UNL A   1      35.433  34.676  28.815  1.00  0.00     0.014 A 
ATOM     33  C   UNL A   1      35.082  33.104  31.097  1.00  0.00     0.010 A 
ATOM     34  C   UNL A   1      36.533  34.080  29.425  1.00  0.00     0.010 A 
ATOM     35  C   UNL A   1      36.370  33.286  30.570  1.00  0.00    -0.014 A 
BRANCH  35  36
ATOM     36  C   UNL A   1      37.563  32.653  31.193  1.00  0.00     0.031 A 
ATOM     37  C   UNL A   1      38.253  31.508  30.503  1.00  0.00     0.074 A 
ATOM     38  C   UNL A   1      37.971  33.050  32.415  1.00  0.00     0.049 A 
ATOM     39  N   UNL A   1      39.232  30.751  30.931  1.00  0.00    -0.248 NA
ATOM     40  C   UNL A   1      37.763  31.148  29.163  1.00  0.00     0.031 C 
ATOM     41  C   UNL A   1      37.365  34.123  33.204  1.00  0.00     0.029 A 
ATOM     42  N   UNL A   1      38.985  32.583  33.218  1.00  0.00    -0.354 N 
ATOM     43  C   UNL A   1      39.453  29.814  29.930  1.00  0.00     0.074 A 
ATOM     44  C   UNL A   1      38.484  30.071  28.888  1.00  0.00     0.031 C 
ATOM     45  C   UNL A   1      38.024  34.243  34.368  1.00  0.00     0.029 A 
ATOM     46  C   UNL A   1      39.068  33.225  34.431  1.00  0.00     0.049 A 
ATOM     47  H   UNL A   1      39.594  31.858  32.949  1.00  0.00     0.167 HD
ATOM     48  C   UNL A   1      40.389  28.837  29.881  1.00  0.00     0.037 A 
ATOM     49  C   UNL A   1      39.881  33.002  35.483  1.00  0.00     0.037 A 
ATOM     50  C   UNL A   1      41.379  28.612  30.901  1.00  0.00     0.049 A 
ATOM     51  C   UNL A   1      40.902  31.896  35.400  1.00  0.00     0.074 A 
ATOM     52  C   UNL A   1      42.423  27.704  30.900  1.00  0.00     0.029 A 
ATOM     53  N   UNL A   1      41.444  29.297  32.105  1.00  0.00    -0.354 N 
ATOM     54  N   UNL A   1      41.156  31.074  34.412  1.00  0.00    -0.248 NA
ATOM     55  C   UNL A   1      41.754  31.690  36.581  1.00  0.00     0.031 C 
ATOM     56  C   UNL A   1      43.081  27.793  32.129  1.00  0.00     0.029 A 
ATOM     57  C   UNL A   1      42.490  28.804  32.869  1.00  0.00     0.049 A 
ATOM     58  H   UNL A   1      40.838  30.023  32.377  1.00  0.00     0.167 HD
ATOM     59  C   UNL A   1      42.220  30.287  34.834  1.00  0.00     0.074 A 
ATOM     60  C   UNL A   1      42.572  30.736  36.163  1.00  0.00     0.031 C 
ATOM     61  C   UNL A   1      42.849  29.282  34.178  1.00  0.00     0.037 A 
BRANCH  48  62
ATOM     62  C   UNL A   1      40.402  27.927  28.687  1.00  0.00     0.064 A 
ATOM     63  C   UNL A   1      41.134  28.232  27.531  1.00  0.00     0.173 A 
ATOM     64  C   UNL A   1      39.741  26.689  28.738  1.00  0.00     0.173 A 
ATOM     65  F   UNL A   1      41.776  29.407  27.428  1.00  0.00    -0.203 F 
ATOM     66  C   UNL A   1      41.194  27.339  26.465  1.00  0.00     0.198 A 
ATOM     67  C   UNL A   1      39.829  25.786  27.683  1.00  0.00     0.198 A 
ATOM     68  F   UNL A   1      39.033  26.345  29.824  1.00  0.00    -0.203 F 
ATOM     69  F   UNL A   1      41.874  27.666  25.357  1.00  0.00    -0.200 F 
ATOM     70  C   UNL A   1      40.552  26.113  26.546  1.00  0.00     0.200 A 
ATOM     71  F   UNL A   1      39.221  24.594  27.770  1.00  0.00    -0.200 F 
ATOM     72  F   UNL A   1      40.629  25.245  25.528  1.00  0.00    -0.200 F 
ENDBRANCH  48  62
BRANCH  49  73
ATOM     73  C   UNL A   1      39.774  33.834  36.714  1.00  0.00     0.064 A 
ATOM     74  C   UNL A   1      38.949  33.442  37.778  1.00  0.00     0.173 A 
ATOM     75  C   UNL A   1      40.443  35.061  36.828  1.00  0.00     0.173 A 
ATOM     76  F   UNL A   1      38.271  32.287  37.709  1.00  0.00    -0.203 F 
ATOM     77  C   UNL A   1      38.764  34.263  38.889  1.00  0.00     0.198 A 
ATOM     78  C   UNL A   1      40.285  35.866  37.956  1.00  0.00     0.198 A 
ATOM     79  F   UNL A   1      41.248  35.485  35.843  1.00  0.00    -0.203 F 
ATOM     80  F   UNL A   1      37.913  33.895  39.856  1.00  0.00    -0.200 F 
ATOM     81  C   UNL A   1      39.434  35.473  38.979  1.00  0.00     0.200 A 
ATOM     82  F   UNL A   1      40.947  37.027  38.046  1.00  0.00    -0.200 F 
ATOM     83  F   UNL A   1      39.249  36.268  40.041  1.00  0.00    -0.200 F 
ENDBRANCH  49  73
BRANCH  61  84
ATOM     84  C   UNL A   1      44.026  28.639  34.854  1.00  0.00     0.064 A 
ATOM     85  C   UNL A   1      45.324  29.155  34.732  1.00  0.00     0.173 A 
ATOM     86  C   UNL A   1      43.840  27.521  35.682  1.00  0.00     0.173 A 
ATOM     87  F   UNL A   1      45.559  30.213  33.941  1.00  0.00    -0.203 F 
ATOM     88  C   UNL A   1      46.396  28.561  35.394  1.00  0.00     0.198 A 
ATOM     89  C   UNL A   1      44.906  26.951  36.370  1.00  0.00     0.198 A 
ATOM     90  F   UNL A   1      42.616  26.993  35.840  1.00  0.00    -0.203 F 
ATOM     91  F   UNL A   1      47.635  29.042  35.225  1.00  0.00    -0.200 F 
ATOM     92  C   UNL A   1      46.184  27.467  36.221  1.00  0.00     0.200 A 
ATOM     93  F   UNL A   1      44.696  25.906  37.183  1.00  0.00    -0.200 F 
ATOM     94  F   UNL A   1      47.214  26.906  36.869  1.00  0.00    -0.200 F 
ENDBRANCH  61  84
ENDBRANCH  35  36
ENDBRANCH  27  30
ENDBRANCH  25  26
ENDBRANCH  24  25
ENDBRANCH  23  24
ENDBRANCH   1  23
TORSDOF 16
ENDMDL
