MODEL 1
REMARK VINA RESULT:     -11.2      0.000      0.000
REMARK SMILES O=C(COCc1ccccc1)NC[C@H]1CC[C@@H](C(=O)NCCCCCCNC(=O)c2ccc(-c3c4nc(c(-c5c(F)c(F)c(F)c(F)c5F)c5ccc([nH]5)c(-c5c(F)c(F)c(F)c(F)c5F)c5nc(c(-c6c(F)c(F)c(F)c(F)c6F)c6ccc3[nH]6)C=C5)C=C4)cc2)O1
REMARK SMILES IDX 21 1 20 2 18 3 19 4 17 6 14 7 15 8 93 9 16 10 13 11 12 12
REMARK SMILES IDX 1 13 2 14 3 16 4 17 5 18 6 19 7 20 11 21 8 22 10 23 9 24
REMARK SMILES IDX 22 25 23 26 24 27 25 28 26 29 27 30 28 31 29 33 30 34 31 35
REMARK SMILES IDX 92 36 32 37 91 38 33 39 34 40 35 41 85 42 36 43 90 44 84 45
REMARK SMILES IDX 86 46 37 47 89 48 83 49 82 50 38 52 70 53 50 54 69 55 51 56
REMARK SMILES IDX 54 57 68 58 87 59 52 60 53 61 67 63 88 64 55 65 39 66 40 67
REMARK SMILES IDX 48 68 41 69 42 70 46 71 49 72 43 73 44 74 47 75 45 76 71 77
REMARK SMILES IDX 72 78 80 79 73 80 74 81 78 82 81 83 75 84 76 85 79 86 77 87
REMARK SMILES IDX 56 88 57 89 65 90 58 91 59 92 63 93 66 94 60 95 61 96 64 97
REMARK SMILES IDX 62 98
REMARK H PARENT 20 5 12 15 27 32 86 51 54 62
REMARK Flexibility Score: inf
ROOT
ATOM      1  C   UNL A   1      34.541  31.232  27.726  1.00  0.00     0.116 C 
ENDROOT
BRANCH   1   2
ATOM      2  N   UNL A   1      33.316  30.467  27.809  1.00  0.00    -0.354 N 
ATOM      3  C   UNL A   1      32.870  29.392  27.098  1.00  0.00     0.249 C 
ATOM      4  O   UNL A   1      31.765  28.949  27.420  1.00  0.00    -0.272 OA
ATOM      5  H   UNL A   1      32.692  30.778  28.504  1.00  0.00     0.163 HD
BRANCH   3   6
ATOM      6  C   UNL A   1      33.755  28.715  26.029  1.00  0.00     0.207 C 
ATOM      7  C   UNL A   1      33.562  26.581  25.038  1.00  0.00     0.138 C 
ATOM      8  C   UNL A   1      33.804  27.599  23.942  1.00  0.00     0.037 C 
ATOM      9  O   UNL A   1      33.838  27.289  26.258  1.00  0.00    -0.363 OA
ATOM     10  C   UNL A   1      33.314  28.878  24.581  1.00  0.00     0.045 C 
BRANCH   7  11
ATOM     11  C   UNL A   1      32.115  26.060  24.988  1.00  0.00     0.147 C 
BRANCH  11  12
ATOM     12  N   UNL A   1      32.013  24.617  25.030  1.00  0.00    -0.351 N 
ATOM     13  O   UNL A   1      31.274  24.524  27.207  1.00  0.00    -0.272 OA
ATOM     14  C   UNL A   1      31.568  23.959  26.157  1.00  0.00     0.246 C 
ATOM     15  H   UNL A   1      32.266  24.093  24.236  1.00  0.00     0.163 HD
BRANCH  14  16
ATOM     16  C   UNL A   1      31.345  22.458  25.944  1.00  0.00     0.260 C 
BRANCH  16  17
ATOM     17  O   UNL A   1      31.842  21.962  24.704  1.00  0.00    -0.367 OA
BRANCH  17  18
ATOM     18  C   UNL A   1      32.845  20.948  24.833  1.00  0.00     0.196 C 
BRANCH  18  19
ATOM     19  C   UNL A   1      34.240  21.429  24.519  1.00  0.00    -0.022 A 
ATOM     20  C   UNL A   1      35.362  20.755  25.024  1.00  0.00     0.006 A 
ATOM     21  C   UNL A   1      34.441  22.554  23.707  1.00  0.00     0.006 A 
ATOM     22  C   UNL A   1      36.653  21.203  24.739  1.00  0.00     0.000 A 
ATOM     23  C   UNL A   1      35.733  22.990  23.405  1.00  0.00     0.000 A 
ATOM     24  C   UNL A   1      36.838  22.317  23.926  1.00  0.00     0.000 A 
ENDBRANCH  18  19
ENDBRANCH  17  18
ENDBRANCH  16  17
ENDBRANCH  14  16
ENDBRANCH  11  12
ENDBRANCH   7  11
ENDBRANCH   3   6
ENDBRANCH   1   2
BRANCH   1  25
ATOM     25  C   UNL A   1      34.734  32.086  28.980  1.00  0.00     0.021 C 
BRANCH  25  26
ATOM     26  C   UNL A   1      35.383  33.453  28.715  1.00  0.00     0.002 C 
BRANCH  26  27
ATOM     27  C   UNL A   1      34.486  34.478  28.009  1.00  0.00     0.002 C 
BRANCH  27  28
ATOM     28  C   UNL A   1      33.230  34.886  28.784  1.00  0.00     0.021 C 
BRANCH  28  29
ATOM     29  C   UNL A   1      33.366  36.172  29.594  1.00  0.00     0.116 C 
BRANCH  29  30
ATOM     30  N   UNL A   1      32.448  36.216  30.720  1.00  0.00    -0.352 N 
ATOM     31  C   UNL A   1      32.540  35.610  31.946  1.00  0.00     0.251 C 
ATOM     32  H   UNL A   1      31.641  36.764  30.582  1.00  0.00     0.163 HD
ATOM     33  O   UNL A   1      31.580  35.626  32.715  1.00  0.00    -0.269 OA
BRANCH  31  34
ATOM     34  C   UNL A   1      33.783  34.916  32.346  1.00  0.00     0.039 A 
ATOM     35  C   UNL A   1      33.695  33.612  32.843  1.00  0.00     0.014 A 
ATOM     36  C   UNL A   1      35.026  35.551  32.266  1.00  0.00     0.014 A 
ATOM     37  C   UNL A   1      34.856  32.927  33.211  1.00  0.00     0.010 A 
ATOM     38  C   UNL A   1      36.188  34.845  32.570  1.00  0.00     0.010 A 
ATOM     39  C   UNL A   1      36.114  33.530  33.055  1.00  0.00    -0.014 A 
BRANCH  39  40
ATOM     40  C   UNL A   1      37.361  32.806  33.411  1.00  0.00     0.031 A 
ATOM     41  C   UNL A   1      38.067  33.109  34.703  1.00  0.00     0.074 A 
ATOM     42  C   UNL A   1      37.885  31.914  32.549  1.00  0.00     0.049 A 
ATOM     43  N   UNL A   1      39.195  32.629  35.164  1.00  0.00    -0.248 NA
ATOM     44  C   UNL A   1      37.436  34.105  35.583  1.00  0.00     0.031 C 
ATOM     45  C   UNL A   1      37.318  31.564  31.245  1.00  0.00     0.029 A 
ATOM     46  N   UNL A   1      39.018  31.145  32.635  1.00  0.00    -0.354 N 
ATOM     47  C   UNL A   1      39.414  33.273  36.374  1.00  0.00     0.074 A 
ATOM     48  C   UNL A   1      38.331  34.216  36.553  1.00  0.00     0.031 C 
ATOM     49  C   UNL A   1      38.094  30.635  30.665  1.00  0.00     0.029 A 
ATOM     50  C   UNL A   1      39.228  30.348  31.537  1.00  0.00     0.049 A 
ATOM     51  H   UNL A   1      39.623  31.163  33.412  1.00  0.00     0.167 HD
ATOM     52  C   UNL A   1      40.414  33.081  37.267  1.00  0.00     0.037 A 
ATOM     53  C   UNL A   1      40.225  29.485  31.266  1.00  0.00     0.037 A 
ATOM     54  C   UNL A   1      41.475  32.121  37.101  1.00  0.00     0.049 A 
ATOM     55  C   UNL A   1      41.319  29.282  32.277  1.00  0.00     0.074 A 
ATOM     56  C   UNL A   1      42.506  31.813  37.971  1.00  0.00     0.029 A 
ATOM     57  N   UNL A   1      41.638  31.312  35.986  1.00  0.00    -0.354 N 
ATOM     58  N   UNL A   1      41.484  29.854  33.446  1.00  0.00    -0.248 NA
ATOM     59  C   UNL A   1      42.365  28.306  31.936  1.00  0.00     0.031 C 
ATOM     60  C   UNL A   1      43.315  30.845  37.368  1.00  0.00     0.029 A 
ATOM     61  C   UNL A   1      42.762  30.515  36.141  1.00  0.00     0.049 A 
ATOM     62  H   UNL A   1      41.044  31.304  35.201  1.00  0.00     0.167 HD
ATOM     63  C   UNL A   1      42.626  29.286  33.992  1.00  0.00     0.074 A 
ATOM     64  C   UNL A   1      43.111  28.316  33.031  1.00  0.00     0.031 C 
ATOM     65  C   UNL A   1      43.222  29.544  35.182  1.00  0.00     0.037 A 
BRANCH  52  66
ATOM     66  C   UNL A   1      40.405  33.921  38.511  1.00  0.00     0.064 A 
ATOM     67  C   UNL A   1      39.682  33.537  39.651  1.00  0.00     0.173 A 
ATOM     68  C   UNL A   1      41.152  35.107  38.576  1.00  0.00     0.173 A 
ATOM     69  F   UNL A   1      38.943  32.419  39.636  1.00  0.00    -0.203 F 
ATOM     70  C   UNL A   1      39.684  34.325  40.800  1.00  0.00     0.198 A 
ATOM     71  C   UNL A   1      41.175  35.876  39.737  1.00  0.00     0.198 A 
ATOM     72  F   UNL A   1      41.866  35.517  37.516  1.00  0.00    -0.203 F 
ATOM     73  F   UNL A   1      38.946  33.964  41.857  1.00  0.00    -0.200 F 
ATOM     74  C   UNL A   1      40.435  35.489  40.844  1.00  0.00     0.200 A 
ATOM     75  F   UNL A   1      41.913  36.995  39.782  1.00  0.00    -0.200 F 
ATOM     76  F   UNL A   1      40.440  36.243  41.952  1.00  0.00    -0.200 F 
ENDBRANCH  52  66
BRANCH  53  77
ATOM     77  C   UNL A   1      40.217  28.719  29.992  1.00  0.00     0.064 A 
ATOM     78  C   UNL A   1      40.896  29.198  28.862  1.00  0.00     0.173 A 
ATOM     79  C   UNL A   1      39.529  27.503  29.874  1.00  0.00     0.173 A 
ATOM     80  F   UNL A   1      41.551  30.367  28.921  1.00  0.00    -0.203 F 
ATOM     81  C   UNL A   1      40.870  28.500  27.657  1.00  0.00     0.198 A 
ATOM     82  C   UNL A   1      39.526  26.793  28.675  1.00  0.00     0.198 A 
ATOM     83  F   UNL A   1      38.868  27.001  30.928  1.00  0.00    -0.203 F 
ATOM     84  F   UNL A   1      41.488  29.002  26.580  1.00  0.00    -0.200 F 
ATOM     85  C   UNL A   1      40.189  27.295  27.566  1.00  0.00     0.200 A 
ATOM     86  F   UNL A   1      38.878  25.622  28.596  1.00  0.00    -0.200 F 
ATOM     87  F   UNL A   1      40.165  26.622  26.408  1.00  0.00    -0.200 F 
ENDBRANCH  53  77
BRANCH  65  88
ATOM     88  C   UNL A   1      44.438  28.737  35.531  1.00  0.00     0.064 A 
ATOM     89  C   UNL A   1      44.343  27.524  36.228  1.00  0.00     0.173 A 
ATOM     90  C   UNL A   1      45.712  29.169  35.131  1.00  0.00     0.173 A 
ATOM     91  F   UNL A   1      43.149  27.076  36.644  1.00  0.00    -0.203 F 
ATOM     92  C   UNL A   1      45.483  26.786  36.535  1.00  0.00     0.198 A 
ATOM     93  C   UNL A   1      46.847  28.414  35.415  1.00  0.00     0.198 A 
ATOM     94  F   UNL A   1      45.856  30.320  34.457  1.00  0.00    -0.203 F 
ATOM     95  F   UNL A   1      45.374  25.653  37.244  1.00  0.00    -0.200 F 
ATOM     96  C   UNL A   1      46.732  27.227  36.124  1.00  0.00     0.200 A 
ATOM     97  F   UNL A   1      48.051  28.836  35.006  1.00  0.00    -0.200 F 
ATOM     98  F   UNL A   1      47.827  26.512  36.416  1.00  0.00    -0.200 F 
ENDBRANCH  65  88
ENDBRANCH  39  40
ENDBRANCH  31  34
ENDBRANCH  29  30
ENDBRANCH  28  29
ENDBRANCH  27  28
ENDBRANCH  26  27
ENDBRANCH  25  26
ENDBRANCH   1  25
TORSDOF 19
ENDMDL
MODEL 2
REMARK VINA RESULT:     -11.0      0.809      2.226
REMARK SMILES O=C(COCc1ccccc1)NC[C@H]1CC[C@@H](C(=O)NCCCCCCNC(=O)c2ccc(-c3c4nc(c(-c5c(F)c(F)c(F)c(F)c5F)c5ccc([nH]5)c(-c5c(F)c(F)c(F)c(F)c5F)c5nc(c(-c6c(F)c(F)c(F)c(F)c6F)c6ccc3[nH]6)C=C5)C=C4)cc2)O1
REMARK SMILES IDX 21 1 20 2 18 3 19 4 17 6 14 7 15 8 93 9 16 10 13 11 12 12
REMARK SMILES IDX 1 13 2 14 3 16 4 17 5 18 6 19 7 20 11 21 8 22 10 23 9 24
REMARK SMILES IDX 22 25 23 26 24 27 25 28 26 29 27 30 28 31 29 33 30 34 31 35
REMARK SMILES IDX 92 36 32 37 91 38 33 39 34 40 35 41 85 42 36 43 90 44 84 45
REMARK SMILES IDX 86 46 37 47 89 48 83 49 82 50 38 52 70 53 50 54 69 55 51 56
REMARK SMILES IDX 54 57 68 58 87 59 52 60 53 61 67 63 88 64 55 65 39 66 40 67
REMARK SMILES IDX 48 68 41 69 42 70 46 71 49 72 43 73 44 74 47 75 45 76 71 77
REMARK SMILES IDX 72 78 80 79 73 80 74 81 78 82 81 83 75 84 76 85 79 86 77 87
REMARK SMILES IDX 56 88 57 89 65 90 58 91 59 92 63 93 66 94 60 95 61 96 64 97
REMARK SMILES IDX 62 98
REMARK H PARENT 20 5 12 15 27 32 86 51 54 62
REMARK Flexibility Score: inf
ROOT
ATOM      1  C   UNL A   1      34.469  31.038  27.610  1.00  0.00     0.116 C 
ENDROOT
BRANCH   1   2
ATOM      2  N   UNL A   1      33.315  30.179  27.771  1.00  0.00    -0.354 N 
ATOM      3  C   UNL A   1      32.874  29.111  27.049  1.00  0.00     0.249 C 
ATOM      4  O   UNL A   1      31.842  28.570  27.454  1.00  0.00    -0.272 OA
ATOM      5  H   UNL A   1      32.747  30.408  28.542  1.00  0.00     0.163 HD
BRANCH   3   6
ATOM      6  C   UNL A   1      33.687  28.556  25.859  1.00  0.00     0.207 C 
ATOM      7  C   UNL A   1      33.526  26.474  24.758  1.00  0.00     0.138 C 
ATOM      8  C   UNL A   1      33.595  27.567  23.711  1.00  0.00     0.037 C 
ATOM      9  O   UNL A   1      33.879  27.127  25.988  1.00  0.00    -0.363 OA
ATOM     10  C   UNL A   1      33.095  28.772  24.473  1.00  0.00     0.045 C 
BRANCH   7  11
ATOM     11  C   UNL A   1      32.115  25.862  24.813  1.00  0.00     0.147 C 
BRANCH  11  12
ATOM     12  N   UNL A   1      32.110  24.418  24.912  1.00  0.00    -0.351 N 
ATOM     13  O   UNL A   1      31.379  24.361  27.093  1.00  0.00    -0.272 OA
ATOM     14  C   UNL A   1      31.710  23.777  26.065  1.00  0.00     0.246 C 
ATOM     15  H   UNL A   1      32.397  23.882  24.138  1.00  0.00     0.163 HD
BRANCH  14  16
ATOM     16  C   UNL A   1      31.588  22.257  25.912  1.00  0.00     0.260 C 
BRANCH  16  17
ATOM     17  O   UNL A   1      32.264  21.726  24.775  1.00  0.00    -0.367 OA
BRANCH  17  18
ATOM     18  C   UNL A   1      33.401  20.915  25.090  1.00  0.00     0.196 C 
BRANCH  18  19
ATOM     19  C   UNL A   1      33.425  19.594  24.362  1.00  0.00    -0.022 A 
ATOM     20  C   UNL A   1      34.413  18.638  24.642  1.00  0.00     0.006 A 
ATOM     21  C   UNL A   1      32.453  19.292  23.398  1.00  0.00     0.006 A 
ATOM     22  C   UNL A   1      34.440  17.418  23.965  1.00  0.00     0.000 A 
ATOM     23  C   UNL A   1      32.468  18.062  22.736  1.00  0.00     0.000 A 
ATOM     24  C   UNL A   1      33.465  17.129  23.015  1.00  0.00     0.000 A 
ENDBRANCH  18  19
ENDBRANCH  17  18
ENDBRANCH  16  17
ENDBRANCH  14  16
ENDBRANCH  11  12
ENDBRANCH   7  11
ENDBRANCH   3   6
ENDBRANCH   1   2
BRANCH   1  25
ATOM     25  C   UNL A   1      34.867  31.670  28.944  1.00  0.00     0.021 C 
BRANCH  25  26
ATOM     26  C   UNL A   1      35.244  33.157  28.846  1.00  0.00     0.002 C 
BRANCH  26  27
ATOM     27  C   UNL A   1      34.258  34.032  28.063  1.00  0.00     0.002 C 
BRANCH  27  28
ATOM     28  C   UNL A   1      33.094  34.596  28.882  1.00  0.00     0.021 C 
BRANCH  28  29
ATOM     29  C   UNL A   1      33.346  35.971  29.491  1.00  0.00     0.116 C 
BRANCH  29  30
ATOM     30  N   UNL A   1      32.521  36.218  30.663  1.00  0.00    -0.352 N 
ATOM     31  C   UNL A   1      32.671  35.761  31.947  1.00  0.00     0.251 C 
ATOM     32  H   UNL A   1      31.740  36.799  30.512  1.00  0.00     0.163 HD
ATOM     33  O   UNL A   1      31.775  35.939  32.771  1.00  0.00    -0.269 OA
BRANCH  31  34
ATOM     34  C   UNL A   1      33.897  35.038  32.345  1.00  0.00     0.039 A 
ATOM     35  C   UNL A   1      33.786  33.710  32.770  1.00  0.00     0.014 A 
ATOM     36  C   UNL A   1      35.146  35.666  32.336  1.00  0.00     0.014 A 
ATOM     37  C   UNL A   1      34.931  32.998  33.135  1.00  0.00     0.010 A 
ATOM     38  C   UNL A   1      36.294  34.937  32.636  1.00  0.00     0.010 A 
ATOM     39  C   UNL A   1      36.197  33.598  33.048  1.00  0.00    -0.014 A 
BRANCH  39  40
ATOM     40  C   UNL A   1      37.428  32.846  33.402  1.00  0.00     0.031 A 
ATOM     41  C   UNL A   1      38.150  33.140  34.688  1.00  0.00     0.074 A 
ATOM     42  C   UNL A   1      37.926  31.937  32.542  1.00  0.00     0.049 A 
ATOM     43  N   UNL A   1      39.268  32.637  35.145  1.00  0.00    -0.248 NA
ATOM     44  C   UNL A   1      37.548  34.157  35.565  1.00  0.00     0.031 C 
ATOM     45  C   UNL A   1      37.343  31.592  31.245  1.00  0.00     0.029 A 
ATOM     46  N   UNL A   1      39.040  31.141  32.628  1.00  0.00    -0.354 N 
ATOM     47  C   UNL A   1      39.510  33.283  36.350  1.00  0.00     0.074 A 
ATOM     48  C   UNL A   1      38.451  34.252  36.529  1.00  0.00     0.031 C 
ATOM     49  C   UNL A   1      38.093  30.641  30.666  1.00  0.00     0.029 A 
ATOM     50  C   UNL A   1      39.225  30.332  31.533  1.00  0.00     0.049 A 
ATOM     51  H   UNL A   1      39.651  31.150  33.401  1.00  0.00     0.167 HD
ATOM     52  C   UNL A   1      40.510  33.072  37.238  1.00  0.00     0.037 A 
ATOM     53  C   UNL A   1      40.200  29.444  31.262  1.00  0.00     0.037 A 
ATOM     54  C   UNL A   1      41.547  32.087  37.072  1.00  0.00     0.049 A 
ATOM     55  C   UNL A   1      41.295  29.221  32.268  1.00  0.00     0.074 A 
ATOM     56  C   UNL A   1      42.575  31.760  37.939  1.00  0.00     0.029 A 
ATOM     57  N   UNL A   1      41.684  31.266  35.962  1.00  0.00    -0.354 N 
ATOM     58  N   UNL A   1      41.480  29.797  33.432  1.00  0.00    -0.248 NA
ATOM     59  C   UNL A   1      42.314  28.218  31.928  1.00  0.00     0.031 C 
ATOM     60  C   UNL A   1      43.357  30.768  37.337  1.00  0.00     0.029 A 
ATOM     61  C   UNL A   1      42.789  30.444  36.116  1.00  0.00     0.049 A 
ATOM     62  H   UNL A   1      41.086  31.268  35.181  1.00  0.00     0.167 HD
ATOM     63  C   UNL A   1      42.611  29.205  33.975  1.00  0.00     0.074 A 
ATOM     64  C   UNL A   1      43.067  28.217  33.018  1.00  0.00     0.031 C 
ATOM     65  C   UNL A   1      43.220  29.456  35.160  1.00  0.00     0.037 A 
BRANCH  52  66
ATOM     66  C   UNL A   1      40.529  33.921  38.477  1.00  0.00     0.064 A 
ATOM     67  C   UNL A   1      41.263  35.116  38.537  1.00  0.00     0.173 A 
ATOM     68  C   UNL A   1      39.780  33.553  39.605  1.00  0.00     0.173 A 
ATOM     69  F   UNL A   1      42.004  35.505  37.490  1.00  0.00    -0.203 F 
ATOM     70  C   UNL A   1      41.270  35.895  39.691  1.00  0.00     0.198 A 
ATOM     71  C   UNL A   1      39.767  34.350  40.747  1.00  0.00     0.198 A 
ATOM     72  F   UNL A   1      39.057  32.423  39.598  1.00  0.00    -0.203 F 
ATOM     73  F   UNL A   1      42.018  37.005  39.742  1.00  0.00    -0.200 F 
ATOM     74  C   UNL A   1      40.517  35.516  40.791  1.00  0.00     0.200 A 
ATOM     75  F   UNL A   1      39.028  33.989  41.805  1.00  0.00    -0.200 F 
ATOM     76  F   UNL A   1      40.521  36.270  41.899  1.00  0.00    -0.200 F 
ENDBRANCH  52  66
BRANCH  53  77
ATOM     77  C   UNL A   1      40.165  28.671  29.993  1.00  0.00     0.064 A 
ATOM     78  C   UNL A   1      39.525  27.425  29.929  1.00  0.00     0.173 A 
ATOM     79  C   UNL A   1      40.774  29.153  28.826  1.00  0.00     0.173 A 
ATOM     80  F   UNL A   1      38.946  26.913  31.025  1.00  0.00    -0.203 F 
ATOM     81  C   UNL A   1      39.512  26.682  28.750  1.00  0.00     0.198 A 
ATOM     82  C   UNL A   1      40.737  28.421  27.641  1.00  0.00     0.198 A 
ATOM     83  F   UNL A   1      41.396  30.342  28.835  1.00  0.00    -0.203 F 
ATOM     84  F   UNL A   1      38.933  25.474  28.729  1.00  0.00    -0.200 F 
ATOM     85  C   UNL A   1      40.114  27.183  27.606  1.00  0.00     0.200 A 
ATOM     86  F   UNL A   1      41.308  28.915  26.533  1.00  0.00    -0.200 F 
ATOM     87  F   UNL A   1      40.100  26.470  26.472  1.00  0.00    -0.200 F 
ENDBRANCH  53  77
BRANCH  65  88
ATOM     88  C   UNL A   1      44.419  28.622  35.507  1.00  0.00     0.064 A 
ATOM     89  C   UNL A   1      45.718  29.016  35.158  1.00  0.00     0.173 A 
ATOM     90  C   UNL A   1      44.264  27.429  36.231  1.00  0.00     0.173 A 
ATOM     91  F   UNL A   1      45.916  30.141  34.454  1.00  0.00    -0.203 F 
ATOM     92  C   UNL A   1      46.818  28.232  35.497  1.00  0.00     0.198 A 
ATOM     93  C   UNL A   1      45.368  26.663  36.592  1.00  0.00     0.198 A 
ATOM     94  F   UNL A   1      43.042  27.012  36.594  1.00  0.00    -0.203 F 
ATOM     95  F   UNL A   1      48.046  28.603  35.112  1.00  0.00    -0.200 F 
ATOM     96  C   UNL A   1      46.643  27.060  36.219  1.00  0.00     0.200 A 
ATOM     97  F   UNL A   1      45.198  25.538  37.300  1.00  0.00    -0.200 F 
ATOM     98  F   UNL A   1      47.703  26.310  36.548  1.00  0.00    -0.200 F 
ENDBRANCH  65  88
ENDBRANCH  39  40
ENDBRANCH  31  34
ENDBRANCH  29  30
ENDBRANCH  28  29
ENDBRANCH  27  28
ENDBRANCH  26  27
ENDBRANCH  25  26
ENDBRANCH   1  25
TORSDOF 19
ENDMDL
MODEL 3
REMARK VINA RESULT:     -10.9      6.930     12.402
REMARK SMILES O=C(COCc1ccccc1)NC[C@H]1CC[C@@H](C(=O)NCCCCCCNC(=O)c2ccc(-c3c4nc(c(-c5c(F)c(F)c(F)c(F)c5F)c5ccc([nH]5)c(-c5c(F)c(F)c(F)c(F)c5F)c5nc(c(-c6c(F)c(F)c(F)c(F)c6F)c6ccc3[nH]6)C=C5)C=C4)cc2)O1
REMARK SMILES IDX 21 1 20 2 18 3 19 4 17 6 14 7 15 8 93 9 16 10 13 11 12 12
REMARK SMILES IDX 1 13 2 14 3 16 4 17 5 18 6 19 7 20 11 21 8 22 10 23 9 24
REMARK SMILES IDX 22 25 23 26 24 27 25 28 26 29 27 30 28 31 29 33 30 34 31 35
REMARK SMILES IDX 92 36 32 37 91 38 33 39 34 40 35 41 85 42 36 43 90 44 84 45
REMARK SMILES IDX 86 46 37 47 89 48 83 49 82 50 38 52 70 53 50 54 69 55 51 56
REMARK SMILES IDX 54 57 68 58 87 59 52 60 53 61 67 63 88 64 55 65 39 66 40 67
REMARK SMILES IDX 48 68 41 69 42 70 46 71 49 72 43 73 44 74 47 75 45 76 71 77
REMARK SMILES IDX 72 78 80 79 73 80 74 81 78 82 81 83 75 84 76 85 79 86 77 87
REMARK SMILES IDX 56 88 57 89 65 90 58 91 59 92 63 93 66 94 60 95 61 96 64 97
REMARK SMILES IDX 62 98
REMARK H PARENT 20 5 12 15 27 32 86 51 54 62
REMARK Flexibility Score: inf
ROOT
ATOM      1  C   UNL A   1      38.969  21.691  26.098  1.00  0.00     0.116 C 
ENDROOT
BRANCH   1   2
ATOM      2  N   UNL A   1      38.199  22.447  25.134  1.00  0.00    -0.354 N 
ATOM      3  C   UNL A   1      36.855  22.558  24.936  1.00  0.00     0.249 C 
ATOM      4  O   UNL A   1      36.500  23.305  24.021  1.00  0.00    -0.272 OA
ATOM      5  H   UNL A   1      38.744  22.977  24.509  1.00  0.00     0.163 HD
BRANCH   3   6
ATOM      6  C   UNL A   1      35.846  21.867  25.879  1.00  0.00     0.207 C 
ATOM      7  C   UNL A   1      33.581  22.377  26.304  1.00  0.00     0.138 C 
ATOM      8  C   UNL A   1      33.702  20.884  26.078  1.00  0.00     0.037 C 
ATOM      9  O   UNL A   1      34.935  22.833  26.455  1.00  0.00    -0.363 OA
ATOM     10  C   UNL A   1      34.968  20.787  25.260  1.00  0.00     0.045 C 
BRANCH   7  11
ATOM     11  C   UNL A   1      32.874  23.053  25.116  1.00  0.00     0.147 C 
BRANCH  11  12
ATOM     12  N   UNL A   1      32.327  22.119  24.155  1.00  0.00    -0.351 N 
ATOM     13  O   UNL A   1      33.330  23.090  22.326  1.00  0.00    -0.272 OA
ATOM     14  C   UNL A   1      32.630  22.207  22.812  1.00  0.00     0.246 C 
ATOM     15  H   UNL A   1      31.727  21.404  24.467  1.00  0.00     0.163 HD
BRANCH  14  16
ATOM     16  C   UNL A   1      32.116  21.022  21.988  1.00  0.00     0.260 C 
BRANCH  16  17
ATOM     17  O   UNL A   1      31.777  19.873  22.760  1.00  0.00    -0.367 OA
BRANCH  17  18
ATOM     18  C   UNL A   1      32.353  18.651  22.286  1.00  0.00     0.196 C 
BRANCH  18  19
ATOM     19  C   UNL A   1      32.928  17.785  23.378  1.00  0.00    -0.022 A 
ATOM     20  C   UNL A   1      32.368  17.786  24.664  1.00  0.00     0.006 A 
ATOM     21  C   UNL A   1      34.028  16.953  23.125  1.00  0.00     0.006 A 
ATOM     22  C   UNL A   1      32.903  16.988  25.677  1.00  0.00     0.000 A 
ATOM     23  C   UNL A   1      34.550  16.140  24.133  1.00  0.00     0.000 A 
ATOM     24  C   UNL A   1      33.991  16.163  25.410  1.00  0.00     0.000 A 
ENDBRANCH  18  19
ENDBRANCH  17  18
ENDBRANCH  16  17
ENDBRANCH  14  16
ENDBRANCH  11  12
ENDBRANCH   7  11
ENDBRANCH   3   6
ENDBRANCH   1   2
BRANCH   1  25
ATOM     25  C   UNL A   1      40.234  22.451  26.500  1.00  0.00     0.021 C 
BRANCH  25  26
ATOM     26  C   UNL A   1      41.540  21.695  26.210  1.00  0.00     0.002 C 
BRANCH  26  27
ATOM     27  C   UNL A   1      41.686  20.344  26.921  1.00  0.00     0.002 C 
BRANCH  27  28
ATOM     28  C   UNL A   1      42.048  19.166  26.013  1.00  0.00     0.021 C 
BRANCH  28  29
ATOM     29  C   UNL A   1      43.486  18.674  26.144  1.00  0.00     0.116 C 
BRANCH  29  30
ATOM     30  N   UNL A   1      44.145  18.541  24.854  1.00  0.00    -0.352 N 
ATOM     31  C   UNL A   1      44.688  19.508  24.048  1.00  0.00     0.251 C 
ATOM     32  H   UNL A   1      44.212  17.621  24.510  1.00  0.00     0.163 HD
ATOM     33  O   UNL A   1      45.055  19.224  22.909  1.00  0.00    -0.269 OA
BRANCH  31  34
ATOM     34  C   UNL A   1      44.818  20.899  24.532  1.00  0.00     0.039 A 
ATOM     35  C   UNL A   1      45.463  21.129  25.752  1.00  0.00     0.014 A 
ATOM     36  C   UNL A   1      44.283  21.970  23.812  1.00  0.00     0.014 A 
ATOM     37  C   UNL A   1      45.615  22.435  26.223  1.00  0.00     0.010 A 
ATOM     38  C   UNL A   1      44.493  23.276  24.249  1.00  0.00     0.010 A 
ATOM     39  C   UNL A   1      45.153  23.521  25.463  1.00  0.00    -0.014 A 
BRANCH  39  40
ATOM     40  C   UNL A   1      45.334  24.918  25.933  1.00  0.00     0.031 A 
ATOM     41  C   UNL A   1      46.685  25.574  25.849  1.00  0.00     0.074 A 
ATOM     42  C   UNL A   1      44.298  25.578  26.484  1.00  0.00     0.049 A 
ATOM     43  N   UNL A   1      47.058  26.759  26.261  1.00  0.00    -0.248 NA
ATOM     44  C   UNL A   1      47.767  24.780  25.247  1.00  0.00     0.031 C 
ATOM     45  C   UNL A   1      42.949  25.037  26.662  1.00  0.00     0.029 A 
ATOM     46  N   UNL A   1      44.218  26.846  27.003  1.00  0.00    -0.354 N 
ATOM     47  C   UNL A   1      48.416  26.847  25.981  1.00  0.00     0.074 A 
ATOM     48  C   UNL A   1      48.813  25.577  25.414  1.00  0.00     0.031 C 
ATOM     49  C   UNL A   1      42.172  25.974  27.229  1.00  0.00     0.029 A 
ATOM     50  C   UNL A   1      42.973  27.167  27.485  1.00  0.00     0.049 A 
ATOM     51  H   UNL A   1      44.982  27.467  27.029  1.00  0.00     0.167 HD
ATOM     52  C   UNL A   1      49.251  27.898  26.160  1.00  0.00     0.037 A 
ATOM     53  C   UNL A   1      42.529  28.296  28.070  1.00  0.00     0.037 A 
ATOM     54  C   UNL A   1      48.847  29.171  26.698  1.00  0.00     0.049 A 
ATOM     55  C   UNL A   1      43.474  29.452  28.249  1.00  0.00     0.074 A 
ATOM     56  C   UNL A   1      49.606  30.316  26.871  1.00  0.00     0.029 A 
ATOM     57  N   UNL A   1      47.569  29.467  27.150  1.00  0.00    -0.354 N 
ATOM     58  N   UNL A   1      44.742  29.544  27.926  1.00  0.00    -0.248 NA
ATOM     59  C   UNL A   1      42.925  30.668  28.867  1.00  0.00     0.031 C 
ATOM     60  C   UNL A   1      48.797  31.292  27.462  1.00  0.00     0.029 A 
ATOM     61  C   UNL A   1      47.523  30.772  27.614  1.00  0.00     0.049 A 
ATOM     62  H   UNL A   1      46.809  28.842  27.142  1.00  0.00     0.167 HD
ATOM     63  C   UNL A   1      45.131  30.831  28.268  1.00  0.00     0.074 A 
ATOM     64  C   UNL A   1      43.963  31.489  28.816  1.00  0.00     0.031 C 
ATOM     65  C   UNL A   1      46.348  31.416  28.143  1.00  0.00     0.037 A 
BRANCH  52  66
ATOM     66  C   UNL A   1      50.687  27.718  25.763  1.00  0.00     0.064 A 
ATOM     67  C   UNL A   1      51.670  27.367  26.701  1.00  0.00     0.173 A 
ATOM     68  C   UNL A   1      51.081  27.866  24.425  1.00  0.00     0.173 A 
ATOM     69  F   UNL A   1      51.347  27.225  27.995  1.00  0.00    -0.203 F 
ATOM     70  C   UNL A   1      52.999  27.201  26.320  1.00  0.00     0.198 A 
ATOM     71  C   UNL A   1      52.406  27.670  24.042  1.00  0.00     0.198 A 
ATOM     72  F   UNL A   1      50.181  28.195  23.486  1.00  0.00    -0.203 F 
ATOM     73  F   UNL A   1      53.928  26.916  27.242  1.00  0.00    -0.200 F 
ATOM     74  C   UNL A   1      53.364  27.345  24.990  1.00  0.00     0.200 A 
ATOM     75  F   UNL A   1      52.755  27.797  22.754  1.00  0.00    -0.200 F 
ATOM     76  F   UNL A   1      54.643  27.179  24.624  1.00  0.00    -0.200 F 
ENDBRANCH  52  66
BRANCH  53  77
ATOM     77  C   UNL A   1      41.110  28.401  28.498  1.00  0.00     0.064 A 
ATOM     78  C   UNL A   1      40.713  27.982  29.776  1.00  0.00     0.173 A 
ATOM     79  C   UNL A   1      40.125  28.913  27.643  1.00  0.00     0.173 A 
ATOM     80  F   UNL A   1      41.617  27.466  30.622  1.00  0.00    -0.203 F 
ATOM     81  C   UNL A   1      39.380  28.052  30.174  1.00  0.00     0.198 A 
ATOM     82  C   UNL A   1      38.796  29.008  28.052  1.00  0.00     0.198 A 
ATOM     83  F   UNL A   1      40.455  29.332  26.412  1.00  0.00    -0.203 F 
ATOM     84  F   UNL A   1      39.020  27.602  31.383  1.00  0.00    -0.200 F 
ATOM     85  C   UNL A   1      38.423  28.569  29.314  1.00  0.00     0.200 A 
ATOM     86  F   UNL A   1      37.877  29.522  27.223  1.00  0.00    -0.200 F 
ATOM     87  F   UNL A   1      37.142  28.640  29.698  1.00  0.00    -0.200 F 
ENDBRANCH  53  77
BRANCH  65  88
ATOM     88  C   UNL A   1      46.467  32.852  28.564  1.00  0.00     0.064 A 
ATOM     89  C   UNL A   1      46.233  33.905  27.668  1.00  0.00     0.173 A 
ATOM     90  C   UNL A   1      46.785  33.175  29.892  1.00  0.00     0.173 A 
ATOM     91  F   UNL A   1      45.940  33.648  26.385  1.00  0.00    -0.203 F 
ATOM     92  C   UNL A   1      46.341  35.231  28.080  1.00  0.00     0.198 A 
ATOM     93  C   UNL A   1      46.864  34.501  30.308  1.00  0.00     0.198 A 
ATOM     94  F   UNL A   1      47.012  32.203  30.789  1.00  0.00    -0.203 F 
ATOM     95  F   UNL A   1      46.160  36.222  27.197  1.00  0.00    -0.200 F 
ATOM     96  C   UNL A   1      46.649  35.528  29.400  1.00  0.00     0.200 A 
ATOM     97  F   UNL A   1      47.149  34.786  31.585  1.00  0.00    -0.200 F 
ATOM     98  F   UNL A   1      46.747  36.804  29.796  1.00  0.00    -0.200 F 
ENDBRANCH  65  88
ENDBRANCH  39  40
ENDBRANCH  31  34
ENDBRANCH  29  30
ENDBRANCH  28  29
ENDBRANCH  27  28
ENDBRANCH  26  27
ENDBRANCH  25  26
ENDBRANCH   1  25
TORSDOF 19
ENDMDL
