MODEL 1
REMARK VINA RESULT:     -12.4      0.000      0.000
REMARK SMILES O=C(NCCCCCCNC(=O)[C@H]1CCCN1S(=O)(=O)c1cccc([N+](=O)[O-])c1)c1ccc(-c2c3nc(c(-c4c(F)c(F)c(F)c(F)c4F)c4ccc([nH]4)c(-c4c(F)c(F)c(F)c(F)c4F)c4nc(c(-c5c(F)c(F)c(F)c(F)c5F)c5ccc2[nH]5)C=C4)C=C3)cc1
REMARK SMILES IDX 7 1 6 2 5 3 4 4 3 5 1 6 2 7 30 9 31 10 92 11 32 12 91 13
REMARK SMILES IDX 33 14 34 15 35 16 85 17 36 18 90 19 84 20 86 21 37 22 89 23
REMARK SMILES IDX 83 24 82 25 38 27 70 28 50 29 69 30 51 31 54 32 68 33 87 34
REMARK SMILES IDX 52 35 53 36 67 38 88 39 55 40 39 41 40 42 48 43 41 44 42 45
REMARK SMILES IDX 46 46 49 47 43 48 44 49 47 50 45 51 71 52 72 53 80 54 73 55
REMARK SMILES IDX 74 56 78 57 81 58 75 59 76 60 79 61 77 62 56 63 57 64 65 65
REMARK SMILES IDX 58 66 59 67 63 68 66 69 60 70 61 71 64 72 62 73 8 74 9 75
REMARK SMILES IDX 10 76 11 77 12 79 13 80 14 81 17 82 15 83 16 84 18 85 19 86
REMARK SMILES IDX 20 87 21 88 22 89 29 90 23 91 25 92 24 93 26 94 27 95 28 96
REMARK H PARENT 3 8 86 26 54 37 10 78
REMARK Flexibility Score: inf
ROOT
ATOM      1  C   UNL A   1      32.745  30.149  26.413  1.00  0.00     0.002 C 
ENDROOT
BRANCH   1   2
ATOM      2  C   UNL A   1      31.414  30.831  26.077  1.00  0.00     0.002 C 
BRANCH   2   3
ATOM      3  C   UNL A   1      31.325  32.309  26.466  1.00  0.00     0.021 C 
BRANCH   3   4
ATOM      4  C   UNL A   1      32.550  32.850  27.195  1.00  0.00     0.116 C 
BRANCH   4   5
ATOM      5  N   UNL A   1      32.368  34.232  27.606  1.00  0.00    -0.352 N 
ATOM      6  O   UNL A   1      32.553  36.022  28.961  1.00  0.00    -0.269 OA
ATOM      7  C   UNL A   1      32.981  34.925  28.617  1.00  0.00     0.251 C 
ATOM      8  H   UNL A   1      31.709  34.744  27.082  1.00  0.00     0.163 HD
BRANCH   7   9
ATOM      9  C   UNL A   1      34.154  34.346  29.305  1.00  0.00     0.039 A 
ATOM     10  C   UNL A   1      33.999  33.565  30.454  1.00  0.00     0.014 A 
ATOM     11  C   UNL A   1      35.422  34.550  28.755  1.00  0.00     0.014 A 
ATOM     12  C   UNL A   1      35.122  33.062  31.106  1.00  0.00     0.010 A 
ATOM     13  C   UNL A   1      36.543  33.995  29.377  1.00  0.00     0.010 A 
ATOM     14  C   UNL A   1      36.401  33.260  30.565  1.00  0.00    -0.014 A 
BRANCH  14  15
ATOM     15  C   UNL A   1      37.584  32.637  31.202  1.00  0.00     0.031 A 
ATOM     16  C   UNL A   1      38.307  31.503  30.540  1.00  0.00     0.074 A 
ATOM     17  C   UNL A   1      37.976  33.078  32.412  1.00  0.00     0.049 A 
ATOM     18  N   UNL A   1      39.310  30.790  30.984  1.00  0.00    -0.248 NA
ATOM     19  C   UNL A   1      37.832  31.109  29.206  1.00  0.00     0.031 C 
ATOM     20  C   UNL A   1      37.335  34.161  33.158  1.00  0.00     0.029 A 
ATOM     21  N   UNL A   1      38.993  32.662  33.232  1.00  0.00    -0.354 N 
ATOM     22  C   UNL A   1      39.575  29.851  29.998  1.00  0.00     0.074 A 
ATOM     23  C   UNL A   1      38.612  30.070  28.939  1.00  0.00     0.031 C 
ATOM     24  C   UNL A   1      37.972  34.327  34.325  1.00  0.00     0.029 A 
ATOM     25  C   UNL A   1      39.034  33.330  34.430  1.00  0.00     0.049 A 
ATOM     26  H   UNL A   1      39.632  31.955  32.985  1.00  0.00     0.167 HD
ATOM     27  C   UNL A   1      40.537  28.897  29.982  1.00  0.00     0.037 A 
ATOM     28  C   UNL A   1      39.818  33.142  35.507  1.00  0.00     0.037 A 
ATOM     29  C   UNL A   1      41.499  28.699  31.034  1.00  0.00     0.049 A 
ATOM     30  C   UNL A   1      40.868  32.070  35.472  1.00  0.00     0.074 A 
ATOM     31  C   UNL A   1      42.555  27.805  31.083  1.00  0.00     0.029 A 
ATOM     32  N   UNL A   1      41.515  29.401  32.232  1.00  0.00    -0.354 N 
ATOM     33  N   UNL A   1      41.145  31.222  34.512  1.00  0.00    -0.248 NA
ATOM     34  C   UNL A   1      41.712  31.927  36.665  1.00  0.00     0.031 C 
ATOM     35  C   UNL A   1      43.181  27.933  32.327  1.00  0.00     0.029 A 
ATOM     36  C   UNL A   1      42.544  28.939  33.038  1.00  0.00     0.049 A 
ATOM     37  H   UNL A   1      40.889  30.121  32.473  1.00  0.00     0.167 HD
ATOM     38  C   UNL A   1      42.202  30.454  34.976  1.00  0.00     0.074 A 
ATOM     39  C   UNL A   1      42.524  30.944  36.301  1.00  0.00     0.031 C 
ATOM     40  C   UNL A   1      42.848  29.437  34.357  1.00  0.00     0.037 A 
BRANCH  27  41
ATOM     41  C   UNL A   1      40.582  27.980  28.796  1.00  0.00     0.064 A 
ATOM     42  C   UNL A   1      39.849  26.784  28.757  1.00  0.00     0.173 A 
ATOM     43  C   UNL A   1      41.349  28.316  27.670  1.00  0.00     0.173 A 
ATOM     44  F   UNL A   1      39.107  26.413  29.812  1.00  0.00    -0.203 F 
ATOM     45  C   UNL A   1      39.906  25.945  27.648  1.00  0.00     0.198 A 
ATOM     46  C   UNL A   1      41.383  27.485  26.552  1.00  0.00     0.198 A 
ATOM     47  F   UNL A   1      42.063  29.451  27.652  1.00  0.00    -0.203 F 
ATOM     48  F   UNL A   1      39.235  24.784  27.653  1.00  0.00    -0.200 F 
ATOM     49  C   UNL A   1      40.669  26.297  26.545  1.00  0.00     0.200 A 
ATOM     50  F   UNL A   1      42.113  27.834  25.482  1.00  0.00    -0.200 F 
ATOM     51  F   UNL A   1      40.723  25.488  25.478  1.00  0.00    -0.200 F 
ENDBRANCH  27  41
BRANCH  28  52
ATOM     52  C   UNL A   1      39.614  33.994  36.703  1.00  0.00     0.064 A 
ATOM     53  C   UNL A   1      38.819  33.560  37.771  1.00  0.00     0.173 A 
ATOM     54  C   UNL A   1      40.264  35.231  36.829  1.00  0.00     0.173 A 
ATOM     55  F   UNL A   1      38.166  32.392  37.689  1.00  0.00    -0.203 F 
ATOM     56  C   UNL A   1      38.683  34.333  38.923  1.00  0.00     0.198 A 
ATOM     57  C   UNL A   1      40.146  35.991  37.989  1.00  0.00     0.198 A 
ATOM     58  F   UNL A   1      41.042  35.684  35.834  1.00  0.00    -0.203 F 
ATOM     59  F   UNL A   1      37.903  33.905  39.925  1.00  0.00    -0.200 F 
ATOM     60  C   UNL A   1      39.355  35.542  39.035  1.00  0.00     0.200 A 
ATOM     61  F   UNL A   1      40.811  37.150  38.100  1.00  0.00    -0.200 F 
ATOM     62  F   UNL A   1      39.240  36.274  40.151  1.00  0.00    -0.200 F 
ENDBRANCH  28  52
BRANCH  40  63
ATOM     63  C   UNL A   1      43.983  28.793  35.095  1.00  0.00     0.064 A 
ATOM     64  C   UNL A   1      45.284  29.310  35.030  1.00  0.00     0.173 A 
ATOM     65  C   UNL A   1      43.753  27.684  35.923  1.00  0.00     0.173 A 
ATOM     66  F   UNL A   1      45.555  30.359  34.238  1.00  0.00    -0.203 F 
ATOM     67  C   UNL A   1      46.318  28.734  35.762  1.00  0.00     0.198 A 
ATOM     68  C   UNL A   1      44.785  27.125  36.671  1.00  0.00     0.198 A 
ATOM     69  F   UNL A   1      42.524  27.157  36.020  1.00  0.00    -0.203 F 
ATOM     70  F   UNL A   1      47.561  29.225  35.664  1.00  0.00    -0.200 F 
ATOM     71  C   UNL A   1      46.066  27.647  36.588  1.00  0.00     0.200 A 
ATOM     72  F   UNL A   1      44.537  26.082  37.476  1.00  0.00    -0.200 F 
ATOM     73  F   UNL A   1      47.061  27.101  37.301  1.00  0.00    -0.200 F 
ENDBRANCH  40  63
ENDBRANCH  14  15
ENDBRANCH   7   9
ENDBRANCH   4   5
ENDBRANCH   3   4
ENDBRANCH   2   3
ENDBRANCH   1   2
BRANCH   1  74
ATOM     74  C   UNL A   1      32.622  28.822  27.173  1.00  0.00     0.021 C 
BRANCH  74  75
ATOM     75  C   UNL A   1      31.358  28.031  26.838  1.00  0.00     0.116 C 
BRANCH  75  76
ATOM     76  N   UNL A   1      31.580  26.613  27.048  1.00  0.00    -0.355 N 
ATOM     77  C   UNL A   1      31.870  25.619  26.160  1.00  0.00     0.238 C 
ATOM     78  H   UNL A   1      31.509  26.319  27.986  1.00  0.00     0.163 HD
ATOM     79  O   UNL A   1      31.881  24.463  26.592  1.00  0.00    -0.273 OA
BRANCH  77  80
ATOM     80  C   UNL A   1      32.248  25.967  24.713  1.00  0.00     0.162 C 
ATOM     81  C   UNL A   1      32.896  24.755  24.058  1.00  0.00     0.032 C 
ATOM     82  N   UNL A   1      31.050  26.256  23.869  1.00  0.00    -0.185 NA
ATOM     83  C   UNL A   1      31.713  23.925  23.599  1.00  0.00     0.019 C 
ATOM     84  C   UNL A   1      30.579  24.921  23.360  1.00  0.00     0.103 C 
BRANCH  82  85
ATOM     85  S   UNL A   1      31.240  27.414  22.630  1.00  0.00     0.244 S 
ATOM     86  O   UNL A   1      32.363  28.258  22.975  1.00  0.00    -0.207 OA
ATOM     87  O   UNL A   1      31.198  26.717  21.361  1.00  0.00    -0.207 OA
BRANCH  85  88
ATOM     88  C   UNL A   1      29.780  28.435  22.714  1.00  0.00     0.089 A 
ATOM     89  C   UNL A   1      28.594  27.910  23.241  1.00  0.00     0.022 A 
ATOM     90  C   UNL A   1      29.787  29.704  22.126  1.00  0.00     0.107 A 
ATOM     91  C   UNL A   1      27.420  28.670  23.213  1.00  0.00     0.008 A 
ATOM     92  C   UNL A   1      28.621  30.479  22.157  1.00  0.00     0.270 A 
ATOM     93  C   UNL A   1      27.432  29.963  22.685  1.00  0.00     0.086 A 
BRANCH  92  94
ATOM     94  N   UNL A   1      28.664  31.860  21.663  1.00  0.00     0.062 N 
ATOM     95  O   UNL A   1      29.024  32.747  22.450  1.00  0.00    -0.258 OA
ATOM     96  O   UNL A   1      28.381  32.050  20.471  1.00  0.00    -0.258 OA
ENDBRANCH  92  94
ENDBRANCH  85  88
ENDBRANCH  82  85
ENDBRANCH  77  80
ENDBRANCH  75  76
ENDBRANCH  74  75
ENDBRANCH   1  74
TORSDOF 16
ENDMDL
MODEL 2
REMARK VINA RESULT:     -12.4      5.576     10.822
REMARK SMILES O=C(NCCCCCCNC(=O)[C@H]1CCCN1S(=O)(=O)c1cccc([N+](=O)[O-])c1)c1ccc(-c2c3nc(c(-c4c(F)c(F)c(F)c(F)c4F)c4ccc([nH]4)c(-c4c(F)c(F)c(F)c(F)c4F)c4nc(c(-c5c(F)c(F)c(F)c(F)c5F)c5ccc2[nH]5)C=C4)C=C3)cc1
REMARK SMILES IDX 7 1 6 2 5 3 4 4 3 5 1 6 2 7 30 9 31 10 92 11 32 12 91 13
REMARK SMILES IDX 33 14 34 15 35 16 85 17 36 18 90 19 84 20 86 21 37 22 89 23
REMARK SMILES IDX 83 24 82 25 38 27 70 28 50 29 69 30 51 31 54 32 68 33 87 34
REMARK SMILES IDX 52 35 53 36 67 38 88 39 55 40 39 41 40 42 48 43 41 44 42 45
REMARK SMILES IDX 46 46 49 47 43 48 44 49 47 50 45 51 71 52 72 53 80 54 73 55
REMARK SMILES IDX 74 56 78 57 81 58 75 59 76 60 79 61 77 62 56 63 57 64 65 65
REMARK SMILES IDX 58 66 59 67 63 68 66 69 60 70 61 71 64 72 62 73 8 74 9 75
REMARK SMILES IDX 10 76 11 77 12 79 13 80 14 81 17 82 15 83 16 84 18 85 19 86
REMARK SMILES IDX 20 87 21 88 22 89 29 90 23 91 25 92 24 93 26 94 27 95 28 96
REMARK H PARENT 3 8 86 26 54 37 10 78
REMARK Flexibility Score: inf
ROOT
ATOM      1  C   UNL A   1      37.046  21.709  24.314  1.00  0.00     0.002 C 
ENDROOT
BRANCH   1   2
ATOM      2  C   UNL A   1      37.076  20.321  24.965  1.00  0.00     0.002 C 
BRANCH   2   3
ATOM      3  C   UNL A   1      38.412  19.581  24.857  1.00  0.00     0.021 C 
BRANCH   3   4
ATOM      4  C   UNL A   1      39.343  19.774  26.050  1.00  0.00     0.116 C 
BRANCH   4   5
ATOM      5  N   UNL A   1      40.529  18.939  25.950  1.00  0.00    -0.352 N 
ATOM      6  O   UNL A   1      42.718  18.493  25.660  1.00  0.00    -0.269 OA
ATOM      7  C   UNL A   1      41.850  19.303  25.971  1.00  0.00     0.251 C 
ATOM      8  H   UNL A   1      40.358  17.975  25.852  1.00  0.00     0.163 HD
BRANCH   7   9
ATOM      9  C   UNL A   1      42.232  20.677  26.358  1.00  0.00     0.039 A 
ATOM     10  C   UNL A   1      42.449  21.012  27.698  1.00  0.00     0.014 A 
ATOM     11  C   UNL A   1      42.425  21.629  25.353  1.00  0.00     0.014 A 
ATOM     12  C   UNL A   1      42.771  22.322  28.042  1.00  0.00     0.010 A 
ATOM     13  C   UNL A   1      42.805  22.928  25.694  1.00  0.00     0.010 A 
ATOM     14  C   UNL A   1      42.966  23.287  27.042  1.00  0.00    -0.014 A 
BRANCH  14  15
ATOM     15  C   UNL A   1      43.409  24.653  27.402  1.00  0.00     0.031 A 
ATOM     16  C   UNL A   1      42.441  25.656  27.954  1.00  0.00     0.074 A 
ATOM     17  C   UNL A   1      44.693  24.997  27.185  1.00  0.00     0.049 A 
ATOM     18  N   UNL A   1      42.635  26.915  28.252  1.00  0.00    -0.248 NA
ATOM     19  C   UNL A   1      41.069  25.185  28.190  1.00  0.00     0.031 C 
ATOM     20  C   UNL A   1      45.717  24.110  26.634  1.00  0.00     0.029 A 
ATOM     21  N   UNL A   1      45.350  26.184  27.385  1.00  0.00    -0.354 N 
ATOM     22  C   UNL A   1      41.409  27.395  28.691  1.00  0.00     0.074 A 
ATOM     23  C   UNL A   1      40.471  26.295  28.601  1.00  0.00     0.031 C 
ATOM     24  C   UNL A   1      46.874  24.780  26.540  1.00  0.00     0.029 A 
ATOM     25  C   UNL A   1      46.660  26.156  26.977  1.00  0.00     0.049 A 
ATOM     26  H   UNL A   1      44.923  26.977  27.782  1.00  0.00     0.167 HD
ATOM     27  C   UNL A   1      41.101  28.638  29.131  1.00  0.00     0.037 A 
ATOM     28  C   UNL A   1      47.579  27.138  26.930  1.00  0.00     0.037 A 
ATOM     29  C   UNL A   1      42.047  29.719  29.231  1.00  0.00     0.049 A 
ATOM     30  C   UNL A   1      47.211  28.511  27.409  1.00  0.00     0.074 A 
ATOM     31  C   UNL A   1      41.850  30.996  29.728  1.00  0.00     0.029 A 
ATOM     32  N   UNL A   1      43.370  29.652  28.816  1.00  0.00    -0.354 N 
ATOM     33  N   UNL A   1      46.064  28.940  27.874  1.00  0.00    -0.248 NA
ATOM     34  C   UNL A   1      48.262  29.536  27.360  1.00  0.00     0.031 C 
ATOM     35  C   UNL A   1      43.039  31.716  29.571  1.00  0.00     0.029 A 
ATOM     36  C   UNL A   1      43.992  30.875  29.017  1.00  0.00     0.049 A 
ATOM     37  H   UNL A   1      43.803  28.854  28.436  1.00  0.00     0.167 HD
ATOM     38  C   UNL A   1      46.254  30.277  28.185  1.00  0.00     0.074 A 
ATOM     39  C   UNL A   1      47.633  30.588  27.866  1.00  0.00     0.031 C 
ATOM     40  C   UNL A   1      45.365  31.167  28.691  1.00  0.00     0.037 A 
BRANCH  27  41
ATOM     41  C   UNL A   1      39.676  28.902  29.517  1.00  0.00     0.064 A 
ATOM     42  C   UNL A   1      38.738  29.387  28.595  1.00  0.00     0.173 A 
ATOM     43  C   UNL A   1      39.236  28.641  30.825  1.00  0.00     0.173 A 
ATOM     44  F   UNL A   1      39.109  29.663  27.335  1.00  0.00    -0.203 F 
ATOM     45  C   UNL A   1      37.419  29.628  28.973  1.00  0.00     0.198 A 
ATOM     46  C   UNL A   1      37.911  28.859  31.192  1.00  0.00     0.198 A 
ATOM     47  F   UNL A   1      40.091  28.169  31.744  1.00  0.00    -0.203 F 
ATOM     48  F   UNL A   1      36.552  30.138  28.087  1.00  0.00    -0.200 F 
ATOM     49  C   UNL A   1      37.006  29.361  30.270  1.00  0.00     0.200 A 
ATOM     50  F   UNL A   1      37.511  28.589  32.443  1.00  0.00    -0.200 F 
ATOM     51  F   UNL A   1      35.737  29.594  30.633  1.00  0.00    -0.200 F 
ENDBRANCH  27  41
BRANCH  28  52
ATOM     52  C   UNL A   1      48.928  26.834  26.394  1.00  0.00     0.064 A 
ATOM     53  C   UNL A   1      49.921  26.280  27.211  1.00  0.00     0.173 A 
ATOM     54  C   UNL A   1      49.228  27.031  25.038  1.00  0.00     0.173 A 
ATOM     55  F   UNL A   1      49.685  26.089  28.517  1.00  0.00    -0.203 F 
ATOM     56  C   UNL A   1      51.166  25.933  26.690  1.00  0.00     0.198 A 
ATOM     57  C   UNL A   1      50.463  26.661  24.513  1.00  0.00     0.198 A 
ATOM     58  F   UNL A   1      48.304  27.551  24.216  1.00  0.00    -0.203 F 
ATOM     59  F   UNL A   1      52.107  25.420  27.494  1.00  0.00    -0.200 F 
ATOM     60  C   UNL A   1      51.432  26.113  25.340  1.00  0.00     0.200 A 
ATOM     61  F   UNL A   1      50.709  26.822  23.205  1.00  0.00    -0.200 F 
ATOM     62  F   UNL A   1      52.621  25.759  24.835  1.00  0.00    -0.200 F 
ENDBRANCH  28  52
BRANCH  40  63
ATOM     63  C   UNL A   1      45.859  32.558  28.952  1.00  0.00     0.064 A 
ATOM     64  C   UNL A   1      46.485  32.897  30.159  1.00  0.00     0.173 A 
ATOM     65  C   UNL A   1      45.756  33.545  27.960  1.00  0.00     0.173 A 
ATOM     66  F   UNL A   1      46.592  31.991  31.142  1.00  0.00    -0.203 F 
ATOM     67  C   UNL A   1      46.985  34.179  30.367  1.00  0.00     0.198 A 
ATOM     68  C   UNL A   1      46.277  34.819  28.164  1.00  0.00     0.198 A 
ATOM     69  F   UNL A   1      45.168  33.266  26.788  1.00  0.00    -0.203 F 
ATOM     70  F   UNL A   1      47.555  34.492  31.539  1.00  0.00    -0.200 F 
ATOM     71  C   UNL A   1      46.888  35.136  29.367  1.00  0.00     0.200 A 
ATOM     72  F   UNL A   1      46.191  35.739  27.193  1.00  0.00    -0.200 F 
ATOM     73  F   UNL A   1      47.381  36.367  29.566  1.00  0.00    -0.200 F 
ENDBRANCH  40  63
ENDBRANCH  14  15
ENDBRANCH   7   9
ENDBRANCH   4   5
ENDBRANCH   3   4
ENDBRANCH   2   3
ENDBRANCH   1   2
BRANCH   1  74
ATOM     74  C   UNL A   1      37.613  22.844  25.176  1.00  0.00     0.021 C 
BRANCH  74  75
ATOM     75  C   UNL A   1      36.545  23.695  25.862  1.00  0.00     0.116 C 
BRANCH  75  76
ATOM     76  N   UNL A   1      35.736  22.874  26.742  1.00  0.00    -0.355 N 
ATOM     77  C   UNL A   1      34.381  22.728  26.823  1.00  0.00     0.238 C 
ATOM     78  H   UNL A   1      36.247  22.334  27.388  1.00  0.00     0.163 HD
ATOM     79  O   UNL A   1      33.943  22.055  27.759  1.00  0.00    -0.273 OA
BRANCH  77  80
ATOM     80  C   UNL A   1      33.478  23.314  25.729  1.00  0.00     0.162 C 
ATOM     81  C   UNL A   1      33.613  22.478  24.464  1.00  0.00     0.032 C 
ATOM     82  N   UNL A   1      32.029  23.229  26.085  1.00  0.00    -0.185 NA
ATOM     83  C   UNL A   1      32.658  21.323  24.699  1.00  0.00     0.019 C 
ATOM     84  C   UNL A   1      31.581  21.865  25.638  1.00  0.00     0.103 C 
BRANCH  82  85
ATOM     85  S   UNL A   1      31.020  24.483  25.518  1.00  0.00     0.244 S 
ATOM     86  O   UNL A   1      30.401  24.037  24.289  1.00  0.00    -0.207 OA
ATOM     87  O   UNL A   1      30.214  24.940  26.631  1.00  0.00    -0.207 OA
BRANCH  85  88
ATOM     88  C   UNL A   1      32.124  25.816  25.089  1.00  0.00     0.089 A 
ATOM     89  C   UNL A   1      32.526  26.728  26.072  1.00  0.00     0.022 A 
ATOM     90  C   UNL A   1      32.468  26.026  23.751  1.00  0.00     0.107 A 
ATOM     91  C   UNL A   1      33.306  27.835  25.721  1.00  0.00     0.008 A 
ATOM     92  C   UNL A   1      33.299  27.104  23.418  1.00  0.00     0.270 A 
ATOM     93  C   UNL A   1      33.708  28.019  24.396  1.00  0.00     0.086 A 
BRANCH  92  94
ATOM     94  N   UNL A   1      33.772  27.248  22.037  1.00  0.00     0.062 N 
ATOM     95  O   UNL A   1      33.554  26.317  21.249  1.00  0.00    -0.258 OA
ATOM     96  O   UNL A   1      34.322  28.316  21.730  1.00  0.00    -0.258 OA
ENDBRANCH  92  94
ENDBRANCH  85  88
ENDBRANCH  82  85
ENDBRANCH  77  80
ENDBRANCH  75  76
ENDBRANCH  74  75
ENDBRANCH   1  74
TORSDOF 16
ENDMDL
MODEL 3
REMARK VINA RESULT:     -12.3      1.934      3.595
REMARK SMILES O=C(NCCCCCCNC(=O)[C@H]1CCCN1S(=O)(=O)c1cccc([N+](=O)[O-])c1)c1ccc(-c2c3nc(c(-c4c(F)c(F)c(F)c(F)c4F)c4ccc([nH]4)c(-c4c(F)c(F)c(F)c(F)c4F)c4nc(c(-c5c(F)c(F)c(F)c(F)c5F)c5ccc2[nH]5)C=C4)C=C3)cc1
REMARK SMILES IDX 7 1 6 2 5 3 4 4 3 5 1 6 2 7 30 9 31 10 92 11 32 12 91 13
REMARK SMILES IDX 33 14 34 15 35 16 85 17 36 18 90 19 84 20 86 21 37 22 89 23
REMARK SMILES IDX 83 24 82 25 38 27 70 28 50 29 69 30 51 31 54 32 68 33 87 34
REMARK SMILES IDX 52 35 53 36 67 38 88 39 55 40 39 41 40 42 48 43 41 44 42 45
REMARK SMILES IDX 46 46 49 47 43 48 44 49 47 50 45 51 71 52 72 53 80 54 73 55
REMARK SMILES IDX 74 56 78 57 81 58 75 59 76 60 79 61 77 62 56 63 57 64 65 65
REMARK SMILES IDX 58 66 59 67 63 68 66 69 60 70 61 71 64 72 62 73 8 74 9 75
REMARK SMILES IDX 10 76 11 77 12 79 13 80 14 81 17 82 15 83 16 84 18 85 19 86
REMARK SMILES IDX 20 87 21 88 22 89 29 90 23 91 25 92 24 93 26 94 27 95 28 96
REMARK H PARENT 3 8 86 26 54 37 10 78
REMARK Flexibility Score: inf
ROOT
ATOM      1  C   UNL A   1      32.248  29.999  27.077  1.00  0.00     0.002 C 
ENDROOT
BRANCH   1   2
ATOM      2  C   UNL A   1      31.413  30.879  26.140  1.00  0.00     0.002 C 
BRANCH   2   3
ATOM      3  C   UNL A   1      31.329  32.356  26.537  1.00  0.00     0.021 C 
BRANCH   3   4
ATOM      4  C   UNL A   1      32.569  32.895  27.241  1.00  0.00     0.116 C 
BRANCH   4   5
ATOM      5  N   UNL A   1      32.400  34.281  27.647  1.00  0.00    -0.352 N 
ATOM      6  O   UNL A   1      32.600  36.074  28.996  1.00  0.00    -0.269 OA
ATOM      7  C   UNL A   1      33.017  34.972  28.657  1.00  0.00     0.251 C 
ATOM      8  H   UNL A   1      31.748  34.797  27.120  1.00  0.00     0.163 HD
BRANCH   7   9
ATOM      9  C   UNL A   1      34.182  34.383  29.350  1.00  0.00     0.039 A 
ATOM     10  C   UNL A   1      34.016  33.604  30.499  1.00  0.00     0.014 A 
ATOM     11  C   UNL A   1      35.455  34.576  28.807  1.00  0.00     0.014 A 
ATOM     12  C   UNL A   1      35.131  33.091  31.157  1.00  0.00     0.010 A 
ATOM     13  C   UNL A   1      36.568  34.012  29.433  1.00  0.00     0.010 A 
ATOM     14  C   UNL A   1      36.414  33.278  30.621  1.00  0.00    -0.014 A 
BRANCH  14  15
ATOM     15  C   UNL A   1      37.589  32.646  31.264  1.00  0.00     0.031 A 
ATOM     16  C   UNL A   1      38.299  31.499  30.610  1.00  0.00     0.074 A 
ATOM     17  C   UNL A   1      37.985  33.091  32.471  1.00  0.00     0.049 A 
ATOM     18  N   UNL A   1      39.294  30.778  31.060  1.00  0.00    -0.248 NA
ATOM     19  C   UNL A   1      37.821  31.101  29.278  1.00  0.00     0.031 C 
ATOM     20  C   UNL A   1      37.356  34.186  33.209  1.00  0.00     0.029 A 
ATOM     21  N   UNL A   1      38.997  32.669  33.295  1.00  0.00    -0.354 N 
ATOM     22  C   UNL A   1      39.549  29.828  30.081  1.00  0.00     0.074 A 
ATOM     23  C   UNL A   1      38.590  30.052  29.020  1.00  0.00     0.031 C 
ATOM     24  C   UNL A   1      37.995  34.353  34.376  1.00  0.00     0.029 A 
ATOM     25  C   UNL A   1      39.044  33.345  34.489  1.00  0.00     0.049 A 
ATOM     26  H   UNL A   1      39.627  31.953  33.053  1.00  0.00     0.167 HD
ATOM     27  C   UNL A   1      40.500  28.864  30.073  1.00  0.00     0.037 A 
ATOM     28  C   UNL A   1      39.825  33.154  35.567  1.00  0.00     0.037 A 
ATOM     29  C   UNL A   1      41.458  28.661  31.128  1.00  0.00     0.049 A 
ATOM     30  C   UNL A   1      40.862  32.070  35.541  1.00  0.00     0.074 A 
ATOM     31  C   UNL A   1      42.503  27.755  31.184  1.00  0.00     0.029 A 
ATOM     32  N   UNL A   1      41.481  29.371  32.320  1.00  0.00    -0.354 N 
ATOM     33  N   UNL A   1      41.131  31.212  34.588  1.00  0.00    -0.248 NA
ATOM     34  C   UNL A   1      41.703  31.926  36.736  1.00  0.00     0.031 C 
ATOM     35  C   UNL A   1      43.129  27.885  32.428  1.00  0.00     0.029 A 
ATOM     36  C   UNL A   1      42.504  28.903  33.131  1.00  0.00     0.049 A 
ATOM     37  H   UNL A   1      40.864  30.100  32.556  1.00  0.00     0.167 HD
ATOM     38  C   UNL A   1      42.178  30.435  35.058  1.00  0.00     0.074 A 
ATOM     39  C   UNL A   1      42.504  30.930  36.380  1.00  0.00     0.031 C 
ATOM     40  C   UNL A   1      42.813  29.406  34.446  1.00  0.00     0.037 A 
BRANCH  27  41
ATOM     41  C   UNL A   1      40.534  27.937  28.893  1.00  0.00     0.064 A 
ATOM     42  C   UNL A   1      41.306  28.216  27.756  1.00  0.00     0.173 A 
ATOM     43  C   UNL A   1      39.804  26.738  28.913  1.00  0.00     0.173 A 
ATOM     44  F   UNL A   1      42.014  29.354  27.683  1.00  0.00    -0.203 F 
ATOM     45  C   UNL A   1      41.323  27.345  26.670  1.00  0.00     0.198 A 
ATOM     46  C   UNL A   1      39.844  25.857  27.836  1.00  0.00     0.198 A 
ATOM     47  F   UNL A   1      39.056  26.420  29.980  1.00  0.00    -0.203 F 
ATOM     48  F   UNL A   1      42.029  27.656  25.574  1.00  0.00    -0.200 F 
ATOM     49  C   UNL A   1      40.595  26.164  26.712  1.00  0.00     0.200 A 
ATOM     50  F   UNL A   1      39.149  24.711  27.883  1.00  0.00    -0.200 F 
ATOM     51  F   UNL A   1      40.612  25.327  25.666  1.00  0.00    -0.200 F 
ENDBRANCH  27  41
BRANCH  28  52
ATOM     52  C   UNL A   1      39.630  34.017  36.758  1.00  0.00     0.064 A 
ATOM     53  C   UNL A   1      38.833  33.598  37.830  1.00  0.00     0.173 A 
ATOM     54  C   UNL A   1      40.290  35.250  36.873  1.00  0.00     0.173 A 
ATOM     55  F   UNL A   1      38.170  32.435  37.758  1.00  0.00    -0.203 F 
ATOM     56  C   UNL A   1      38.705  34.381  38.976  1.00  0.00     0.198 A 
ATOM     57  C   UNL A   1      40.181  36.019  38.028  1.00  0.00     0.198 A 
ATOM     58  F   UNL A   1      41.071  35.688  35.874  1.00  0.00    -0.203 F 
ATOM     59  F   UNL A   1      37.923  33.967  39.983  1.00  0.00    -0.200 F 
ATOM     60  C   UNL A   1      39.387  35.584  39.078  1.00  0.00     0.200 A 
ATOM     61  F   UNL A   1      40.855  37.173  38.129  1.00  0.00    -0.200 F 
ATOM     62  F   UNL A   1      39.280  36.326  40.189  1.00  0.00    -0.200 F 
ENDBRANCH  28  52
BRANCH  40  63
ATOM     63  C   UNL A   1      43.939  28.754  35.190  1.00  0.00     0.064 A 
ATOM     64  C   UNL A   1      43.720  27.655  36.032  1.00  0.00     0.173 A 
ATOM     65  C   UNL A   1      45.258  29.198  35.012  1.00  0.00     0.173 A 
ATOM     66  F   UNL A   1      42.473  27.206  36.245  1.00  0.00    -0.203 F 
ATOM     67  C   UNL A   1      44.782  27.027  36.676  1.00  0.00     0.198 A 
ATOM     68  C   UNL A   1      46.319  28.553  35.640  1.00  0.00     0.198 A 
ATOM     69  F   UNL A   1      45.517  30.243  34.214  1.00  0.00    -0.203 F 
ATOM     70  F   UNL A   1      44.548  25.995  37.499  1.00  0.00    -0.200 F 
ATOM     71  C   UNL A   1      46.080  27.471  36.473  1.00  0.00     0.200 A 
ATOM     72  F   UNL A   1      47.574  28.977  35.436  1.00  0.00    -0.200 F 
ATOM     73  F   UNL A   1      47.102  26.857  37.086  1.00  0.00    -0.200 F 
ENDBRANCH  40  63
ENDBRANCH  14  15
ENDBRANCH   7   9
ENDBRANCH   4   5
ENDBRANCH   3   4
ENDBRANCH   2   3
ENDBRANCH   1   2
BRANCH   1  74
ATOM     74  C   UNL A   1      32.152  28.491  26.809  1.00  0.00     0.021 C 
BRANCH  74  75
ATOM     75  C   UNL A   1      33.457  27.863  26.321  1.00  0.00     0.116 C 
BRANCH  75  76
ATOM     76  N   UNL A   1      33.756  28.306  24.973  1.00  0.00    -0.355 N 
ATOM     77  C   UNL A   1      33.751  27.621  23.792  1.00  0.00     0.238 C 
ATOM     78  H   UNL A   1      34.003  29.257  24.896  1.00  0.00     0.163 HD
ATOM     79  O   UNL A   1      34.176  28.213  22.797  1.00  0.00    -0.273 OA
BRANCH  77  80
ATOM     80  C   UNL A   1      33.154  26.209  23.725  1.00  0.00     0.162 C 
ATOM     81  C   UNL A   1      31.674  26.304  23.384  1.00  0.00     0.032 C 
ATOM     82  N   UNL A   1      33.745  25.397  22.617  1.00  0.00    -0.185 NA
ATOM     83  C   UNL A   1      31.665  26.431  21.873  1.00  0.00     0.019 C 
ATOM     84  C   UNL A   1      32.936  25.731  21.394  1.00  0.00     0.103 C 
BRANCH  82  85
ATOM     85  S   UNL A   1      33.891  23.718  22.884  1.00  0.00     0.244 S 
ATOM     86  O   UNL A   1      32.883  23.050  22.091  1.00  0.00    -0.207 OA
ATOM     87  O   UNL A   1      35.290  23.369  22.753  1.00  0.00    -0.207 OA
BRANCH  85  88
ATOM     88  C   UNL A   1      33.450  23.475  24.595  1.00  0.00     0.089 A 
ATOM     89  C   UNL A   1      34.455  23.347  25.561  1.00  0.00     0.022 A 
ATOM     90  C   UNL A   1      32.111  23.272  24.943  1.00  0.00     0.107 A 
ATOM     91  C   UNL A   1      34.119  23.053  26.886  1.00  0.00     0.008 A 
ATOM     92  C   UNL A   1      31.780  23.035  26.283  1.00  0.00     0.270 A 
ATOM     93  C   UNL A   1      32.779  22.910  27.255  1.00  0.00     0.086 A 
BRANCH  92  94
ATOM     94  N   UNL A   1      30.367  22.957  26.671  1.00  0.00     0.062 N 
ATOM     95  O   UNL A   1      29.760  21.902  26.443  1.00  0.00    -0.258 OA
ATOM     96  O   UNL A   1      29.878  23.940  27.248  1.00  0.00    -0.258 OA
ENDBRANCH  92  94
ENDBRANCH  85  88
ENDBRANCH  82  85
ENDBRANCH  77  80
ENDBRANCH  75  76
ENDBRANCH  74  75
ENDBRANCH   1  74
TORSDOF 16
ENDMDL
