MODEL 1
REMARK VINA RESULT:     -11.9      0.000      0.000
REMARK SMILES O=C(NCCCCCCNC(=O)c1cc(S(=O)(=O)Nc2cccc(Cl)c2)ccc1O)c1ccc(-c2c3nc(c(-c4c(F)c(F)c(F)c(F)c4F)c4ccc([nH]4)c(-c4c(F)c(F)c(F)c(F)c4F)c4nc(c(-c5c(F)c(F)c(F)c(F)c5F)c5ccc2[nH]5)C=C4)C=C3)cc1
REMARK SMILES IDX 7 1 6 2 5 3 4 4 3 5 1 6 2 7 31 9 32 10 93 11 33 12 92 13
REMARK SMILES IDX 34 14 35 15 36 16 86 17 37 18 91 19 85 20 87 21 38 22 90 23
REMARK SMILES IDX 84 24 83 25 39 27 71 28 51 29 70 30 52 31 55 32 69 33 88 34
REMARK SMILES IDX 53 35 54 36 68 38 89 39 56 40 40 41 41 42 49 43 42 44 43 45
REMARK SMILES IDX 47 46 50 47 44 48 45 49 48 50 46 51 72 52 73 53 81 54 74 55
REMARK SMILES IDX 75 56 79 57 82 58 76 59 77 60 80 61 78 62 57 63 58 64 66 65
REMARK SMILES IDX 59 66 60 67 64 68 67 69 61 70 62 71 65 72 63 73 8 74 9 75
REMARK SMILES IDX 10 76 11 77 12 79 13 80 14 81 29 82 15 83 28 84 27 85 30 86
REMARK SMILES IDX 16 88 17 89 18 90 19 91 20 93 21 94 26 95 22 96 24 97 23 98
REMARK SMILES IDX 25 99
REMARK H PARENT 3 8 87 26 55 37 10 78 30 87 19 92
REMARK Flexibility Score: inf
ROOT
ATOM      1  C   UNL A   1      32.754  30.198  27.162  1.00  0.00     0.002 C 
ENDROOT
BRANCH   1   2
ATOM      2  C   UNL A   1      31.511  30.789  26.488  1.00  0.00     0.002 C 
BRANCH   2   3
ATOM      3  C   UNL A   1      31.351  32.304  26.609  1.00  0.00     0.021 C 
BRANCH   3   4
ATOM      4  C   UNL A   1      32.630  33.061  26.933  1.00  0.00     0.116 C 
BRANCH   4   5
ATOM      5  N   UNL A   1      32.387  34.318  27.625  1.00  0.00    -0.352 N 
ATOM      6  O   UNL A   1      32.597  35.851  29.273  1.00  0.00    -0.269 OA
ATOM      7  C   UNL A   1      33.021  34.838  28.727  1.00  0.00     0.251 C 
ATOM      8  H   UNL A   1      31.665  34.873  27.252  1.00  0.00     0.163 HD
BRANCH   7   9
ATOM      9  C   UNL A   1      34.213  34.151  29.272  1.00  0.00     0.039 A 
ATOM     10  C   UNL A   1      34.067  33.128  30.211  1.00  0.00     0.014 A 
ATOM     11  C   UNL A   1      35.487  34.545  28.854  1.00  0.00     0.014 A 
ATOM     12  C   UNL A   1      35.188  32.620  30.852  1.00  0.00     0.010 A 
ATOM     13  C   UNL A   1      36.618  33.951  29.423  1.00  0.00     0.010 A 
ATOM     14  C   UNL A   1      36.478  33.006  30.450  1.00  0.00    -0.014 A 
BRANCH  14  15
ATOM     15  C   UNL A   1      37.648  32.337  31.077  1.00  0.00     0.031 A 
ATOM     16  C   UNL A   1      38.101  32.679  32.467  1.00  0.00     0.074 A 
ATOM     17  C   UNL A   1      38.269  31.362  30.382  1.00  0.00     0.049 A 
ATOM     18  N   UNL A   1      39.070  32.148  33.172  1.00  0.00    -0.248 NA
ATOM     19  C   UNL A   1      37.384  33.760  33.161  1.00  0.00     0.031 C 
ATOM     20  C   UNL A   1      37.929  30.960  29.014  1.00  0.00     0.029 A 
ATOM     21  N   UNL A   1      39.292  30.518  30.729  1.00  0.00    -0.354 N 
ATOM     22  C   UNL A   1      39.083  32.827  34.382  1.00  0.00     0.074 A 
ATOM     23  C   UNL A   1      38.050  33.838  34.305  1.00  0.00     0.031 C 
ATOM     24  C   UNL A   1      38.688  29.915  28.660  1.00  0.00     0.029 A 
ATOM     25  C   UNL A   1      39.618  29.621  29.742  1.00  0.00     0.049 A 
ATOM     26  H   UNL A   1      39.748  30.553  31.601  1.00  0.00     0.167 HD
ATOM     27  C   UNL A   1      39.873  32.612  35.463  1.00  0.00     0.037 A 
ATOM     28  C   UNL A   1      40.577  28.679  29.700  1.00  0.00     0.037 A 
ATOM     29  C   UNL A   1      40.905  31.606  35.528  1.00  0.00     0.049 A 
ATOM     30  C   UNL A   1      41.459  28.490  30.900  1.00  0.00     0.074 A 
ATOM     31  C   UNL A   1      41.757  31.309  36.577  1.00  0.00     0.029 A 
ATOM     32  N   UNL A   1      41.226  30.733  34.497  1.00  0.00    -0.354 N 
ATOM     33  N   UNL A   1      41.437  29.118  32.050  1.00  0.00    -0.248 NA
ATOM     34  C   UNL A   1      42.499  27.460  30.797  1.00  0.00     0.031 C 
ATOM     35  C   UNL A   1      42.624  30.290  36.167  1.00  0.00     0.029 A 
ATOM     36  C   UNL A   1      42.274  29.910  34.882  1.00  0.00     0.049 A 
ATOM     37  H   UNL A   1      40.777  30.703  33.622  1.00  0.00     0.167 HD
ATOM     38  C   UNL A   1      42.446  28.550  32.813  1.00  0.00     0.074 A 
ATOM     39  C   UNL A   1      43.038  27.504  32.007  1.00  0.00     0.031 C 
ATOM     40  C   UNL A   1      42.852  28.872  34.066  1.00  0.00     0.037 A 
BRANCH  27  41
ATOM     41  C   UNL A   1      39.663  33.485  36.669  1.00  0.00     0.064 A 
ATOM     42  C   UNL A   1      40.288  34.736  36.787  1.00  0.00     0.173 A 
ATOM     43  C   UNL A   1      38.779  33.099  37.689  1.00  0.00     0.173 A 
ATOM     44  F   UNL A   1      41.150  35.153  35.846  1.00  0.00    -0.203 F 
ATOM     45  C   UNL A   1      40.053  35.556  37.889  1.00  0.00     0.198 A 
ATOM     46  C   UNL A   1      38.524  33.933  38.774  1.00  0.00     0.198 A 
ATOM     47  F   UNL A   1      38.148  31.917  37.624  1.00  0.00    -0.203 F 
ATOM     48  F   UNL A   1      40.693  36.729  37.997  1.00  0.00    -0.200 F 
ATOM     49  C   UNL A   1      39.165  35.158  38.876  1.00  0.00     0.200 A 
ATOM     50  F   UNL A   1      37.652  33.554  39.719  1.00  0.00    -0.200 F 
ATOM     51  F   UNL A   1      38.929  35.954  39.928  1.00  0.00    -0.200 F 
ENDBRANCH  27  41
BRANCH  28  52
ATOM     52  C   UNL A   1      40.762  27.863  28.471  1.00  0.00     0.064 A 
ATOM     53  C   UNL A   1      41.560  28.314  27.410  1.00  0.00     0.173 A 
ATOM     54  C   UNL A   1      40.133  26.616  28.330  1.00  0.00     0.173 A 
ATOM     55  F   UNL A   1      42.170  29.505  27.490  1.00  0.00    -0.203 F 
ATOM     56  C   UNL A   1      41.696  27.563  26.245  1.00  0.00     0.198 A 
ATOM     57  C   UNL A   1      40.301  25.850  27.180  1.00  0.00     0.198 A 
ATOM     58  F   UNL A   1      39.367  26.135  29.319  1.00  0.00    -0.203 F 
ATOM     59  F   UNL A   1      42.417  28.044  25.222  1.00  0.00    -0.200 F 
ATOM     60  C   UNL A   1      41.073  26.329  26.133  1.00  0.00     0.200 A 
ATOM     61  F   UNL A   1      39.715  24.648  27.087  1.00  0.00    -0.200 F 
ATOM     62  F   UNL A   1      41.207  25.607  25.013  1.00  0.00    -0.200 F 
ENDBRANCH  28  52
BRANCH  40  63
ATOM     63  C   UNL A   1      43.971  28.054  34.647  1.00  0.00     0.064 A 
ATOM     64  C   UNL A   1      43.727  26.865  35.350  1.00  0.00     0.173 A 
ATOM     65  C   UNL A   1      45.304  28.466  34.494  1.00  0.00     0.173 A 
ATOM     66  F   UNL A   1      42.470  26.438  35.538  1.00  0.00    -0.203 F 
ATOM     67  C   UNL A   1      44.773  26.140  35.914  1.00  0.00     0.198 A 
ATOM     68  C   UNL A   1      46.349  27.720  35.029  1.00  0.00     0.198 A 
ATOM     69  F   UNL A   1      45.592  29.593  33.826  1.00  0.00    -0.203 F 
ATOM     70  F   UNL A   1      44.511  25.044  36.640  1.00  0.00    -0.200 F 
ATOM     71  C   UNL A   1      46.083  26.564  35.748  1.00  0.00     0.200 A 
ATOM     72  F   UNL A   1      47.615  28.124  34.856  1.00  0.00    -0.200 F 
ATOM     73  F   UNL A   1      47.089  25.866  36.293  1.00  0.00    -0.200 F 
ENDBRANCH  40  63
ENDBRANCH  14  15
ENDBRANCH   7   9
ENDBRANCH   4   5
ENDBRANCH   3   4
ENDBRANCH   2   3
ENDBRANCH   1   2
BRANCH   1  74
ATOM     74  C   UNL A   1      32.818  28.673  27.210  1.00  0.00     0.021 C 
BRANCH  74  75
ATOM     75  C   UNL A   1      33.869  28.042  26.308  1.00  0.00     0.116 C 
BRANCH  75  76
ATOM     76  N   UNL A   1      34.042  28.732  25.040  1.00  0.00    -0.352 N 
ATOM     77  C   UNL A   1      33.314  28.569  23.879  1.00  0.00     0.255 C 
ATOM     78  H   UNL A   1      34.769  29.395  25.004  1.00  0.00     0.163 HD
ATOM     79  O   UNL A   1      33.594  29.201  22.866  1.00  0.00    -0.269 OA
BRANCH  77  80
ATOM     80  C   UNL A   1      32.262  27.531  23.840  1.00  0.00     0.082 A 
ATOM     81  C   UNL A   1      32.663  26.191  23.906  1.00  0.00     0.040 A 
ATOM     82  C   UNL A   1      30.903  27.853  23.875  1.00  0.00     0.128 A 
ATOM     83  C   UNL A   1      31.715  25.201  24.194  1.00  0.00     0.088 A 
ATOM     84  C   UNL A   1      29.982  26.889  24.258  1.00  0.00     0.048 A 
ATOM     85  C   UNL A   1      30.413  25.585  24.508  1.00  0.00     0.026 A 
BRANCH  82  86
ATOM     86  O   UNL A   1      30.481  29.124  23.611  1.00  0.00    -0.507 OA
ATOM     87  H   UNL A   1      30.267  29.703  24.316  1.00  0.00     0.293 HD
ENDBRANCH  82  86
BRANCH  83  88
ATOM     88  S   UNL A   1      32.258  23.507  24.122  1.00  0.00     0.261 S 
ATOM     89  O   UNL A   1      32.288  23.025  25.486  1.00  0.00    -0.201 OA
ATOM     90  O   UNL A   1      31.423  22.864  23.126  1.00  0.00    -0.201 OA
BRANCH  88  91
ATOM     91  N   UNL A   1      33.842  23.327  23.537  1.00  0.00    -0.280 N 
ATOM     92  H   UNL A   1      33.995  23.406  22.568  1.00  0.00     0.180 HD
BRANCH  91  93
ATOM     93  C   UNL A   1      34.959  23.070  24.379  1.00  0.00     0.050 A 
ATOM     94  C   UNL A   1      35.560  24.089  25.120  1.00  0.00     0.027 A 
ATOM     95  C   UNL A   1      35.508  21.783  24.375  1.00  0.00     0.047 A 
ATOM     96  C   UNL A   1      36.764  23.840  25.788  1.00  0.00     0.004 A 
ATOM     97  C   UNL A   1      36.704  21.544  25.047  1.00  0.00     0.043 A 
ATOM     98  C   UNL A   1      37.345  22.570  25.737  1.00  0.00     0.020 A 
ATOM     99  Cl  UNL A   1      37.427  19.985  24.965  1.00  0.00    -0.084 Cl
ENDBRANCH  91  93
ENDBRANCH  88  91
ENDBRANCH  83  88
ENDBRANCH  77  80
ENDBRANCH  75  76
ENDBRANCH  74  75
ENDBRANCH   1  74
TORSDOF 17
ENDMDL
MODEL 2
REMARK VINA RESULT:     -11.8      5.248     10.615
REMARK SMILES O=C(NCCCCCCNC(=O)c1cc(S(=O)(=O)Nc2cccc(Cl)c2)ccc1O)c1ccc(-c2c3nc(c(-c4c(F)c(F)c(F)c(F)c4F)c4ccc([nH]4)c(-c4c(F)c(F)c(F)c(F)c4F)c4nc(c(-c5c(F)c(F)c(F)c(F)c5F)c5ccc2[nH]5)C=C4)C=C3)cc1
REMARK SMILES IDX 7 1 6 2 5 3 4 4 3 5 1 6 2 7 31 9 32 10 93 11 33 12 92 13
REMARK SMILES IDX 34 14 35 15 36 16 86 17 37 18 91 19 85 20 87 21 38 22 90 23
REMARK SMILES IDX 84 24 83 25 39 27 71 28 51 29 70 30 52 31 55 32 69 33 88 34
REMARK SMILES IDX 53 35 54 36 68 38 89 39 56 40 40 41 41 42 49 43 42 44 43 45
REMARK SMILES IDX 47 46 50 47 44 48 45 49 48 50 46 51 72 52 73 53 81 54 74 55
REMARK SMILES IDX 75 56 79 57 82 58 76 59 77 60 80 61 78 62 57 63 58 64 66 65
REMARK SMILES IDX 59 66 60 67 64 68 67 69 61 70 62 71 65 72 63 73 8 74 9 75
REMARK SMILES IDX 10 76 11 77 12 79 13 80 14 81 29 82 15 83 28 84 27 85 30 86
REMARK SMILES IDX 16 88 17 89 18 90 19 91 20 93 21 94 26 95 22 96 24 97 23 98
REMARK SMILES IDX 25 99
REMARK H PARENT 3 8 87 26 55 37 10 78 30 87 19 92
REMARK Flexibility Score: inf
ROOT
ATOM      1  C   UNL A   1      37.711  22.062  25.108  1.00  0.00     0.002 C 
ENDROOT
BRANCH   1   2
ATOM      2  C   UNL A   1      37.238  20.647  24.757  1.00  0.00     0.002 C 
BRANCH   2   3
ATOM      3  C   UNL A   1      38.253  19.531  25.002  1.00  0.00     0.021 C 
BRANCH   3   4
ATOM      4  C   UNL A   1      39.393  19.894  25.942  1.00  0.00     0.116 C 
BRANCH   4   5
ATOM      5  N   UNL A   1      40.483  18.932  25.911  1.00  0.00    -0.352 N 
ATOM      6  O   UNL A   1      42.635  18.239  25.872  1.00  0.00    -0.269 OA
ATOM      7  C   UNL A   1      41.832  19.145  26.069  1.00  0.00     0.251 C 
ATOM      8  H   UNL A   1      40.219  17.998  25.754  1.00  0.00     0.163 HD
BRANCH   7   9
ATOM      9  C   UNL A   1      42.316  20.488  26.455  1.00  0.00     0.039 A 
ATOM     10  C   UNL A   1      42.329  20.872  27.798  1.00  0.00     0.014 A 
ATOM     11  C   UNL A   1      42.745  21.378  25.466  1.00  0.00     0.014 A 
ATOM     12  C   UNL A   1      42.606  22.190  28.132  1.00  0.00     0.010 A 
ATOM     13  C   UNL A   1      43.130  22.675  25.819  1.00  0.00     0.010 A 
ATOM     14  C   UNL A   1      43.034  23.102  27.152  1.00  0.00    -0.014 A 
BRANCH  14  15
ATOM     15  C   UNL A   1      43.444  24.465  27.579  1.00  0.00     0.031 A 
ATOM     16  C   UNL A   1      44.886  24.882  27.608  1.00  0.00     0.074 A 
ATOM     17  C   UNL A   1      42.475  25.350  27.891  1.00  0.00     0.049 A 
ATOM     18  N   UNL A   1      45.399  26.051  27.907  1.00  0.00    -0.248 NA
ATOM     19  C   UNL A   1      45.888  23.862  27.267  1.00  0.00     0.031 C 
ATOM     20  C   UNL A   1      41.041  25.049  27.918  1.00  0.00     0.029 A 
ATOM     21  N   UNL A   1      42.540  26.679  28.218  1.00  0.00    -0.354 N 
ATOM     22  C   UNL A   1      46.775  25.907  27.793  1.00  0.00     0.074 A 
ATOM     23  C   UNL A   1      47.023  24.526  27.438  1.00  0.00     0.031 C 
ATOM     24  C   UNL A   1      40.360  26.170  28.189  1.00  0.00     0.029 A 
ATOM     25  C   UNL A   1      41.309  27.250  28.429  1.00  0.00     0.049 A 
ATOM     26  H   UNL A   1      43.386  27.176  28.295  1.00  0.00     0.167 HD
ATOM     27  C   UNL A   1      47.739  26.847  27.956  1.00  0.00     0.037 A 
ATOM     28  C   UNL A   1      40.976  28.500  28.798  1.00  0.00     0.037 A 
ATOM     29  C   UNL A   1      47.482  28.220  28.317  1.00  0.00     0.049 A 
ATOM     30  C   UNL A   1      42.069  29.508  29.004  1.00  0.00     0.074 A 
ATOM     31  C   UNL A   1      48.389  29.249  28.503  1.00  0.00     0.029 A 
ATOM     32  N   UNL A   1      46.223  28.755  28.550  1.00  0.00    -0.354 N 
ATOM     33  N   UNL A   1      43.364  29.365  28.861  1.00  0.00    -0.248 NA
ATOM     34  C   UNL A   1      41.654  30.852  29.421  1.00  0.00     0.031 C 
ATOM     35  C   UNL A   1      47.685  30.392  28.895  1.00  0.00     0.029 A 
ATOM     36  C   UNL A   1      46.333  30.094  28.894  1.00  0.00     0.049 A 
ATOM     37  H   UNL A   1      45.376  28.258  28.482  1.00  0.00     0.167 HD
ATOM     38  C   UNL A   1      43.917  30.602  29.154  1.00  0.00     0.074 A 
ATOM     39  C   UNL A   1      42.814  31.492  29.450  1.00  0.00     0.031 C 
ATOM     40  C   UNL A   1      45.223  30.967  29.185  1.00  0.00     0.037 A 
BRANCH  27  41
ATOM     41  C   UNL A   1      49.168  26.428  27.751  1.00  0.00     0.064 A 
ATOM     42  C   UNL A   1      49.717  26.295  26.466  1.00  0.00     0.173 A 
ATOM     43  C   UNL A   1      50.018  26.219  28.849  1.00  0.00     0.173 A 
ATOM     44  F   UNL A   1      48.948  26.474  25.381  1.00  0.00    -0.203 F 
ATOM     45  C   UNL A   1      51.054  25.948  26.288  1.00  0.00     0.198 A 
ATOM     46  C   UNL A   1      51.362  25.901  28.668  1.00  0.00     0.198 A 
ATOM     47  F   UNL A   1      49.550  26.340  30.100  1.00  0.00    -0.203 F 
ATOM     48  F   UNL A   1      51.544  25.788  25.051  1.00  0.00    -0.200 F 
ATOM     49  C   UNL A   1      51.878  25.760  27.388  1.00  0.00     0.200 A 
ATOM     50  F   UNL A   1      52.160  25.736  29.731  1.00  0.00    -0.200 F 
ATOM     51  F   UNL A   1      53.168  25.441  27.215  1.00  0.00    -0.200 F 
ENDBRANCH  27  41
BRANCH  28  52
ATOM     52  C   UNL A   1      39.548  28.854  29.016  1.00  0.00     0.064 A 
ATOM     53  C   UNL A   1      38.761  29.377  27.982  1.00  0.00     0.173 A 
ATOM     54  C   UNL A   1      38.946  28.684  30.272  1.00  0.00     0.173 A 
ATOM     55  F   UNL A   1      39.294  29.572  26.767  1.00  0.00    -0.203 F 
ATOM     56  C   UNL A   1      37.436  29.744  28.203  1.00  0.00     0.198 A 
ATOM     57  C   UNL A   1      37.611  29.016  30.483  1.00  0.00     0.198 A 
ATOM     58  F   UNL A   1      39.653  28.179  31.294  1.00  0.00    -0.203 F 
ATOM     59  F   UNL A   1      36.722  30.296  27.213  1.00  0.00    -0.200 F 
ATOM     60  C   UNL A   1      36.860  29.557  29.451  1.00  0.00     0.200 A 
ATOM     61  F   UNL A   1      37.053  28.812  31.684  1.00  0.00    -0.200 F 
ATOM     62  F   UNL A   1      35.584  29.908  29.662  1.00  0.00    -0.200 F 
ENDBRANCH  28  52
BRANCH  40  63
ATOM     63  C   UNL A   1      45.518  32.402  29.520  1.00  0.00     0.064 A 
ATOM     64  C   UNL A   1      45.567  33.395  28.530  1.00  0.00     0.173 A 
ATOM     65  C   UNL A   1      45.751  32.787  30.849  1.00  0.00     0.173 A 
ATOM     66  F   UNL A   1      45.370  33.075  27.242  1.00  0.00    -0.203 F 
ATOM     67  C   UNL A   1      45.880  34.712  28.853  1.00  0.00     0.198 A 
ATOM     68  C   UNL A   1      46.028  34.112  31.172  1.00  0.00     0.198 A 
ATOM     69  F   UNL A   1      45.709  31.878  31.834  1.00  0.00    -0.203 F 
ATOM     70  F   UNL A   1      45.989  35.630  27.882  1.00  0.00    -0.200 F 
ATOM     71  C   UNL A   1      46.104  35.071  30.174  1.00  0.00     0.200 A 
ATOM     72  F   UNL A   1      46.230  34.459  32.450  1.00  0.00    -0.200 F 
ATOM     73  F   UNL A   1      46.406  36.339  30.483  1.00  0.00    -0.200 F 
ENDBRANCH  40  63
ENDBRANCH  14  15
ENDBRANCH   7   9
ENDBRANCH   4   5
ENDBRANCH   3   4
ENDBRANCH   2   3
ENDBRANCH   1   2
BRANCH   1  74
ATOM     74  C   UNL A   1      36.771  23.193  24.699  1.00  0.00     0.021 C 
BRANCH  74  75
ATOM     75  C   UNL A   1      36.051  23.883  25.849  1.00  0.00     0.116 C 
BRANCH  75  76
ATOM     76  N   UNL A   1      35.473  22.961  26.814  1.00  0.00    -0.352 N 
ATOM     77  C   UNL A   1      34.291  22.257  26.713  1.00  0.00     0.255 C 
ATOM     78  H   UNL A   1      35.987  22.823  27.643  1.00  0.00     0.163 HD
ATOM     79  O   UNL A   1      33.908  21.533  27.626  1.00  0.00    -0.269 OA
BRANCH  77  80
ATOM     80  C   UNL A   1      33.430  22.481  25.531  1.00  0.00     0.082 A 
ATOM     81  C   UNL A   1      32.837  23.741  25.383  1.00  0.00     0.040 A 
ATOM     82  C   UNL A   1      33.307  21.531  24.515  1.00  0.00     0.128 A 
ATOM     83  C   UNL A   1      32.289  24.104  24.148  1.00  0.00     0.088 A 
ATOM     84  C   UNL A   1      32.856  21.924  23.263  1.00  0.00     0.048 A 
ATOM     85  C   UNL A   1      32.437  23.240  23.064  1.00  0.00     0.026 A 
BRANCH  82  86
ATOM     86  O   UNL A   1      33.699  20.239  24.717  1.00  0.00    -0.507 OA
ATOM     87  H   UNL A   1      33.169  19.663  25.231  1.00  0.00     0.293 HD
ENDBRANCH  82  86
BRANCH  83  88
ATOM     88  S   UNL A   1      31.424  25.658  24.063  1.00  0.00     0.261 S 
ATOM     89  O   UNL A   1      32.228  26.534  23.239  1.00  0.00    -0.201 OA
ATOM     90  O   UNL A   1      30.060  25.335  23.693  1.00  0.00    -0.201 OA
BRANCH  88  91
ATOM     91  N   UNL A   1      31.288  26.439  25.565  1.00  0.00    -0.280 N 
ATOM     92  H   UNL A   1      30.637  26.092  26.216  1.00  0.00     0.180 HD
BRANCH  91  93
ATOM     93  C   UNL A   1      32.069  27.570  25.928  1.00  0.00     0.050 A 
ATOM     94  C   UNL A   1      33.355  27.426  26.454  1.00  0.00     0.027 A 
ATOM     95  C   UNL A   1      31.482  28.837  25.840  1.00  0.00     0.047 A 
ATOM     96  C   UNL A   1      34.019  28.543  26.972  1.00  0.00     0.004 A 
ATOM     97  C   UNL A   1      32.154  29.944  26.354  1.00  0.00     0.043 A 
ATOM     98  C   UNL A   1      33.410  29.800  26.937  1.00  0.00     0.020 A 
ATOM     99  Cl  UNL A   1      31.391  31.486  26.328  1.00  0.00    -0.084 Cl
ENDBRANCH  91  93
ENDBRANCH  88  91
ENDBRANCH  83  88
ENDBRANCH  77  80
ENDBRANCH  75  76
ENDBRANCH  74  75
ENDBRANCH   1  74
TORSDOF 17
ENDMDL
MODEL 3
REMARK VINA RESULT:     -11.8      5.410     10.951
REMARK SMILES O=C(NCCCCCCNC(=O)c1cc(S(=O)(=O)Nc2cccc(Cl)c2)ccc1O)c1ccc(-c2c3nc(c(-c4c(F)c(F)c(F)c(F)c4F)c4ccc([nH]4)c(-c4c(F)c(F)c(F)c(F)c4F)c4nc(c(-c5c(F)c(F)c(F)c(F)c5F)c5ccc2[nH]5)C=C4)C=C3)cc1
REMARK SMILES IDX 7 1 6 2 5 3 4 4 3 5 1 6 2 7 31 9 32 10 93 11 33 12 92 13
REMARK SMILES IDX 34 14 35 15 36 16 86 17 37 18 91 19 85 20 87 21 38 22 90 23
REMARK SMILES IDX 84 24 83 25 39 27 71 28 51 29 70 30 52 31 55 32 69 33 88 34
REMARK SMILES IDX 53 35 54 36 68 38 89 39 56 40 40 41 41 42 49 43 42 44 43 45
REMARK SMILES IDX 47 46 50 47 44 48 45 49 48 50 46 51 72 52 73 53 81 54 74 55
REMARK SMILES IDX 75 56 79 57 82 58 76 59 77 60 80 61 78 62 57 63 58 64 66 65
REMARK SMILES IDX 59 66 60 67 64 68 67 69 61 70 62 71 65 72 63 73 8 74 9 75
REMARK SMILES IDX 10 76 11 77 12 79 13 80 14 81 29 82 15 83 28 84 27 85 30 86
REMARK SMILES IDX 16 88 17 89 18 90 19 91 20 93 21 94 26 95 22 96 24 97 23 98
REMARK SMILES IDX 25 99
REMARK H PARENT 3 8 87 26 55 37 10 78 30 87 19 92
REMARK Flexibility Score: inf
ROOT
ATOM      1  C   UNL A   1      36.761  21.724  25.751  1.00  0.00     0.002 C 
ENDROOT
BRANCH   1   2
ATOM      2  C   UNL A   1      37.050  20.694  24.654  1.00  0.00     0.002 C 
BRANCH   2   3
ATOM      3  C   UNL A   1      38.057  19.605  25.020  1.00  0.00     0.021 C 
BRANCH   3   4
ATOM      4  C   UNL A   1      39.265  20.085  25.810  1.00  0.00     0.116 C 
BRANCH   4   5
ATOM      5  N   UNL A   1      40.327  19.094  25.884  1.00  0.00    -0.352 N 
ATOM      6  O   UNL A   1      42.457  18.340  25.979  1.00  0.00    -0.269 OA
ATOM      7  C   UNL A   1      41.674  19.278  26.086  1.00  0.00     0.251 C 
ATOM      8  H   UNL A   1      40.041  18.159  25.773  1.00  0.00     0.163 HD
BRANCH   7   9
ATOM      9  C   UNL A   1      42.182  20.629  26.409  1.00  0.00     0.039 A 
ATOM     10  C   UNL A   1      42.213  21.071  27.733  1.00  0.00     0.014 A 
ATOM     11  C   UNL A   1      42.615  21.468  25.378  1.00  0.00     0.014 A 
ATOM     12  C   UNL A   1      42.513  22.398  28.007  1.00  0.00     0.010 A 
ATOM     13  C   UNL A   1      43.024  22.773  25.671  1.00  0.00     0.010 A 
ATOM     14  C   UNL A   1      42.946  23.260  26.984  1.00  0.00    -0.014 A 
BRANCH  14  15
ATOM     15  C   UNL A   1      43.381  24.633  27.348  1.00  0.00     0.031 A 
ATOM     16  C   UNL A   1      44.781  25.112  27.090  1.00  0.00     0.074 A 
ATOM     17  C   UNL A   1      42.463  25.471  27.871  1.00  0.00     0.049 A 
ATOM     18  N   UNL A   1      45.297  26.298  27.303  1.00  0.00    -0.248 NA
ATOM     19  C   UNL A   1      45.731  24.140  26.529  1.00  0.00     0.031 C 
ATOM     20  C   UNL A   1      41.078  25.108  28.184  1.00  0.00     0.029 A 
ATOM     21  N   UNL A   1      42.541  26.798  28.207  1.00  0.00    -0.354 N 
ATOM     22  C   UNL A   1      46.625  26.215  26.907  1.00  0.00     0.074 A 
ATOM     23  C   UNL A   1      46.850  24.851  26.478  1.00  0.00     0.031 C 
ATOM     24  C   UNL A   1      40.423  26.195  28.613  1.00  0.00     0.029 A 
ATOM     25  C   UNL A   1      41.357  27.312  28.677  1.00  0.00     0.049 A 
ATOM     26  H   UNL A   1      43.364  27.330  28.119  1.00  0.00     0.167 HD
ATOM     27  C   UNL A   1      47.564  27.194  26.889  1.00  0.00     0.037 A 
ATOM     28  C   UNL A   1      41.058  28.541  29.134  1.00  0.00     0.037 A 
ATOM     29  C   UNL A   1      47.333  28.549  27.325  1.00  0.00     0.049 A 
ATOM     30  C   UNL A   1      42.130  29.593  29.134  1.00  0.00     0.074 A 
ATOM     31  C   UNL A   1      48.217  29.614  27.344  1.00  0.00     0.029 A 
ATOM     32  N   UNL A   1      46.128  29.026  27.822  1.00  0.00    -0.354 N 
ATOM     33  N   UNL A   1      43.373  29.508  28.725  1.00  0.00    -0.248 NA
ATOM     34  C   UNL A   1      41.757  30.913  29.656  1.00  0.00     0.031 C 
ATOM     35  C   UNL A   1      47.564  30.721  27.896  1.00  0.00     0.029 A 
ATOM     36  C   UNL A   1      46.253  30.364  28.166  1.00  0.00     0.049 A 
ATOM     37  H   UNL A   1      45.306  28.494  27.918  1.00  0.00     0.167 HD
ATOM     38  C   UNL A   1      43.925  30.764  28.926  1.00  0.00     0.074 A 
ATOM     39  C   UNL A   1      42.871  31.601  29.460  1.00  0.00     0.031 C 
ATOM     40  C   UNL A   1      45.193  31.184  28.697  1.00  0.00     0.037 A 
BRANCH  27  41
ATOM     41  C   UNL A   1      48.936  26.839  26.387  1.00  0.00     0.064 A 
ATOM     42  C   UNL A   1      49.899  26.260  27.228  1.00  0.00     0.173 A 
ATOM     43  C   UNL A   1      49.274  27.020  25.036  1.00  0.00     0.173 A 
ATOM     44  F   UNL A   1      49.633  26.073  28.530  1.00  0.00    -0.203 F 
ATOM     45  C   UNL A   1      51.152  25.896  26.742  1.00  0.00     0.198 A 
ATOM     46  C   UNL A   1      50.517  26.628  24.547  1.00  0.00     0.198 A 
ATOM     47  F   UNL A   1      48.390  27.562  24.185  1.00  0.00    -0.203 F 
ATOM     48  F   UNL A   1      52.068  25.381  27.575  1.00  0.00    -0.200 F 
ATOM     49  C   UNL A   1      51.458  26.071  25.401  1.00  0.00     0.200 A 
ATOM     50  F   UNL A   1      50.805  26.783  23.247  1.00  0.00    -0.200 F 
ATOM     51  F   UNL A   1      52.659  25.707  24.932  1.00  0.00    -0.200 F 
ENDBRANCH  27  41
BRANCH  28  52
ATOM     52  C   UNL A   1      39.693  28.831  29.648  1.00  0.00     0.064 A 
ATOM     53  C   UNL A   1      39.347  28.572  30.981  1.00  0.00     0.173 A 
ATOM     54  C   UNL A   1      38.704  29.364  28.808  1.00  0.00     0.173 A 
ATOM     55  F   UNL A   1      40.253  28.048  31.819  1.00  0.00    -0.203 F 
ATOM     56  C   UNL A   1      38.055  28.807  31.446  1.00  0.00     0.198 A 
ATOM     57  C   UNL A   1      37.424  29.635  29.284  1.00  0.00     0.198 A 
ATOM     58  F   UNL A   1      38.986  29.638  27.527  1.00  0.00    -0.203 F 
ATOM     59  F   UNL A   1      37.734  28.496  32.709  1.00  0.00    -0.200 F 
ATOM     60  C   UNL A   1      37.097  29.344  30.599  1.00  0.00     0.200 A 
ATOM     61  F   UNL A   1      36.508  30.174  28.468  1.00  0.00    -0.200 F 
ATOM     62  F   UNL A   1      35.855  29.573  31.048  1.00  0.00    -0.200 F 
ENDBRANCH  28  52
BRANCH  40  63
ATOM     63  C   UNL A   1      45.494  32.626  28.995  1.00  0.00     0.064 A 
ATOM     64  C   UNL A   1      45.964  33.037  30.251  1.00  0.00     0.173 A 
ATOM     65  C   UNL A   1      45.311  33.608  28.009  1.00  0.00     0.173 A 
ATOM     66  F   UNL A   1      46.137  32.140  31.234  1.00  0.00    -0.203 F 
ATOM     67  C   UNL A   1      46.200  34.382  30.522  1.00  0.00     0.198 A 
ATOM     68  C   UNL A   1      45.583  34.947  28.272  1.00  0.00     0.198 A 
ATOM     69  F   UNL A   1      44.869  33.267  26.789  1.00  0.00    -0.203 F 
ATOM     70  F   UNL A   1      46.583  34.759  31.750  1.00  0.00    -0.200 F 
ATOM     71  C   UNL A   1      46.016  35.334  29.531  1.00  0.00     0.200 A 
ATOM     72  F   UNL A   1      45.417  35.864  27.310  1.00  0.00    -0.200 F 
ATOM     73  F   UNL A   1      46.243  36.629  29.794  1.00  0.00    -0.200 F 
ENDBRANCH  40  63
ENDBRANCH  14  15
ENDBRANCH   7   9
ENDBRANCH   4   5
ENDBRANCH   3   4
ENDBRANCH   2   3
ENDBRANCH   1   2
BRANCH   1  74
ATOM     74  C   UNL A   1      35.315  21.783  26.238  1.00  0.00     0.021 C 
BRANCH  74  75
ATOM     75  C   UNL A   1      34.819  23.169  26.624  1.00  0.00     0.116 C 
BRANCH  75  76
ATOM     76  N   UNL A   1      33.529  23.164  27.295  1.00  0.00    -0.352 N 
ATOM     77  C   UNL A   1      32.277  23.049  26.727  1.00  0.00     0.255 C 
ATOM     78  H   UNL A   1      33.551  23.256  28.275  1.00  0.00     0.163 HD
ATOM     79  O   UNL A   1      31.265  23.092  27.418  1.00  0.00    -0.269 OA
BRANCH  77  80
ATOM     80  C   UNL A   1      32.169  22.991  25.253  1.00  0.00     0.082 A 
ATOM     81  C   UNL A   1      32.325  24.185  24.538  1.00  0.00     0.040 A 
ATOM     82  C   UNL A   1      32.053  21.780  24.567  1.00  0.00     0.128 A 
ATOM     83  C   UNL A   1      32.550  24.137  23.157  1.00  0.00     0.088 A 
ATOM     84  C   UNL A   1      32.375  21.723  23.218  1.00  0.00     0.048 A 
ATOM     85  C   UNL A   1      32.715  22.897  22.543  1.00  0.00     0.026 A 
BRANCH  82  86
ATOM     86  O   UNL A   1      31.701  20.637  25.225  1.00  0.00    -0.507 OA
ATOM     87  H   UNL A   1      32.102  19.821  24.997  1.00  0.00     0.293 HD
ENDBRANCH  82  86
BRANCH  83  88
ATOM     88  S   UNL A   1      32.597  25.687  22.284  1.00  0.00     0.261 S 
ATOM     89  O   UNL A   1      33.977  25.914  21.916  1.00  0.00    -0.201 OA
ATOM     90  O   UNL A   1      31.562  25.604  21.271  1.00  0.00    -0.201 OA
BRANCH  88  91
ATOM     91  N   UNL A   1      32.153  27.018  23.242  1.00  0.00    -0.280 N 
ATOM     92  H   UNL A   1      32.837  27.430  23.816  1.00  0.00     0.180 HD
BRANCH  91  93
ATOM     93  C   UNL A   1      30.841  27.565  23.255  1.00  0.00     0.050 A 
ATOM     94  C   UNL A   1      29.772  26.878  23.835  1.00  0.00     0.027 A 
ATOM     95  C   UNL A   1      30.620  28.772  22.582  1.00  0.00     0.047 A 
ATOM     96  C   UNL A   1      28.469  27.357  23.665  1.00  0.00     0.004 A 
ATOM     97  C   UNL A   1      29.319  29.243  22.423  1.00  0.00     0.043 A 
ATOM     98  C   UNL A   1      28.241  28.531  22.944  1.00  0.00     0.020 A 
ATOM     99  Cl  UNL A   1      29.041  30.679  21.516  1.00  0.00    -0.084 Cl
ENDBRANCH  91  93
ENDBRANCH  88  91
ENDBRANCH  83  88
ENDBRANCH  77  80
ENDBRANCH  75  76
ENDBRANCH  74  75
ENDBRANCH   1  74
TORSDOF 17
ENDMDL
