MODEL 1
REMARK VINA RESULT:     -13.0      0.000      0.000
REMARK SMILES O=C(NCCCCCCNC(=O)c1cc(Br)ccc1N1CC2(CCCCC2)C1)c1ccc(-c2c3nc(c(-c4c(F)c(F)c(F)c(F)c4F)c4ccc([nH]4)c(-c4c(F)c(F)c(F)c(F)c4F)c4nc(c(-c5c(F)c(F)c(F)c(F)c5F)c5ccc2[nH]5)C=C4)C=C3)cc1
REMARK SMILES IDX 6 1 5 2 4 3 3 4 1 5 2 6 29 8 30 9 91 10 31 11 90 12 32 13
REMARK SMILES IDX 33 14 34 15 84 16 35 17 89 18 83 19 85 20 36 21 88 22 82 23
REMARK SMILES IDX 81 24 37 26 69 27 49 28 68 29 50 30 53 31 67 32 86 33 51 34
REMARK SMILES IDX 52 35 66 37 87 38 54 39 38 40 39 41 47 42 40 43 41 44 45 45
REMARK SMILES IDX 48 46 42 47 43 48 46 49 44 50 70 51 71 52 79 53 72 54 73 55
REMARK SMILES IDX 77 56 80 57 74 58 75 59 78 60 76 61 55 62 56 63 64 64 57 65
REMARK SMILES IDX 58 66 62 67 65 68 59 69 60 70 63 71 61 72 7 73 8 74 9 75
REMARK SMILES IDX 10 76 11 77 12 79 13 80 14 81 19 82 15 83 18 84 16 85 17 86
REMARK SMILES IDX 20 87 21 88 28 89 22 90 23 91 27 92 24 93 26 94 25 95
REMARK H PARENT 3 7 85 25 53 36 10 78
REMARK Flexibility Score: inf
ROOT
ATOM      1  C   UNL A   1      31.602  30.705  26.615  1.00  0.00     0.002 C 
ENDROOT
BRANCH   1   2
ATOM      2  C   UNL A   1      31.448  32.220  26.726  1.00  0.00     0.021 C 
BRANCH   2   3
ATOM      3  C   UNL A   1      32.690  32.980  27.168  1.00  0.00     0.116 C 
BRANCH   3   4
ATOM      4  N   UNL A   1      32.403  34.298  27.706  1.00  0.00    -0.352 N 
ATOM      5  O   UNL A   1      32.592  36.039  29.135  1.00  0.00    -0.269 OA
ATOM      6  C   UNL A   1      33.030  34.963  28.732  1.00  0.00     0.251 C 
ATOM      7  H   UNL A   1      31.658  34.780  27.279  1.00  0.00     0.163 HD
BRANCH   6   8
ATOM      8  C   UNL A   1      34.221  34.367  29.381  1.00  0.00     0.039 A 
ATOM      9  C   UNL A   1      35.504  34.613  28.886  1.00  0.00     0.014 A 
ATOM     10  C   UNL A   1      34.052  33.549  30.503  1.00  0.00     0.014 A 
ATOM     11  C   UNL A   1      36.594  33.938  29.422  1.00  0.00     0.010 A 
ATOM     12  C   UNL A   1      35.160  32.933  31.094  1.00  0.00     0.010 A 
ATOM     13  C   UNL A   1      36.438  33.099  30.540  1.00  0.00    -0.014 A 
BRANCH  13  14
ATOM     14  C   UNL A   1      37.645  32.479  31.142  1.00  0.00     0.031 A 
ATOM     15  C   UNL A   1      38.101  32.829  32.530  1.00  0.00     0.074 A 
ATOM     16  C   UNL A   1      38.298  31.538  30.433  1.00  0.00     0.049 A 
ATOM     17  N   UNL A   1      39.087  32.319  33.225  1.00  0.00    -0.248 NA
ATOM     18  C   UNL A   1      37.365  33.893  33.230  1.00  0.00     0.031 C 
ATOM     19  C   UNL A   1      37.963  31.136  29.065  1.00  0.00     0.029 A 
ATOM     20  N   UNL A   1      39.352  30.728  30.768  1.00  0.00    -0.354 N 
ATOM     21  C   UNL A   1      39.098  33.001  34.433  1.00  0.00     0.074 A 
ATOM     22  C   UNL A   1      38.034  33.982  34.372  1.00  0.00     0.031 C 
ATOM     23  C   UNL A   1      38.755  30.119  28.699  1.00  0.00     0.029 A 
ATOM     24  C   UNL A   1      39.685  29.829  29.785  1.00  0.00     0.049 A 
ATOM     25  H   UNL A   1      39.826  30.786  31.629  1.00  0.00     0.167 HD
ATOM     26  C   UNL A   1      39.916  32.817  35.499  1.00  0.00     0.037 A 
ATOM     27  C   UNL A   1      40.633  28.875  29.759  1.00  0.00     0.037 A 
ATOM     28  C   UNL A   1      40.966  31.833  35.561  1.00  0.00     0.049 A 
ATOM     29  C   UNL A   1      41.507  28.682  30.962  1.00  0.00     0.074 A 
ATOM     30  C   UNL A   1      41.841  31.566  36.602  1.00  0.00     0.029 A 
ATOM     31  N   UNL A   1      41.281  30.949  34.541  1.00  0.00    -0.354 N 
ATOM     32  N   UNL A   1      41.491  29.322  32.105  1.00  0.00    -0.248 NA
ATOM     33  C   UNL A   1      42.533  27.635  30.872  1.00  0.00     0.031 C 
ATOM     34  C   UNL A   1      42.703  30.540  36.199  1.00  0.00     0.029 A 
ATOM     35  C   UNL A   1      42.343  30.142  34.923  1.00  0.00     0.049 A 
ATOM     36  H   UNL A   1      40.820  30.901  33.672  1.00  0.00     0.167 HD
ATOM     37  C   UNL A   1      42.503  28.761  32.869  1.00  0.00     0.074 A 
ATOM     38  C   UNL A   1      43.088  27.702  32.073  1.00  0.00     0.031 C 
ATOM     39  C   UNL A   1      42.920  29.103  34.111  1.00  0.00     0.037 A 
BRANCH  26  40
ATOM     40  C   UNL A   1      39.715  33.702  36.694  1.00  0.00     0.064 A 
ATOM     41  C   UNL A   1      40.303  34.972  36.771  1.00  0.00     0.173 A 
ATOM     42  C   UNL A   1      38.866  33.307  37.740  1.00  0.00     0.173 A 
ATOM     43  F   UNL A   1      41.130  35.392  35.801  1.00  0.00    -0.203 F 
ATOM     44  C   UNL A   1      40.059  35.811  37.856  1.00  0.00     0.198 A 
ATOM     45  C   UNL A   1      38.608  34.155  38.813  1.00  0.00     0.198 A 
ATOM     46  F   UNL A   1      38.274  32.103  37.711  1.00  0.00    -0.203 F 
ATOM     47  F   UNL A   1      40.652  37.011  37.921  1.00  0.00    -0.200 F 
ATOM     48  C   UNL A   1      39.205  35.405  38.872  1.00  0.00     0.200 A 
ATOM     49  F   UNL A   1      37.774  33.766  39.788  1.00  0.00    -0.200 F 
ATOM     50  F   UNL A   1      38.960  36.219  39.908  1.00  0.00    -0.200 F 
ENDBRANCH  26  40
BRANCH  27  51
ATOM     51  C   UNL A   1      40.793  28.031  28.548  1.00  0.00     0.064 A 
ATOM     52  C   UNL A   1      41.603  28.443  27.482  1.00  0.00     0.173 A 
ATOM     53  C   UNL A   1      40.151  26.788  28.442  1.00  0.00     0.173 A 
ATOM     54  F   UNL A   1      42.222  29.631  27.531  1.00  0.00    -0.203 F 
ATOM     55  C   UNL A   1      41.753  27.649  26.347  1.00  0.00     0.198 A 
ATOM     56  C   UNL A   1      40.325  25.983  27.321  1.00  0.00     0.198 A 
ATOM     57  F   UNL A   1      39.371  26.349  29.440  1.00  0.00    -0.203 F 
ATOM     58  F   UNL A   1      42.504  28.081  25.325  1.00  0.00    -0.200 F 
ATOM     59  C   UNL A   1      41.120  26.417  26.271  1.00  0.00     0.200 A 
ATOM     60  F   UNL A   1      39.725  24.786  27.258  1.00  0.00    -0.200 F 
ATOM     61  F   UNL A   1      41.273  25.649  25.183  1.00  0.00    -0.200 F 
ENDBRANCH  27  51
BRANCH  39  62
ATOM     62  C   UNL A   1      44.068  28.321  34.674  1.00  0.00     0.064 A 
ATOM     63  C   UNL A   1      45.393  28.747  34.499  1.00  0.00     0.173 A 
ATOM     64  C   UNL A   1      43.844  27.139  35.395  1.00  0.00     0.173 A 
ATOM     65  F   UNL A   1      45.655  29.862  33.800  1.00  0.00    -0.203 F 
ATOM     66  C   UNL A   1      46.456  28.002  35.001  1.00  0.00     0.198 A 
ATOM     67  C   UNL A   1      44.908  26.409  35.916  1.00  0.00     0.198 A 
ATOM     68  F   UNL A   1      42.594  26.693  35.591  1.00  0.00    -0.203 F 
ATOM     69  F   UNL A   1      47.715  28.400  34.778  1.00  0.00    -0.200 F 
ATOM     70  C   UNL A   1      46.212  26.835  35.712  1.00  0.00     0.200 A 
ATOM     71  F   UNL A   1      44.673  25.285  36.608  1.00  0.00    -0.200 F 
ATOM     72  F   UNL A   1      47.237  26.116  36.189  1.00  0.00    -0.200 F 
ENDBRANCH  39  62
ENDBRANCH  13  14
ENDBRANCH   6   8
ENDBRANCH   3   4
ENDBRANCH   2   3
ENDBRANCH   1   2
BRANCH   1  73
ATOM     73  C   UNL A   1      33.024  30.152  26.751  1.00  0.00     0.002 C 
BRANCH  73  74
ATOM     74  C   UNL A   1      33.175  28.783  27.424  1.00  0.00     0.021 C 
BRANCH  74  75
ATOM     75  C   UNL A   1      32.898  27.564  26.549  1.00  0.00     0.116 C 
BRANCH  75  76
ATOM     76  N   UNL A   1      31.610  26.956  26.819  1.00  0.00    -0.352 N 
ATOM     77  C   UNL A   1      30.822  26.198  25.994  1.00  0.00     0.253 C 
ATOM     78  H   UNL A   1      31.252  27.111  27.722  1.00  0.00     0.163 HD
ATOM     79  O   UNL A   1      29.785  25.701  26.429  1.00  0.00    -0.269 OA
BRANCH  77  80
ATOM     80  C   UNL A   1      31.251  25.933  24.608  1.00  0.00     0.064 A 
ATOM     81  C   UNL A   1      31.854  24.682  24.378  1.00  0.00     0.031 A 
ATOM     82  C   UNL A   1      30.948  26.800  23.543  1.00  0.00     0.050 A 
ATOM     83  C   UNL A   1      32.207  24.308  23.087  1.00  0.00     0.018 A 
ATOM     84  C   UNL A   1      31.297  26.375  22.246  1.00  0.00     0.028 A 
ATOM     85  Br  UNL A   1      33.052  22.646  22.788  1.00  0.00    -0.051 Br
ATOM     86  C   UNL A   1      31.934  25.151  22.017  1.00  0.00     0.018 A 
BRANCH  82  87
ATOM     87  N   UNL A   1      30.328  28.054  23.664  1.00  0.00    -0.370 N 
ATOM     88  C   UNL A   1      29.007  28.532  23.428  1.00  0.00     0.125 C 
ATOM     89  C   UNL A   1      30.951  29.339  23.587  1.00  0.00     0.125 C 
ATOM     90  C   UNL A   1      29.613  29.911  23.066  1.00  0.00     0.005 C 
ATOM     91  C   UNL A   1      29.113  31.117  23.868  1.00  0.00     0.011 C 
ATOM     92  C   UNL A   1      29.619  30.219  21.561  1.00  0.00     0.011 C 
ATOM     93  C   UNL A   1      27.718  31.525  23.400  1.00  0.00     0.001 C 
ATOM     94  C   UNL A   1      28.212  30.596  21.101  1.00  0.00     0.001 C 
ATOM     95  C   UNL A   1      27.674  31.786  21.894  1.00  0.00     0.000 C 
ENDBRANCH  82  87
ENDBRANCH  77  80
ENDBRANCH  75  76
ENDBRANCH  74  75
ENDBRANCH  73  74
ENDBRANCH   1  73
TORSDOF 14
ENDMDL
MODEL 2
REMARK VINA RESULT:     -12.9      1.493      3.629
REMARK SMILES O=C(NCCCCCCNC(=O)c1cc(Br)ccc1N1CC2(CCCCC2)C1)c1ccc(-c2c3nc(c(-c4c(F)c(F)c(F)c(F)c4F)c4ccc([nH]4)c(-c4c(F)c(F)c(F)c(F)c4F)c4nc(c(-c5c(F)c(F)c(F)c(F)c5F)c5ccc2[nH]5)C=C4)C=C3)cc1
REMARK SMILES IDX 6 1 5 2 4 3 3 4 1 5 2 6 29 8 30 9 91 10 31 11 90 12 32 13
REMARK SMILES IDX 33 14 34 15 84 16 35 17 89 18 83 19 85 20 36 21 88 22 82 23
REMARK SMILES IDX 81 24 37 26 69 27 49 28 68 29 50 30 53 31 67 32 86 33 51 34
REMARK SMILES IDX 52 35 66 37 87 38 54 39 38 40 39 41 47 42 40 43 41 44 45 45
REMARK SMILES IDX 48 46 42 47 43 48 46 49 44 50 70 51 71 52 79 53 72 54 73 55
REMARK SMILES IDX 77 56 80 57 74 58 75 59 78 60 76 61 55 62 56 63 64 64 57 65
REMARK SMILES IDX 58 66 62 67 65 68 59 69 60 70 63 71 61 72 7 73 8 74 9 75
REMARK SMILES IDX 10 76 11 77 12 79 13 80 14 81 19 82 15 83 18 84 16 85 17 86
REMARK SMILES IDX 20 87 21 88 28 89 22 90 23 91 27 92 24 93 26 94 25 95
REMARK H PARENT 3 7 85 25 53 36 10 78
REMARK Flexibility Score: inf
ROOT
ATOM      1  C   UNL A   1      31.574  30.707  26.240  1.00  0.00     0.002 C 
ENDROOT
BRANCH   1   2
ATOM      2  C   UNL A   1      31.395  32.182  26.592  1.00  0.00     0.021 C 
BRANCH   2   3
ATOM      3  C   UNL A   1      32.626  32.882  27.150  1.00  0.00     0.116 C 
BRANCH   3   4
ATOM      4  N   UNL A   1      32.351  34.211  27.670  1.00  0.00    -0.352 N 
ATOM      5  O   UNL A   1      32.565  35.973  29.068  1.00  0.00    -0.269 OA
ATOM      6  C   UNL A   1      32.993  34.888  28.678  1.00  0.00     0.251 C 
ATOM      7  H   UNL A   1      31.604  34.689  27.243  1.00  0.00     0.163 HD
BRANCH   6   8
ATOM      8  C   UNL A   1      34.189  34.297  29.322  1.00  0.00     0.039 A 
ATOM      9  C   UNL A   1      35.472  34.589  28.855  1.00  0.00     0.014 A 
ATOM     10  C   UNL A   1      34.023  33.437  30.413  1.00  0.00     0.014 A 
ATOM     11  C   UNL A   1      36.570  33.919  29.382  1.00  0.00     0.010 A 
ATOM     12  C   UNL A   1      35.137  32.825  30.998  1.00  0.00     0.010 A 
ATOM     13  C   UNL A   1      36.418  33.039  30.468  1.00  0.00    -0.014 A 
BRANCH  13  14
ATOM     14  C   UNL A   1      37.631  32.425  31.065  1.00  0.00     0.031 A 
ATOM     15  C   UNL A   1      38.095  32.784  32.448  1.00  0.00     0.074 A 
ATOM     16  C   UNL A   1      38.281  31.481  30.357  1.00  0.00     0.049 A 
ATOM     17  N   UNL A   1      39.087  32.280  33.139  1.00  0.00    -0.248 NA
ATOM     18  C   UNL A   1      37.361  33.850  33.147  1.00  0.00     0.031 C 
ATOM     19  C   UNL A   1      37.938  31.072  28.994  1.00  0.00     0.029 A 
ATOM     20  N   UNL A   1      39.340  30.676  30.689  1.00  0.00    -0.354 N 
ATOM     21  C   UNL A   1      39.105  32.969  34.344  1.00  0.00     0.074 A 
ATOM     22  C   UNL A   1      38.038  33.947  34.284  1.00  0.00     0.031 C 
ATOM     23  C   UNL A   1      38.730  30.054  28.628  1.00  0.00     0.029 A 
ATOM     24  C   UNL A   1      39.668  29.772  29.709  1.00  0.00     0.049 A 
ATOM     25  H   UNL A   1      39.819  30.740  31.547  1.00  0.00     0.167 HD
ATOM     26  C   UNL A   1      39.930  32.793  35.405  1.00  0.00     0.037 A 
ATOM     27  C   UNL A   1      40.619  28.821  29.682  1.00  0.00     0.037 A 
ATOM     28  C   UNL A   1      40.983  31.811  35.466  1.00  0.00     0.049 A 
ATOM     29  C   UNL A   1      41.501  28.636  30.881  1.00  0.00     0.074 A 
ATOM     30  C   UNL A   1      41.866  31.552  36.502  1.00  0.00     0.029 A 
ATOM     31  N   UNL A   1      41.294  30.922  34.448  1.00  0.00    -0.354 N 
ATOM     32  N   UNL A   1      41.491  29.284  32.020  1.00  0.00    -0.248 NA
ATOM     33  C   UNL A   1      42.529  27.592  30.789  1.00  0.00     0.031 C 
ATOM     34  C   UNL A   1      42.728  30.526  36.099  1.00  0.00     0.029 A 
ATOM     35  C   UNL A   1      42.360  30.121  34.827  1.00  0.00     0.049 A 
ATOM     36  H   UNL A   1      40.827  30.869  33.582  1.00  0.00     0.167 HD
ATOM     37  C   UNL A   1      42.509  28.729  32.780  1.00  0.00     0.074 A 
ATOM     38  C   UNL A   1      43.092  27.667  31.986  1.00  0.00     0.031 C 
ATOM     39  C   UNL A   1      42.934  29.078  34.017  1.00  0.00     0.037 A 
BRANCH  26  40
ATOM     40  C   UNL A   1      39.735  33.684  36.597  1.00  0.00     0.064 A 
ATOM     41  C   UNL A   1      40.331  34.950  36.668  1.00  0.00     0.173 A 
ATOM     42  C   UNL A   1      38.884  33.298  37.644  1.00  0.00     0.173 A 
ATOM     43  F   UNL A   1      41.160  35.362  35.696  1.00  0.00    -0.203 F 
ATOM     44  C   UNL A   1      40.092  35.795  37.750  1.00  0.00     0.198 A 
ATOM     45  C   UNL A   1      38.631  34.152  38.714  1.00  0.00     0.198 A 
ATOM     46  F   UNL A   1      38.284  32.098  37.620  1.00  0.00    -0.203 F 
ATOM     47  F   UNL A   1      40.692  36.992  37.810  1.00  0.00    -0.200 F 
ATOM     48  C   UNL A   1      39.236  35.398  38.768  1.00  0.00     0.200 A 
ATOM     49  F   UNL A   1      37.795  33.772  39.690  1.00  0.00    -0.200 F 
ATOM     50  F   UNL A   1      38.997  36.218  39.801  1.00  0.00    -0.200 F 
ENDBRANCH  26  40
BRANCH  27  51
ATOM     51  C   UNL A   1      40.772  27.971  28.475  1.00  0.00     0.064 A 
ATOM     52  C   UNL A   1      40.119  26.736  28.372  1.00  0.00     0.173 A 
ATOM     53  C   UNL A   1      41.564  28.386  27.393  1.00  0.00     0.173 A 
ATOM     54  F   UNL A   1      39.366  26.290  29.388  1.00  0.00    -0.203 F 
ATOM     55  C   UNL A   1      40.263  25.940  27.238  1.00  0.00     0.198 A 
ATOM     56  C   UNL A   1      41.684  27.603  26.249  1.00  0.00     0.198 A 
ATOM     57  F   UNL A   1      42.204  29.563  27.443  1.00  0.00    -0.203 F 
ATOM     58  F   UNL A   1      39.658  24.747  27.178  1.00  0.00    -0.200 F 
ATOM     59  C   UNL A   1      41.039  26.378  26.175  1.00  0.00     0.200 A 
ATOM     60  F   UNL A   1      42.422  28.037  25.218  1.00  0.00    -0.200 F 
ATOM     61  F   UNL A   1      41.170  25.616  25.080  1.00  0.00    -0.200 F 
ENDBRANCH  27  51
BRANCH  39  62
ATOM     62  C   UNL A   1      44.088  28.303  34.577  1.00  0.00     0.064 A 
ATOM     63  C   UNL A   1      43.885  27.122  35.305  1.00  0.00     0.173 A 
ATOM     64  C   UNL A   1      45.406  28.741  34.384  1.00  0.00     0.173 A 
ATOM     65  F   UNL A   1      42.639  26.675  35.531  1.00  0.00    -0.203 F 
ATOM     66  C   UNL A   1      44.959  26.421  35.845  1.00  0.00     0.198 A 
ATOM     67  C   UNL A   1      46.480  28.025  34.905  1.00  0.00     0.198 A 
ATOM     68  F   UNL A   1      45.651  29.864  33.691  1.00  0.00    -0.203 F 
ATOM     69  F   UNL A   1      44.739  25.323  36.582  1.00  0.00    -0.200 F 
ATOM     70  C   UNL A   1      46.256  26.872  35.642  1.00  0.00     0.200 A 
ATOM     71  F   UNL A   1      47.732  28.458  34.703  1.00  0.00    -0.200 F 
ATOM     72  F   UNL A   1      47.289  26.200  36.168  1.00  0.00    -0.200 F 
ENDBRANCH  39  62
ENDBRANCH  13  14
ENDBRANCH   6   8
ENDBRANCH   3   4
ENDBRANCH   2   3
ENDBRANCH   1   2
BRANCH   1  73
ATOM     73  C   UNL A   1      32.488  29.892  27.160  1.00  0.00     0.002 C 
BRANCH  73  74
ATOM     74  C   UNL A   1      33.792  29.362  26.551  1.00  0.00     0.021 C 
BRANCH  74  75
ATOM     75  C   UNL A   1      33.829  27.871  26.225  1.00  0.00     0.116 C 
BRANCH  75  76
ATOM     76  N   UNL A   1      32.733  27.135  26.822  1.00  0.00    -0.352 N 
ATOM     77  C   UNL A   1      31.670  26.523  26.212  1.00  0.00     0.253 C 
ATOM     78  H   UNL A   1      32.755  27.067  27.803  1.00  0.00     0.163 HD
ATOM     79  O   UNL A   1      30.871  25.875  26.886  1.00  0.00    -0.269 OA
BRANCH  77  80
ATOM     80  C   UNL A   1      31.523  26.592  24.747  1.00  0.00     0.064 A 
ATOM     81  C   UNL A   1      30.839  27.715  24.248  1.00  0.00     0.031 A 
ATOM     82  C   UNL A   1      32.153  25.680  23.879  1.00  0.00     0.050 A 
ATOM     83  C   UNL A   1      30.732  27.910  22.876  1.00  0.00     0.018 A 
ATOM     84  C   UNL A   1      32.045  25.927  22.496  1.00  0.00     0.028 A 
ATOM     85  Br  UNL A   1      29.778  29.399  22.210  1.00  0.00    -0.051 Br
ATOM     86  C   UNL A   1      31.330  27.018  21.995  1.00  0.00     0.018 A 
BRANCH  82  87
ATOM     87  N   UNL A   1      32.879  24.546  24.277  1.00  0.00    -0.370 N 
ATOM     88  C   UNL A   1      34.156  24.348  24.875  1.00  0.00     0.125 C 
ATOM     89  C   UNL A   1      32.772  23.221  23.749  1.00  0.00     0.125 C 
ATOM     90  C   UNL A   1      34.252  22.993  24.129  1.00  0.00     0.005 C 
ATOM     91  C   UNL A   1      34.475  21.746  24.989  1.00  0.00     0.011 C 
ATOM     92  C   UNL A   1      35.206  23.006  22.925  1.00  0.00     0.011 C 
ATOM     93  C   UNL A   1      35.927  21.674  25.457  1.00  0.00     0.001 C 
ATOM     94  C   UNL A   1      36.654  22.965  23.408  1.00  0.00     0.001 C 
ATOM     95  C   UNL A   1      36.908  21.741  24.286  1.00  0.00     0.000 C 
ENDBRANCH  82  87
ENDBRANCH  77  80
ENDBRANCH  75  76
ENDBRANCH  74  75
ENDBRANCH  73  74
ENDBRANCH   1  73
TORSDOF 14
ENDMDL
MODEL 3
REMARK VINA RESULT:     -12.8      1.500      3.283
REMARK SMILES O=C(NCCCCCCNC(=O)c1cc(Br)ccc1N1CC2(CCCCC2)C1)c1ccc(-c2c3nc(c(-c4c(F)c(F)c(F)c(F)c4F)c4ccc([nH]4)c(-c4c(F)c(F)c(F)c(F)c4F)c4nc(c(-c5c(F)c(F)c(F)c(F)c5F)c5ccc2[nH]5)C=C4)C=C3)cc1
REMARK SMILES IDX 6 1 5 2 4 3 3 4 1 5 2 6 29 8 30 9 91 10 31 11 90 12 32 13
REMARK SMILES IDX 33 14 34 15 84 16 35 17 89 18 83 19 85 20 36 21 88 22 82 23
REMARK SMILES IDX 81 24 37 26 69 27 49 28 68 29 50 30 53 31 67 32 86 33 51 34
REMARK SMILES IDX 52 35 66 37 87 38 54 39 38 40 39 41 47 42 40 43 41 44 45 45
REMARK SMILES IDX 48 46 42 47 43 48 46 49 44 50 70 51 71 52 79 53 72 54 73 55
REMARK SMILES IDX 77 56 80 57 74 58 75 59 78 60 76 61 55 62 56 63 64 64 57 65
REMARK SMILES IDX 58 66 62 67 65 68 59 69 60 70 63 71 61 72 7 73 8 74 9 75
REMARK SMILES IDX 10 76 11 77 12 79 13 80 14 81 19 82 15 83 18 84 16 85 17 86
REMARK SMILES IDX 20 87 21 88 28 89 22 90 23 91 27 92 24 93 26 94 25 95
REMARK H PARENT 3 7 85 25 53 36 10 78
REMARK Flexibility Score: inf
ROOT
ATOM      1  C   UNL A   1      31.638  30.691  26.199  1.00  0.00     0.002 C 
ENDROOT
BRANCH   1   2
ATOM      2  C   UNL A   1      31.396  32.090  26.763  1.00  0.00     0.021 C 
BRANCH   2   3
ATOM      3  C   UNL A   1      32.645  32.894  27.092  1.00  0.00     0.116 C 
BRANCH   3   4
ATOM      4  N   UNL A   1      32.359  34.212  27.632  1.00  0.00    -0.352 N 
ATOM      5  O   UNL A   1      32.557  35.953  29.060  1.00  0.00    -0.269 OA
ATOM      6  C   UNL A   1      32.993  34.877  28.654  1.00  0.00     0.251 C 
ATOM      7  H   UNL A   1      31.611  34.693  27.210  1.00  0.00     0.163 HD
BRANCH   6   8
ATOM      8  C   UNL A   1      34.190  34.283  29.294  1.00  0.00     0.039 A 
ATOM      9  C   UNL A   1      35.474  34.614  28.857  1.00  0.00     0.014 A 
ATOM     10  C   UNL A   1      34.024  33.380  30.349  1.00  0.00     0.014 A 
ATOM     11  C   UNL A   1      36.576  33.944  29.376  1.00  0.00     0.010 A 
ATOM     12  C   UNL A   1      35.139  32.767  30.928  1.00  0.00     0.010 A 
ATOM     13  C   UNL A   1      36.424  33.022  30.426  1.00  0.00    -0.014 A 
BRANCH  13  14
ATOM     14  C   UNL A   1      37.638  32.407  31.018  1.00  0.00     0.031 A 
ATOM     15  C   UNL A   1      38.107  32.763  32.401  1.00  0.00     0.074 A 
ATOM     16  C   UNL A   1      38.288  31.465  30.306  1.00  0.00     0.049 A 
ATOM     17  N   UNL A   1      39.101  32.258  33.088  1.00  0.00    -0.248 NA
ATOM     18  C   UNL A   1      37.375  33.827  33.104  1.00  0.00     0.031 C 
ATOM     19  C   UNL A   1      37.940  31.058  28.943  1.00  0.00     0.029 A 
ATOM     20  N   UNL A   1      39.347  30.659  30.633  1.00  0.00    -0.354 N 
ATOM     21  C   UNL A   1      39.122  32.944  34.294  1.00  0.00     0.074 A 
ATOM     22  C   UNL A   1      38.055  33.921  34.239  1.00  0.00     0.031 C 
ATOM     23  C   UNL A   1      38.732  30.042  28.573  1.00  0.00     0.029 A 
ATOM     24  C   UNL A   1      39.673  29.758  29.650  1.00  0.00     0.049 A 
ATOM     25  H   UNL A   1      39.829  30.722  31.490  1.00  0.00     0.167 HD
ATOM     26  C   UNL A   1      39.951  32.766  35.352  1.00  0.00     0.037 A 
ATOM     27  C   UNL A   1      40.623  28.806  29.618  1.00  0.00     0.037 A 
ATOM     28  C   UNL A   1      41.004  31.784  35.407  1.00  0.00     0.049 A 
ATOM     29  C   UNL A   1      41.510  28.620  30.814  1.00  0.00     0.074 A 
ATOM     30  C   UNL A   1      41.890  31.523  36.441  1.00  0.00     0.029 A 
ATOM     31  N   UNL A   1      41.312  30.898  34.387  1.00  0.00    -0.354 N 
ATOM     32  N   UNL A   1      41.503  29.264  31.955  1.00  0.00    -0.248 NA
ATOM     33  C   UNL A   1      42.537  27.575  30.717  1.00  0.00     0.031 C 
ATOM     34  C   UNL A   1      42.751  30.498  36.033  1.00  0.00     0.029 A 
ATOM     35  C   UNL A   1      42.379  30.096  34.761  1.00  0.00     0.049 A 
ATOM     36  H   UNL A   1      40.843  30.846  33.522  1.00  0.00     0.167 HD
ATOM     37  C   UNL A   1      42.523  28.709  32.711  1.00  0.00     0.074 A 
ATOM     38  C   UNL A   1      43.104  27.648  31.912  1.00  0.00     0.031 C 
ATOM     39  C   UNL A   1      42.952  29.055  33.947  1.00  0.00     0.037 A 
BRANCH  26  40
ATOM     40  C   UNL A   1      39.758  33.654  36.546  1.00  0.00     0.064 A 
ATOM     41  C   UNL A   1      40.367  34.914  36.626  1.00  0.00     0.173 A 
ATOM     42  C   UNL A   1      38.898  33.273  37.588  1.00  0.00     0.173 A 
ATOM     43  F   UNL A   1      41.206  35.320  35.660  1.00  0.00    -0.203 F 
ATOM     44  C   UNL A   1      40.132  35.757  37.709  1.00  0.00     0.198 A 
ATOM     45  C   UNL A   1      38.649  34.126  38.660  1.00  0.00     0.198 A 
ATOM     46  F   UNL A   1      38.286  32.080  37.556  1.00  0.00    -0.203 F 
ATOM     47  F   UNL A   1      40.745  36.947  37.777  1.00  0.00    -0.200 F 
ATOM     48  C   UNL A   1      39.267  35.365  38.721  1.00  0.00     0.200 A 
ATOM     49  F   UNL A   1      37.804  33.751  39.630  1.00  0.00    -0.200 F 
ATOM     50  F   UNL A   1      39.030  36.183  39.757  1.00  0.00    -0.200 F 
ENDBRANCH  26  40
BRANCH  27  51
ATOM     51  C   UNL A   1      40.774  27.959  28.409  1.00  0.00     0.064 A 
ATOM     52  C   UNL A   1      41.569  28.371  27.332  1.00  0.00     0.173 A 
ATOM     53  C   UNL A   1      40.138  26.713  28.314  1.00  0.00     0.173 A 
ATOM     54  F   UNL A   1      42.183  29.563  27.370  1.00  0.00    -0.203 F 
ATOM     55  C   UNL A   1      41.711  27.574  26.198  1.00  0.00     0.198 A 
ATOM     56  C   UNL A   1      40.303  25.905  27.194  1.00  0.00     0.198 A 
ATOM     57  F   UNL A   1      39.371  26.273  29.323  1.00  0.00    -0.203 F 
ATOM     58  F   UNL A   1      42.448  28.006  25.166  1.00  0.00    -0.200 F 
ATOM     59  C   UNL A   1      41.084  26.339  26.134  1.00  0.00     0.200 A 
ATOM     60  F   UNL A   1      39.709  24.704  27.143  1.00  0.00    -0.200 F 
ATOM     61  F   UNL A   1      41.229  25.568  25.046  1.00  0.00    -0.200 F 
ENDBRANCH  27  51
BRANCH  39  62
ATOM     62  C   UNL A   1      44.107  28.279  34.502  1.00  0.00     0.064 A 
ATOM     63  C   UNL A   1      45.429  28.709  34.315  1.00  0.00     0.173 A 
ATOM     64  C   UNL A   1      43.894  27.097  35.226  1.00  0.00     0.173 A 
ATOM     65  F   UNL A   1      45.681  29.825  33.612  1.00  0.00    -0.203 F 
ATOM     66  C   UNL A   1      46.499  27.969  34.809  1.00  0.00     0.198 A 
ATOM     67  C   UNL A   1      44.965  26.372  35.739  1.00  0.00     0.198 A 
ATOM     68  F   UNL A   1      42.647  26.646  35.433  1.00  0.00    -0.203 F 
ATOM     69  F   UNL A   1      47.755  28.372  34.575  1.00  0.00    -0.200 F 
ATOM     70  C   UNL A   1      46.265  26.803  35.524  1.00  0.00     0.200 A 
ATOM     71  F   UNL A   1      44.739  25.248  36.434  1.00  0.00    -0.200 F 
ATOM     72  F   UNL A   1      47.297  26.087  35.993  1.00  0.00    -0.200 F 
ENDBRANCH  39  62
ENDBRANCH  13  14
ENDBRANCH   6   8
ENDBRANCH   3   4
ENDBRANCH   2   3
ENDBRANCH   1   2
BRANCH   1  73
ATOM     73  C   UNL A   1      32.417  29.721  27.092  1.00  0.00     0.002 C 
BRANCH  73  74
ATOM     74  C   UNL A   1      33.746  29.189  26.545  1.00  0.00     0.021 C 
BRANCH  74  75
ATOM     75  C   UNL A   1      33.811  27.690  26.263  1.00  0.00     0.116 C 
BRANCH  75  76
ATOM     76  N   UNL A   1      32.699  26.960  26.837  1.00  0.00    -0.352 N 
ATOM     77  C   UNL A   1      31.631  26.378  26.207  1.00  0.00     0.253 C 
ATOM     78  H   UNL A   1      32.713  26.870  27.816  1.00  0.00     0.163 HD
ATOM     79  O   UNL A   1      30.816  25.729  26.861  1.00  0.00    -0.269 OA
BRANCH  77  80
ATOM     80  C   UNL A   1      31.496  26.480  24.742  1.00  0.00     0.064 A 
ATOM     81  C   UNL A   1      30.823  27.619  24.263  1.00  0.00     0.031 A 
ATOM     82  C   UNL A   1      32.127  25.584  23.859  1.00  0.00     0.050 A 
ATOM     83  C   UNL A   1      30.727  27.846  22.896  1.00  0.00     0.018 A 
ATOM     84  C   UNL A   1      32.031  25.862  22.482  1.00  0.00     0.028 A 
ATOM     85  Br  UNL A   1      29.788  29.355  22.256  1.00  0.00    -0.051 Br
ATOM     86  C   UNL A   1      31.327  26.970  21.999  1.00  0.00     0.018 A 
BRANCH  82  87
ATOM     87  N   UNL A   1      32.842  24.437  24.237  1.00  0.00    -0.370 N 
ATOM     88  C   UNL A   1      34.066  24.217  24.932  1.00  0.00     0.125 C 
ATOM     89  C   UNL A   1      32.815  23.153  23.607  1.00  0.00     0.125 C 
ATOM     90  C   UNL A   1      34.261  22.924  24.101  1.00  0.00     0.005 C 
ATOM     91  C   UNL A   1      34.437  21.620  24.884  1.00  0.00     0.011 C 
ATOM     92  C   UNL A   1      35.317  23.044  22.992  1.00  0.00     0.011 C 
ATOM     93  C   UNL A   1      35.844  21.540  25.474  1.00  0.00     0.001 C 
ATOM     94  C   UNL A   1      36.718  22.994  23.599  1.00  0.00     0.001 C 
ATOM     95  C   UNL A   1      36.922  21.712  24.404  1.00  0.00     0.000 C 
ENDBRANCH  82  87
ENDBRANCH  77  80
ENDBRANCH  75  76
ENDBRANCH  74  75
ENDBRANCH  73  74
ENDBRANCH   1  73
TORSDOF 14
ENDMDL
