MODEL 1
REMARK VINA RESULT:     -12.3      0.000      0.000
REMARK SMILES CCOC(=O)c1cc(CC)sc1NC(=O)[C@H]1[C@@H]2CC[C@@H](C2)[C@@H]1C(=O)NCCCCCCNC(=O)c1ccc(-c2c3nc(c(-c4c(F)c(F)c(F)c(F)c4F)c4ccc([nH]4)c(-c4c(F)c(F)c(F)c(F)c4F)c4nc(c(-c5c(F)c(F)c(F)c(F)c5F)c5ccc2[nH]5)C=C4)C=C3)cc1
REMARK SMILES IDX 27 1 26 2 25 3 23 4 24 5 22 7 16 8 17 9 18 10 21 11 20 12
REMARK SMILES IDX 19 13 14 14 13 15 15 17 12 18 6 19 7 20 8 21 11 22 4 23 5 24
REMARK SMILES IDX 3 25 2 26 1 27 9 28 10 29 28 30 29 31 30 32 31 33 32 34
REMARK SMILES IDX 33 35 34 37 35 38 36 39 97 40 37 41 96 42 38 43 39 44 40 45
REMARK SMILES IDX 90 46 41 47 95 48 89 49 91 50 42 51 94 52 88 53 87 54 43 56
REMARK SMILES IDX 75 57 55 58 74 59 56 60 59 61 73 62 92 63 57 64 58 65 72 67
REMARK SMILES IDX 93 68 60 69 44 70 45 71 53 72 46 73 47 74 51 75 54 76 48 77
REMARK SMILES IDX 49 78 52 79 50 80 76 81 77 82 85 83 78 84 79 85 83 86 86 87
REMARK SMILES IDX 80 88 81 89 84 90 82 91 61 92 62 93 70 94 63 95 64 96 68 97
REMARK SMILES IDX 71 98 65 99 66 100 69 101 67 102
REMARK H PARENT 25 6 13 16 32 36 91 55 59 66
REMARK Flexibility Score: inf
ROOT
ATOM      1  C   UNL A   1      37.039  22.317  24.491  1.00  0.00     0.021 C 
ENDROOT
BRANCH   1   2
ATOM      2  C   UNL A   1      36.793  23.692  25.100  1.00  0.00     0.116 C 
BRANCH   2   3
ATOM      3  N   UNL A   1      35.585  23.667  25.875  1.00  0.00    -0.356 N 
ATOM      4  C   UNL A   1      34.346  24.070  25.541  1.00  0.00     0.224 C 
ATOM      5  O   UNL A   1      33.620  24.428  26.478  1.00  0.00    -0.275 OA
ATOM      6  H   UNL A   1      35.677  23.301  26.785  1.00  0.00     0.163 HD
BRANCH   4   7
ATOM      7  C   UNL A   1      33.784  24.061  24.130  1.00  0.00     0.094 C 
ATOM      8  C   UNL A   1      32.725  25.007  23.592  1.00  0.00     0.094 C 
ATOM      9  C   UNL A   1      31.802  24.060  22.765  1.00  0.00     0.002 C 
ATOM     10  C   UNL A   1      31.031  23.095  23.698  1.00  0.00     0.005 C 
ATOM     11  C   UNL A   1      32.790  23.069  22.163  1.00  0.00     0.009 C 
ATOM     12  C   UNL A   1      33.392  22.693  23.527  1.00  0.00     0.002 C 
ATOM     13  C   UNL A   1      32.135  22.148  24.212  1.00  0.00     0.005 C 
BRANCH   8  14
ATOM     14  C   UNL A   1      33.209  26.249  22.807  1.00  0.00     0.229 C 
ATOM     15  N   UNL A   1      33.027  27.580  23.019  1.00  0.00    -0.317 N 
ATOM     16  H   UNL A   1      33.539  28.109  22.365  1.00  0.00     0.170 HD
ATOM     17  O   UNL A   1      34.005  26.005  21.877  1.00  0.00    -0.274 OA
BRANCH  15  18
ATOM     18  C   UNL A   1      32.333  28.409  23.884  1.00  0.00     0.110 A 
ATOM     19  C   UNL A   1      31.186  29.144  23.606  1.00  0.00     0.095 A 
ATOM     20  C   UNL A   1      31.008  30.171  24.612  1.00  0.00     0.033 A 
ATOM     21  C   UNL A   1      31.847  29.985  25.698  1.00  0.00     0.007 A 
ATOM     22  S   UNL A   1      32.538  28.440  25.559  1.00  0.00    -0.122 S 
BRANCH  19  23
ATOM     23  C   UNL A   1      30.392  28.893  22.412  1.00  0.00     0.341 C 
ATOM     24  O   UNL A   1      30.185  27.761  22.007  1.00  0.00    -0.246 OA
BRANCH  23  25
ATOM     25  O   UNL A   1      29.898  30.026  21.839  1.00  0.00    -0.462 OA
BRANCH  25  26
ATOM     26  C   UNL A   1      28.474  30.036  21.638  1.00  0.00     0.230 C 
ATOM     27  C   UNL A   1      27.679  30.051  22.936  1.00  0.00     0.049 C 
ENDBRANCH  25  26
ENDBRANCH  23  25
ENDBRANCH  19  23
BRANCH  21  28
ATOM     28  C   UNL A   1      32.141  30.870  26.878  1.00  0.00     0.043 C 
ATOM     29  C   UNL A   1      33.517  30.688  27.519  1.00  0.00     0.010 C 
ENDBRANCH  21  28
ENDBRANCH  15  18
ENDBRANCH   8  14
ENDBRANCH   4   7
ENDBRANCH   2   3
ENDBRANCH   1   2
BRANCH   1  30
ATOM     30  C   UNL A   1      36.298  21.185  25.203  1.00  0.00     0.002 C 
BRANCH  30  31
ATOM     31  C   UNL A   1      36.898  19.793  24.997  1.00  0.00     0.002 C 
BRANCH  31  32
ATOM     32  C   UNL A   1      38.384  19.775  24.633  1.00  0.00     0.021 C 
BRANCH  32  33
ATOM     33  C   UNL A   1      39.330  20.041  25.796  1.00  0.00     0.116 C 
BRANCH  33  34
ATOM     34  N   UNL A   1      40.321  18.993  25.947  1.00  0.00    -0.352 N 
ATOM     35  C   UNL A   1      41.670  19.120  26.148  1.00  0.00     0.251 C 
ATOM     36  H   UNL A   1      39.981  18.071  25.900  1.00  0.00     0.163 HD
ATOM     37  O   UNL A   1      42.410  18.144  26.093  1.00  0.00    -0.269 OA
BRANCH  35  38
ATOM     38  C   UNL A   1      42.227  20.459  26.409  1.00  0.00     0.039 A 
ATOM     39  C   UNL A   1      42.667  21.226  25.330  1.00  0.00     0.014 A 
ATOM     40  C   UNL A   1      42.285  20.960  27.714  1.00  0.00     0.014 A 
ATOM     41  C   UNL A   1      43.133  22.520  25.555  1.00  0.00     0.010 A 
ATOM     42  C   UNL A   1      42.686  22.273  27.928  1.00  0.00     0.010 A 
ATOM     43  C   UNL A   1      43.123  23.060  26.852  1.00  0.00    -0.014 A 
BRANCH  43  44
ATOM     44  C   UNL A   1      43.593  24.442  27.106  1.00  0.00     0.031 A 
ATOM     45  C   UNL A   1      42.624  25.477  27.602  1.00  0.00     0.074 A 
ATOM     46  C   UNL A   1      44.869  24.773  26.836  1.00  0.00     0.049 A 
ATOM     47  N   UNL A   1      42.812  26.754  27.815  1.00  0.00    -0.248 NA
ATOM     48  C   UNL A   1      41.251  25.019  27.869  1.00  0.00     0.031 C 
ATOM     49  C   UNL A   1      45.887  23.862  26.311  1.00  0.00     0.029 A 
ATOM     50  N   UNL A   1      45.524  25.973  26.956  1.00  0.00    -0.354 N 
ATOM     51  C   UNL A   1      41.584  27.251  28.227  1.00  0.00     0.074 A 
ATOM     52  C   UNL A   1      40.644  26.154  28.183  1.00  0.00     0.031 C 
ATOM     53  C   UNL A   1      47.041  24.532  26.166  1.00  0.00     0.029 A 
ATOM     54  C   UNL A   1      46.837  25.924  26.555  1.00  0.00     0.049 A 
ATOM     55  H   UNL A   1      45.095  26.790  27.296  1.00  0.00     0.167 HD
ATOM     56  C   UNL A   1      41.276  28.506  28.631  1.00  0.00     0.037 A 
ATOM     57  C   UNL A   1      47.765  26.897  26.500  1.00  0.00     0.037 A 
ATOM     58  C   UNL A   1      42.224  29.587  28.696  1.00  0.00     0.049 A 
ATOM     59  C   UNL A   1      47.395  28.285  26.948  1.00  0.00     0.074 A 
ATOM     60  C   UNL A   1      42.028  30.882  29.141  1.00  0.00     0.029 A 
ATOM     61  N   UNL A   1      43.551  29.494  28.303  1.00  0.00    -0.354 N 
ATOM     62  N   UNL A   1      46.246  28.731  27.396  1.00  0.00    -0.248 NA
ATOM     63  C   UNL A   1      48.451  29.304  26.888  1.00  0.00     0.031 C 
ATOM     64  C   UNL A   1      43.226  31.585  28.980  1.00  0.00     0.029 A 
ATOM     65  C   UNL A   1      44.181  30.716  28.477  1.00  0.00     0.049 A 
ATOM     66  H   UNL A   1      43.981  28.681  27.952  1.00  0.00     0.167 HD
ATOM     67  C   UNL A   1      46.447  30.072  27.695  1.00  0.00     0.074 A 
ATOM     68  C   UNL A   1      47.833  30.364  27.390  1.00  0.00     0.031 C 
ATOM     69  C   UNL A   1      45.564  30.981  28.175  1.00  0.00     0.037 A 
BRANCH  56  70
ATOM     70  C   UNL A   1      39.858  28.773  29.040  1.00  0.00     0.064 A 
ATOM     71  C   UNL A   1      38.900  29.221  28.118  1.00  0.00     0.173 A 
ATOM     72  C   UNL A   1      39.443  28.552  30.363  1.00  0.00     0.173 A 
ATOM     73  F   UNL A   1      39.248  29.462  26.845  1.00  0.00    -0.203 F 
ATOM     74  C   UNL A   1      37.586  29.464  28.510  1.00  0.00     0.198 A 
ATOM     75  C   UNL A   1      38.121  28.768  30.744  1.00  0.00     0.198 A 
ATOM     76  F   UNL A   1      40.318  28.121  31.283  1.00  0.00    -0.203 F 
ATOM     77  F   UNL A   1      36.701  29.938  27.623  1.00  0.00    -0.200 F 
ATOM     78  C   UNL A   1      37.196  29.230  29.820  1.00  0.00     0.200 A 
ATOM     79  F   UNL A   1      37.743  28.530  32.007  1.00  0.00    -0.200 F 
ATOM     80  F   UNL A   1      35.930  29.459  30.194  1.00  0.00    -0.200 F 
ENDBRANCH  56  70
BRANCH  57  81
ATOM     81  C   UNL A   1      49.137  26.590  26.018  1.00  0.00     0.064 A 
ATOM     82  C   UNL A   1      49.513  26.865  24.696  1.00  0.00     0.173 A 
ATOM     83  C   UNL A   1      50.095  26.015  26.865  1.00  0.00     0.173 A 
ATOM     84  F   UNL A   1      48.624  27.396  23.844  1.00  0.00    -0.203 F 
ATOM     85  C   UNL A   1      50.791  26.557  24.233  1.00  0.00     0.198 A 
ATOM     86  C   UNL A   1      51.381  25.733  26.408  1.00  0.00     0.198 A 
ATOM     87  F   UNL A   1      49.786  25.738  28.140  1.00  0.00    -0.203 F 
ATOM     88  F   UNL A   1      51.110  26.788  22.953  1.00  0.00    -0.200 F 
ATOM     89  C   UNL A   1      51.725  25.996  25.091  1.00  0.00     0.200 A 
ATOM     90  F   UNL A   1      52.284  25.203  27.244  1.00  0.00    -0.200 F 
ATOM     91  F   UNL A   1      52.954  25.702  24.645  1.00  0.00    -0.200 F 
ENDBRANCH  57  81
BRANCH  69  92
ATOM     92  C   UNL A   1      46.076  32.367  28.429  1.00  0.00     0.064 A 
ATOM     93  C   UNL A   1      46.022  33.362  27.442  1.00  0.00     0.173 A 
ATOM     94  C   UNL A   1      46.581  32.717  29.691  1.00  0.00     0.173 A 
ATOM     95  F   UNL A   1      45.562  33.071  26.216  1.00  0.00    -0.203 F 
ATOM     96  C   UNL A   1      46.475  34.651  27.703  1.00  0.00     0.198 A 
ATOM     97  C   UNL A   1      47.006  34.015  29.957  1.00  0.00     0.198 A 
ATOM     98  F   UNL A   1      46.646  31.803  30.670  1.00  0.00    -0.203 F 
ATOM     99  F   UNL A   1      46.452  35.576  26.733  1.00  0.00    -0.200 F 
ATOM    100  C   UNL A   1      46.959  34.980  28.961  1.00  0.00     0.200 A 
ATOM    101  F   UNL A   1      47.461  34.333  31.177  1.00  0.00    -0.200 F 
ATOM    102  F   UNL A   1      47.383  36.225  29.213  1.00  0.00    -0.200 F 
ENDBRANCH  69  92
ENDBRANCH  43  44
ENDBRANCH  35  38
ENDBRANCH  33  34
ENDBRANCH  32  33
ENDBRANCH  31  32
ENDBRANCH  30  31
ENDBRANCH   1  30
TORSDOF 19
ENDMDL
MODEL 2
REMARK VINA RESULT:     -12.3      5.368     11.208
REMARK SMILES CCOC(=O)c1cc(CC)sc1NC(=O)[C@H]1[C@@H]2CC[C@@H](C2)[C@@H]1C(=O)NCCCCCCNC(=O)c1ccc(-c2c3nc(c(-c4c(F)c(F)c(F)c(F)c4F)c4ccc([nH]4)c(-c4c(F)c(F)c(F)c(F)c4F)c4nc(c(-c5c(F)c(F)c(F)c(F)c5F)c5ccc2[nH]5)C=C4)C=C3)cc1
REMARK SMILES IDX 27 1 26 2 25 3 23 4 24 5 22 7 16 8 17 9 18 10 21 11 20 12
REMARK SMILES IDX 19 13 14 14 13 15 15 17 12 18 6 19 7 20 8 21 11 22 4 23 5 24
REMARK SMILES IDX 3 25 2 26 1 27 9 28 10 29 28 30 29 31 30 32 31 33 32 34
REMARK SMILES IDX 33 35 34 37 35 38 36 39 97 40 37 41 96 42 38 43 39 44 40 45
REMARK SMILES IDX 90 46 41 47 95 48 89 49 91 50 42 51 94 52 88 53 87 54 43 56
REMARK SMILES IDX 75 57 55 58 74 59 56 60 59 61 73 62 92 63 57 64 58 65 72 67
REMARK SMILES IDX 93 68 60 69 44 70 45 71 53 72 46 73 47 74 51 75 54 76 48 77
REMARK SMILES IDX 49 78 52 79 50 80 76 81 77 82 85 83 78 84 79 85 83 86 86 87
REMARK SMILES IDX 80 88 81 89 84 90 82 91 61 92 62 93 70 94 63 95 64 96 68 97
REMARK SMILES IDX 71 98 65 99 66 100 69 101 67 102
REMARK H PARENT 25 6 13 16 32 36 91 55 59 66
REMARK Flexibility Score: inf
ROOT
ATOM      1  C   UNL A   1      33.738  29.053  26.406  1.00  0.00     0.021 C 
ENDROOT
BRANCH   1   2
ATOM      2  C   UNL A   1      33.270  28.934  24.961  1.00  0.00     0.116 C 
BRANCH   2   3
ATOM      3  N   UNL A   1      33.821  27.747  24.372  1.00  0.00    -0.356 N 
ATOM      4  C   UNL A   1      33.622  26.457  24.698  1.00  0.00     0.224 C 
ATOM      5  O   UNL A   1      34.544  25.679  24.425  1.00  0.00    -0.275 OA
ATOM      6  H   UNL A   1      34.436  27.900  23.618  1.00  0.00     0.163 HD
BRANCH   4   7
ATOM      7  C   UNL A   1      32.345  25.908  25.312  1.00  0.00     0.094 C 
ATOM      8  C   UNL A   1      31.895  24.458  25.272  1.00  0.00     0.094 C 
ATOM      9  C   UNL A   1      30.370  24.576  24.969  1.00  0.00     0.002 C 
ATOM     10  C   UNL A   1      30.137  25.102  23.531  1.00  0.00     0.005 C 
ATOM     11  C   UNL A   1      29.969  25.825  25.745  1.00  0.00     0.009 C 
ATOM     12  C   UNL A   1      31.040  26.702  25.077  1.00  0.00     0.002 C 
ATOM     13  C   UNL A   1      30.593  26.573  23.617  1.00  0.00     0.005 C 
BRANCH   8  14
ATOM     14  C   UNL A   1      32.221  23.575  26.499  1.00  0.00     0.229 C 
ATOM     15  N   UNL A   1      33.148  22.598  26.690  1.00  0.00    -0.317 N 
ATOM     16  H   UNL A   1      33.137  22.286  27.624  1.00  0.00     0.170 HD
ATOM     17  O   UNL A   1      31.609  23.881  27.543  1.00  0.00    -0.274 OA
BRANCH  15  18
ATOM     18  C   UNL A   1      34.101  21.913  25.955  1.00  0.00     0.110 A 
ATOM     19  C   UNL A   1      33.950  20.687  25.316  1.00  0.00     0.095 A 
ATOM     20  C   UNL A   1      35.252  20.129  25.015  1.00  0.00     0.033 A 
ATOM     21  C   UNL A   1      36.267  21.055  25.192  1.00  0.00     0.007 A 
ATOM     22  S   UNL A   1      35.548  22.579  25.397  1.00  0.00    -0.122 S 
BRANCH  19  23
ATOM     23  C   UNL A   1      32.636  20.099  25.099  1.00  0.00     0.341 C 
ATOM     24  O   UNL A   1      31.663  20.786  24.832  1.00  0.00    -0.246 OA
BRANCH  23  25
ATOM     25  O   UNL A   1      32.626  18.741  25.192  1.00  0.00    -0.462 OA
BRANCH  25  26
ATOM     26  C   UNL A   1      32.356  18.047  23.962  1.00  0.00     0.230 C 
ATOM     27  C   UNL A   1      33.537  17.232  23.454  1.00  0.00     0.049 C 
ENDBRANCH  25  26
ENDBRANCH  23  25
ENDBRANCH  19  23
BRANCH  21  28
ATOM     28  C   UNL A   1      37.763  20.892  25.175  1.00  0.00     0.043 C 
ATOM     29  C   UNL A   1      38.563  22.032  25.805  1.00  0.00     0.010 C 
ENDBRANCH  21  28
ENDBRANCH  15  18
ENDBRANCH   8  14
ENDBRANCH   4   7
ENDBRANCH   2   3
ENDBRANCH   1   2
BRANCH   1  30
ATOM     30  C   UNL A   1      32.913  30.033  27.242  1.00  0.00     0.002 C 
BRANCH  30  31
ATOM     31  C   UNL A   1      31.710  30.642  26.519  1.00  0.00     0.002 C 
BRANCH  31  32
ATOM     32  C   UNL A   1      31.509  32.142  26.746  1.00  0.00     0.021 C 
BRANCH  32  33
ATOM     33  C   UNL A   1      32.744  32.885  27.235  1.00  0.00     0.116 C 
BRANCH  33  34
ATOM     34  N   UNL A   1      32.444  34.250  27.625  1.00  0.00    -0.352 N 
ATOM     35  C   UNL A   1      32.993  34.985  28.642  1.00  0.00     0.251 C 
ATOM     36  H   UNL A   1      31.757  34.708  27.089  1.00  0.00     0.163 HD
ATOM     37  O   UNL A   1      32.525  36.072  28.958  1.00  0.00    -0.269 OA
BRANCH  35  38
ATOM     38  C   UNL A   1      34.150  34.435  29.371  1.00  0.00     0.039 A 
ATOM     39  C   UNL A   1      33.926  33.736  30.558  1.00  0.00     0.014 A 
ATOM     40  C   UNL A   1      35.445  34.590  28.865  1.00  0.00     0.014 A 
ATOM     41  C   UNL A   1      35.003  33.153  31.223  1.00  0.00     0.010 A 
ATOM     42  C   UNL A   1      36.508  33.951  29.493  1.00  0.00     0.010 A 
ATOM     43  C   UNL A   1      36.297  33.237  30.682  1.00  0.00    -0.014 A 
BRANCH  43  44
ATOM     44  C   UNL A   1      37.450  32.603  31.363  1.00  0.00     0.031 A 
ATOM     45  C   UNL A   1      38.155  31.448  30.711  1.00  0.00     0.074 A 
ATOM     46  C   UNL A   1      37.821  33.030  32.584  1.00  0.00     0.049 A 
ATOM     47  N   UNL A   1      39.132  30.708  31.170  1.00  0.00    -0.248 NA
ATOM     48  C   UNL A   1      37.678  31.054  29.376  1.00  0.00     0.031 C 
ATOM     49  C   UNL A   1      37.183  34.115  33.331  1.00  0.00     0.029 A 
ATOM     50  N   UNL A   1      38.819  32.592  33.418  1.00  0.00    -0.354 N 
ATOM     51  C   UNL A   1      39.377  29.760  30.187  1.00  0.00     0.074 A 
ATOM     52  C   UNL A   1      38.413  29.979  29.133  1.00  0.00     0.031 C 
ATOM     53  C   UNL A   1      37.813  34.267  34.507  1.00  0.00     0.029 A 
ATOM     54  C   UNL A   1      38.875  33.271  34.610  1.00  0.00     0.049 A 
ATOM     55  H   UNL A   1      39.436  31.862  33.184  1.00  0.00     0.167 HD
ATOM     56  C   UNL A   1      40.338  28.806  30.158  1.00  0.00     0.037 A 
ATOM     57  C   UNL A   1      39.688  33.100  35.670  1.00  0.00     0.037 A 
ATOM     58  C   UNL A   1      41.311  28.610  31.201  1.00  0.00     0.049 A 
ATOM     59  C   UNL A   1      40.743  32.028  35.615  1.00  0.00     0.074 A 
ATOM     60  C   UNL A   1      42.359  27.709  31.246  1.00  0.00     0.029 A 
ATOM     61  N   UNL A   1      41.351  29.332  32.385  1.00  0.00    -0.354 N 
ATOM     62  N   UNL A   1      41.008  31.177  34.654  1.00  0.00    -0.248 NA
ATOM     63  C   UNL A   1      41.617  31.899  36.789  1.00  0.00     0.031 C 
ATOM     64  C   UNL A   1      43.010  27.858  32.474  1.00  0.00     0.029 A 
ATOM     65  C   UNL A   1      42.396  28.882  33.176  1.00  0.00     0.049 A 
ATOM     66  H   UNL A   1      40.729  30.056  32.627  1.00  0.00     0.167 HD
ATOM     67  C   UNL A   1      42.091  30.428  35.094  1.00  0.00     0.074 A 
ATOM     68  C   UNL A   1      42.444  30.937  36.404  1.00  0.00     0.031 C 
ATOM     69  C   UNL A   1      42.734  29.410  34.473  1.00  0.00     0.037 A 
BRANCH  56  70
ATOM     70  C   UNL A   1      40.389  27.910  28.957  1.00  0.00     0.064 A 
ATOM     71  C   UNL A   1      41.172  28.227  27.836  1.00  0.00     0.173 A 
ATOM     72  C   UNL A   1      39.671  26.704  28.935  1.00  0.00     0.173 A 
ATOM     73  F   UNL A   1      41.866  29.375  27.801  1.00  0.00    -0.203 F 
ATOM     74  C   UNL A   1      41.212  27.386  26.727  1.00  0.00     0.198 A 
ATOM     75  C   UNL A   1      39.737  25.851  27.836  1.00  0.00     0.198 A 
ATOM     76  F   UNL A   1      38.909  26.351  29.982  1.00  0.00    -0.203 F 
ATOM     77  F   UNL A   1      41.927  27.735  25.650  1.00  0.00    -0.200 F 
ATOM     78  C   UNL A   1      40.500  26.196  26.731  1.00  0.00     0.200 A 
ATOM     79  F   UNL A   1      39.058  24.695  27.846  1.00  0.00    -0.200 F 
ATOM     80  F   UNL A   1      40.545  25.384  25.666  1.00  0.00    -0.200 F 
ENDBRANCH  56  70
BRANCH  57  81
ATOM     81  C   UNL A   1      39.547  33.973  36.864  1.00  0.00     0.064 A 
ATOM     82  C   UNL A   1      40.173  35.226  36.918  1.00  0.00     0.173 A 
ATOM     83  C   UNL A   1      38.788  33.573  37.973  1.00  0.00     0.173 A 
ATOM     84  F   UNL A   1      40.926  35.641  35.889  1.00  0.00    -0.203 F 
ATOM     85  C   UNL A   1      40.063  36.037  38.045  1.00  0.00     0.198 A 
ATOM     86  C   UNL A   1      38.656  34.398  39.089  1.00  0.00     0.198 A 
ATOM     87  F   UNL A   1      38.164  32.386  37.968  1.00  0.00    -0.203 F 
ATOM     88  F   UNL A   1      40.709  37.210  38.088  1.00  0.00    -0.200 F 
ATOM     89  C   UNL A   1      39.300  35.625  39.127  1.00  0.00     0.200 A 
ATOM     90  F   UNL A   1      37.907  34.001  40.127  1.00  0.00    -0.200 F 
ATOM     91  F   UNL A   1      39.193  36.407  40.210  1.00  0.00    -0.200 F 
ENDBRANCH  57  81
BRANCH  69  92
ATOM     92  C   UNL A   1      43.902  28.798  35.188  1.00  0.00     0.064 A 
ATOM     93  C   UNL A   1      45.208  29.268  34.994  1.00  0.00     0.173 A 
ATOM     94  C   UNL A   1      43.704  27.762  36.114  1.00  0.00     0.173 A 
ATOM     95  F   UNL A   1      45.449  30.246  34.108  1.00  0.00    -0.203 F 
ATOM     96  C   UNL A   1      46.277  28.709  35.688  1.00  0.00     0.198 A 
ATOM     97  C   UNL A   1      44.771  27.225  36.826  1.00  0.00     0.198 A 
ATOM     98  F   UNL A   1      42.471  27.283  36.339  1.00  0.00    -0.203 F 
ATOM     99  F   UNL A   1      47.524  29.145  35.457  1.00  0.00    -0.200 F 
ATOM    100  C   UNL A   1      46.058  27.694  36.608  1.00  0.00     0.200 A 
ATOM    101  F   UNL A   1      44.555  26.254  37.724  1.00  0.00    -0.200 F 
ATOM    102  F   UNL A   1      47.088  27.165  37.282  1.00  0.00    -0.200 F 
ENDBRANCH  69  92
ENDBRANCH  43  44
ENDBRANCH  35  38
ENDBRANCH  33  34
ENDBRANCH  32  33
ENDBRANCH  31  32
ENDBRANCH  30  31
ENDBRANCH   1  30
TORSDOF 19
ENDMDL
MODEL 3
REMARK VINA RESULT:     -12.1      0.615      2.109
REMARK SMILES CCOC(=O)c1cc(CC)sc1NC(=O)[C@H]1[C@@H]2CC[C@@H](C2)[C@@H]1C(=O)NCCCCCCNC(=O)c1ccc(-c2c3nc(c(-c4c(F)c(F)c(F)c(F)c4F)c4ccc([nH]4)c(-c4c(F)c(F)c(F)c(F)c4F)c4nc(c(-c5c(F)c(F)c(F)c(F)c5F)c5ccc2[nH]5)C=C4)C=C3)cc1
REMARK SMILES IDX 27 1 26 2 25 3 23 4 24 5 22 7 16 8 17 9 18 10 21 11 20 12
REMARK SMILES IDX 19 13 14 14 13 15 15 17 12 18 6 19 7 20 8 21 11 22 4 23 5 24
REMARK SMILES IDX 3 25 2 26 1 27 9 28 10 29 28 30 29 31 30 32 31 33 32 34
REMARK SMILES IDX 33 35 34 37 35 38 36 39 97 40 37 41 96 42 38 43 39 44 40 45
REMARK SMILES IDX 90 46 41 47 95 48 89 49 91 50 42 51 94 52 88 53 87 54 43 56
REMARK SMILES IDX 75 57 55 58 74 59 56 60 59 61 73 62 92 63 57 64 58 65 72 67
REMARK SMILES IDX 93 68 60 69 44 70 45 71 53 72 46 73 47 74 51 75 54 76 48 77
REMARK SMILES IDX 49 78 52 79 50 80 76 81 77 82 85 83 78 84 79 85 83 86 86 87
REMARK SMILES IDX 80 88 81 89 84 90 82 91 61 92 62 93 70 94 63 95 64 96 68 97
REMARK SMILES IDX 71 98 65 99 66 100 69 101 67 102
REMARK H PARENT 25 6 13 16 32 36 91 55 59 66
REMARK Flexibility Score: inf
ROOT
ATOM      1  C   UNL A   1      37.548  22.318  25.072  1.00  0.00     0.021 C 
ENDROOT
BRANCH   1   2
ATOM      2  C   UNL A   1      36.993  23.734  24.989  1.00  0.00     0.116 C 
BRANCH   2   3
ATOM      3  N   UNL A   1      35.769  23.817  25.733  1.00  0.00    -0.356 N 
ATOM      4  C   UNL A   1      34.563  24.274  25.350  1.00  0.00     0.224 C 
ATOM      5  O   UNL A   1      33.839  24.718  26.250  1.00  0.00    -0.275 OA
ATOM      6  H   UNL A   1      35.819  23.492  26.662  1.00  0.00     0.163 HD
BRANCH   4   7
ATOM      7  C   UNL A   1      34.033  24.227  23.927  1.00  0.00     0.094 C 
ATOM      8  C   UNL A   1      32.902  25.077  23.374  1.00  0.00     0.094 C 
ATOM      9  C   UNL A   1      32.087  24.058  22.520  1.00  0.00     0.002 C 
ATOM     10  C   UNL A   1      31.391  23.015  23.429  1.00  0.00     0.005 C 
ATOM     11  C   UNL A   1      33.175  23.168  21.931  1.00  0.00     0.009 C 
ATOM     12  C   UNL A   1      33.782  22.835  23.304  1.00  0.00     0.002 C 
ATOM     13  C   UNL A   1      32.567  22.169  23.958  1.00  0.00     0.005 C 
BRANCH   8  14
ATOM     14  C   UNL A   1      33.284  26.367  22.611  1.00  0.00     0.229 C 
ATOM     15  N   UNL A   1      33.051  27.679  22.879  1.00  0.00    -0.317 N 
ATOM     16  H   UNL A   1      33.501  28.254  22.219  1.00  0.00     0.170 HD
ATOM     17  O   UNL A   1      34.041  26.193  21.634  1.00  0.00    -0.274 OA
BRANCH  15  18
ATOM     18  C   UNL A   1      32.364  28.444  23.807  1.00  0.00     0.110 A 
ATOM     19  C   UNL A   1      31.106  29.017  23.659  1.00  0.00     0.095 A 
ATOM     20  C   UNL A   1      30.918  30.049  24.659  1.00  0.00     0.033 A 
ATOM     21  C   UNL A   1      31.899  30.009  25.636  1.00  0.00     0.007 A 
ATOM     22  S   UNL A   1      32.764  28.560  25.443  1.00  0.00    -0.122 S 
BRANCH  19  23
ATOM     23  C   UNL A   1      30.213  28.626  22.579  1.00  0.00     0.341 C 
ATOM     24  O   UNL A   1      29.906  29.402  21.689  1.00  0.00    -0.246 OA
BRANCH  23  25
ATOM     25  O   UNL A   1      29.803  27.329  22.654  1.00  0.00    -0.462 OA
BRANCH  25  26
ATOM     26  C   UNL A   1      28.982  27.014  23.791  1.00  0.00     0.230 C 
ATOM     27  C   UNL A   1      29.598  25.973  24.715  1.00  0.00     0.049 C 
ENDBRANCH  25  26
ENDBRANCH  23  25
ENDBRANCH  19  23
BRANCH  21  28
ATOM     28  C   UNL A   1      32.216  30.966  26.752  1.00  0.00     0.043 C 
ATOM     29  C   UNL A   1      31.398  32.257  26.774  1.00  0.00     0.010 C 
ENDBRANCH  21  28
ENDBRANCH  15  18
ENDBRANCH   8  14
ENDBRANCH   4   7
ENDBRANCH   2   3
ENDBRANCH   1   2
BRANCH   1  30
ATOM     30  C   UNL A   1      36.470  21.233  25.083  1.00  0.00     0.002 C 
BRANCH  30  31
ATOM     31  C   UNL A   1      36.997  19.801  24.975  1.00  0.00     0.002 C 
BRANCH  31  32
ATOM     32  C   UNL A   1      38.508  19.681  24.762  1.00  0.00     0.021 C 
BRANCH  32  33
ATOM     33  C   UNL A   1      39.338  19.723  26.037  1.00  0.00     0.116 C 
BRANCH  33  34
ATOM     34  N   UNL A   1      40.492  18.848  25.970  1.00  0.00    -0.352 N 
ATOM     35  C   UNL A   1      41.819  19.182  26.025  1.00  0.00     0.251 C 
ATOM     36  H   UNL A   1      40.297  17.888  25.871  1.00  0.00     0.163 HD
ATOM     37  O   UNL A   1      42.689  18.352  25.790  1.00  0.00    -0.269 OA
BRANCH  35  38
ATOM     38  C   UNL A   1      42.189  20.571  26.351  1.00  0.00     0.039 A 
ATOM     39  C   UNL A   1      42.374  20.921  27.689  1.00  0.00     0.014 A 
ATOM     40  C   UNL A   1      42.377  21.511  25.333  1.00  0.00     0.014 A 
ATOM     41  C   UNL A   1      42.789  22.213  28.007  1.00  0.00     0.010 A 
ATOM     42  C   UNL A   1      42.855  22.778  25.648  1.00  0.00     0.010 A 
ATOM     43  C   UNL A   1      43.055  23.142  26.988  1.00  0.00    -0.014 A 
BRANCH  43  44
ATOM     44  C   UNL A   1      43.519  24.512  27.307  1.00  0.00     0.031 A 
ATOM     45  C   UNL A   1      42.544  25.523  27.839  1.00  0.00     0.074 A 
ATOM     46  C   UNL A   1      44.798  24.857  27.063  1.00  0.00     0.049 A 
ATOM     47  N   UNL A   1      42.729  26.789  28.109  1.00  0.00    -0.248 NA
ATOM     48  C   UNL A   1      41.170  25.052  28.074  1.00  0.00     0.031 C 
ATOM     49  C   UNL A   1      45.821  23.970  26.507  1.00  0.00     0.029 A 
ATOM     50  N   UNL A   1      45.450  26.051  27.240  1.00  0.00    -0.354 N 
ATOM     51  C   UNL A   1      41.497  27.266  28.532  1.00  0.00     0.074 A 
ATOM     52  C   UNL A   1      40.558  26.171  28.432  1.00  0.00     0.031 C 
ATOM     53  C   UNL A   1      46.976  24.647  26.402  1.00  0.00     0.029 A 
ATOM     54  C   UNL A   1      46.766  26.021  26.849  1.00  0.00     0.049 A 
ATOM     55  H   UNL A   1      45.016  26.852  27.612  1.00  0.00     0.167 HD
ATOM     56  C   UNL A   1      41.183  28.502  28.988  1.00  0.00     0.037 A 
ATOM     57  C   UNL A   1      47.693  26.997  26.845  1.00  0.00     0.037 A 
ATOM     58  C   UNL A   1      42.128  29.581  29.108  1.00  0.00     0.049 A 
ATOM     59  C   UNL A   1      47.316  28.364  27.350  1.00  0.00     0.074 A 
ATOM     60  C   UNL A   1      41.926  30.854  29.607  1.00  0.00     0.029 A 
ATOM     61  N   UNL A   1      43.459  29.506  28.723  1.00  0.00    -0.354 N 
ATOM     62  N   UNL A   1      46.163  28.788  27.808  1.00  0.00    -0.248 NA
ATOM     63  C   UNL A   1      48.372  29.386  27.344  1.00  0.00     0.031 C 
ATOM     64  C   UNL A   1      43.124  31.565  29.488  1.00  0.00     0.029 A 
ATOM     65  C   UNL A   1      44.085  30.721  28.956  1.00  0.00     0.049 A 
ATOM     66  H   UNL A   1      43.893  28.711  28.340  1.00  0.00     0.167 HD
ATOM     67  C   UNL A   1      46.359  30.114  28.166  1.00  0.00     0.074 A 
ATOM     68  C   UNL A   1      47.747  30.422  27.887  1.00  0.00     0.031 C 
ATOM     69  C   UNL A   1      45.471  31.000  28.678  1.00  0.00     0.037 A 
BRANCH  56  70
ATOM     70  C   UNL A   1      39.761  28.749  29.396  1.00  0.00     0.064 A 
ATOM     71  C   UNL A   1      39.321  28.506  30.707  1.00  0.00     0.173 A 
ATOM     72  C   UNL A   1      38.833  29.264  28.478  1.00  0.00     0.173 A 
ATOM     73  F   UNL A   1      40.164  28.001  31.619  1.00  0.00    -0.203 F 
ATOM     74  C   UNL A   1      37.999  28.741  31.075  1.00  0.00     0.198 A 
ATOM     75  C   UNL A   1      37.519  29.526  28.858  1.00  0.00     0.198 A 
ATOM     76  F   UNL A   1      39.203  29.518  27.213  1.00  0.00    -0.203 F 
ATOM     77  F   UNL A   1      37.590  28.455  32.318  1.00  0.00    -0.200 F 
ATOM     78  C   UNL A   1      37.101  29.258  30.152  1.00  0.00     0.200 A 
ATOM     79  F   UNL A   1      36.656  30.036  27.968  1.00  0.00    -0.200 F 
ATOM     80  F   UNL A   1      35.831  29.490  30.509  1.00  0.00    -0.200 F 
ENDBRANCH  56  70
BRANCH  57  81
ATOM     81  C   UNL A   1      49.069  26.713  26.362  1.00  0.00     0.064 A 
ATOM     82  C   UNL A   1      50.035  26.170  27.221  1.00  0.00     0.173 A 
ATOM     83  C   UNL A   1      49.447  26.979  25.039  1.00  0.00     0.173 A 
ATOM     84  F   UNL A   1      49.726  25.918  28.501  1.00  0.00    -0.203 F 
ATOM     85  C   UNL A   1      51.333  25.925  26.780  1.00  0.00     0.198 A 
ATOM     86  C   UNL A   1      50.738  26.707  24.591  1.00  0.00     0.198 A 
ATOM     87  F   UNL A   1      48.557  27.492  24.176  1.00  0.00    -0.203 F 
ATOM     88  F   UNL A   1      52.250  25.449  27.633  1.00  0.00    -0.200 F 
ATOM     89  C   UNL A   1      51.682  26.189  25.463  1.00  0.00     0.200 A 
ATOM     90  F   UNL A   1      51.067  26.951  23.315  1.00  0.00    -0.200 F 
ATOM     91  F   UNL A   1      52.931  25.950  25.039  1.00  0.00    -0.200 F 
ENDBRANCH  57  81
BRANCH  69  92
ATOM     92  C   UNL A   1      45.978  32.375  28.997  1.00  0.00     0.064 A 
ATOM     93  C   UNL A   1      46.554  32.675  30.239  1.00  0.00     0.173 A 
ATOM     94  C   UNL A   1      45.933  33.390  28.029  1.00  0.00     0.173 A 
ATOM     95  F   UNL A   1      46.606  31.742  31.202  1.00  0.00    -0.203 F 
ATOM     96  C   UNL A   1      47.047  33.948  30.508  1.00  0.00     0.198 A 
ATOM     97  C   UNL A   1      46.452  34.653  28.291  1.00  0.00     0.198 A 
ATOM     98  F   UNL A   1      45.398  33.150  26.821  1.00  0.00    -0.203 F 
ATOM     99  F   UNL A   1      47.555  34.225  31.717  1.00  0.00    -0.200 F 
ATOM    100  C   UNL A   1      47.003  34.934  29.533  1.00  0.00     0.200 A 
ATOM    101  F   UNL A   1      46.421  35.600  27.343  1.00  0.00    -0.200 F 
ATOM    102  F   UNL A   1      47.489  36.156  29.791  1.00  0.00    -0.200 F 
ENDBRANCH  69  92
ENDBRANCH  43  44
ENDBRANCH  35  38
ENDBRANCH  33  34
ENDBRANCH  32  33
ENDBRANCH  31  32
ENDBRANCH  30  31
ENDBRANCH   1  30
TORSDOF 19
ENDMDL
