MODEL 1
REMARK VINA RESULT:     -13.1      0.000      0.000
REMARK SMILES COc1ccc(C(=O)Nc2cc(C(=O)NCCCCCCNC(=O)c3ccc(-c4c5nc(c(-c6c(F)c(F)c(F)c(F)c6F)c6ccc([nH]6)c(-c6c(F)c(F)c(F)c(F)c6F)c6nc(c(-c7c(F)c(F)c(F)c(F)c7F)c7ccc4[nH]7)C=C6)C=C5)cc3)c(Cl)cc2Cl)cc1Cl
REMARK SMILES IDX 18 1 17 2 16 3 15 4 13 5 14 6 12 8 10 9 11 10 91 11 90 12
REMARK SMILES IDX 92 13 88 14 89 15 9 16 7 17 8 18 6 20 3 21 4 22 94 23 5 24
REMARK SMILES IDX 93 25 95 26 2 27 1 28 19 29 20 30 21 31 22 32 23 33 24 35
REMARK SMILES IDX 25 36 26 37 87 38 27 39 86 40 28 41 29 42 30 43 80 44 31 45
REMARK SMILES IDX 85 46 79 47 81 48 32 49 84 50 78 51 77 52 33 54 65 55 45 56
REMARK SMILES IDX 64 57 46 58 49 59 63 60 82 61 47 62 48 63 62 65 83 66 50 67
REMARK SMILES IDX 34 68 35 69 43 70 36 71 37 72 41 73 44 74 38 75 39 76 42 77
REMARK SMILES IDX 40 78 66 79 67 80 75 81 68 82 69 83 73 84 76 85 70 86 71 87
REMARK SMILES IDX 74 88 72 89 51 90 52 91 60 92 53 93 54 94 58 95 61 96 55 97
REMARK SMILES IDX 56 98 59 99 57 100
REMARK H PARENT 15 7 9 19 22 34 81 53 49 64
REMARK Flexibility Score: inf
ROOT
ATOM      1  C   UNL A   1      32.281  29.576  27.227  1.00  0.00     0.002 C 
ENDROOT
BRANCH   1   2
ATOM      2  C   UNL A   1      31.458  28.291  27.383  1.00  0.00     0.021 C 
BRANCH   2   3
ATOM      3  C   UNL A   1      31.903  27.071  26.578  1.00  0.00     0.116 C 
BRANCH   3   4
ATOM      4  N   UNL A   1      31.261  25.824  26.946  1.00  0.00    -0.352 N 
ATOM      5  C   UNL A   1      31.671  24.520  26.794  1.00  0.00     0.252 C 
ATOM      6  O   UNL A   1      30.976  23.628  27.279  1.00  0.00    -0.269 OA
ATOM      7  H   UNL A   1      30.384  25.928  27.378  1.00  0.00     0.163 HD
BRANCH   5   8
ATOM      8  C   UNL A   1      32.844  24.112  25.972  1.00  0.00     0.060 A 
ATOM      9  C   UNL A   1      33.831  24.219  23.722  1.00  0.00     0.061 A 
ATOM     10  C   UNL A   1      32.777  24.482  24.607  1.00  0.00     0.043 A 
ATOM     11  C   UNL A   1      34.942  23.508  24.198  1.00  0.00     0.066 A 
ATOM     12  C   UNL A   1      34.998  23.089  25.527  1.00  0.00     0.044 A 
ATOM     13  Cl  UNL A   1      36.295  23.170  23.177  1.00  0.00    -0.082 Cl
ATOM     14  C   UNL A   1      33.938  23.355  26.403  1.00  0.00     0.055 A 
ATOM     15  Cl  UNL A   1      34.023  22.574  27.940  1.00  0.00    -0.083 Cl
BRANCH   9  16
ATOM     16  N   UNL A   1      33.826  24.629  22.372  1.00  0.00    -0.321 N 
ATOM     17  C   UNL A   1      33.021  25.484  21.652  1.00  0.00     0.255 C 
ATOM     18  O   UNL A   1      33.075  25.453  20.422  1.00  0.00    -0.269 OA
ATOM     19  H   UNL A   1      34.542  24.220  21.835  1.00  0.00     0.170 HD
BRANCH  17  20
ATOM     20  C   UNL A   1      32.176  26.525  22.300  1.00  0.00     0.041 A 
ATOM     21  C   UNL A   1      30.593  28.575  23.437  1.00  0.00     0.137 A 
ATOM     22  C   UNL A   1      31.910  28.821  23.014  1.00  0.00     0.049 A 
ATOM     23  C   UNL A   1      30.091  27.275  23.317  1.00  0.00     0.083 A 
ATOM     24  C   UNL A   1      32.692  27.814  22.441  1.00  0.00     0.018 A 
ATOM     25  C   UNL A   1      30.912  26.252  22.827  1.00  0.00     0.038 A 
ATOM     26  Cl  UNL A   1      28.458  26.797  23.634  1.00  0.00    -0.080 Cl
BRANCH  21  27
ATOM     27  O   UNL A   1      29.975  29.707  23.887  1.00  0.00    -0.495 OA
ATOM     28  C   UNL A   1      29.187  30.463  22.982  1.00  0.00     0.278 C 
ENDBRANCH  21  27
ENDBRANCH  17  20
ENDBRANCH   9  16
ENDBRANCH   5   8
ENDBRANCH   3   4
ENDBRANCH   2   3
ENDBRANCH   1   2
BRANCH   1  29
ATOM     29  C   UNL A   1      31.734  30.663  26.297  1.00  0.00     0.002 C 
BRANCH  29  30
ATOM     30  C   UNL A   1      31.510  32.050  26.902  1.00  0.00     0.021 C 
BRANCH  30  31
ATOM     31  C   UNL A   1      32.756  32.899  27.133  1.00  0.00     0.116 C 
BRANCH  31  32
ATOM     32  N   UNL A   1      32.456  34.226  27.644  1.00  0.00    -0.352 N 
ATOM     33  C   UNL A   1      33.028  34.922  28.678  1.00  0.00     0.251 C 
ATOM     34  H   UNL A   1      31.732  34.700  27.174  1.00  0.00     0.163 HD
ATOM     35  O   UNL A   1      32.535  35.993  29.041  1.00  0.00    -0.269 OA
BRANCH  33  36
ATOM     36  C   UNL A   1      34.216  34.395  29.387  1.00  0.00     0.039 A 
ATOM     37  C   UNL A   1      34.027  33.680  30.574  1.00  0.00     0.014 A 
ATOM     38  C   UNL A   1      35.511  34.620  28.912  1.00  0.00     0.014 A 
ATOM     39  C   UNL A   1      35.124  33.136  31.245  1.00  0.00     0.010 A 
ATOM     40  C   UNL A   1      36.600  34.018  29.544  1.00  0.00     0.010 A 
ATOM     41  C   UNL A   1      36.419  33.268  30.716  1.00  0.00    -0.014 A 
BRANCH  41  42
ATOM     42  C   UNL A   1      37.585  32.616  31.369  1.00  0.00     0.031 A 
ATOM     43  C   UNL A   1      38.275  31.450  30.714  1.00  0.00     0.074 A 
ATOM     44  C   UNL A   1      37.984  33.035  32.588  1.00  0.00     0.049 A 
ATOM     45  N   UNL A   1      39.263  30.715  31.160  1.00  0.00    -0.248 NA
ATOM     46  C   UNL A   1      37.774  31.041  29.393  1.00  0.00     0.031 C 
ATOM     47  C   UNL A   1      37.367  34.120  33.352  1.00  0.00     0.029 A 
ATOM     48  N   UNL A   1      38.995  32.590  33.405  1.00  0.00    -0.354 N 
ATOM     49  C   UNL A   1      39.490  29.751  30.186  1.00  0.00     0.074 A 
ATOM     50  C   UNL A   1      38.509  29.965  29.144  1.00  0.00     0.031 C 
ATOM     51  C   UNL A   1      38.018  34.265  34.517  1.00  0.00     0.029 A 
ATOM     52  C   UNL A   1      39.073  33.260  34.602  1.00  0.00     0.049 A 
ATOM     53  H   UNL A   1      39.606  31.859  33.156  1.00  0.00     0.167 HD
ATOM     54  C   UNL A   1      40.442  28.789  30.156  1.00  0.00     0.037 A 
ATOM     55  C   UNL A   1      39.893  33.078  35.655  1.00  0.00     0.037 A 
ATOM     56  C   UNL A   1      41.438  28.599  31.178  1.00  0.00     0.049 A 
ATOM     57  C   UNL A   1      40.943  32.001  35.590  1.00  0.00     0.074 A 
ATOM     58  C   UNL A   1      42.491  27.702  31.199  1.00  0.00     0.029 A 
ATOM     59  N   UNL A   1      41.502  29.317  32.363  1.00  0.00    -0.354 N 
ATOM     60  N   UNL A   1      41.200  31.152  34.625  1.00  0.00    -0.248 NA
ATOM     61  C   UNL A   1      41.827  31.864  36.756  1.00  0.00     0.031 C 
ATOM     62  C   UNL A   1      43.158  27.836  32.420  1.00  0.00     0.029 A 
ATOM     63  C   UNL A   1      42.560  28.862  33.134  1.00  0.00     0.049 A 
ATOM     64  H   UNL A   1      40.887  30.043  32.618  1.00  0.00     0.167 HD
ATOM     65  C   UNL A   1      42.288  30.403  35.053  1.00  0.00     0.074 A 
ATOM     66  C   UNL A   1      42.657  30.911  36.358  1.00  0.00     0.031 C 
ATOM     67  C   UNL A   1      42.922  29.384  34.425  1.00  0.00     0.037 A 
BRANCH  54  68
ATOM     68  C   UNL A   1      40.467  27.858  28.978  1.00  0.00     0.064 A 
ATOM     69  C   UNL A   1      41.273  28.108  27.857  1.00  0.00     0.173 A 
ATOM     70  C   UNL A   1      39.736  26.660  29.004  1.00  0.00     0.173 A 
ATOM     71  F   UNL A   1      41.985  29.242  27.777  1.00  0.00    -0.203 F 
ATOM     72  C   UNL A   1      41.334  27.201  26.801  1.00  0.00     0.198 A 
ATOM     73  C   UNL A   1      39.823  25.742  27.961  1.00  0.00     0.198 A 
ATOM     74  F   UNL A   1      38.954  26.368  30.055  1.00  0.00    -0.203 F 
ATOM     75  F   UNL A   1      42.085  27.477  25.725  1.00  0.00    -0.200 F 
ATOM     76  C   UNL A   1      40.617  26.015  26.859  1.00  0.00     0.200 A 
ATOM     77  F   UNL A   1      39.141  24.590  28.025  1.00  0.00    -0.200 F 
ATOM     78  F   UNL A   1      40.692  25.136  25.851  1.00  0.00    -0.200 F 
ENDBRANCH  54  68
BRANCH  55  79
ATOM     79  C   UNL A   1      39.758  33.932  36.866  1.00  0.00     0.064 A 
ATOM     80  C   UNL A   1      38.941  33.545  37.938  1.00  0.00     0.173 A 
ATOM     81  C   UNL A   1      40.415  35.168  36.962  1.00  0.00     0.173 A 
ATOM     82  F   UNL A   1      38.274  32.383  37.885  1.00  0.00    -0.203 F 
ATOM     83  C   UNL A   1      38.759  34.375  39.042  1.00  0.00     0.198 A 
ATOM     84  C   UNL A   1      40.261  35.982  38.083  1.00  0.00     0.198 A 
ATOM     85  F   UNL A   1      41.213  35.584  35.968  1.00  0.00    -0.203 F 
ATOM     86  F   UNL A   1      37.923  34.009  40.022  1.00  0.00    -0.200 F 
ATOM     87  C   UNL A   1      39.422  35.591  39.116  1.00  0.00     0.200 A 
ATOM     88  F   UNL A   1      40.915  37.148  38.156  1.00  0.00    -0.200 F 
ATOM     89  F   UNL A   1      39.245  36.390  40.176  1.00  0.00    -0.200 F 
ENDBRANCH  55  79
BRANCH  67  90
ATOM     90  C   UNL A   1      44.108  28.776  35.119  1.00  0.00     0.064 A 
ATOM     91  C   UNL A   1      43.976  27.670  35.973  1.00  0.00     0.173 A 
ATOM     92  C   UNL A   1      45.397  29.283  34.897  1.00  0.00     0.173 A 
ATOM     93  F   UNL A   1      42.764  27.157  36.230  1.00  0.00    -0.203 F 
ATOM     94  C   UNL A   1      45.088  27.115  36.600  1.00  0.00     0.198 A 
ATOM     95  C   UNL A   1      46.510  28.704  35.499  1.00  0.00     0.198 A 
ATOM     96  F   UNL A   1      45.579  30.335  34.083  1.00  0.00    -0.203 F 
ATOM     97  F   UNL A   1      44.933  26.092  37.453  1.00  0.00    -0.200 F 
ATOM     98  C   UNL A   1      46.354  27.626  36.357  1.00  0.00     0.200 A 
ATOM     99  F   UNL A   1      47.734  29.189  35.249  1.00  0.00    -0.200 F 
ATOM    100  F   UNL A   1      47.424  27.085  36.955  1.00  0.00    -0.200 F 
ENDBRANCH  67  90
ENDBRANCH  41  42
ENDBRANCH  33  36
ENDBRANCH  31  32
ENDBRANCH  30  31
ENDBRANCH  29  30
ENDBRANCH   1  29
TORSDOF 16
ENDMDL
MODEL 2
REMARK VINA RESULT:     -12.7      0.657      7.094
REMARK SMILES COc1ccc(C(=O)Nc2cc(C(=O)NCCCCCCNC(=O)c3ccc(-c4c5nc(c(-c6c(F)c(F)c(F)c(F)c6F)c6ccc([nH]6)c(-c6c(F)c(F)c(F)c(F)c6F)c6nc(c(-c7c(F)c(F)c(F)c(F)c7F)c7ccc4[nH]7)C=C6)C=C5)cc3)c(Cl)cc2Cl)cc1Cl
REMARK SMILES IDX 18 1 17 2 16 3 15 4 13 5 14 6 12 8 10 9 11 10 91 11 90 12
REMARK SMILES IDX 92 13 88 14 89 15 9 16 7 17 8 18 6 20 3 21 4 22 94 23 5 24
REMARK SMILES IDX 93 25 95 26 2 27 1 28 19 29 20 30 21 31 22 32 23 33 24 35
REMARK SMILES IDX 25 36 26 37 87 38 27 39 86 40 28 41 29 42 30 43 80 44 31 45
REMARK SMILES IDX 85 46 79 47 81 48 32 49 84 50 78 51 77 52 33 54 65 55 45 56
REMARK SMILES IDX 64 57 46 58 49 59 63 60 82 61 47 62 48 63 62 65 83 66 50 67
REMARK SMILES IDX 34 68 35 69 43 70 36 71 37 72 41 73 44 74 38 75 39 76 42 77
REMARK SMILES IDX 40 78 66 79 67 80 75 81 68 82 69 83 73 84 76 85 70 86 71 87
REMARK SMILES IDX 74 88 72 89 51 90 52 91 60 92 53 93 54 94 58 95 61 96 55 97
REMARK SMILES IDX 56 98 59 99 57 100
REMARK H PARENT 15 7 9 19 22 34 81 53 49 64
REMARK Flexibility Score: inf
ROOT
ATOM      1  C   UNL A   1      31.991  29.499  27.212  1.00  0.00     0.002 C 
ENDROOT
BRANCH   1   2
ATOM      2  C   UNL A   1      31.252  28.195  26.886  1.00  0.00     0.021 C 
BRANCH   2   3
ATOM      3  C   UNL A   1      32.096  26.928  26.745  1.00  0.00     0.116 C 
BRANCH   3   4
ATOM      4  N   UNL A   1      31.392  25.688  27.012  1.00  0.00    -0.352 N 
ATOM      5  C   UNL A   1      31.746  24.381  26.771  1.00  0.00     0.252 C 
ATOM      6  O   UNL A   1      31.002  23.490  27.180  1.00  0.00    -0.269 OA
ATOM      7  H   UNL A   1      30.512  25.802  27.437  1.00  0.00     0.163 HD
BRANCH   5   8
ATOM      8  C   UNL A   1      32.914  23.981  25.939  1.00  0.00     0.060 A 
ATOM      9  C   UNL A   1      33.871  24.072  23.675  1.00  0.00     0.061 A 
ATOM     10  C   UNL A   1      32.823  24.330  24.570  1.00  0.00     0.043 A 
ATOM     11  C   UNL A   1      34.998  23.385  24.147  1.00  0.00     0.066 A 
ATOM     12  C   UNL A   1      35.078  22.985  25.481  1.00  0.00     0.044 A 
ATOM     13  Cl  UNL A   1      36.344  23.054  23.112  1.00  0.00    -0.082 Cl
ATOM     14  C   UNL A   1      34.025  23.246  26.367  1.00  0.00     0.055 A 
ATOM     15  Cl  UNL A   1      34.143  22.488  27.912  1.00  0.00    -0.083 Cl
BRANCH   9  16
ATOM     16  N   UNL A   1      33.841  24.463  22.320  1.00  0.00    -0.321 N 
ATOM     17  C   UNL A   1      33.030  25.315  21.605  1.00  0.00     0.255 C 
ATOM     18  O   UNL A   1      33.059  25.267  20.375  1.00  0.00    -0.269 OA
ATOM     19  H   UNL A   1      34.543  24.041  21.774  1.00  0.00     0.170 HD
BRANCH  17  20
ATOM     20  C   UNL A   1      32.208  26.374  22.256  1.00  0.00     0.041 A 
ATOM     21  C   UNL A   1      30.667  28.453  23.395  1.00  0.00     0.137 A 
ATOM     22  C   UNL A   1      31.974  28.683  22.935  1.00  0.00     0.049 A 
ATOM     23  C   UNL A   1      30.153  27.155  23.311  1.00  0.00     0.083 A 
ATOM     24  C   UNL A   1      32.735  27.661  22.360  1.00  0.00     0.018 A 
ATOM     25  C   UNL A   1      30.956  26.118  22.818  1.00  0.00     0.038 A 
ATOM     26  Cl  UNL A   1      28.527  26.694  23.677  1.00  0.00    -0.080 Cl
BRANCH  21  27
ATOM     27  O   UNL A   1      30.067  29.598  23.840  1.00  0.00    -0.495 OA
ATOM     28  C   UNL A   1      29.274  30.352  22.938  1.00  0.00     0.278 C 
ENDBRANCH  21  27
ENDBRANCH  17  20
ENDBRANCH   9  16
ENDBRANCH   5   8
ENDBRANCH   3   4
ENDBRANCH   2   3
ENDBRANCH   1   2
BRANCH   1  29
ATOM     29  C   UNL A   1      31.784  30.688  26.268  1.00  0.00     0.002 C 
BRANCH  29  30
ATOM     30  C   UNL A   1      31.580  32.061  26.912  1.00  0.00     0.021 C 
BRANCH  30  31
ATOM     31  C   UNL A   1      32.811  32.956  27.007  1.00  0.00     0.116 C 
BRANCH  31  32
ATOM     32  N   UNL A   1      32.542  34.232  27.648  1.00  0.00    -0.352 N 
ATOM     33  C   UNL A   1      33.121  34.801  28.754  1.00  0.00     0.251 C 
ATOM     34  H   UNL A   1      31.837  34.772  27.223  1.00  0.00     0.163 HD
ATOM     35  O   UNL A   1      32.652  35.844  29.220  1.00  0.00    -0.269 OA
BRANCH  33  36
ATOM     36  C   UNL A   1      34.285  34.171  29.416  1.00  0.00     0.039 A 
ATOM     37  C   UNL A   1      34.055  33.225  30.419  1.00  0.00     0.014 A 
ATOM     38  C   UNL A   1      35.595  34.521  29.079  1.00  0.00     0.014 A 
ATOM     39  C   UNL A   1      35.133  32.583  31.034  1.00  0.00     0.010 A 
ATOM     40  C   UNL A   1      36.668  33.831  29.644  1.00  0.00     0.010 A 
ATOM     41  C   UNL A   1      36.449  32.853  30.627  1.00  0.00    -0.014 A 
BRANCH  41  42
ATOM     42  C   UNL A   1      37.600  32.111  31.207  1.00  0.00     0.031 A 
ATOM     43  C   UNL A   1      38.125  32.462  32.573  1.00  0.00     0.074 A 
ATOM     44  C   UNL A   1      38.213  31.159  30.475  1.00  0.00     0.049 A 
ATOM     45  N   UNL A   1      39.156  31.971  33.215  1.00  0.00    -0.248 NA
ATOM     46  C   UNL A   1      37.413  33.521  33.306  1.00  0.00     0.031 C 
ATOM     47  C   UNL A   1      37.834  30.761  29.119  1.00  0.00     0.029 A 
ATOM     48  N   UNL A   1      39.296  30.363  30.762  1.00  0.00    -0.354 N 
ATOM     49  C   UNL A   1      39.224  32.669  34.414  1.00  0.00     0.074 A 
ATOM     50  C   UNL A   1      38.159  33.648  34.394  1.00  0.00     0.031 C 
ATOM     51  C   UNL A   1      38.659  29.789  28.697  1.00  0.00     0.029 A 
ATOM     52  C   UNL A   1      39.650  29.521  29.735  1.00  0.00     0.049 A 
ATOM     53  H   UNL A   1      39.773  30.392  31.623  1.00  0.00     0.167 HD
ATOM     54  C   UNL A   1      40.086  32.494  35.445  1.00  0.00     0.037 A 
ATOM     55  C   UNL A   1      40.665  28.642  29.634  1.00  0.00     0.037 A 
ATOM     56  C   UNL A   1      41.123  31.496  35.477  1.00  0.00     0.049 A 
ATOM     57  C   UNL A   1      41.604  28.469  30.798  1.00  0.00     0.074 A 
ATOM     58  C   UNL A   1      41.995  31.192  36.508  1.00  0.00     0.029 A 
ATOM     59  N   UNL A   1      41.432  30.643  34.427  1.00  0.00    -0.354 N 
ATOM     60  N   UNL A   1      41.605  29.077  31.959  1.00  0.00    -0.248 NA
ATOM     61  C   UNL A   1      42.678  27.478  30.643  1.00  0.00     0.031 C 
ATOM     62  C   UNL A   1      42.868  30.195  36.064  1.00  0.00     0.029 A 
ATOM     63  C   UNL A   1      42.501  29.833  34.777  1.00  0.00     0.049 A 
ATOM     64  H   UNL A   1      40.963  30.617  33.562  1.00  0.00     0.167 HD
ATOM     65  C   UNL A   1      42.655  28.525  32.680  1.00  0.00     0.074 A 
ATOM     66  C   UNL A   1      43.258  27.517  31.834  1.00  0.00     0.031 C 
ATOM     67  C   UNL A   1      43.083  28.826  33.929  1.00  0.00     0.037 A 
BRANCH  54  68
ATOM     68  C   UNL A   1      39.950  33.396  36.638  1.00  0.00     0.064 A 
ATOM     69  C   UNL A   1      40.667  34.598  36.739  1.00  0.00     0.173 A 
ATOM     70  C   UNL A   1      39.033  33.094  37.655  1.00  0.00     0.173 A 
ATOM     71  F   UNL A   1      41.564  34.931  35.798  1.00  0.00    -0.203 F 
ATOM     72  C   UNL A   1      40.481  35.456  37.821  1.00  0.00     0.198 A 
ATOM     73  C   UNL A   1      38.827  33.967  38.721  1.00  0.00     0.198 A 
ATOM     74  F   UNL A   1      38.316  31.961  37.605  1.00  0.00    -0.203 F 
ATOM     75  F   UNL A   1      41.202  36.582  37.913  1.00  0.00    -0.200 F 
ATOM     76  C   UNL A   1      39.554  35.144  38.805  1.00  0.00     0.200 A 
ATOM     77  F   UNL A   1      37.921  33.672  39.662  1.00  0.00    -0.200 F 
ATOM     78  F   UNL A   1      39.364  35.978  39.835  1.00  0.00    -0.200 F 
ENDBRANCH  54  68
BRANCH  55  79
ATOM     79  C   UNL A   1      40.854  27.855  28.386  1.00  0.00     0.064 A 
ATOM     80  C   UNL A   1      40.276  26.587  28.235  1.00  0.00     0.173 A 
ATOM     81  C   UNL A   1      41.645  28.338  27.332  1.00  0.00     0.173 A 
ATOM     82  F   UNL A   1      39.529  26.070  29.222  1.00  0.00    -0.203 F 
ATOM     83  C   UNL A   1      40.508  25.818  27.096  1.00  0.00     0.198 A 
ATOM     84  C   UNL A   1      41.848  27.584  26.178  1.00  0.00     0.198 A 
ATOM     85  F   UNL A   1      42.217  29.547  27.422  1.00  0.00    -0.203 F 
ATOM     86  F   UNL A   1      39.995  24.584  27.007  1.00  0.00    -0.200 F 
ATOM     87  C   UNL A   1      41.290  26.319  26.066  1.00  0.00     0.200 A 
ATOM     88  F   UNL A   1      42.593  28.078  25.180  1.00  0.00    -0.200 F 
ATOM     89  F   UNL A   1      41.516  25.579  24.973  1.00  0.00    -0.200 F 
ENDBRANCH  55  79
BRANCH  67  90
ATOM     90  C   UNL A   1      44.235  28.030  34.476  1.00  0.00     0.064 A 
ATOM     91  C   UNL A   1      45.561  28.471  34.353  1.00  0.00     0.173 A 
ATOM     92  C   UNL A   1      44.003  26.830  35.165  1.00  0.00     0.173 A 
ATOM     93  F   UNL A   1      45.837  29.604  33.690  1.00  0.00    -0.203 F 
ATOM     94  C   UNL A   1      46.613  27.724  34.874  1.00  0.00     0.198 A 
ATOM     95  C   UNL A   1      45.055  26.104  35.714  1.00  0.00     0.198 A 
ATOM     96  F   UNL A   1      42.752  26.368  35.318  1.00  0.00    -0.203 F 
ATOM     97  F   UNL A   1      47.877  28.137  34.698  1.00  0.00    -0.200 F 
ATOM     98  C   UNL A   1      46.361  26.546  35.561  1.00  0.00     0.200 A 
ATOM     99  F   UNL A   1      44.807  24.974  36.392  1.00  0.00    -0.200 F 
ATOM    100  F   UNL A   1      47.375  25.833  36.069  1.00  0.00    -0.200 F 
ENDBRANCH  67  90
ENDBRANCH  41  42
ENDBRANCH  33  36
ENDBRANCH  31  32
ENDBRANCH  30  31
ENDBRANCH  29  30
ENDBRANCH   1  29
TORSDOF 16
ENDMDL
MODEL 3
REMARK VINA RESULT:     -12.7      5.547     10.675
REMARK SMILES COc1ccc(C(=O)Nc2cc(C(=O)NCCCCCCNC(=O)c3ccc(-c4c5nc(c(-c6c(F)c(F)c(F)c(F)c6F)c6ccc([nH]6)c(-c6c(F)c(F)c(F)c(F)c6F)c6nc(c(-c7c(F)c(F)c(F)c(F)c7F)c7ccc4[nH]7)C=C6)C=C5)cc3)c(Cl)cc2Cl)cc1Cl
REMARK SMILES IDX 18 1 17 2 16 3 15 4 13 5 14 6 12 8 10 9 11 10 91 11 90 12
REMARK SMILES IDX 92 13 88 14 89 15 9 16 7 17 8 18 6 20 3 21 4 22 94 23 5 24
REMARK SMILES IDX 93 25 95 26 2 27 1 28 19 29 20 30 21 31 22 32 23 33 24 35
REMARK SMILES IDX 25 36 26 37 87 38 27 39 86 40 28 41 29 42 30 43 80 44 31 45
REMARK SMILES IDX 85 46 79 47 81 48 32 49 84 50 78 51 77 52 33 54 65 55 45 56
REMARK SMILES IDX 64 57 46 58 49 59 63 60 82 61 47 62 48 63 62 65 83 66 50 67
REMARK SMILES IDX 34 68 35 69 43 70 36 71 37 72 41 73 44 74 38 75 39 76 42 77
REMARK SMILES IDX 40 78 66 79 67 80 75 81 68 82 69 83 73 84 76 85 70 86 71 87
REMARK SMILES IDX 74 88 72 89 51 90 52 91 60 92 53 93 54 94 58 95 61 96 55 97
REMARK SMILES IDX 56 98 59 99 57 100
REMARK H PARENT 15 7 9 19 22 34 81 53 49 64
REMARK Flexibility Score: inf
ROOT
ATOM      1  C   UNL A   1      37.341  21.870  24.396  1.00  0.00     0.002 C 
ENDROOT
BRANCH   1   2
ATOM      2  C   UNL A   1      37.350  22.981  25.453  1.00  0.00     0.021 C 
BRANCH   2   3
ATOM      3  C   UNL A   1      36.010  23.631  25.798  1.00  0.00     0.116 C 
BRANCH   3   4
ATOM      4  N   UNL A   1      35.230  22.935  26.804  1.00  0.00    -0.352 N 
ATOM      5  C   UNL A   1      34.234  21.995  26.681  1.00  0.00     0.252 C 
ATOM      6  O   UNL A   1      33.785  21.482  27.705  1.00  0.00    -0.269 OA
ATOM      7  H   UNL A   1      35.452  23.177  27.732  1.00  0.00     0.163 HD
BRANCH   5   8
ATOM      8  C   UNL A   1      33.580  21.647  25.389  1.00  0.00     0.060 A 
ATOM      9  C   UNL A   1      32.837  22.553  23.227  1.00  0.00     0.061 A 
ATOM     10  C   UNL A   1      33.387  22.734  24.503  1.00  0.00     0.043 A 
ATOM     11  C   UNL A   1      32.407  21.270  22.861  1.00  0.00     0.066 A 
ATOM     12  C   UNL A   1      32.541  20.199  23.744  1.00  0.00     0.044 A 
ATOM     13  Cl  UNL A   1      31.746  20.959  21.293  1.00  0.00    -0.082 Cl
ATOM     14  C   UNL A   1      33.089  20.391  25.019  1.00  0.00     0.055 A 
ATOM     15  Cl  UNL A   1      32.972  19.046  26.094  1.00  0.00    -0.083 Cl
BRANCH   9  16
ATOM     16  N   UNL A   1      32.689  23.602  22.294  1.00  0.00    -0.321 N 
ATOM     17  C   UNL A   1      32.130  24.857  22.373  1.00  0.00     0.255 C 
ATOM     18  O   UNL A   1      31.896  25.467  21.329  1.00  0.00    -0.269 OA
ATOM     19  H   UNL A   1      33.060  23.393  21.407  1.00  0.00     0.170 HD
BRANCH  17  20
ATOM     20  C   UNL A   1      31.908  25.556  23.670  1.00  0.00     0.041 A 
ATOM     21  C   UNL A   1      31.449  26.777  26.179  1.00  0.00     0.137 A 
ATOM     22  C   UNL A   1      30.445  26.033  25.536  1.00  0.00     0.049 A 
ATOM     23  C   UNL A   1      32.677  26.933  25.529  1.00  0.00     0.083 A 
ATOM     24  C   UNL A   1      30.672  25.417  24.302  1.00  0.00     0.018 A 
ATOM     25  C   UNL A   1      32.864  26.391  24.251  1.00  0.00     0.038 A 
ATOM     26  Cl  UNL A   1      34.084  27.676  26.208  1.00  0.00    -0.080 Cl
BRANCH  21  27
ATOM     27  O   UNL A   1      31.054  27.220  27.410  1.00  0.00    -0.495 OA
ATOM     28  C   UNL A   1      31.411  28.532  27.813  1.00  0.00     0.278 C 
ENDBRANCH  21  27
ENDBRANCH  17  20
ENDBRANCH   9  16
ENDBRANCH   5   8
ENDBRANCH   3   4
ENDBRANCH   2   3
ENDBRANCH   1   2
BRANCH   1  29
ATOM     29  C   UNL A   1      37.004  20.449  24.860  1.00  0.00     0.002 C 
BRANCH  29  30
ATOM     30  C   UNL A   1      38.168  19.466  24.999  1.00  0.00     0.021 C 
BRANCH  30  31
ATOM     31  C   UNL A   1      39.372  19.950  25.801  1.00  0.00     0.116 C 
BRANCH  31  32
ATOM     32  N   UNL A   1      40.436  18.964  25.887  1.00  0.00    -0.352 N 
ATOM     33  C   UNL A   1      41.779  19.134  26.103  1.00  0.00     0.251 C 
ATOM     34  H   UNL A   1      40.148  18.029  25.773  1.00  0.00     0.163 HD
ATOM     35  O   UNL A   1      42.541  18.168  26.006  1.00  0.00    -0.269 OA
BRANCH  33  36
ATOM     36  C   UNL A   1      42.338  20.466  26.427  1.00  0.00     0.039 A 
ATOM     37  C   UNL A   1      42.895  21.228  25.396  1.00  0.00     0.014 A 
ATOM     38  C   UNL A   1      42.342  20.959  27.734  1.00  0.00     0.014 A 
ATOM     39  C   UNL A   1      43.394  22.505  25.661  1.00  0.00     0.010 A 
ATOM     40  C   UNL A   1      42.776  22.261  27.986  1.00  0.00     0.010 A 
ATOM     41  C   UNL A   1      43.306  23.049  26.953  1.00  0.00    -0.014 A 
BRANCH  41  42
ATOM     42  C   UNL A   1      43.747  24.442  27.231  1.00  0.00     0.031 A 
ATOM     43  C   UNL A   1      42.764  25.474  27.713  1.00  0.00     0.074 A 
ATOM     44  C   UNL A   1      45.027  24.794  26.989  1.00  0.00     0.049 A 
ATOM     45  N   UNL A   1      42.949  26.750  27.946  1.00  0.00    -0.248 NA
ATOM     46  C   UNL A   1      41.383  25.019  27.941  1.00  0.00     0.031 C 
ATOM     47  C   UNL A   1      46.065  23.902  26.472  1.00  0.00     0.029 A 
ATOM     48  N   UNL A   1      45.669  26.000  27.130  1.00  0.00    -0.354 N 
ATOM     49  C   UNL A   1      41.711  27.249  28.330  1.00  0.00     0.074 A 
ATOM     50  C   UNL A   1      40.772  26.152  28.258  1.00  0.00     0.031 C 
ATOM     51  C   UNL A   1      47.215  24.584  26.353  1.00  0.00     0.029 A 
ATOM     52  C   UNL A   1      46.988  25.972  26.746  1.00  0.00     0.049 A 
ATOM     53  H   UNL A   1      45.226  26.809  27.474  1.00  0.00     0.167 HD
ATOM     54  C   UNL A   1      41.394  28.505  28.726  1.00  0.00     0.037 A 
ATOM     55  C   UNL A   1      47.909  26.954  26.702  1.00  0.00     0.037 A 
ATOM     56  C   UNL A   1      42.338  29.588  28.830  1.00  0.00     0.049 A 
ATOM     57  C   UNL A   1      47.525  28.339  27.152  1.00  0.00     0.074 A 
ATOM     58  C   UNL A   1      42.126  30.874  29.295  1.00  0.00     0.029 A 
ATOM     59  N   UNL A   1      43.672  29.511  28.458  1.00  0.00    -0.354 N 
ATOM     60  N   UNL A   1      46.372  28.777  27.593  1.00  0.00    -0.248 NA
ATOM     61  C   UNL A   1      48.576  29.366  27.108  1.00  0.00     0.031 C 
ATOM     62  C   UNL A   1      43.317  31.593  29.152  1.00  0.00     0.029 A 
ATOM     63  C   UNL A   1      44.288  30.737  28.657  1.00  0.00     0.049 A 
ATOM     64  H   UNL A   1      44.116  28.706  28.106  1.00  0.00     0.167 HD
ATOM     65  C   UNL A   1      46.564  30.116  27.906  1.00  0.00     0.074 A 
ATOM     66  C   UNL A   1      47.952  30.415  27.623  1.00  0.00     0.031 C 
ATOM     67  C   UNL A   1      45.672  31.018  28.381  1.00  0.00     0.037 A 
BRANCH  54  68
ATOM     68  C   UNL A   1      39.964  28.791  29.086  1.00  0.00     0.064 A 
ATOM     69  C   UNL A   1      39.038  29.236  28.130  1.00  0.00     0.173 A 
ATOM     70  C   UNL A   1      39.496  28.541  30.385  1.00  0.00     0.173 A 
ATOM     71  F   UNL A   1      39.435  29.498  26.876  1.00  0.00    -0.203 F 
ATOM     72  C   UNL A   1      37.700  29.434  28.466  1.00  0.00     0.198 A 
ATOM     73  C   UNL A   1      38.153  28.712  30.710  1.00  0.00     0.198 A 
ATOM     74  F   UNL A   1      40.338  28.108  31.336  1.00  0.00    -0.203 F 
ATOM     75  F   UNL A   1      36.841  29.892  27.545  1.00  0.00    -0.200 F 
ATOM     76  C   UNL A   1      37.258  29.162  29.752  1.00  0.00     0.200 A 
ATOM     77  F   UNL A   1      37.724  28.434  31.948  1.00  0.00    -0.200 F 
ATOM     78  F   UNL A   1      35.967  29.335  30.068  1.00  0.00    -0.200 F 
ENDBRANCH  54  68
BRANCH  55  79
ATOM     79  C   UNL A   1      49.285  26.670  26.215  1.00  0.00     0.064 A 
ATOM     80  C   UNL A   1      49.646  26.913  24.882  1.00  0.00     0.173 A 
ATOM     81  C   UNL A   1      50.258  26.117  27.062  1.00  0.00     0.173 A 
ATOM     82  F   UNL A   1      48.747  27.420  24.027  1.00  0.00    -0.203 F 
ATOM     83  C   UNL A   1      50.914  26.583  24.406  1.00  0.00     0.198 A 
ATOM     84  C   UNL A   1      51.537  25.820  26.594  1.00  0.00     0.198 A 
ATOM     85  F   UNL A   1      49.968  25.870  28.347  1.00  0.00    -0.203 F 
ATOM     86  F   UNL A   1      51.210  26.767  23.113  1.00  0.00    -0.200 F 
ATOM     87  C   UNL A   1      51.860  26.041  25.264  1.00  0.00     0.200 A 
ATOM     88  F   UNL A   1      52.451  25.311  27.430  1.00  0.00    -0.200 F 
ATOM     89  F   UNL A   1      53.077  25.721  24.806  1.00  0.00    -0.200 F 
ENDBRANCH  55  79
BRANCH  67  90
ATOM     90  C   UNL A   1      46.176  32.404  28.667  1.00  0.00     0.064 A 
ATOM     91  C   UNL A   1      46.760  32.738  29.898  1.00  0.00     0.173 A 
ATOM     92  C   UNL A   1      46.108  33.400  27.681  1.00  0.00     0.173 A 
ATOM     93  F   UNL A   1      46.836  31.826  30.878  1.00  0.00    -0.203 F 
ATOM     94  C   UNL A   1      47.230  34.026  30.140  1.00  0.00     0.198 A 
ATOM     95  C   UNL A   1      46.609  34.677  27.915  1.00  0.00     0.198 A 
ATOM     96  F   UNL A   1      45.566  33.131  26.483  1.00  0.00    -0.203 F 
ATOM     97  F   UNL A   1      47.736  34.338  31.342  1.00  0.00    -0.200 F 
ATOM     98  C   UNL A   1      47.162  34.992  29.147  1.00  0.00     0.200 A 
ATOM     99  F   UNL A   1      46.558  35.604  26.948  1.00  0.00    -0.200 F 
ATOM    100  F   UNL A   1      47.622  36.229  29.380  1.00  0.00    -0.200 F 
ENDBRANCH  67  90
ENDBRANCH  41  42
ENDBRANCH  33  36
ENDBRANCH  31  32
ENDBRANCH  30  31
ENDBRANCH  29  30
ENDBRANCH   1  29
TORSDOF 16
ENDMDL
