MODEL 1
REMARK VINA RESULT:     -12.6      0.000      0.000
REMARK SMILES CCc1cc(OC(F)(F)F)cc2c1O[C@H](C(F)(F)F)C(C(=O)NCCCCCCNC(=O)c1ccc(-c3c4nc(c(-c5c(F)c(F)c(F)c(F)c5F)c5ccc([nH]5)c(-c5c(F)c(F)c(F)c(F)c5F)c5nc(c(-c6c(F)c(F)c(F)c(F)c6F)c6ccc3[nH]6)C=C5)C=C4)cc1)=C2
REMARK SMILES IDX 26 1 25 2 24 3 23 4 21 5 22 6 20 8 3 9 4 10 13 11 5 12 12 13
REMARK SMILES IDX 14 14 11 15 96 16 15 17 2 18 1 19 6 20 7 21 8 22 9 23 10 24
REMARK SMILES IDX 16 25 17 26 18 27 19 28 27 29 28 30 29 31 30 32 31 33 32 35
REMARK SMILES IDX 33 36 34 37 95 38 35 39 94 40 36 41 37 42 38 43 88 44 39 45
REMARK SMILES IDX 93 46 87 47 89 48 40 49 92 50 86 51 85 52 41 54 73 55 53 56
REMARK SMILES IDX 72 57 54 58 57 59 71 60 90 61 55 62 56 63 70 65 91 66 58 67
REMARK SMILES IDX 42 68 43 69 51 70 44 71 45 72 49 73 52 74 46 75 47 76 50 77
REMARK SMILES IDX 48 78 74 79 75 80 83 81 76 82 77 83 81 84 84 85 78 86 79 87
REMARK SMILES IDX 82 88 80 89 59 90 60 91 68 92 61 93 62 94 66 95 69 96 63 97
REMARK SMILES IDX 64 98 67 99 65 100
REMARK H PARENT 23 7 30 34 89 53 57 64
REMARK Flexibility Score: inf
ROOT
ATOM      1  C   UNL A   1      34.215  21.221  24.302  1.00  0.00     0.002 C 
ENDROOT
BRANCH   1   2
ATOM      2  C   UNL A   1      33.000  21.027  25.219  1.00  0.00     0.021 C 
BRANCH   2   3
ATOM      3  C   UNL A   1      31.797  21.868  24.785  1.00  0.00     0.116 C 
BRANCH   3   4
ATOM      4  N   UNL A   1      30.989  22.203  25.939  1.00  0.00    -0.352 N 
ATOM      5  C   UNL A   1      30.596  23.381  26.479  1.00  0.00     0.251 C 
ATOM      6  O   UNL A   1      29.914  23.330  27.505  1.00  0.00    -0.270 OA
ATOM      7  H   UNL A   1      30.660  21.416  26.429  1.00  0.00     0.163 HD
BRANCH   5   8
ATOM      8  C   UNL A   1      30.841  24.706  25.838  1.00  0.00     0.067 C 
ATOM      9  C   UNL A   1      31.508  28.757  24.919  1.00  0.00    -0.002 A 
ATOM     10  C   UNL A   1      30.852  29.305  23.799  1.00  0.00     0.054 A 
ATOM     11  C   UNL A   1      31.292  27.401  25.223  1.00  0.00     0.131 A 
ATOM     12  C   UNL A   1      30.009  28.525  23.004  1.00  0.00     0.130 A 
ATOM     13  C   UNL A   1      30.478  26.605  24.413  1.00  0.00     0.021 A 
ATOM     14  O   UNL A   1      31.857  26.917  26.376  1.00  0.00    -0.475 OA
ATOM     15  C   UNL A   1      29.835  27.175  23.311  1.00  0.00     0.058 A 
ATOM     16  C   UNL A   1      30.220  25.215  24.767  1.00  0.00     0.025 C 
ATOM     17  C   UNL A   1      31.974  25.475  26.493  1.00  0.00     0.314 C 
BRANCH   9  18
ATOM     18  C   UNL A   1      32.465  29.556  25.782  1.00  0.00     0.036 C 
ATOM     19  C   UNL A   1      31.870  30.662  26.644  1.00  0.00     0.009 C 
ENDBRANCH   9  18
BRANCH  12  20
ATOM     20  O   UNL A   1      29.294  28.943  21.918  1.00  0.00    -0.406 OA
BRANCH  20  21
ATOM     21  C   UNL A   1      28.559  30.149  22.026  1.00  0.00     0.573 C 
ATOM     22  F   UNL A   1      27.757  30.134  23.113  1.00  0.00    -0.132 F 
ATOM     23  F   UNL A   1      29.383  31.215  22.085  1.00  0.00    -0.132 F 
ATOM     24  F   UNL A   1      27.778  30.278  20.931  1.00  0.00    -0.132 F 
ENDBRANCH  20  21
ENDBRANCH  12  20
BRANCH  17  25
ATOM     25  C   UNL A   1      33.360  25.015  25.988  1.00  0.00     0.429 C 
ATOM     26  F   UNL A   1      33.314  24.612  24.693  1.00  0.00    -0.167 F 
ATOM     27  F   UNL A   1      34.262  26.025  26.054  1.00  0.00    -0.167 F 
ATOM     28  F   UNL A   1      33.871  23.975  26.685  1.00  0.00    -0.167 F 
ENDBRANCH  17  25
ENDBRANCH   5   8
ENDBRANCH   3   4
ENDBRANCH   2   3
ENDBRANCH   1   2
BRANCH   1  29
ATOM     29  C   UNL A   1      35.482  21.700  25.022  1.00  0.00     0.002 C 
BRANCH  29  30
ATOM     30  C   UNL A   1      36.156  22.918  24.386  1.00  0.00     0.021 C 
BRANCH  30  31
ATOM     31  C   UNL A   1      37.157  23.615  25.302  1.00  0.00     0.116 C 
BRANCH  31  32
ATOM     32  N   UNL A   1      38.259  22.732  25.653  1.00  0.00    -0.352 N 
ATOM     33  C   UNL A   1      39.470  23.038  26.222  1.00  0.00     0.251 C 
ATOM     34  H   UNL A   1      38.116  21.778  25.455  1.00  0.00     0.163 HD
ATOM     35  O   UNL A   1      40.388  22.228  26.209  1.00  0.00    -0.269 OA
BRANCH  33  36
ATOM     36  C   UNL A   1      39.663  24.365  26.841  1.00  0.00     0.039 A 
ATOM     37  C   UNL A   1      39.228  24.573  28.151  1.00  0.00     0.014 A 
ATOM     38  C   UNL A   1      40.288  25.392  26.128  1.00  0.00     0.014 A 
ATOM     39  C   UNL A   1      39.495  25.792  28.776  1.00  0.00     0.010 A 
ATOM     40  C   UNL A   1      40.616  26.578  26.775  1.00  0.00     0.010 A 
ATOM     41  C   UNL A   1      40.234  26.784  28.110  1.00  0.00    -0.014 A 
BRANCH  41  42
ATOM     42  C   UNL A   1      40.663  28.023  28.806  1.00  0.00     0.031 A 
ATOM     43  C   UNL A   1      42.058  28.148  29.346  1.00  0.00     0.074 A 
ATOM     44  C   UNL A   1      39.760  28.999  29.023  1.00  0.00     0.049 A 
ATOM     45  N   UNL A   1      42.585  29.110  30.059  1.00  0.00    -0.248 NA
ATOM     46  C   UNL A   1      42.978  27.034  29.067  1.00  0.00     0.031 C 
ATOM     47  C   UNL A   1      38.364  28.970  28.585  1.00  0.00     0.029 A 
ATOM     48  N   UNL A   1      39.876  30.198  29.682  1.00  0.00    -0.354 N 
ATOM     49  C   UNL A   1      43.891  28.717  30.318  1.00  0.00     0.074 A 
ATOM     50  C   UNL A   1      44.062  27.405  29.732  1.00  0.00     0.031 C 
ATOM     51  C   UNL A   1      37.758  30.104  28.970  1.00  0.00     0.029 A 
ATOM     52  C   UNL A   1      38.706  30.917  29.724  1.00  0.00     0.049 A 
ATOM     53  H   UNL A   1      40.717  30.512  30.086  1.00  0.00     0.167 HD
ATOM     54  C   UNL A   1      44.862  29.400  30.969  1.00  0.00     0.037 A 
ATOM     55  C   UNL A   1      38.425  32.090  30.321  1.00  0.00     0.037 A 
ATOM     56  C   UNL A   1      44.686  30.710  31.542  1.00  0.00     0.049 A 
ATOM     57  C   UNL A   1      39.511  32.806  31.077  1.00  0.00     0.074 A 
ATOM     58  C   UNL A   1      45.625  31.512  32.165  1.00  0.00     0.029 A 
ATOM     59  N   UNL A   1      43.485  31.405  31.570  1.00  0.00    -0.354 N 
ATOM     60  N   UNL A   1      40.764  32.462  31.248  1.00  0.00    -0.248 NA
ATOM     61  C   UNL A   1      39.144  34.072  31.725  1.00  0.00     0.031 C 
ATOM     62  C   UNL A   1      44.980  32.663  32.627  1.00  0.00     0.029 A 
ATOM     63  C   UNL A   1      43.652  32.608  32.239  1.00  0.00     0.049 A 
ATOM     64  H   UNL A   1      42.641  31.090  31.175  1.00  0.00     0.167 HD
ATOM     65  C   UNL A   1      41.340  33.474  32.003  1.00  0.00     0.074 A 
ATOM     66  C   UNL A   1      40.304  34.459  32.238  1.00  0.00     0.031 C 
ATOM     67  C   UNL A   1      42.609  33.576  32.467  1.00  0.00     0.037 A 
BRANCH  54  68
ATOM     68  C   UNL A   1      46.207  28.744  31.104  1.00  0.00     0.064 A 
ATOM     69  C   UNL A   1      46.531  27.949  32.215  1.00  0.00     0.173 A 
ATOM     70  C   UNL A   1      47.165  28.869  30.088  1.00  0.00     0.173 A 
ATOM     71  F   UNL A   1      45.654  27.804  33.220  1.00  0.00    -0.203 F 
ATOM     72  C   UNL A   1      47.772  27.327  32.314  1.00  0.00     0.198 A 
ATOM     73  C   UNL A   1      48.393  28.218  30.174  1.00  0.00     0.198 A 
ATOM     74  F   UNL A   1      46.906  29.610  29.000  1.00  0.00    -0.203 F 
ATOM     75  F   UNL A   1      48.076  26.611  33.406  1.00  0.00    -0.200 F 
ATOM     76  C   UNL A   1      48.699  27.454  31.290  1.00  0.00     0.200 A 
ATOM     77  F   UNL A   1      49.281  28.331  29.177  1.00  0.00    -0.200 F 
ATOM     78  F   UNL A   1      49.889  26.846  31.382  1.00  0.00    -0.200 F 
ENDBRANCH  54  68
BRANCH  55  79
ATOM     79  C   UNL A   1      37.055  32.661  30.233  1.00  0.00     0.064 A 
ATOM     80  C   UNL A   1      36.670  33.446  29.137  1.00  0.00     0.173 A 
ATOM     81  C   UNL A   1      36.105  32.444  31.244  1.00  0.00     0.173 A 
ATOM     82  F   UNL A   1      37.547  33.698  28.155  1.00  0.00    -0.203 F 
ATOM     83  C   UNL A   1      35.398  34.010  29.066  1.00  0.00     0.198 A 
ATOM     84  C   UNL A   1      34.822  32.982  31.156  1.00  0.00     0.198 A 
ATOM     85  F   UNL A   1      36.418  31.697  32.311  1.00  0.00    -0.203 F 
ATOM     86  F   UNL A   1      35.074  34.799  28.032  1.00  0.00    -0.200 F 
ATOM     87  C   UNL A   1      34.473  33.773  30.072  1.00  0.00     0.200 A 
ATOM     88  F   UNL A   1      33.927  32.735  32.121  1.00  0.00    -0.200 F 
ATOM     89  F   UNL A   1      33.249  34.313  30.001  1.00  0.00    -0.200 F 
ENDBRANCH  55  79
BRANCH  67  90
ATOM     90  C   UNL A   1      42.955  34.802  33.263  1.00  0.00     0.064 A 
ATOM     91  C   UNL A   1      42.901  34.805  34.665  1.00  0.00     0.173 A 
ATOM     92  C   UNL A   1      43.394  35.970  32.620  1.00  0.00     0.173 A 
ATOM     93  F   UNL A   1      42.471  33.719  35.327  1.00  0.00    -0.203 F 
ATOM     94  C   UNL A   1      43.252  35.939  35.392  1.00  0.00     0.198 A 
ATOM     95  C   UNL A   1      43.776  37.090  33.352  1.00  0.00     0.198 A 
ATOM     96  F   UNL A   1      43.470  36.018  31.282  1.00  0.00    -0.203 F 
ATOM     97  F   UNL A   1      43.148  35.934  36.728  1.00  0.00    -0.200 F 
ATOM     98  C   UNL A   1      43.698  37.077  34.736  1.00  0.00     0.200 A 
ATOM     99  F   UNL A   1      44.222  38.184  32.718  1.00  0.00    -0.200 F 
ATOM    100  F   UNL A   1      44.048  38.162  35.439  1.00  0.00    -0.200 F 
ENDBRANCH  67  90
ENDBRANCH  41  42
ENDBRANCH  33  36
ENDBRANCH  31  32
ENDBRANCH  30  31
ENDBRANCH  29  30
ENDBRANCH   1  29
TORSDOF 17
ENDMDL
MODEL 2
REMARK VINA RESULT:     -12.5      2.672      7.420
REMARK SMILES CCc1cc(OC(F)(F)F)cc2c1O[C@H](C(F)(F)F)C(C(=O)NCCCCCCNC(=O)c1ccc(-c3c4nc(c(-c5c(F)c(F)c(F)c(F)c5F)c5ccc([nH]5)c(-c5c(F)c(F)c(F)c(F)c5F)c5nc(c(-c6c(F)c(F)c(F)c(F)c6F)c6ccc3[nH]6)C=C5)C=C4)cc1)=C2
REMARK SMILES IDX 26 1 25 2 24 3 23 4 21 5 22 6 20 8 3 9 4 10 13 11 5 12 12 13
REMARK SMILES IDX 14 14 11 15 96 16 15 17 2 18 1 19 6 20 7 21 8 22 9 23 10 24
REMARK SMILES IDX 16 25 17 26 18 27 19 28 27 29 28 30 29 31 30 32 31 33 32 35
REMARK SMILES IDX 33 36 34 37 95 38 35 39 94 40 36 41 37 42 38 43 88 44 39 45
REMARK SMILES IDX 93 46 87 47 89 48 40 49 92 50 86 51 85 52 41 54 73 55 53 56
REMARK SMILES IDX 72 57 54 58 57 59 71 60 90 61 55 62 56 63 70 65 91 66 58 67
REMARK SMILES IDX 42 68 43 69 51 70 44 71 45 72 49 73 52 74 46 75 47 76 50 77
REMARK SMILES IDX 48 78 74 79 75 80 83 81 76 82 77 83 81 84 84 85 78 86 79 87
REMARK SMILES IDX 82 88 80 89 59 90 60 91 68 92 61 93 62 94 66 95 69 96 63 97
REMARK SMILES IDX 64 98 67 99 65 100
REMARK H PARENT 23 7 30 34 89 53 57 64
REMARK Flexibility Score: inf
ROOT
ATOM      1  C   UNL A   1      34.215  21.019  25.107  1.00  0.00     0.002 C 
ENDROOT
BRANCH   1   2
ATOM      2  C   UNL A   1      32.719  20.684  25.049  1.00  0.00     0.021 C 
BRANCH   2   3
ATOM      3  C   UNL A   1      31.852  21.916  24.778  1.00  0.00     0.116 C 
BRANCH   3   4
ATOM      4  N   UNL A   1      31.047  22.217  25.943  1.00  0.00    -0.352 N 
ATOM      5  C   UNL A   1      30.635  23.378  26.506  1.00  0.00     0.251 C 
ATOM      6  O   UNL A   1      29.963  23.298  27.535  1.00  0.00    -0.270 OA
ATOM      7  H   UNL A   1      30.738  21.416  26.424  1.00  0.00     0.163 HD
BRANCH   5   8
ATOM      8  C   UNL A   1      30.849  24.718  25.884  1.00  0.00     0.067 C 
ATOM      9  C   UNL A   1      31.457  28.791  25.024  1.00  0.00    -0.002 A 
ATOM     10  C   UNL A   1      30.758  29.358  23.941  1.00  0.00     0.054 A 
ATOM     11  C   UNL A   1      31.260  27.428  25.309  1.00  0.00     0.131 A 
ATOM     12  C   UNL A   1      29.890  28.588  23.161  1.00  0.00     0.130 A 
ATOM     13  C   UNL A   1      30.423  26.643  24.512  1.00  0.00     0.021 A 
ATOM     14  O   UNL A   1      31.870  26.925  26.430  1.00  0.00    -0.475 OA
ATOM     15  C   UNL A   1      29.736  27.231  23.447  1.00  0.00     0.058 A 
ATOM     16  C   UNL A   1      30.186  25.245  24.847  1.00  0.00     0.025 C 
ATOM     17  C   UNL A   1      32.000  25.481  26.513  1.00  0.00     0.314 C 
BRANCH   9  18
ATOM     18  C   UNL A   1      32.441  29.579  25.868  1.00  0.00     0.036 C 
ATOM     19  C   UNL A   1      31.906  30.800  26.605  1.00  0.00     0.009 C 
ENDBRANCH   9  18
BRANCH  12  20
ATOM     20  O   UNL A   1      29.134  29.023  22.110  1.00  0.00    -0.406 OA
BRANCH  20  21
ATOM     21  C   UNL A   1      27.957  29.760  22.395  1.00  0.00     0.573 C 
ATOM     22  F   UNL A   1      27.509  30.405  21.297  1.00  0.00    -0.132 F 
ATOM     23  F   UNL A   1      26.987  28.955  22.876  1.00  0.00    -0.132 F 
ATOM     24  F   UNL A   1      28.245  30.685  23.337  1.00  0.00    -0.132 F 
ENDBRANCH  20  21
ENDBRANCH  12  20
BRANCH  17  25
ATOM     25  C   UNL A   1      33.369  25.041  25.948  1.00  0.00     0.429 C 
ATOM     26  F   UNL A   1      33.846  23.941  26.586  1.00  0.00    -0.167 F 
ATOM     27  F   UNL A   1      33.275  24.723  24.633  1.00  0.00    -0.167 F 
ATOM     28  F   UNL A   1      34.331  25.985  26.064  1.00  0.00    -0.167 F 
ENDBRANCH  17  25
ENDBRANCH   5   8
ENDBRANCH   3   4
ENDBRANCH   2   3
ENDBRANCH   1   2
BRANCH   1  29
ATOM     29  C   UNL A   1      34.694  21.974  24.006  1.00  0.00     0.002 C 
BRANCH  29  30
ATOM     30  C   UNL A   1      36.177  22.343  24.082  1.00  0.00     0.021 C 
BRANCH  30  31
ATOM     31  C   UNL A   1      36.738  22.350  25.500  1.00  0.00     0.116 C 
BRANCH  31  32
ATOM     32  N   UNL A   1      37.693  21.270  25.699  1.00  0.00    -0.352 N 
ATOM     33  C   UNL A   1      39.015  21.336  26.062  1.00  0.00     0.251 C 
ATOM     34  H   UNL A   1      37.341  20.363  25.553  1.00  0.00     0.163 HD
ATOM     35  O   UNL A   1      39.748  20.365  25.927  1.00  0.00    -0.269 OA
BRANCH  33  36
ATOM     36  C   UNL A   1      39.554  22.600  26.604  1.00  0.00     0.039 A 
ATOM     37  C   UNL A   1      40.541  22.549  27.590  1.00  0.00     0.014 A 
ATOM     38  C   UNL A   1      39.092  23.829  26.124  1.00  0.00     0.014 A 
ATOM     39  C   UNL A   1      41.126  23.736  28.037  1.00  0.00     0.010 A 
ATOM     40  C   UNL A   1      39.724  25.003  26.517  1.00  0.00     0.010 A 
ATOM     41  C   UNL A   1      40.756  24.966  27.468  1.00  0.00    -0.014 A 
BRANCH  41  42
ATOM     42  C   UNL A   1      41.470  26.220  27.814  1.00  0.00     0.031 A 
ATOM     43  C   UNL A   1      40.756  27.330  28.528  1.00  0.00     0.074 A 
ATOM     44  C   UNL A   1      42.743  26.383  27.404  1.00  0.00     0.049 A 
ATOM     45  N   UNL A   1      41.186  28.529  28.831  1.00  0.00    -0.248 NA
ATOM     46  C   UNL A   1      39.367  27.069  28.936  1.00  0.00     0.031 C 
ATOM     47  C   UNL A   1      43.526  25.392  26.664  1.00  0.00     0.029 A 
ATOM     48  N   UNL A   1      43.599  27.449  27.536  1.00  0.00    -0.354 N 
ATOM     49  C   UNL A   1      40.123  29.164  29.458  1.00  0.00     0.074 A 
ATOM     50  C   UNL A   1      39.009  28.239  29.445  1.00  0.00     0.031 C 
ATOM     51  C   UNL A   1      44.749  25.887  26.425  1.00  0.00     0.029 A 
ATOM     52  C   UNL A   1      44.823  27.248  26.947  1.00  0.00     0.049 A 
ATOM     53  H   UNL A   1      43.357  28.279  28.008  1.00  0.00     0.167 HD
ATOM     54  C   UNL A   1      40.088  30.400  30.010  1.00  0.00     0.037 A 
ATOM     55  C   UNL A   1      45.878  28.074  26.824  1.00  0.00     0.037 A 
ATOM     56  C   UNL A   1      41.204  31.311  30.027  1.00  0.00     0.049 A 
ATOM     57  C   UNL A   1      45.796  29.458  27.407  1.00  0.00     0.074 A 
ATOM     58  C   UNL A   1      41.289  32.559  30.618  1.00  0.00     0.029 A 
ATOM     59  N   UNL A   1      42.427  31.074  29.415  1.00  0.00    -0.354 N 
ATOM     60  N   UNL A   1      44.813  30.020  28.067  1.00  0.00    -0.248 NA
ATOM     61  C   UNL A   1      46.969  30.325  27.228  1.00  0.00     0.031 C 
ATOM     62  C   UNL A   1      42.539  33.105  30.310  1.00  0.00     0.029 A 
ATOM     63  C   UNL A   1      43.257  32.173  29.579  1.00  0.00     0.049 A 
ATOM     64  H   UNL A   1      42.668  30.250  28.936  1.00  0.00     0.167 HD
ATOM     65  C   UNL A   1      45.253  31.294  28.399  1.00  0.00     0.074 A 
ATOM     66  C   UNL A   1      46.603  31.415  27.887  1.00  0.00     0.031 C 
ATOM     67  C   UNL A   1      44.597  32.278  29.060  1.00  0.00     0.037 A 
BRANCH  54  68
ATOM     68  C   UNL A   1      38.800  30.847  30.642  1.00  0.00     0.064 A 
ATOM     69  C   UNL A   1      37.751  31.382  29.877  1.00  0.00     0.173 A 
ATOM     70  C   UNL A   1      38.591  30.692  32.020  1.00  0.00     0.173 A 
ATOM     71  F   UNL A   1      37.902  31.562  28.556  1.00  0.00    -0.203 F 
ATOM     72  C   UNL A   1      36.554  31.769  30.472  1.00  0.00     0.198 A 
ATOM     73  C   UNL A   1      37.380  31.048  32.608  1.00  0.00     0.198 A 
ATOM     74  F   UNL A   1      39.556  30.179  32.797  1.00  0.00    -0.203 F 
ATOM     75  F   UNL A   1      35.585  32.321  29.729  1.00  0.00    -0.200 F 
ATOM     76  C   UNL A   1      36.366  31.593  31.835  1.00  0.00     0.200 A 
ATOM     77  F   UNL A   1      37.195  30.864  33.922  1.00  0.00    -0.200 F 
ATOM     78  F   UNL A   1      35.208  31.956  32.405  1.00  0.00    -0.200 F 
ENDBRANCH  54  68
BRANCH  55  79
ATOM     79  C   UNL A   1      47.103  27.617  26.115  1.00  0.00     0.064 A 
ATOM     80  C   UNL A   1      47.196  27.686  24.718  1.00  0.00     0.173 A 
ATOM     81  C   UNL A   1      48.201  27.093  26.815  1.00  0.00     0.173 A 
ATOM     82  F   UNL A   1      46.166  28.161  24.002  1.00  0.00    -0.203 F 
ATOM     83  C   UNL A   1      48.328  27.228  24.047  1.00  0.00     0.198 A 
ATOM     84  C   UNL A   1      49.346  26.665  26.145  1.00  0.00     0.198 A 
ATOM     85  F   UNL A   1      48.167  27.008  28.152  1.00  0.00    -0.203 F 
ATOM     86  F   UNL A   1      48.369  27.259  22.708  1.00  0.00    -0.200 F 
ATOM     87  C   UNL A   1      49.404  26.724  24.761  1.00  0.00     0.200 A 
ATOM     88  F   UNL A   1      50.390  26.195  26.841  1.00  0.00    -0.200 F 
ATOM     89  F   UNL A   1      50.495  26.287  24.116  1.00  0.00    -0.200 F 
ENDBRANCH  55  79
BRANCH  67  90
ATOM     90  C   UNL A   1      45.333  33.568  29.283  1.00  0.00     0.064 A 
ATOM     91  C   UNL A   1      46.129  33.770  30.421  1.00  0.00     0.173 A 
ATOM     92  C   UNL A   1      45.283  34.593  28.326  1.00  0.00     0.173 A 
ATOM     93  F   UNL A   1      46.196  32.829  31.375  1.00  0.00    -0.203 F 
ATOM     94  C   UNL A   1      46.829  34.960  30.602  1.00  0.00     0.198 A 
ATOM     95  C   UNL A   1      46.012  35.767  28.494  1.00  0.00     0.198 A 
ATOM     96  F   UNL A   1      44.543  34.448  27.217  1.00  0.00    -0.203 F 
ATOM     97  F   UNL A   1      47.546  35.149  31.718  1.00  0.00    -0.200 F 
ATOM     98  C   UNL A   1      46.779  35.952  29.635  1.00  0.00     0.200 A 
ATOM     99  F   UNL A   1      45.975  36.719  27.551  1.00  0.00    -0.200 F 
ATOM    100  F   UNL A   1      47.465  37.090  29.804  1.00  0.00    -0.200 F 
ENDBRANCH  67  90
ENDBRANCH  41  42
ENDBRANCH  33  36
ENDBRANCH  31  32
ENDBRANCH  30  31
ENDBRANCH  29  30
ENDBRANCH   1  29
TORSDOF 17
ENDMDL
MODEL 3
REMARK VINA RESULT:     -12.4      2.611      7.864
REMARK SMILES CCc1cc(OC(F)(F)F)cc2c1O[C@H](C(F)(F)F)C(C(=O)NCCCCCCNC(=O)c1ccc(-c3c4nc(c(-c5c(F)c(F)c(F)c(F)c5F)c5ccc([nH]5)c(-c5c(F)c(F)c(F)c(F)c5F)c5nc(c(-c6c(F)c(F)c(F)c(F)c6F)c6ccc3[nH]6)C=C5)C=C4)cc1)=C2
REMARK SMILES IDX 26 1 25 2 24 3 23 4 21 5 22 6 20 8 3 9 4 10 13 11 5 12 12 13
REMARK SMILES IDX 14 14 11 15 96 16 15 17 2 18 1 19 6 20 7 21 8 22 9 23 10 24
REMARK SMILES IDX 16 25 17 26 18 27 19 28 27 29 28 30 29 31 30 32 31 33 32 35
REMARK SMILES IDX 33 36 34 37 95 38 35 39 94 40 36 41 37 42 38 43 88 44 39 45
REMARK SMILES IDX 93 46 87 47 89 48 40 49 92 50 86 51 85 52 41 54 73 55 53 56
REMARK SMILES IDX 72 57 54 58 57 59 71 60 90 61 55 62 56 63 70 65 91 66 58 67
REMARK SMILES IDX 42 68 43 69 51 70 44 71 45 72 49 73 52 74 46 75 47 76 50 77
REMARK SMILES IDX 48 78 74 79 75 80 83 81 76 82 77 83 81 84 84 85 78 86 79 87
REMARK SMILES IDX 82 88 80 89 59 90 60 91 68 92 61 93 62 94 66 95 69 96 63 97
REMARK SMILES IDX 64 98 67 99 65 100
REMARK H PARENT 23 7 30 34 89 53 57 64
REMARK Flexibility Score: inf
ROOT
ATOM      1  C   UNL A   1      34.711  21.499  24.325  1.00  0.00     0.002 C 
ENDROOT
BRANCH   1   2
ATOM      2  C   UNL A   1      33.529  21.135  25.233  1.00  0.00     0.021 C 
BRANCH   2   3
ATOM      3  C   UNL A   1      32.236  21.845  24.825  1.00  0.00     0.116 C 
BRANCH   3   4
ATOM      4  N   UNL A   1      31.438  22.126  26.000  1.00  0.00    -0.352 N 
ATOM      5  C   UNL A   1      30.989  23.276  26.557  1.00  0.00     0.251 C 
ATOM      6  O   UNL A   1      30.337  23.181  27.598  1.00  0.00    -0.270 OA
ATOM      7  H   UNL A   1      31.168  21.319  26.493  1.00  0.00     0.163 HD
BRANCH   5   8
ATOM      8  C   UNL A   1      31.139  24.616  25.918  1.00  0.00     0.067 C 
ATOM      9  C   UNL A   1      31.584  28.700  25.007  1.00  0.00    -0.002 A 
ATOM     10  C   UNL A   1      30.835  29.232  23.939  1.00  0.00     0.054 A 
ATOM     11  C   UNL A   1      31.441  27.333  25.308  1.00  0.00     0.131 A 
ATOM     12  C   UNL A   1      29.974  28.426  23.189  1.00  0.00     0.130 A 
ATOM     13  C   UNL A   1      30.610  26.513  24.542  1.00  0.00     0.021 A 
ATOM     14  O   UNL A   1      32.099  26.862  26.416  1.00  0.00    -0.475 OA
ATOM     15  C   UNL A   1      29.874  27.067  23.491  1.00  0.00     0.058 A 
ATOM     16  C   UNL A   1      30.430  25.111  24.895  1.00  0.00     0.025 C 
ATOM     17  C   UNL A   1      32.281  25.424  26.508  1.00  0.00     0.314 C 
BRANCH   9  18
ATOM     18  C   UNL A   1      32.562  29.529  25.816  1.00  0.00     0.036 C 
ATOM     19  C   UNL A   1      31.979  30.499  26.835  1.00  0.00     0.009 C 
ENDBRANCH   9  18
BRANCH  12  20
ATOM     20  O   UNL A   1      29.174  28.825  22.157  1.00  0.00    -0.406 OA
BRANCH  20  21
ATOM     21  C   UNL A   1      27.966  29.497  22.469  1.00  0.00     0.573 C 
ATOM     22  F   UNL A   1      27.566  30.279  21.443  1.00  0.00    -0.132 F 
ATOM     23  F   UNL A   1      26.991  28.619  22.779  1.00  0.00    -0.132 F 
ATOM     24  F   UNL A   1      28.180  30.290  23.542  1.00  0.00    -0.132 F 
ENDBRANCH  20  21
ENDBRANCH  12  20
BRANCH  17  25
ATOM     25  C   UNL A   1      33.648  25.026  25.909  1.00  0.00     0.429 C 
ATOM     26  F   UNL A   1      33.530  24.604  24.624  1.00  0.00    -0.167 F 
ATOM     27  F   UNL A   1      34.502  26.079  25.901  1.00  0.00    -0.167 F 
ATOM     28  F   UNL A   1      34.258  24.020  26.577  1.00  0.00    -0.167 F 
ENDBRANCH  17  25
ENDBRANCH   5   8
ENDBRANCH   3   4
ENDBRANCH   2   3
ENDBRANCH   1   2
BRANCH   1  29
ATOM     29  C   UNL A   1      36.016  21.800  25.074  1.00  0.00     0.002 C 
BRANCH  29  30
ATOM     30  C   UNL A   1      37.095  20.724  24.934  1.00  0.00     0.021 C 
BRANCH  30  31
ATOM     31  C   UNL A   1      38.413  21.084  25.612  1.00  0.00     0.116 C 
BRANCH  31  32
ATOM     32  N   UNL A   1      39.275  19.919  25.750  1.00  0.00    -0.352 N 
ATOM     33  C   UNL A   1      40.618  19.860  26.022  1.00  0.00     0.251 C 
ATOM     34  H   UNL A   1      38.829  19.049  25.632  1.00  0.00     0.163 HD
ATOM     35  O   UNL A   1      41.246  18.824  25.843  1.00  0.00    -0.269 OA
BRANCH  33  36
ATOM     36  C   UNL A   1      41.309  21.066  26.522  1.00  0.00     0.039 A 
ATOM     37  C   UNL A   1      41.960  21.901  25.613  1.00  0.00     0.014 A 
ATOM     38  C   UNL A   1      41.296  21.374  27.885  1.00  0.00     0.014 A 
ATOM     39  C   UNL A   1      42.530  23.093  26.063  1.00  0.00     0.010 A 
ATOM     40  C   UNL A   1      41.800  22.594  28.320  1.00  0.00     0.010 A 
ATOM     41  C   UNL A   1      42.411  23.471  27.411  1.00  0.00    -0.014 A 
BRANCH  41  42
ATOM     42  C   UNL A   1      42.871  24.801  27.881  1.00  0.00     0.031 A 
ATOM     43  C   UNL A   1      41.878  25.881  28.200  1.00  0.00     0.074 A 
ATOM     44  C   UNL A   1      44.193  25.056  27.935  1.00  0.00     0.049 A 
ATOM     45  N   UNL A   1      42.092  27.128  28.534  1.00  0.00    -0.248 NA
ATOM     46  C   UNL A   1      40.455  25.518  28.110  1.00  0.00     0.031 C 
ATOM     47  C   UNL A   1      45.251  24.100  27.605  1.00  0.00     0.029 A 
ATOM     48  N   UNL A   1      44.873  26.200  28.270  1.00  0.00    -0.354 N 
ATOM     49  C   UNL A   1      40.836  27.698  28.688  1.00  0.00     0.074 A 
ATOM     50  C   UNL A   1      39.864  26.677  28.360  1.00  0.00     0.031 C 
ATOM     51  C   UNL A   1      46.445  24.690  27.773  1.00  0.00     0.029 A 
ATOM     52  C   UNL A   1      46.237  26.078  28.171  1.00  0.00     0.049 A 
ATOM     53  H   UNL A   1      44.425  27.030  28.555  1.00  0.00     0.167 HD
ATOM     54  C   UNL A   1      40.525  28.955  29.087  1.00  0.00     0.037 A 
ATOM     55  C   UNL A   1      47.211  26.989  28.360  1.00  0.00     0.037 A 
ATOM     56  C   UNL A   1      41.499  29.962  29.420  1.00  0.00     0.049 A 
ATOM     57  C   UNL A   1      46.835  28.390  28.758  1.00  0.00     0.074 A 
ATOM     58  C   UNL A   1      41.285  31.243  29.896  1.00  0.00     0.029 A 
ATOM     59  N   UNL A   1      42.873  29.803  29.302  1.00  0.00    -0.354 N 
ATOM     60  N   UNL A   1      45.647  28.896  28.978  1.00  0.00    -0.248 NA
ATOM     61  C   UNL A   1      47.936  29.348  28.932  1.00  0.00     0.031 C 
ATOM     62  C   UNL A   1      42.525  31.882  30.005  1.00  0.00     0.029 A 
ATOM     63  C   UNL A   1      43.516  30.980  29.656  1.00  0.00     0.049 A 
ATOM     64  H   UNL A   1      43.323  28.979  29.010  1.00  0.00     0.167 HD
ATOM     65  C   UNL A   1      45.855  30.221  29.336  1.00  0.00     0.074 A 
ATOM     66  C   UNL A   1      47.288  30.435  29.325  1.00  0.00     0.031 C 
ATOM     67  C   UNL A   1      44.943  31.177  29.637  1.00  0.00     0.037 A 
BRANCH  54  68
ATOM     68  C   UNL A   1      39.070  29.318  29.182  1.00  0.00     0.064 A 
ATOM     69  C   UNL A   1      38.402  29.367  30.416  1.00  0.00     0.173 A 
ATOM     70  C   UNL A   1      38.348  29.671  28.033  1.00  0.00     0.173 A 
ATOM     71  F   UNL A   1      39.044  29.029  31.544  1.00  0.00    -0.203 F 
ATOM     72  C   UNL A   1      37.061  29.729  30.491  1.00  0.00     0.198 A 
ATOM     73  C   UNL A   1      37.015  30.065  28.115  1.00  0.00     0.198 A 
ATOM     74  F   UNL A   1      38.939  29.649  26.829  1.00  0.00    -0.203 F 
ATOM     75  F   UNL A   1      36.432  29.723  31.675  1.00  0.00    -0.200 F 
ATOM     76  C   UNL A   1      36.370  30.087  29.342  1.00  0.00     0.200 A 
ATOM     77  F   UNL A   1      36.354  30.425  27.006  1.00  0.00    -0.200 F 
ATOM     78  F   UNL A   1      35.082  30.446  29.418  1.00  0.00    -0.200 F 
ENDBRANCH  54  68
BRANCH  55  79
ATOM     79  C   UNL A   1      48.635  26.606  28.171  1.00  0.00     0.064 A 
ATOM     80  C   UNL A   1      49.217  26.601  26.896  1.00  0.00     0.173 A 
ATOM     81  C   UNL A   1      49.442  26.227  29.256  1.00  0.00     0.173 A 
ATOM     82  F   UNL A   1      48.484  26.937  25.824  1.00  0.00    -0.203 F 
ATOM     83  C   UNL A   1      50.542  26.211  26.709  1.00  0.00     0.198 A 
ATOM     84  C   UNL A   1      50.775  25.868  29.072  1.00  0.00     0.198 A 
ATOM     85  F   UNL A   1      48.937  26.218  30.497  1.00  0.00    -0.203 F 
ATOM     86  F   UNL A   1      51.058  26.167  25.473  1.00  0.00    -0.200 F 
ATOM     87  C   UNL A   1      51.321  25.850  27.798  1.00  0.00     0.200 A 
ATOM     88  F   UNL A   1      51.529  25.537  30.129  1.00  0.00    -0.200 F 
ATOM     89  F   UNL A   1      52.597  25.479  27.619  1.00  0.00    -0.200 F 
ENDBRANCH  55  79
BRANCH  67  90
ATOM     90  C   UNL A   1      45.465  32.539  29.997  1.00  0.00     0.064 A 
ATOM     91  C   UNL A   1      45.603  33.549  29.033  1.00  0.00     0.173 A 
ATOM     92  C   UNL A   1      45.784  32.852  31.327  1.00  0.00     0.173 A 
ATOM     93  F   UNL A   1      45.329  33.295  27.744  1.00  0.00    -0.203 F 
ATOM     94  C   UNL A   1      46.062  34.816  29.385  1.00  0.00     0.198 A 
ATOM     95  C   UNL A   1      46.210  34.130  31.680  1.00  0.00     0.198 A 
ATOM     96  F   UNL A   1      45.663  31.925  32.288  1.00  0.00    -0.203 F 
ATOM     97  F   UNL A   1      46.229  35.751  28.440  1.00  0.00    -0.200 F 
ATOM     98  C   UNL A   1      46.355  35.108  30.708  1.00  0.00     0.200 A 
ATOM     99  F   UNL A   1      46.477  34.415  32.962  1.00  0.00    -0.200 F 
ATOM    100  F   UNL A   1      46.782  36.331  31.046  1.00  0.00    -0.200 F 
ENDBRANCH  67  90
ENDBRANCH  41  42
ENDBRANCH  33  36
ENDBRANCH  31  32
ENDBRANCH  30  31
ENDBRANCH  29  30
ENDBRANCH   1  29
TORSDOF 17
ENDMDL
