MODEL 1
REMARK VINA RESULT:     -12.1      0.000      0.000
REMARK SMILES C[C@H](NC(=O)c1cccc(NC(=O)/C=C/C(=O)NCCCCCCNC(=O)c2ccc(-c3c4nc(c(-c5c(F)c(F)c(F)c(F)c5F)c5ccc([nH]5)c(-c5c(F)c(F)c(F)c(F)c5F)c5nc(c(-c6c(F)c(F)c(F)c(F)c6F)c6ccc3[nH]6)C=C5)C=C4)cc2)c1)c1ccccc1
REMARK SMILES IDX 20 1 19 2 18 3 16 4 17 5 15 7 14 8 12 9 11 10 13 12 10 13
REMARK SMILES IDX 6 14 7 15 91 16 8 17 9 18 4 19 3 20 5 22 2 23 1 24 92 25
REMARK SMILES IDX 93 26 97 27 94 28 96 29 95 30 21 31 22 32 23 33 24 34 25 35
REMARK SMILES IDX 26 36 27 38 28 39 29 40 90 41 30 42 89 43 31 44 32 45 33 46
REMARK SMILES IDX 83 47 34 48 88 49 82 50 84 51 35 52 87 53 81 54 80 55 36 57
REMARK SMILES IDX 68 58 48 59 67 60 49 61 52 62 66 63 85 64 50 65 51 66 65 68
REMARK SMILES IDX 86 69 53 70 37 71 38 72 46 73 39 74 40 75 44 76 47 77 41 78
REMARK SMILES IDX 42 79 45 80 43 81 69 82 70 83 78 84 71 85 72 86 76 87 79 88
REMARK SMILES IDX 73 89 74 90 77 91 75 92 54 93 55 94 63 95 56 96 57 97 61 98
REMARK SMILES IDX 64 99 58 100 59 101 62 102 60 103
REMARK H PARENT 18 6 11 11 3 21 25 37 84 56 52 67
REMARK Flexibility Score: inf
ROOT
ATOM      1  C   UNL A   1      35.809  33.502  28.290  1.00  0.00     0.021 C 
ENDROOT
BRANCH   1   2
ATOM      2  C   UNL A   1      35.001  32.261  27.934  1.00  0.00     0.116 C 
BRANCH   2   3
ATOM      3  N   UNL A   1      35.873  31.112  27.875  1.00  0.00    -0.353 N 
ATOM      4  C   UNL A   1      35.485  29.823  27.701  1.00  0.00     0.244 C 
ATOM      5  O   UNL A   1      36.224  28.893  28.000  1.00  0.00    -0.270 OA
ATOM      6  H   UNL A   1      36.838  31.278  27.972  1.00  0.00     0.163 HD
BRANCH   4   7
ATOM      7  C   UNL A   1      34.168  29.566  27.090  1.00  0.00     0.077 C 
ATOM      8  C   UNL A   1      33.646  28.339  27.249  1.00  0.00     0.077 C 
BRANCH   8   9
ATOM      9  C   UNL A   1      32.217  28.104  27.044  1.00  0.00     0.248 C 
ATOM     10  N   UNL A   1      31.757  27.846  25.784  1.00  0.00    -0.322 N 
ATOM     11  H   UNL A   1      30.800  27.621  25.745  1.00  0.00     0.170 HD
ATOM     12  O   UNL A   1      31.450  28.170  28.001  1.00  0.00    -0.270 OA
BRANCH  10  13
ATOM     13  C   UNL A   1      32.400  27.843  24.528  1.00  0.00     0.042 A 
ATOM     14  C   UNL A   1      33.228  26.547  22.684  1.00  0.00     0.041 A 
ATOM     15  C   UNL A   1      33.704  27.685  22.031  1.00  0.00     0.014 A 
ATOM     16  C   UNL A   1      32.668  26.598  23.962  1.00  0.00     0.040 A 
ATOM     17  C   UNL A   1      33.423  28.920  22.580  1.00  0.00     0.003 A 
ATOM     18  C   UNL A   1      32.695  28.985  23.768  1.00  0.00     0.026 A 
BRANCH  14  19
ATOM     19  C   UNL A   1      33.108  25.335  21.876  1.00  0.00     0.251 C 
ATOM     20  N   UNL A   1      32.848  24.150  22.514  1.00  0.00    -0.346 N 
ATOM     21  H   UNL A   1      32.521  23.445  21.907  1.00  0.00     0.164 HD
ATOM     22  O   UNL A   1      33.129  25.420  20.655  1.00  0.00    -0.269 OA
BRANCH  20  23
ATOM     23  C   UNL A   1      32.954  23.710  23.912  1.00  0.00     0.109 C 
ATOM     24  C   UNL A   1      32.187  22.463  24.374  1.00  0.00     0.036 C 
BRANCH  23  25
ATOM     25  C   UNL A   1      34.412  23.451  24.246  1.00  0.00    -0.026 A 
ATOM     26  C   UNL A   1      34.928  23.838  25.496  1.00  0.00     0.006 A 
ATOM     27  C   UNL A   1      35.283  22.953  23.271  1.00  0.00     0.006 A 
ATOM     28  C   UNL A   1      36.298  23.791  25.739  1.00  0.00     0.000 A 
ATOM     29  C   UNL A   1      36.653  22.895  23.522  1.00  0.00     0.000 A 
ATOM     30  C   UNL A   1      37.160  23.329  24.748  1.00  0.00     0.000 A 
ENDBRANCH  23  25
ENDBRANCH  20  23
ENDBRANCH  14  19
ENDBRANCH  10  13
ENDBRANCH   8   9
ENDBRANCH   4   7
ENDBRANCH   2   3
ENDBRANCH   1   2
BRANCH   1  31
ATOM     31  C   UNL A   1      35.012  34.512  29.119  1.00  0.00     0.002 C 
BRANCH  31  32
ATOM     32  C   UNL A   1      33.528  34.601  28.749  1.00  0.00     0.002 C 
BRANCH  32  33
ATOM     33  C   UNL A   1      32.930  36.007  28.849  1.00  0.00     0.021 C 
BRANCH  33  34
ATOM     34  C   UNL A   1      33.342  36.764  30.102  1.00  0.00     0.116 C 
BRANCH  34  35
ATOM     35  N   UNL A   1      32.379  36.581  31.171  1.00  0.00    -0.352 N 
ATOM     36  C   UNL A   1      32.403  35.676  32.199  1.00  0.00     0.251 C 
ATOM     37  H   UNL A   1      31.604  37.189  31.155  1.00  0.00     0.163 HD
ATOM     38  O   UNL A   1      31.405  35.475  32.877  1.00  0.00    -0.269 OA
BRANCH  36  39
ATOM     39  C   UNL A   1      33.650  34.933  32.472  1.00  0.00     0.039 A 
ATOM     40  C   UNL A   1      34.852  35.637  32.543  1.00  0.00     0.014 A 
ATOM     41  C   UNL A   1      33.627  33.546  32.657  1.00  0.00     0.014 A 
ATOM     42  C   UNL A   1      36.031  34.954  32.841  1.00  0.00     0.010 A 
ATOM     43  C   UNL A   1      34.787  32.882  33.037  1.00  0.00     0.010 A 
ATOM     44  C   UNL A   1      36.003  33.576  33.115  1.00  0.00    -0.014 A 
BRANCH  44  45
ATOM     45  C   UNL A   1      37.242  32.839  33.464  1.00  0.00     0.031 A 
ATOM     46  C   UNL A   1      37.961  33.147  34.748  1.00  0.00     0.074 A 
ATOM     47  C   UNL A   1      37.745  31.934  32.602  1.00  0.00     0.049 A 
ATOM     48  N   UNL A   1      39.085  32.659  35.205  1.00  0.00    -0.248 NA
ATOM     49  C   UNL A   1      37.348  34.159  35.622  1.00  0.00     0.031 C 
ATOM     50  C   UNL A   1      37.158  31.583  31.309  1.00  0.00     0.029 A 
ATOM     51  N   UNL A   1      38.868  31.152  32.683  1.00  0.00    -0.354 N 
ATOM     52  C   UNL A   1      39.318  33.311  36.409  1.00  0.00     0.074 A 
ATOM     53  C   UNL A   1      38.252  34.273  36.583  1.00  0.00     0.031 C 
ATOM     54  C   UNL A   1      37.913  30.637  30.728  1.00  0.00     0.029 A 
ATOM     55  C   UNL A   1      39.058  30.348  31.586  1.00  0.00     0.049 A 
ATOM     56  H   UNL A   1      39.481  31.165  33.453  1.00  0.00     0.167 HD
ATOM     57  C   UNL A   1      40.316  33.106  37.301  1.00  0.00     0.037 A 
ATOM     58  C   UNL A   1      40.050  29.483  31.301  1.00  0.00     0.037 A 
ATOM     59  C   UNL A   1      41.363  32.133  37.129  1.00  0.00     0.049 A 
ATOM     60  C   UNL A   1      41.161  29.293  32.299  1.00  0.00     0.074 A 
ATOM     61  C   UNL A   1      42.389  31.808  37.998  1.00  0.00     0.029 A 
ATOM     62  N   UNL A   1      41.520  31.333  36.006  1.00  0.00    -0.354 N 
ATOM     63  N   UNL A   1      41.334  29.862  33.467  1.00  0.00    -0.248 NA
ATOM     64  C   UNL A   1      42.215  28.333  31.939  1.00  0.00     0.031 C 
ATOM     65  C   UNL A   1      43.202  30.855  37.375  1.00  0.00     0.029 A 
ATOM     66  C   UNL A   1      42.646  30.536  36.147  1.00  0.00     0.049 A 
ATOM     67  H   UNL A   1      40.921  31.332  35.225  1.00  0.00     0.167 HD
ATOM     68  C   UNL A   1      42.494  29.311  33.995  1.00  0.00     0.074 A 
ATOM     69  C   UNL A   1      42.973  28.348  33.025  1.00  0.00     0.031 C 
ATOM     70  C   UNL A   1      43.107  29.578  35.174  1.00  0.00     0.037 A 
BRANCH  57  71
ATOM     71  C   UNL A   1      40.325  33.953  38.542  1.00  0.00     0.064 A 
ATOM     72  C   UNL A   1      39.617  33.581  39.696  1.00  0.00     0.173 A 
ATOM     73  C   UNL A   1      41.076  35.137  38.589  1.00  0.00     0.173 A 
ATOM     74  F   UNL A   1      38.873  32.465  39.702  1.00  0.00    -0.203 F 
ATOM     75  C   UNL A   1      39.634  34.379  40.837  1.00  0.00     0.198 A 
ATOM     76  C   UNL A   1      41.120  35.914  39.744  1.00  0.00     0.198 A 
ATOM     77  F   UNL A   1      41.776  35.539  37.518  1.00  0.00    -0.203 F 
ATOM     78  F   UNL A   1      38.906  34.031  41.907  1.00  0.00    -0.200 F 
ATOM     79  C   UNL A   1      40.392  35.540  40.863  1.00  0.00     0.200 A 
ATOM     80  F   UNL A   1      41.865  37.028  39.772  1.00  0.00    -0.200 F 
ATOM     81  F   UNL A   1      40.415  36.302  41.965  1.00  0.00    -0.200 F 
ENDBRANCH  57  71
BRANCH  58  82
ATOM     82  C   UNL A   1      40.031  28.723  30.024  1.00  0.00     0.064 A 
ATOM     83  C   UNL A   1      39.429  27.459  29.947  1.00  0.00     0.173 A 
ATOM     84  C   UNL A   1      40.620  29.236  28.859  1.00  0.00     0.173 A 
ATOM     85  F   UNL A   1      38.870  26.916  31.038  1.00  0.00    -0.203 F 
ATOM     86  C   UNL A   1      39.440  26.726  28.761  1.00  0.00     0.198 A 
ATOM     87  C   UNL A   1      40.601  28.517  27.665  1.00  0.00     0.198 A 
ATOM     88  F   UNL A   1      41.203  30.443  28.876  1.00  0.00    -0.203 F 
ATOM     89  F   UNL A   1      38.904  25.499  28.731  1.00  0.00    -0.200 F 
ATOM     90  C   UNL A   1      40.021  27.258  27.620  1.00  0.00     0.200 A 
ATOM     91  F   UNL A   1      41.147  29.043  26.560  1.00  0.00    -0.200 F 
ATOM     92  F   UNL A   1      40.027  26.556  26.480  1.00  0.00    -0.200 F 
ENDBRANCH  58  82
BRANCH  70  93
ATOM     93  C   UNL A   1      44.345  28.793  35.500  1.00  0.00     0.064 A 
ATOM     94  C   UNL A   1      45.621  29.229  35.114  1.00  0.00     0.173 A 
ATOM     95  C   UNL A   1      44.256  27.605  36.244  1.00  0.00     0.173 A 
ATOM     96  F   UNL A   1      45.761  30.349  34.390  1.00  0.00    -0.203 F 
ATOM     97  C   UNL A   1      46.757  28.490  35.434  1.00  0.00     0.198 A 
ATOM     98  C   UNL A   1      45.397  26.889  36.593  1.00  0.00     0.198 A 
ATOM     99  F   UNL A   1      43.060  27.147  36.646  1.00  0.00    -0.203 F 
ATOM    100  F   UNL A   1      47.961  28.897  35.006  1.00  0.00    -0.200 F 
ATOM    101  C   UNL A   1      46.645  27.326  36.180  1.00  0.00     0.200 A 
ATOM    102  F   UNL A   1      45.287  25.774  37.329  1.00  0.00    -0.200 F 
ATOM    103  F   UNL A   1      47.741  26.622  36.494  1.00  0.00    -0.200 F 
ENDBRANCH  70  93
ENDBRANCH  44  45
ENDBRANCH  36  39
ENDBRANCH  34  35
ENDBRANCH  33  34
ENDBRANCH  32  33
ENDBRANCH  31  32
ENDBRANCH   1  31
TORSDOF 18
ENDMDL
MODEL 2
REMARK VINA RESULT:     -11.9      6.741     12.415
REMARK SMILES C[C@H](NC(=O)c1cccc(NC(=O)/C=C/C(=O)NCCCCCCNC(=O)c2ccc(-c3c4nc(c(-c5c(F)c(F)c(F)c(F)c5F)c5ccc([nH]5)c(-c5c(F)c(F)c(F)c(F)c5F)c5nc(c(-c6c(F)c(F)c(F)c(F)c6F)c6ccc3[nH]6)C=C5)C=C4)cc2)c1)c1ccccc1
REMARK SMILES IDX 20 1 19 2 18 3 16 4 17 5 15 7 14 8 12 9 11 10 13 12 10 13
REMARK SMILES IDX 6 14 7 15 91 16 8 17 9 18 4 19 3 20 5 22 2 23 1 24 92 25
REMARK SMILES IDX 93 26 97 27 94 28 96 29 95 30 21 31 22 32 23 33 24 34 25 35
REMARK SMILES IDX 26 36 27 38 28 39 29 40 90 41 30 42 89 43 31 44 32 45 33 46
REMARK SMILES IDX 83 47 34 48 88 49 82 50 84 51 35 52 87 53 81 54 80 55 36 57
REMARK SMILES IDX 68 58 48 59 67 60 49 61 52 62 66 63 85 64 50 65 51 66 65 68
REMARK SMILES IDX 86 69 53 70 37 71 38 72 46 73 39 74 40 75 44 76 47 77 41 78
REMARK SMILES IDX 42 79 45 80 43 81 69 82 70 83 78 84 71 85 72 86 76 87 79 88
REMARK SMILES IDX 73 89 74 90 77 91 75 92 54 93 55 94 63 95 56 96 57 97 61 98
REMARK SMILES IDX 64 99 58 100 59 101 62 102 60 103
REMARK H PARENT 18 6 11 11 3 21 25 37 84 56 52 67
REMARK Flexibility Score: inf
ROOT
ATOM      1  C   UNL A   1      40.287  22.579  26.872  1.00  0.00     0.021 C 
ENDROOT
BRANCH   1   2
ATOM      2  C   UNL A   1      38.958  22.043  26.358  1.00  0.00     0.116 C 
BRANCH   2   3
ATOM      3  N   UNL A   1      38.423  22.940  25.361  1.00  0.00    -0.353 N 
ATOM      4  C   UNL A   1      37.307  22.734  24.617  1.00  0.00     0.244 C 
ATOM      5  O   UNL A   1      37.114  23.355  23.579  1.00  0.00    -0.270 OA
ATOM      6  H   UNL A   1      38.915  23.779  25.205  1.00  0.00     0.163 HD
BRANCH   4   7
ATOM      7  C   UNL A   1      36.301  21.778  25.116  1.00  0.00     0.077 C 
ATOM      8  C   UNL A   1      35.206  21.591  24.362  1.00  0.00     0.077 C 
BRANCH   8   9
ATOM      9  C   UNL A   1      34.367  20.407  24.549  1.00  0.00     0.248 C 
ATOM     10  N   UNL A   1      33.009  20.532  24.467  1.00  0.00    -0.322 N 
ATOM     11  H   UNL A   1      32.524  19.677  24.524  1.00  0.00     0.170 HD
ATOM     12  O   UNL A   1      34.893  19.327  24.803  1.00  0.00    -0.270 OA
BRANCH  10  13
ATOM     13  C   UNL A   1      32.172  21.658  24.317  1.00  0.00     0.042 A 
ATOM     14  C   UNL A   1      30.840  23.345  25.387  1.00  0.00     0.041 A 
ATOM     15  C   UNL A   1      30.457  23.892  24.162  1.00  0.00     0.014 A 
ATOM     16  C   UNL A   1      31.609  22.183  25.478  1.00  0.00     0.040 A 
ATOM     17  C   UNL A   1      31.028  23.386  23.012  1.00  0.00     0.003 A 
ATOM     18  C   UNL A   1      31.947  22.342  23.113  1.00  0.00     0.026 A 
BRANCH  14  19
ATOM     19  C   UNL A   1      30.618  24.174  26.569  1.00  0.00     0.251 C 
ATOM     20  N   UNL A   1      31.452  25.241  26.783  1.00  0.00    -0.346 N 
ATOM     21  H   UNL A   1      31.092  25.894  27.427  1.00  0.00     0.164 HD
ATOM     22  O   UNL A   1      29.637  23.971  27.273  1.00  0.00    -0.269 OA
BRANCH  20  23
ATOM     23  C   UNL A   1      32.771  25.615  26.253  1.00  0.00     0.109 C 
ATOM     24  C   UNL A   1      33.846  24.534  26.066  1.00  0.00     0.036 C 
BRANCH  23  25
ATOM     25  C   UNL A   1      32.598  26.270  24.895  1.00  0.00    -0.026 A 
ATOM     26  C   UNL A   1      33.456  25.929  23.834  1.00  0.00     0.006 A 
ATOM     27  C   UNL A   1      31.679  27.312  24.724  1.00  0.00     0.006 A 
ATOM     28  C   UNL A   1      33.441  26.662  22.651  1.00  0.00     0.000 A 
ATOM     29  C   UNL A   1      31.658  28.035  23.533  1.00  0.00     0.000 A 
ATOM     30  C   UNL A   1      32.548  27.721  22.505  1.00  0.00     0.000 A 
ENDBRANCH  23  25
ENDBRANCH  20  23
ENDBRANCH  14  19
ENDBRANCH  10  13
ENDBRANCH   8   9
ENDBRANCH   4   7
ENDBRANCH   2   3
ENDBRANCH   1   2
BRANCH   1  31
ATOM     31  C   UNL A   1      41.477  21.707  26.464  1.00  0.00     0.002 C 
BRANCH  31  32
ATOM     32  C   UNL A   1      41.380  20.250  26.927  1.00  0.00     0.002 C 
BRANCH  32  33
ATOM     33  C   UNL A   1      41.941  19.228  25.935  1.00  0.00     0.021 C 
BRANCH  33  34
ATOM     34  C   UNL A   1      43.401  18.875  26.175  1.00  0.00     0.116 C 
BRANCH  34  35
ATOM     35  N   UNL A   1      44.089  18.594  24.929  1.00  0.00    -0.352 N 
ATOM     36  C   UNL A   1      44.686  19.474  24.065  1.00  0.00     0.251 C 
ATOM     37  H   UNL A   1      44.132  17.646  24.670  1.00  0.00     0.163 HD
ATOM     38  O   UNL A   1      45.006  19.121  22.938  1.00  0.00    -0.269 OA
BRANCH  36  39
ATOM     39  C   UNL A   1      44.927  20.862  24.507  1.00  0.00     0.039 A 
ATOM     40  C   UNL A   1      44.480  21.912  23.705  1.00  0.00     0.014 A 
ATOM     41  C   UNL A   1      45.591  21.121  25.711  1.00  0.00     0.014 A 
ATOM     42  C   UNL A   1      44.665  23.228  24.131  1.00  0.00     0.010 A 
ATOM     43  C   UNL A   1      45.698  22.428  26.173  1.00  0.00     0.010 A 
ATOM     44  C   UNL A   1      45.252  23.494  25.379  1.00  0.00    -0.014 A 
BRANCH  44  45
ATOM     45  C   UNL A   1      45.427  24.886  25.862  1.00  0.00     0.031 A 
ATOM     46  C   UNL A   1      46.783  25.532  25.811  1.00  0.00     0.074 A 
ATOM     47  C   UNL A   1      44.379  25.544  26.392  1.00  0.00     0.049 A 
ATOM     48  N   UNL A   1      47.155  26.712  26.235  1.00  0.00    -0.248 NA
ATOM     49  C   UNL A   1      47.874  24.735  25.228  1.00  0.00     0.031 C 
ATOM     50  C   UNL A   1      43.026  25.004  26.534  1.00  0.00     0.029 A 
ATOM     51  N   UNL A   1      44.291  26.808  26.919  1.00  0.00    -0.354 N 
ATOM     52  C   UNL A   1      48.518  26.792  25.983  1.00  0.00     0.074 A 
ATOM     53  C   UNL A   1      48.921  25.520  25.425  1.00  0.00     0.031 C 
ATOM     54  C   UNL A   1      42.236  25.939  27.086  1.00  0.00     0.029 A 
ATOM     55  C   UNL A   1      43.036  27.126  27.378  1.00  0.00     0.049 A 
ATOM     56  H   UNL A   1      45.054  27.428  26.964  1.00  0.00     0.167 HD
ATOM     57  C   UNL A   1      49.352  27.842  26.175  1.00  0.00     0.037 A 
ATOM     58  C   UNL A   1      42.585  28.245  27.976  1.00  0.00     0.037 A 
ATOM     59  C   UNL A   1      48.939  29.111  26.715  1.00  0.00     0.049 A 
ATOM     60  C   UNL A   1      43.540  29.387  28.201  1.00  0.00     0.074 A 
ATOM     61  C   UNL A   1      49.693  30.256  26.897  1.00  0.00     0.029 A 
ATOM     62  N   UNL A   1      47.658  29.398  27.164  1.00  0.00    -0.354 N 
ATOM     63  N   UNL A   1      44.811  29.479  27.893  1.00  0.00    -0.248 NA
ATOM     64  C   UNL A   1      42.993  30.586  28.852  1.00  0.00     0.031 C 
ATOM     65  C   UNL A   1      48.883  31.216  27.514  1.00  0.00     0.029 A 
ATOM     66  C   UNL A   1      47.608  30.693  27.654  1.00  0.00     0.049 A 
ATOM     67  H   UNL A   1      46.897  28.773  27.140  1.00  0.00     0.167 HD
ATOM     68  C   UNL A   1      45.209  30.751  28.284  1.00  0.00     0.074 A 
ATOM     69  C   UNL A   1      44.038  31.400  28.835  1.00  0.00     0.031 C 
ATOM     70  C   UNL A   1      46.432  31.328  28.195  1.00  0.00     0.037 A 
BRANCH  57  71
ATOM     71  C   UNL A   1      50.796  27.660  25.803  1.00  0.00     0.064 A 
ATOM     72  C   UNL A   1      51.249  27.843  24.486  1.00  0.00     0.173 A 
ATOM     73  C   UNL A   1      51.746  27.328  26.780  1.00  0.00     0.173 A 
ATOM     74  F   UNL A   1      50.381  28.149  23.510  1.00  0.00    -0.203 F 
ATOM     75  C   UNL A   1      52.591  27.668  24.158  1.00  0.00     0.198 A 
ATOM     76  C   UNL A   1      53.093  27.189  26.455  1.00  0.00     0.198 A 
ATOM     77  F   UNL A   1      51.372  27.146  28.055  1.00  0.00    -0.203 F 
ATOM     78  F   UNL A   1      52.989  27.794  22.884  1.00  0.00    -0.200 F 
ATOM     79  C   UNL A   1      53.513  27.351  25.144  1.00  0.00     0.200 A 
ATOM     80  F   UNL A   1      53.985  26.897  27.412  1.00  0.00    -0.200 F 
ATOM     81  F   UNL A   1      54.806  27.191  24.827  1.00  0.00    -0.200 F 
ENDBRANCH  57  71
BRANCH  58  82
ATOM     82  C   UNL A   1      41.162  28.345  28.391  1.00  0.00     0.064 A 
ATOM     83  C   UNL A   1      40.194  28.876  27.527  1.00  0.00     0.173 A 
ATOM     84  C   UNL A   1      40.739  27.923  29.661  1.00  0.00     0.173 A 
ATOM     85  F   UNL A   1      40.551  29.311  26.309  1.00  0.00    -0.203 F 
ATOM     86  C   UNL A   1      38.865  29.005  27.924  1.00  0.00     0.198 A 
ATOM     87  C   UNL A   1      39.403  28.022  30.045  1.00  0.00     0.198 A 
ATOM     88  F   UNL A   1      41.622  27.402  30.525  1.00  0.00    -0.203 F 
ATOM     89  F   UNL A   1      37.973  29.565  27.096  1.00  0.00    -0.200 F 
ATOM     90  C   UNL A   1      38.469  28.573  29.181  1.00  0.00     0.200 A 
ATOM     91  F   UNL A   1      39.022  27.586  31.253  1.00  0.00    -0.200 F 
ATOM     92  F   UNL A   1      37.191  28.694  29.561  1.00  0.00    -0.200 F 
ENDBRANCH  58  82
BRANCH  70  93
ATOM     93  C   UNL A   1      46.561  32.746  28.673  1.00  0.00     0.064 A 
ATOM     94  C   UNL A   1      46.925  33.053  29.992  1.00  0.00     0.173 A 
ATOM     95  C   UNL A   1      46.355  33.814  27.784  1.00  0.00     0.173 A 
ATOM     96  F   UNL A   1      47.119  32.070  30.884  1.00  0.00    -0.203 F 
ATOM     97  C   UNL A   1      47.047  34.374  30.412  1.00  0.00     0.198 A 
ATOM     98  C   UNL A   1      46.514  35.133  28.199  1.00  0.00     0.198 A 
ATOM     99  F   UNL A   1      46.013  33.577  26.509  1.00  0.00    -0.203 F 
ATOM    100  F   UNL A   1      47.341  34.645  31.693  1.00  0.00    -0.200 F 
ATOM    101  C   UNL A   1      46.850  35.413  29.513  1.00  0.00     0.200 A 
ATOM    102  F   UNL A   1      46.340  36.134  27.324  1.00  0.00    -0.200 F 
ATOM    103  F   UNL A   1      46.977  36.684  29.918  1.00  0.00    -0.200 F 
ENDBRANCH  70  93
ENDBRANCH  44  45
ENDBRANCH  36  39
ENDBRANCH  34  35
ENDBRANCH  33  34
ENDBRANCH  32  33
ENDBRANCH  31  32
ENDBRANCH   1  31
TORSDOF 18
ENDMDL
MODEL 3
REMARK VINA RESULT:     -11.8      6.588     12.365
REMARK SMILES C[C@H](NC(=O)c1cccc(NC(=O)/C=C/C(=O)NCCCCCCNC(=O)c2ccc(-c3c4nc(c(-c5c(F)c(F)c(F)c(F)c5F)c5ccc([nH]5)c(-c5c(F)c(F)c(F)c(F)c5F)c5nc(c(-c6c(F)c(F)c(F)c(F)c6F)c6ccc3[nH]6)C=C5)C=C4)cc2)c1)c1ccccc1
REMARK SMILES IDX 20 1 19 2 18 3 16 4 17 5 15 7 14 8 12 9 11 10 13 12 10 13
REMARK SMILES IDX 6 14 7 15 91 16 8 17 9 18 4 19 3 20 5 22 2 23 1 24 92 25
REMARK SMILES IDX 93 26 97 27 94 28 96 29 95 30 21 31 22 32 23 33 24 34 25 35
REMARK SMILES IDX 26 36 27 38 28 39 29 40 90 41 30 42 89 43 31 44 32 45 33 46
REMARK SMILES IDX 83 47 34 48 88 49 82 50 84 51 35 52 87 53 81 54 80 55 36 57
REMARK SMILES IDX 68 58 48 59 67 60 49 61 52 62 66 63 85 64 50 65 51 66 65 68
REMARK SMILES IDX 86 69 53 70 37 71 38 72 46 73 39 74 40 75 44 76 47 77 41 78
REMARK SMILES IDX 42 79 45 80 43 81 69 82 70 83 78 84 71 85 72 86 76 87 79 88
REMARK SMILES IDX 73 89 74 90 77 91 75 92 54 93 55 94 63 95 56 96 57 97 61 98
REMARK SMILES IDX 64 99 58 100 59 101 62 102 60 103
REMARK H PARENT 18 6 11 11 3 21 25 37 84 56 52 67
REMARK Flexibility Score: inf
ROOT
ATOM      1  C   UNL A   1      39.533  22.475  26.549  1.00  0.00     0.021 C 
ENDROOT
BRANCH   1   2
ATOM      2  C   UNL A   1      38.344  21.812  25.866  1.00  0.00     0.116 C 
BRANCH   2   3
ATOM      3  N   UNL A   1      38.016  22.527  24.656  1.00  0.00    -0.353 N 
ATOM      4  C   UNL A   1      36.776  22.673  24.124  1.00  0.00     0.244 C 
ATOM      5  O   UNL A   1      36.622  22.985  22.950  1.00  0.00    -0.270 OA
ATOM      6  H   UNL A   1      38.762  22.948  24.169  1.00  0.00     0.163 HD
BRANCH   4   7
ATOM      7  C   UNL A   1      35.611  22.496  25.011  1.00  0.00     0.077 C 
ATOM      8  C   UNL A   1      35.046  23.607  25.511  1.00  0.00     0.077 C 
BRANCH   8   9
ATOM      9  C   UNL A   1      33.687  23.572  26.052  1.00  0.00     0.248 C 
ATOM     10  N   UNL A   1      32.661  24.081  25.309  1.00  0.00    -0.322 N 
ATOM     11  H   UNL A   1      31.772  23.947  25.710  1.00  0.00     0.170 HD
ATOM     12  O   UNL A   1      33.495  23.113  27.174  1.00  0.00    -0.270 OA
BRANCH  10  13
ATOM     13  C   UNL A   1      32.637  24.765  24.075  1.00  0.00     0.042 A 
ATOM     14  C   UNL A   1      32.454  26.868  22.931  1.00  0.00     0.041 A 
ATOM     15  C   UNL A   1      32.536  26.253  21.681  1.00  0.00     0.014 A 
ATOM     16  C   UNL A   1      32.405  26.138  24.120  1.00  0.00     0.040 A 
ATOM     17  C   UNL A   1      32.784  24.896  21.633  1.00  0.00     0.003 A 
ATOM     18  C   UNL A   1      32.925  24.190  22.828  1.00  0.00     0.026 A 
BRANCH  14  19
ATOM     19  C   UNL A   1      32.675  28.312  22.963  1.00  0.00     0.251 C 
ATOM     20  N   UNL A   1      31.587  29.140  22.870  1.00  0.00    -0.346 N 
ATOM     21  H   UNL A   1      31.773  30.063  23.161  1.00  0.00     0.164 HD
ATOM     22  O   UNL A   1      33.799  28.745  23.184  1.00  0.00    -0.269 OA
BRANCH  20  23
ATOM     23  C   UNL A   1      30.200  28.940  22.426  1.00  0.00     0.109 C 
ATOM     24  C   UNL A   1      29.266  28.037  23.243  1.00  0.00     0.036 C 
BRANCH  23  25
ATOM     25  C   UNL A   1      29.504  30.287  22.335  1.00  0.00    -0.026 A 
ATOM     26  C   UNL A   1      29.313  31.061  23.494  1.00  0.00     0.006 A 
ATOM     27  C   UNL A   1      28.927  30.704  21.130  1.00  0.00     0.006 A 
ATOM     28  C   UNL A   1      28.505  32.194  23.460  1.00  0.00     0.000 A 
ATOM     29  C   UNL A   1      28.128  31.846  21.098  1.00  0.00     0.000 A 
ATOM     30  C   UNL A   1      27.905  32.579  22.264  1.00  0.00     0.000 A 
ENDBRANCH  23  25
ENDBRANCH  20  23
ENDBRANCH  14  19
ENDBRANCH  10  13
ENDBRANCH   8   9
ENDBRANCH   4   7
ENDBRANCH   2   3
ENDBRANCH   1   2
BRANCH   1  31
ATOM     31  C   UNL A   1      40.477  21.466  27.208  1.00  0.00     0.002 C 
BRANCH  31  32
ATOM     32  C   UNL A   1      41.750  21.175  26.406  1.00  0.00     0.002 C 
BRANCH  32  33
ATOM     33  C   UNL A   1      41.849  19.745  25.867  1.00  0.00     0.021 C 
BRANCH  33  34
ATOM     34  C   UNL A   1      43.141  19.034  26.244  1.00  0.00     0.116 C 
BRANCH  34  35
ATOM     35  N   UNL A   1      43.925  18.705  25.069  1.00  0.00    -0.352 N 
ATOM     36  C   UNL A   1      44.617  19.547  24.239  1.00  0.00     0.251 C 
ATOM     37  H   UNL A   1      43.965  17.749  24.837  1.00  0.00     0.163 HD
ATOM     38  O   UNL A   1      45.023  19.157  23.153  1.00  0.00    -0.269 OA
BRANCH  36  39
ATOM     39  C   UNL A   1      44.856  20.940  24.667  1.00  0.00     0.039 A 
ATOM     40  C   UNL A   1      44.405  21.981  23.857  1.00  0.00     0.014 A 
ATOM     41  C   UNL A   1      45.524  21.212  25.867  1.00  0.00     0.014 A 
ATOM     42  C   UNL A   1      44.587  23.301  24.270  1.00  0.00     0.010 A 
ATOM     43  C   UNL A   1      45.629  22.522  26.316  1.00  0.00     0.010 A 
ATOM     44  C   UNL A   1      45.178  23.580  25.514  1.00  0.00    -0.014 A 
BRANCH  44  45
ATOM     45  C   UNL A   1      45.351  24.977  25.983  1.00  0.00     0.031 A 
ATOM     46  C   UNL A   1      46.706  25.625  25.922  1.00  0.00     0.074 A 
ATOM     47  C   UNL A   1      44.303  25.638  26.509  1.00  0.00     0.049 A 
ATOM     48  N   UNL A   1      47.076  26.811  26.334  1.00  0.00    -0.248 NA
ATOM     49  C   UNL A   1      47.797  24.825  25.344  1.00  0.00     0.031 C 
ATOM     50  C   UNL A   1      42.952  25.097  26.659  1.00  0.00     0.029 A 
ATOM     51  N   UNL A   1      44.213  26.906  27.024  1.00  0.00    -0.354 N 
ATOM     52  C   UNL A   1      48.438  26.891  26.078  1.00  0.00     0.074 A 
ATOM     53  C   UNL A   1      48.843  25.615  25.531  1.00  0.00     0.031 C 
ATOM     54  C   UNL A   1      42.161  26.035  27.204  1.00  0.00     0.029 A 
ATOM     55  C   UNL A   1      42.959  27.226  27.483  1.00  0.00     0.049 A 
ATOM     56  H   UNL A   1      44.975  27.529  27.061  1.00  0.00     0.167 HD
ATOM     57  C   UNL A   1      49.271  27.944  26.258  1.00  0.00     0.037 A 
ATOM     58  C   UNL A   1      42.508  28.350  28.072  1.00  0.00     0.037 A 
ATOM     59  C   UNL A   1      48.856  29.217  26.786  1.00  0.00     0.049 A 
ATOM     60  C   UNL A   1      43.460  29.496  28.283  1.00  0.00     0.074 A 
ATOM     61  C   UNL A   1      49.608  30.366  26.956  1.00  0.00     0.029 A 
ATOM     62  N   UNL A   1      47.576  29.506  27.236  1.00  0.00    -0.354 N 
ATOM     63  N   UNL A   1      44.730  29.588  27.971  1.00  0.00    -0.248 NA
ATOM     64  C   UNL A   1      42.913  30.700  28.924  1.00  0.00     0.031 C 
ATOM     65  C   UNL A   1      48.798  31.330  27.566  1.00  0.00     0.029 A 
ATOM     66  C   UNL A   1      47.524  30.806  27.714  1.00  0.00     0.049 A 
ATOM     67  H   UNL A   1      46.816  28.879  27.220  1.00  0.00     0.167 HD
ATOM     68  C   UNL A   1      45.126  30.864  28.349  1.00  0.00     0.074 A 
ATOM     69  C   UNL A   1      43.955  31.517  28.897  1.00  0.00     0.031 C 
ATOM     70  C   UNL A   1      46.348  31.443  28.252  1.00  0.00     0.037 A 
BRANCH  57  71
ATOM     71  C   UNL A   1      50.714  27.762  25.884  1.00  0.00     0.064 A 
ATOM     72  C   UNL A   1      51.165  27.940  24.566  1.00  0.00     0.173 A 
ATOM     73  C   UNL A   1      51.666  27.434  26.861  1.00  0.00     0.173 A 
ATOM     74  F   UNL A   1      50.295  28.242  23.590  1.00  0.00    -0.203 F 
ATOM     75  C   UNL A   1      52.506  27.765  24.236  1.00  0.00     0.198 A 
ATOM     76  C   UNL A   1      53.013  27.295  26.534  1.00  0.00     0.198 A 
ATOM     77  F   UNL A   1      51.294  27.256  28.137  1.00  0.00    -0.203 F 
ATOM     78  F   UNL A   1      52.902  27.886  22.961  1.00  0.00    -0.200 F 
ATOM     79  C   UNL A   1      53.430  27.451  25.221  1.00  0.00     0.200 A 
ATOM     80  F   UNL A   1      53.907  27.006  27.490  1.00  0.00    -0.200 F 
ATOM     81  F   UNL A   1      54.722  27.292  24.903  1.00  0.00    -0.200 F 
ENDBRANCH  57  71
BRANCH  58  82
ATOM     82  C   UNL A   1      41.085  28.451  28.489  1.00  0.00     0.064 A 
ATOM     83  C   UNL A   1      40.676  28.037  29.765  1.00  0.00     0.173 A 
ATOM     84  C   UNL A   1      40.103  28.954  27.622  1.00  0.00     0.173 A 
ATOM     85  F   UNL A   1      41.573  27.530  30.624  1.00  0.00    -0.203 F 
ATOM     86  C   UNL A   1      39.337  28.097  30.147  1.00  0.00     0.198 A 
ATOM     87  C   UNL A   1      38.770  29.045  28.018  1.00  0.00     0.198 A 
ATOM     88  F   UNL A   1      40.441  29.371  26.393  1.00  0.00    -0.203 F 
ATOM     89  F   UNL A   1      38.968  27.644  31.353  1.00  0.00    -0.200 F 
ATOM     90  C   UNL A   1      38.386  28.605  29.277  1.00  0.00     0.200 A 
ATOM     91  F   UNL A   1      37.858  29.555  27.180  1.00  0.00    -0.200 F 
ATOM     92  F   UNL A   1      37.100  28.667  29.646  1.00  0.00    -0.200 F 
ENDBRANCH  58  82
BRANCH  70  93
ATOM     93  C   UNL A   1      46.475  32.866  28.715  1.00  0.00     0.064 A 
ATOM     94  C   UNL A   1      46.270  33.948  27.847  1.00  0.00     0.173 A 
ATOM     95  C   UNL A   1      46.768  33.150  30.059  1.00  0.00     0.173 A 
ATOM     96  F   UNL A   1      46.002  33.732  26.551  1.00  0.00    -0.203 F 
ATOM     97  C   UNL A   1      46.385  35.260  28.299  1.00  0.00     0.198 A 
ATOM     98  C   UNL A   1      46.846  34.462  30.515  1.00  0.00     0.198 A 
ATOM     99  F   UNL A   1      46.965  32.152  30.934  1.00  0.00    -0.203 F 
ATOM    100  F   UNL A   1      46.240  36.279  27.439  1.00  0.00    -0.200 F 
ATOM    101  C   UNL A   1      46.663  35.516  29.634  1.00  0.00     0.200 A 
ATOM    102  F   UNL A   1      47.098  34.707  31.809  1.00  0.00    -0.200 F 
ATOM    103  F   UNL A   1      46.763  36.780  30.068  1.00  0.00    -0.200 F 
ENDBRANCH  70  93
ENDBRANCH  44  45
ENDBRANCH  36  39
ENDBRANCH  34  35
ENDBRANCH  33  34
ENDBRANCH  32  33
ENDBRANCH  31  32
ENDBRANCH   1  31
TORSDOF 18
ENDMDL
