MODEL 1
REMARK VINA RESULT:     -12.6      0.000      0.000
REMARK SMILES O=C(NCCCCCCNC(=O)c1ccc(Cl)cc1NC(=O)c1cc(Cl)nnc1Cl)c1ccc(-c2c3nc(c(-c4c(F)c(F)c(F)c(F)c4F)c4ccc([nH]4)c(-c4c(F)c(F)c(F)c(F)c4F)c4nc(c(-c5c(F)c(F)c(F)c(F)c5F)c5ccc2[nH]5)C=C4)C=C3)cc1
REMARK SMILES IDX 6 1 5 2 4 3 3 4 1 5 2 6 31 8 32 9 93 10 33 11 92 12 34 13
REMARK SMILES IDX 35 14 36 15 86 16 37 17 91 18 85 19 87 20 38 21 90 22 84 23
REMARK SMILES IDX 83 24 39 26 71 27 51 28 70 29 52 30 55 31 69 32 88 33 53 34
REMARK SMILES IDX 54 35 68 37 89 38 56 39 40 40 41 41 49 42 42 43 43 44 47 45
REMARK SMILES IDX 50 46 44 47 45 48 48 49 46 50 72 51 73 52 81 53 74 54 75 55
REMARK SMILES IDX 79 56 82 57 76 58 77 59 80 60 78 61 57 62 58 63 66 64 59 65
REMARK SMILES IDX 60 66 64 67 67 68 61 69 62 70 65 71 63 72 7 73 8 74 9 75
REMARK SMILES IDX 10 76 11 77 12 79 13 80 14 81 19 82 15 83 18 84 16 85 17 86
REMARK SMILES IDX 20 87 21 88 22 90 23 91 24 92 29 93 25 94 28 95 30 96 26 97
REMARK SMILES IDX 27 98
REMARK H PARENT 3 7 87 25 55 36 10 78 20 89
REMARK Flexibility Score: inf
ROOT
ATOM      1  C   UNL A   1      36.455  20.202  25.024  1.00  0.00     0.002 C 
ENDROOT
BRANCH   1   2
ATOM      2  C   UNL A   1      37.880  19.711  24.748  1.00  0.00     0.021 C 
BRANCH   2   3
ATOM      3  C   UNL A   1      38.928  20.146  25.770  1.00  0.00     0.116 C 
BRANCH   3   4
ATOM      4  N   UNL A   1      40.022  19.196  25.874  1.00  0.00    -0.352 N 
ATOM      5  O   UNL A   1      42.171  18.515  25.980  1.00  0.00    -0.269 OA
ATOM      6  C   UNL A   1      41.357  19.425  26.096  1.00  0.00     0.251 C 
ATOM      7  H   UNL A   1      39.770  18.250  25.769  1.00  0.00     0.163 HD
BRANCH   6   8
ATOM      8  C   UNL A   1      41.822  20.781  26.458  1.00  0.00     0.039 A 
ATOM      9  C   UNL A   1      41.984  21.149  27.797  1.00  0.00     0.014 A 
ATOM     10  C   UNL A   1      42.137  21.681  25.436  1.00  0.00     0.014 A 
ATOM     11  C   UNL A   1      42.368  22.451  28.115  1.00  0.00     0.010 A 
ATOM     12  C   UNL A   1      42.560  22.973  25.755  1.00  0.00     0.010 A 
ATOM     13  C   UNL A   1      42.652  23.374  27.097  1.00  0.00    -0.014 A 
BRANCH  13  14
ATOM     14  C   UNL A   1      43.066  24.753  27.448  1.00  0.00     0.031 A 
ATOM     15  C   UNL A   1      44.474  25.213  27.204  1.00  0.00     0.074 A 
ATOM     16  C   UNL A   1      42.158  25.599  27.970  1.00  0.00     0.049 A 
ATOM     17  N   UNL A   1      45.005  26.392  27.411  1.00  0.00    -0.248 NA
ATOM     18  C   UNL A   1      45.409  24.222  26.649  1.00  0.00     0.031 C 
ATOM     19  C   UNL A   1      40.762  25.264  28.249  1.00  0.00     0.029 A 
ATOM     20  N   UNL A   1      42.271  26.913  28.347  1.00  0.00    -0.354 N 
ATOM     21  C   UNL A   1      46.328  26.288  27.005  1.00  0.00     0.074 A 
ATOM     22  C   UNL A   1      46.533  24.922  26.575  1.00  0.00     0.031 C 
ATOM     23  C   UNL A   1      40.141  26.350  28.733  1.00  0.00     0.029 A 
ATOM     24  C   UNL A   1      41.101  27.446  28.828  1.00  0.00     0.049 A 
ATOM     25  H   UNL A   1      43.110  27.424  28.279  1.00  0.00     0.167 HD
ATOM     26  C   UNL A   1      47.278  27.253  26.979  1.00  0.00     0.037 A 
ATOM     27  C   UNL A   1      40.836  28.680  29.297  1.00  0.00     0.037 A 
ATOM     28  C   UNL A   1      47.073  28.611  27.412  1.00  0.00     0.049 A 
ATOM     29  C   UNL A   1      41.929  29.711  29.321  1.00  0.00     0.074 A 
ATOM     30  C   UNL A   1      47.970  29.665  27.399  1.00  0.00     0.029 A 
ATOM     31  N   UNL A   1      45.890  29.099  27.946  1.00  0.00    -0.354 N 
ATOM     32  N   UNL A   1      43.165  29.614  28.896  1.00  0.00    -0.248 NA
ATOM     33  C   UNL A   1      41.590  31.023  29.889  1.00  0.00     0.031 C 
ATOM     34  C   UNL A   1      47.343  30.780  27.963  1.00  0.00     0.029 A 
ATOM     35  C   UNL A   1      46.042  30.433  28.290  1.00  0.00     0.049 A 
ATOM     36  H   UNL A   1      45.065  28.575  28.065  1.00  0.00     0.167 HD
ATOM     37  C   UNL A   1      43.747  30.851  29.131  1.00  0.00     0.074 A 
ATOM     38  C   UNL A   1      42.725  31.690  29.721  1.00  0.00     0.031 C 
ATOM     39  C   UNL A   1      45.016  31.253  28.881  1.00  0.00     0.037 A 
BRANCH  26  40
ATOM     40  C   UNL A   1      48.634  26.884  26.456  1.00  0.00     0.064 A 
ATOM     41  C   UNL A   1      49.608  26.322  27.293  1.00  0.00     0.173 A 
ATOM     42  C   UNL A   1      48.937  27.024  25.094  1.00  0.00     0.173 A 
ATOM     43  F   UNL A   1      49.370  26.178  28.605  1.00  0.00    -0.203 F 
ATOM     44  C   UNL A   1      50.842  25.922  26.786  1.00  0.00     0.198 A 
ATOM     45  C   UNL A   1      50.164  26.604  24.586  1.00  0.00     0.198 A 
ATOM     46  F   UNL A   1      48.037  27.553  24.252  1.00  0.00    -0.203 F 
ATOM     47  F   UNL A   1      51.769  25.410  27.609  1.00  0.00    -0.200 F 
ATOM     48  C   UNL A   1      51.115  26.055  25.433  1.00  0.00     0.200 A 
ATOM     49  F   UNL A   1      50.424  26.724  23.278  1.00  0.00    -0.200 F 
ATOM     50  F   UNL A   1      52.299  25.658  24.945  1.00  0.00    -0.200 F 
ENDBRANCH  26  40
BRANCH  27  51
ATOM     51  C   UNL A   1      39.467  29.006  29.768  1.00  0.00     0.064 A 
ATOM     52  C   UNL A   1      39.088  28.769  31.095  1.00  0.00     0.173 A 
ATOM     53  C   UNL A   1      38.519  29.581  28.908  1.00  0.00     0.173 A 
ATOM     54  F   UNL A   1      39.956  28.203  31.948  1.00  0.00    -0.203 F 
ATOM     55  C   UNL A   1      37.809  29.089  31.544  1.00  0.00     0.198 A 
ATOM     56  C   UNL A   1      37.248  29.920  29.365  1.00  0.00     0.198 A 
ATOM     57  F   UNL A   1      38.836  29.827  27.628  1.00  0.00    -0.203 F 
ATOM     58  F   UNL A   1      37.462  28.825  32.812  1.00  0.00    -0.200 F 
ATOM     59  C   UNL A   1      36.893  29.670  30.682  1.00  0.00     0.200 A 
ATOM     60  F   UNL A   1      36.369  30.493  28.530  1.00  0.00    -0.200 F 
ATOM     61  F   UNL A   1      35.666  29.986  31.118  1.00  0.00    -0.200 F 
ENDBRANCH  27  51
BRANCH  39  62
ATOM     62  C   UNL A   1      45.376  32.665  29.235  1.00  0.00     0.064 A 
ATOM     63  C   UNL A   1      45.170  33.719  28.333  1.00  0.00     0.173 A 
ATOM     64  C   UNL A   1      45.872  32.976  30.510  1.00  0.00     0.173 A 
ATOM     65  F   UNL A   1      44.711  33.469  27.097  1.00  0.00    -0.203 F 
ATOM     66  C   UNL A   1      45.458  35.033  28.692  1.00  0.00     0.198 A 
ATOM     67  C   UNL A   1      46.136  34.293  30.873  1.00  0.00     0.198 A 
ATOM     68  F   UNL A   1      46.080  32.003  31.410  1.00  0.00    -0.203 F 
ATOM     69  F   UNL A   1      45.281  36.022  27.804  1.00  0.00    -0.200 F 
ATOM     70  C   UNL A   1      45.932  35.320  29.964  1.00  0.00     0.200 A 
ATOM     71  F   UNL A   1      46.582  34.570  32.107  1.00  0.00    -0.200 F 
ATOM     72  F   UNL A   1      46.195  36.587  30.311  1.00  0.00    -0.200 F 
ENDBRANCH  39  62
ENDBRANCH  13  14
ENDBRANCH   6   8
ENDBRANCH   3   4
ENDBRANCH   2   3
ENDBRANCH   1   2
BRANCH   1  73
ATOM     73  C   UNL A   1      36.200  21.687  24.750  1.00  0.00     0.002 C 
BRANCH  73  74
ATOM     74  C   UNL A   1      35.927  22.551  25.984  1.00  0.00     0.021 C 
BRANCH  74  75
ATOM     75  C   UNL A   1      34.528  23.162  26.053  1.00  0.00     0.116 C 
BRANCH  75  76
ATOM     76  N   UNL A   1      33.483  22.151  26.073  1.00  0.00    -0.352 N 
ATOM     77  C   UNL A   1      32.420  21.996  25.216  1.00  0.00     0.253 C 
ATOM     78  H   UNL A   1      33.545  21.487  26.798  1.00  0.00     0.163 HD
ATOM     79  O   UNL A   1      31.507  21.223  25.484  1.00  0.00    -0.269 OA
BRANCH  77  80
ATOM     80  C   UNL A   1      32.345  22.829  23.995  1.00  0.00     0.063 A 
ATOM     81  C   UNL A   1      33.165  22.483  22.908  1.00  0.00     0.017 A 
ATOM     82  C   UNL A   1      31.496  23.955  23.940  1.00  0.00     0.055 A 
ATOM     83  C   UNL A   1      33.245  23.324  21.803  1.00  0.00     0.021 A 
ATOM     84  C   UNL A   1      31.657  24.827  22.858  1.00  0.00     0.047 A 
ATOM     85  C   UNL A   1      32.518  24.510  21.802  1.00  0.00     0.043 A 
ATOM     86  Cl  UNL A   1      32.684  25.607  20.487  1.00  0.00    -0.084 Cl
BRANCH  82  87
ATOM     87  N   UNL A   1      30.546  24.151  24.973  1.00  0.00    -0.321 N 
ATOM     88  C   UNL A   1      30.257  25.206  25.805  1.00  0.00     0.258 C 
ATOM     89  H   UNL A   1      29.971  23.367  25.127  1.00  0.00     0.170 HD
ATOM     90  O   UNL A   1      29.457  25.075  26.731  1.00  0.00    -0.269 OA
BRANCH  88  91
ATOM     91  C   UNL A   1      30.870  26.520  25.650  1.00  0.00     0.082 A 
ATOM     92  C   UNL A   1      31.909  26.860  26.519  1.00  0.00     0.060 A 
ATOM     93  C   UNL A   1      30.434  27.442  24.716  1.00  0.00     0.164 A 
ATOM     94  C   UNL A   1      32.501  28.089  26.346  1.00  0.00     0.152 A 
ATOM     95  N   UNL A   1      31.051  28.633  24.572  1.00  0.00    -0.136 NA
ATOM     96  Cl  UNL A   1      29.119  27.205  23.644  1.00  0.00    -0.059 Cl
ATOM     97  Cl  UNL A   1      33.816  28.596  27.314  1.00  0.00    -0.060 Cl
ATOM     98  N   UNL A   1      32.109  28.956  25.391  1.00  0.00    -0.137 NA
ENDBRANCH  88  91
ENDBRANCH  82  87
ENDBRANCH  77  80
ENDBRANCH  75  76
ENDBRANCH  74  75
ENDBRANCH  73  74
ENDBRANCH   1  73
TORSDOF 15
ENDMDL
MODEL 2
REMARK VINA RESULT:     -12.6      0.725      2.066
REMARK SMILES O=C(NCCCCCCNC(=O)c1ccc(Cl)cc1NC(=O)c1cc(Cl)nnc1Cl)c1ccc(-c2c3nc(c(-c4c(F)c(F)c(F)c(F)c4F)c4ccc([nH]4)c(-c4c(F)c(F)c(F)c(F)c4F)c4nc(c(-c5c(F)c(F)c(F)c(F)c5F)c5ccc2[nH]5)C=C4)C=C3)cc1
REMARK SMILES IDX 6 1 5 2 4 3 3 4 1 5 2 6 31 8 32 9 93 10 33 11 92 12 34 13
REMARK SMILES IDX 35 14 36 15 86 16 37 17 91 18 85 19 87 20 38 21 90 22 84 23
REMARK SMILES IDX 83 24 39 26 71 27 51 28 70 29 52 30 55 31 69 32 88 33 53 34
REMARK SMILES IDX 54 35 68 37 89 38 56 39 40 40 41 41 49 42 42 43 43 44 47 45
REMARK SMILES IDX 50 46 44 47 45 48 48 49 46 50 72 51 73 52 81 53 74 54 75 55
REMARK SMILES IDX 79 56 82 57 76 58 77 59 80 60 78 61 57 62 58 63 66 64 59 65
REMARK SMILES IDX 60 66 64 67 67 68 61 69 62 70 65 71 63 72 7 73 8 74 9 75
REMARK SMILES IDX 10 76 11 77 12 79 13 80 14 81 19 82 15 83 18 84 16 85 17 86
REMARK SMILES IDX 20 87 21 88 22 90 23 91 24 92 29 93 25 94 28 95 30 96 26 97
REMARK SMILES IDX 27 98
REMARK H PARENT 3 7 87 25 55 36 10 78 20 89
REMARK Flexibility Score: inf
ROOT
ATOM      1  C   UNL A   1      36.457  20.419  25.027  1.00  0.00     0.002 C 
ENDROOT
BRANCH   1   2
ATOM      2  C   UNL A   1      37.833  19.782  24.808  1.00  0.00     0.021 C 
BRANCH   2   3
ATOM      3  C   UNL A   1      38.906  20.185  25.817  1.00  0.00     0.116 C 
BRANCH   3   4
ATOM      4  N   UNL A   1      39.998  19.229  25.870  1.00  0.00    -0.352 N 
ATOM      5  O   UNL A   1      42.146  18.540  25.932  1.00  0.00    -0.269 OA
ATOM      6  C   UNL A   1      41.334  19.445  26.097  1.00  0.00     0.251 C 
ATOM      7  H   UNL A   1      39.744  18.290  25.720  1.00  0.00     0.163 HD
BRANCH   6   8
ATOM      8  C   UNL A   1      41.804  20.780  26.522  1.00  0.00     0.039 A 
ATOM      9  C   UNL A   1      41.886  21.113  27.877  1.00  0.00     0.014 A 
ATOM     10  C   UNL A   1      42.205  21.697  25.545  1.00  0.00     0.014 A 
ATOM     11  C   UNL A   1      42.277  22.398  28.252  1.00  0.00     0.010 A 
ATOM     12  C   UNL A   1      42.634  22.971  25.924  1.00  0.00     0.010 A 
ATOM     13  C   UNL A   1      42.647  23.338  27.278  1.00  0.00    -0.014 A 
BRANCH  13  14
ATOM     14  C   UNL A   1      43.067  24.699  27.690  1.00  0.00     0.031 A 
ATOM     15  C   UNL A   1      44.521  25.069  27.729  1.00  0.00     0.074 A 
ATOM     16  C   UNL A   1      42.127  25.608  28.009  1.00  0.00     0.049 A 
ATOM     17  N   UNL A   1      45.072  26.220  28.025  1.00  0.00    -0.248 NA
ATOM     18  C   UNL A   1      45.484  24.013  27.384  1.00  0.00     0.031 C 
ATOM     19  C   UNL A   1      40.685  25.361  28.006  1.00  0.00     0.029 A 
ATOM     20  N   UNL A   1      42.243  26.921  28.386  1.00  0.00    -0.354 N 
ATOM     21  C   UNL A   1      46.440  26.029  27.895  1.00  0.00     0.074 A 
ATOM     22  C   UNL A   1      46.642  24.644  27.530  1.00  0.00     0.031 C 
ATOM     23  C   UNL A   1      40.048  26.493  28.343  1.00  0.00     0.029 A 
ATOM     24  C   UNL A   1      41.036  27.533  28.616  1.00  0.00     0.049 A 
ATOM     25  H   UNL A   1      43.109  27.380  28.482  1.00  0.00     0.167 HD
ATOM     26  C   UNL A   1      47.434  26.936  28.049  1.00  0.00     0.037 A 
ATOM     27  C   UNL A   1      40.760  28.790  29.010  1.00  0.00     0.037 A 
ATOM     28  C   UNL A   1      47.231  28.313  28.417  1.00  0.00     0.049 A 
ATOM     29  C   UNL A   1      41.887  29.757  29.241  1.00  0.00     0.074 A 
ATOM     30  C   UNL A   1      48.176  29.312  28.573  1.00  0.00     0.029 A 
ATOM     31  N   UNL A   1      45.998  28.882  28.697  1.00  0.00    -0.354 N 
ATOM     32  N   UNL A   1      43.175  29.577  29.074  1.00  0.00    -0.248 NA
ATOM     33  C   UNL A   1      41.524  31.099  29.714  1.00  0.00     0.031 C 
ATOM     34  C   UNL A   1      47.519  30.476  28.987  1.00  0.00     0.029 A 
ATOM     35  C   UNL A   1      46.160  30.212  29.050  1.00  0.00     0.049 A 
ATOM     36  H   UNL A   1      45.134  28.410  28.653  1.00  0.00     0.167 HD
ATOM     37  C   UNL A   1      43.774  30.784  29.408  1.00  0.00     0.074 A 
ATOM     38  C   UNL A   1      42.708  31.694  29.771  1.00  0.00     0.031 C 
ATOM     39  C   UNL A   1      45.090  31.105  29.413  1.00  0.00     0.037 A 
BRANCH  26  40
ATOM     40  C   UNL A   1      48.842  26.476  27.813  1.00  0.00     0.064 A 
ATOM     41  C   UNL A   1      49.367  26.376  26.517  1.00  0.00     0.173 A 
ATOM     42  C   UNL A   1      49.694  26.203  28.892  1.00  0.00     0.173 A 
ATOM     43  F   UNL A   1      48.586  26.615  25.452  1.00  0.00    -0.203 F 
ATOM     44  C   UNL A   1      50.694  26.009  26.309  1.00  0.00     0.198 A 
ATOM     45  C   UNL A   1      51.027  25.857  28.682  1.00  0.00     0.198 A 
ATOM     46  F   UNL A   1      49.241  26.289  30.151  1.00  0.00    -0.203 F 
ATOM     47  F   UNL A   1      51.168  25.895  25.060  1.00  0.00    -0.200 F 
ATOM     48  C   UNL A   1      51.524  25.760  27.391  1.00  0.00     0.200 A 
ATOM     49  F   UNL A   1      51.832  25.625  29.727  1.00  0.00    -0.200 F 
ATOM     50  F   UNL A   1      52.805  25.419  27.189  1.00  0.00    -0.200 F 
ENDBRANCH  26  40
BRANCH  27  51
ATOM     51  C   UNL A   1      39.347  29.207  29.191  1.00  0.00     0.064 A 
ATOM     52  C   UNL A   1      38.571  29.609  28.098  1.00  0.00     0.173 A 
ATOM     53  C   UNL A   1      38.740  29.192  30.456  1.00  0.00     0.173 A 
ATOM     54  F   UNL A   1      39.115  29.658  26.872  1.00  0.00    -0.203 F 
ATOM     55  C   UNL A   1      37.240  29.987  28.261  1.00  0.00     0.198 A 
ATOM     56  C   UNL A   1      37.403  29.548  30.615  1.00  0.00     0.198 A 
ATOM     57  F   UNL A   1      39.443  28.814  31.534  1.00  0.00    -0.203 F 
ATOM     58  F   UNL A   1      36.526  30.394  27.203  1.00  0.00    -0.200 F 
ATOM     59  C   UNL A   1      36.655  29.949  29.518  1.00  0.00     0.200 A 
ATOM     60  F   UNL A   1      36.839  29.498  31.830  1.00  0.00    -0.200 F 
ATOM     61  F   UNL A   1      35.372  30.302  29.673  1.00  0.00    -0.200 F 
ENDBRANCH  27  51
BRANCH  39  62
ATOM     62  C   UNL A   1      45.458  32.501  29.817  1.00  0.00     0.064 A 
ATOM     63  C   UNL A   1      45.802  32.810  31.141  1.00  0.00     0.173 A 
ATOM     64  C   UNL A   1      45.529  33.525  28.861  1.00  0.00     0.173 A 
ATOM     65  F   UNL A   1      45.735  31.868  32.093  1.00  0.00    -0.203 F 
ATOM     66  C   UNL A   1      46.193  34.098  31.495  1.00  0.00     0.198 A 
ATOM     67  C   UNL A   1      45.944  34.806  29.214  1.00  0.00     0.198 A 
ATOM     68  F   UNL A   1      45.216  33.277  27.580  1.00  0.00    -0.203 F 
ATOM     69  F   UNL A   1      46.490  34.380  32.772  1.00  0.00    -0.200 F 
ATOM     70  C   UNL A   1      46.273  35.093  30.530  1.00  0.00     0.200 A 
ATOM     71  F   UNL A   1      46.033  35.762  28.278  1.00  0.00    -0.200 F 
ATOM     72  F   UNL A   1      46.663  36.328  30.871  1.00  0.00    -0.200 F 
ENDBRANCH  39  62
ENDBRANCH  13  14
ENDBRANCH   6   8
ENDBRANCH   3   4
ENDBRANCH   2   3
ENDBRANCH   1   2
BRANCH   1  73
ATOM     73  C   UNL A   1      36.394  21.940  24.853  1.00  0.00     0.002 C 
BRANCH  73  74
ATOM     74  C   UNL A   1      35.992  22.733  26.099  1.00  0.00     0.021 C 
BRANCH  74  75
ATOM     75  C   UNL A   1      34.587  23.334  26.062  1.00  0.00     0.116 C 
BRANCH  75  76
ATOM     76  N   UNL A   1      33.548  22.318  26.130  1.00  0.00    -0.352 N 
ATOM     77  C   UNL A   1      32.481  22.122  25.288  1.00  0.00     0.253 C 
ATOM     78  H   UNL A   1      33.620  21.685  26.882  1.00  0.00     0.163 HD
ATOM     79  O   UNL A   1      31.575  21.354  25.594  1.00  0.00    -0.269 OA
BRANCH  77  80
ATOM     80  C   UNL A   1      32.392  22.903  24.034  1.00  0.00     0.063 A 
ATOM     81  C   UNL A   1      33.239  22.546  22.971  1.00  0.00     0.017 A 
ATOM     82  C   UNL A   1      31.504  23.994  23.924  1.00  0.00     0.055 A 
ATOM     83  C   UNL A   1      33.303  23.346  21.836  1.00  0.00     0.021 A 
ATOM     84  C   UNL A   1      31.648  24.829  22.811  1.00  0.00     0.047 A 
ATOM     85  C   UNL A   1      32.534  24.503  21.779  1.00  0.00     0.043 A 
ATOM     86  Cl  UNL A   1      32.678  25.553  20.424  1.00  0.00    -0.084 Cl
BRANCH  82  87
ATOM     87  N   UNL A   1      30.534  24.195  24.938  1.00  0.00    -0.321 N 
ATOM     88  C   UNL A   1      30.234  25.251  25.765  1.00  0.00     0.258 C 
ATOM     89  H   UNL A   1      29.950  23.415  25.078  1.00  0.00     0.170 HD
ATOM     90  O   UNL A   1      29.414  25.124  26.674  1.00  0.00    -0.269 OA
BRANCH  88  91
ATOM     91  C   UNL A   1      30.860  26.561  25.625  1.00  0.00     0.082 A 
ATOM     92  C   UNL A   1      31.889  26.888  26.510  1.00  0.00     0.060 A 
ATOM     93  C   UNL A   1      30.444  27.491  24.691  1.00  0.00     0.164 A 
ATOM     94  C   UNL A   1      32.494  28.113  26.352  1.00  0.00     0.152 A 
ATOM     95  N   UNL A   1      31.072  28.678  24.562  1.00  0.00    -0.136 NA
ATOM     96  Cl  UNL A   1      29.141  27.271  23.600  1.00  0.00    -0.059 Cl
ATOM     97  Cl  UNL A   1      33.799  28.604  27.340  1.00  0.00    -0.060 Cl
ATOM     98  N   UNL A   1      32.121  28.988  25.397  1.00  0.00    -0.137 NA
ENDBRANCH  88  91
ENDBRANCH  82  87
ENDBRANCH  77  80
ENDBRANCH  75  76
ENDBRANCH  74  75
ENDBRANCH  73  74
ENDBRANCH   1  73
TORSDOF 15
ENDMDL
MODEL 3
REMARK VINA RESULT:     -12.6      4.895     10.484
REMARK SMILES O=C(NCCCCCCNC(=O)c1ccc(Cl)cc1NC(=O)c1cc(Cl)nnc1Cl)c1ccc(-c2c3nc(c(-c4c(F)c(F)c(F)c(F)c4F)c4ccc([nH]4)c(-c4c(F)c(F)c(F)c(F)c4F)c4nc(c(-c5c(F)c(F)c(F)c(F)c5F)c5ccc2[nH]5)C=C4)C=C3)cc1
REMARK SMILES IDX 6 1 5 2 4 3 3 4 1 5 2 6 31 8 32 9 93 10 33 11 92 12 34 13
REMARK SMILES IDX 35 14 36 15 86 16 37 17 91 18 85 19 87 20 38 21 90 22 84 23
REMARK SMILES IDX 83 24 39 26 71 27 51 28 70 29 52 30 55 31 69 32 88 33 53 34
REMARK SMILES IDX 54 35 68 37 89 38 56 39 40 40 41 41 49 42 42 43 43 44 47 45
REMARK SMILES IDX 50 46 44 47 45 48 48 49 46 50 72 51 73 52 81 53 74 54 75 55
REMARK SMILES IDX 79 56 82 57 76 58 77 59 80 60 78 61 57 62 58 63 66 64 59 65
REMARK SMILES IDX 60 66 64 67 67 68 61 69 62 70 65 71 63 72 7 73 8 74 9 75
REMARK SMILES IDX 10 76 11 77 12 79 13 80 14 81 19 82 15 83 18 84 16 85 17 86
REMARK SMILES IDX 20 87 21 88 22 90 23 91 24 92 29 93 25 94 28 95 30 96 26 97
REMARK SMILES IDX 27 98
REMARK H PARENT 3 7 87 25 55 36 10 78 20 89
REMARK Flexibility Score: inf
ROOT
ATOM      1  C   UNL A   1      31.508  30.404  25.684  1.00  0.00     0.002 C 
ENDROOT
BRANCH   1   2
ATOM      2  C   UNL A   1      31.373  31.694  26.500  1.00  0.00     0.021 C 
BRANCH   2   3
ATOM      3  C   UNL A   1      32.689  32.306  26.975  1.00  0.00     0.116 C 
BRANCH   3   4
ATOM      4  N   UNL A   1      32.529  33.682  27.411  1.00  0.00    -0.352 N 
ATOM      5  O   UNL A   1      32.811  35.477  28.750  1.00  0.00    -0.269 OA
ATOM      6  C   UNL A   1      33.195  34.367  28.396  1.00  0.00     0.251 C 
ATOM      7  H   UNL A   1      31.843  34.200  26.930  1.00  0.00     0.163 HD
BRANCH   6   8
ATOM      8  C   UNL A   1      34.371  33.758  29.052  1.00  0.00     0.039 A 
ATOM      9  C   UNL A   1      35.665  34.195  28.753  1.00  0.00     0.014 A 
ATOM     10  C   UNL A   1      34.168  32.758  30.008  1.00  0.00     0.014 A 
ATOM     11  C   UNL A   1      36.762  33.566  29.341  1.00  0.00     0.010 A 
ATOM     12  C   UNL A   1      35.266  32.155  30.627  1.00  0.00     0.010 A 
ATOM     13  C   UNL A   1      36.570  32.537  30.277  1.00  0.00    -0.014 A 
BRANCH  13  14
ATOM     14  C   UNL A   1      37.744  31.880  30.899  1.00  0.00     0.031 A 
ATOM     15  C   UNL A   1      38.165  32.235  32.296  1.00  0.00     0.074 A 
ATOM     16  C   UNL A   1      38.418  30.944  30.206  1.00  0.00     0.049 A 
ATOM     17  N   UNL A   1      39.139  31.737  33.016  1.00  0.00    -0.248 NA
ATOM     18  C   UNL A   1      37.387  33.281  32.978  1.00  0.00     0.031 C 
ATOM     19  C   UNL A   1      38.099  30.518  28.844  1.00  0.00     0.029 A 
ATOM     20  N   UNL A   1      39.500  30.177  30.555  1.00  0.00    -0.354 N 
ATOM     21  C   UNL A   1      39.087  32.400  34.234  1.00  0.00     0.074 A 
ATOM     22  C   UNL A   1      38.010  33.363  34.146  1.00  0.00     0.031 C 
ATOM     23  C   UNL A   1      38.954  29.549  28.478  1.00  0.00     0.029 A 
ATOM     24  C   UNL A   1      39.897  29.311  29.567  1.00  0.00     0.049 A 
ATOM     25  H   UNL A   1      39.948  30.243  31.429  1.00  0.00     0.167 HD
ATOM     26  C   UNL A   1      39.858  32.208  35.331  1.00  0.00     0.037 A 
ATOM     27  C   UNL A   1      40.913  28.427  29.542  1.00  0.00     0.037 A 
ATOM     28  C   UNL A   1      40.932  31.252  35.414  1.00  0.00     0.049 A 
ATOM     29  C   UNL A   1      41.796  28.284  30.749  1.00  0.00     0.074 A 
ATOM     30  C   UNL A   1      41.752  30.969  36.492  1.00  0.00     0.029 A 
ATOM     31  N   UNL A   1      41.340  30.432  34.373  1.00  0.00    -0.354 N 
ATOM     32  N   UNL A   1      41.712  28.887  31.910  1.00  0.00    -0.248 NA
ATOM     33  C   UNL A   1      42.916  27.338  30.643  1.00  0.00     0.031 C 
ATOM     34  C   UNL A   1      42.684  30.006  36.092  1.00  0.00     0.029 A 
ATOM     35  C   UNL A   1      42.419  29.659  34.777  1.00  0.00     0.049 A 
ATOM     36  H   UNL A   1      40.927  30.402  33.480  1.00  0.00     0.167 HD
ATOM     37  C   UNL A   1      42.754  28.385  32.677  1.00  0.00     0.074 A 
ATOM     38  C   UNL A   1      43.449  27.416  31.855  1.00  0.00     0.031 C 
ATOM     39  C   UNL A   1      43.103  28.702  33.947  1.00  0.00     0.037 A 
BRANCH  26  40
ATOM     40  C   UNL A   1      39.568  33.041  36.543  1.00  0.00     0.064 A 
ATOM     41  C   UNL A   1      40.219  34.265  36.757  1.00  0.00     0.173 A 
ATOM     42  C   UNL A   1      38.582  32.651  37.459  1.00  0.00     0.173 A 
ATOM     43  F   UNL A   1      41.178  34.676  35.914  1.00  0.00    -0.203 F 
ATOM     44  C   UNL A   1      39.898  35.064  37.851  1.00  0.00     0.198 A 
ATOM     45  C   UNL A   1      38.248  33.461  38.541  1.00  0.00     0.198 A 
ATOM     46  F   UNL A   1      37.928  31.491  37.296  1.00  0.00    -0.203 F 
ATOM     47  F   UNL A   1      40.550  36.218  38.051  1.00  0.00    -0.200 F 
ATOM     48  C   UNL A   1      38.907  34.666  38.737  1.00  0.00     0.200 A 
ATOM     49  F   UNL A   1      37.285  33.082  39.391  1.00  0.00    -0.200 F 
ATOM     50  F   UNL A   1      38.591  35.442  39.783  1.00  0.00    -0.200 F 
ENDBRANCH  26  40
BRANCH  27  51
ATOM     51  C   UNL A   1      41.133  27.598  28.331  1.00  0.00     0.064 A 
ATOM     52  C   UNL A   1      41.993  28.029  27.313  1.00  0.00     0.173 A 
ATOM     53  C   UNL A   1      40.507  26.352  28.177  1.00  0.00     0.173 A 
ATOM     54  F   UNL A   1      42.598  29.223  27.408  1.00  0.00    -0.203 F 
ATOM     55  C   UNL A   1      42.215  27.246  26.182  1.00  0.00     0.198 A 
ATOM     56  C   UNL A   1      40.748  25.561  27.057  1.00  0.00     0.198 A 
ATOM     57  F   UNL A   1      39.675  25.897  29.126  1.00  0.00    -0.203 F 
ATOM     58  F   UNL A   1      43.021  27.694  25.208  1.00  0.00    -0.200 F 
ATOM     59  C   UNL A   1      41.598  26.011  26.058  1.00  0.00     0.200 A 
ATOM     60  F   UNL A   1      40.158  24.362  26.947  1.00  0.00    -0.200 F 
ATOM     61  F   UNL A   1      41.820  25.255  24.975  1.00  0.00    -0.200 F 
ENDBRANCH  27  51
BRANCH  39  62
ATOM     62  C   UNL A   1      44.285  27.992  34.536  1.00  0.00     0.064 A 
ATOM     63  C   UNL A   1      44.143  26.761  35.193  1.00  0.00     0.173 A 
ATOM     64  C   UNL A   1      45.577  28.516  34.388  1.00  0.00     0.173 A 
ATOM     65  F   UNL A   1      42.925  26.228  35.372  1.00  0.00    -0.203 F 
ATOM     66  C   UNL A   1      45.254  26.086  35.690  1.00  0.00     0.198 A 
ATOM     67  C   UNL A   1      46.688  27.826  34.865  1.00  0.00     0.198 A 
ATOM     68  F   UNL A   1      45.765  29.687  33.761  1.00  0.00    -0.203 F 
ATOM     69  F   UNL A   1      45.094  24.924  36.341  1.00  0.00    -0.200 F 
ATOM     70  C   UNL A   1      46.526  26.613  35.518  1.00  0.00     0.200 A 
ATOM     71  F   UNL A   1      47.917  28.331  34.686  1.00  0.00    -0.200 F 
ATOM     72  F   UNL A   1      47.594  25.954  35.985  1.00  0.00    -0.200 F 
ENDBRANCH  39  62
ENDBRANCH  13  14
ENDBRANCH   6   8
ENDBRANCH   3   4
ENDBRANCH   2   3
ENDBRANCH   1   2
BRANCH   1  73
ATOM     73  C   UNL A   1      32.283  29.269  26.361  1.00  0.00     0.002 C 
BRANCH  73  74
ATOM     74  C   UNL A   1      33.591  28.860  25.678  1.00  0.00     0.021 C 
BRANCH  74  75
ATOM     75  C   UNL A   1      33.530  27.556  24.885  1.00  0.00     0.116 C 
BRANCH  75  76
ATOM     76  N   UNL A   1      32.761  27.689  23.658  1.00  0.00    -0.352 N 
ATOM     77  C   UNL A   1      31.718  26.916  23.210  1.00  0.00     0.253 C 
ATOM     78  H   UNL A   1      33.024  28.433  23.069  1.00  0.00     0.163 HD
ATOM     79  O   UNL A   1      31.308  27.024  22.059  1.00  0.00    -0.269 OA
BRANCH  77  80
ATOM     80  C   UNL A   1      31.135  25.892  24.105  1.00  0.00     0.063 A 
ATOM     81  C   UNL A   1      30.327  26.328  25.170  1.00  0.00     0.017 A 
ATOM     82  C   UNL A   1      31.411  24.522  23.912  1.00  0.00     0.055 A 
ATOM     83  C   UNL A   1      29.889  25.418  26.126  1.00  0.00     0.021 A 
ATOM     84  C   UNL A   1      31.031  23.641  24.930  1.00  0.00     0.047 A 
ATOM     85  C   UNL A   1      30.276  24.087  26.020  1.00  0.00     0.043 A 
ATOM     86  Cl  UNL A   1      29.824  22.971  27.249  1.00  0.00    -0.084 Cl
BRANCH  82  87
ATOM     87  N   UNL A   1      32.060  24.113  22.720  1.00  0.00    -0.321 N 
ATOM     88  C   UNL A   1      33.232  23.444  22.463  1.00  0.00     0.258 C 
ATOM     89  H   UNL A   1      31.567  24.359  21.905  1.00  0.00     0.170 HD
ATOM     90  O   UNL A   1      33.650  23.327  21.312  1.00  0.00    -0.269 OA
BRANCH  88  91
ATOM     91  C   UNL A   1      34.042  22.843  23.517  1.00  0.00     0.082 A 
ATOM     92  C   UNL A   1      35.145  23.564  23.980  1.00  0.00     0.060 A 
ATOM     93  C   UNL A   1      33.784  21.586  24.033  1.00  0.00     0.164 A 
ATOM     94  C   UNL A   1      35.885  23.005  24.995  1.00  0.00     0.152 A 
ATOM     95  N   UNL A   1      34.530  21.079  25.037  1.00  0.00    -0.136 NA
ATOM     96  Cl  UNL A   1      32.527  20.549  23.507  1.00  0.00    -0.059 Cl
ATOM     97  Cl  UNL A   1      37.226  23.814  25.680  1.00  0.00    -0.060 Cl
ATOM     98  N   UNL A   1      35.588  21.806  25.534  1.00  0.00    -0.137 NA
ENDBRANCH  88  91
ENDBRANCH  82  87
ENDBRANCH  77  80
ENDBRANCH  75  76
ENDBRANCH  74  75
ENDBRANCH  73  74
ENDBRANCH   1  73
TORSDOF 15
ENDMDL
