MODEL 1
REMARK VINA RESULT:     -12.5      0.000      0.000
REMARK SMILES O=C(NCCCCCCNC(=O)[C@@]1([C@@H]2CCO[C@@]3(CCOC3)C2)CCOC1)c1ccc(-c2c3nc(c(-c4c(F)c(F)c(F)c(F)c4F)c4ccc([nH]4)c(-c4c(F)c(F)c(F)c(F)c4F)c4nc(c(-c5c(F)c(F)c(F)c(F)c5F)c5ccc2[nH]5)C=C4)C=C3)cc1
REMARK SMILES IDX 6 1 5 2 4 3 3 4 1 5 2 6 28 8 29 9 90 10 30 11 89 12 31 13
REMARK SMILES IDX 32 14 33 15 83 16 34 17 88 18 82 19 84 20 35 21 87 22 81 23
REMARK SMILES IDX 80 24 36 26 68 27 48 28 67 29 49 30 52 31 66 32 85 33 50 34
REMARK SMILES IDX 51 35 65 37 86 38 53 39 37 40 38 41 46 42 39 43 40 44 44 45
REMARK SMILES IDX 47 46 41 47 42 48 45 49 43 50 69 51 70 52 78 53 71 54 72 55
REMARK SMILES IDX 76 56 79 57 73 58 74 59 77 60 75 61 54 62 55 63 63 64 56 65
REMARK SMILES IDX 57 66 61 67 64 68 58 69 59 70 62 71 60 72 7 73 8 74 9 75
REMARK SMILES IDX 10 76 11 77 12 79 13 80 24 81 27 82 25 83 26 84 14 85 15 86
REMARK SMILES IDX 23 87 16 88 18 89 17 90 19 91 22 92 20 93 21 94
REMARK H PARENT 3 7 84 25 52 36 10 78
REMARK Flexibility Score: inf
ROOT
ATOM      1  C   UNL A   1      31.382  30.928  26.113  1.00  0.00     0.002 C 
ENDROOT
BRANCH   1   2
ATOM      2  C   UNL A   1      31.294  32.396  26.529  1.00  0.00     0.021 C 
BRANCH   2   3
ATOM      3  C   UNL A   1      32.596  32.972  27.069  1.00  0.00     0.116 C 
BRANCH   3   4
ATOM      4  N   UNL A   1      32.411  34.283  27.677  1.00  0.00    -0.352 N 
ATOM      5  O   UNL A   1      32.655  35.896  29.241  1.00  0.00    -0.269 OA
ATOM      6  C   UNL A   1      33.069  34.852  28.742  1.00  0.00     0.251 C 
ATOM      7  H   UNL A   1      31.714  34.843  27.267  1.00  0.00     0.163 HD
BRANCH   6   8
ATOM      8  C   UNL A   1      34.269  34.194  29.301  1.00  0.00     0.039 A 
ATOM      9  C   UNL A   1      34.145  33.252  30.322  1.00  0.00     0.014 A 
ATOM     10  C   UNL A   1      35.534  34.519  28.800  1.00  0.00     0.014 A 
ATOM     11  C   UNL A   1      35.280  32.763  30.951  1.00  0.00     0.010 A 
ATOM     12  C   UNL A   1      36.675  33.940  29.364  1.00  0.00     0.010 A 
ATOM     13  C   UNL A   1      36.560  33.079  30.465  1.00  0.00    -0.014 A 
BRANCH  13  14
ATOM     14  C   UNL A   1      37.741  32.428  31.089  1.00  0.00     0.031 A 
ATOM     15  C   UNL A   1      38.207  32.796  32.469  1.00  0.00     0.074 A 
ATOM     16  C   UNL A   1      38.364  31.449  30.402  1.00  0.00     0.049 A 
ATOM     17  N   UNL A   1      39.193  32.289  33.168  1.00  0.00    -0.248 NA
ATOM     18  C   UNL A   1      37.483  33.877  33.155  1.00  0.00     0.031 C 
ATOM     19  C   UNL A   1      38.011  31.018  29.047  1.00  0.00     0.029 A 
ATOM     20  N   UNL A   1      39.403  30.624  30.750  1.00  0.00    -0.354 N 
ATOM     21  C   UNL A   1      39.208  32.984  34.370  1.00  0.00     0.074 A 
ATOM     22  C   UNL A   1      38.160  33.981  34.290  1.00  0.00     0.031 C 
ATOM     23  C   UNL A   1      38.782  29.979  28.699  1.00  0.00     0.029 A 
ATOM     24  C   UNL A   1      39.731  29.717  29.773  1.00  0.00     0.049 A 
ATOM     25  H   UNL A   1      39.868  30.676  31.617  1.00  0.00     0.167 HD
ATOM     26  C   UNL A   1      40.012  32.795  35.445  1.00  0.00     0.037 A 
ATOM     27  C   UNL A   1      40.706  28.791  29.731  1.00  0.00     0.037 A 
ATOM     28  C   UNL A   1      41.057  31.803  35.513  1.00  0.00     0.049 A 
ATOM     29  C   UNL A   1      41.610  28.637  30.921  1.00  0.00     0.074 A 
ATOM     30  C   UNL A   1      41.925  31.532  36.558  1.00  0.00     0.029 A 
ATOM     31  N   UNL A   1      41.382  30.923  34.490  1.00  0.00    -0.354 N 
ATOM     32  N   UNL A   1      41.591  29.281  32.063  1.00  0.00    -0.248 NA
ATOM     33  C   UNL A   1      42.669  27.627  30.817  1.00  0.00     0.031 C 
ATOM     34  C   UNL A   1      42.804  30.524  36.150  1.00  0.00     0.029 A 
ATOM     35  C   UNL A   1      42.447  30.121  34.873  1.00  0.00     0.049 A 
ATOM     36  H   UNL A   1      40.923  30.875  33.620  1.00  0.00     0.167 HD
ATOM     37  C   UNL A   1      42.619  28.739  32.821  1.00  0.00     0.074 A 
ATOM     38  C   UNL A   1      43.221  27.695  32.019  1.00  0.00     0.031 C 
ATOM     39  C   UNL A   1      43.033  29.083  34.065  1.00  0.00     0.037 A 
BRANCH  26  40
ATOM     40  C   UNL A   1      39.801  33.680  36.641  1.00  0.00     0.064 A 
ATOM     41  C   UNL A   1      40.437  34.926  36.754  1.00  0.00     0.173 A 
ATOM     42  C   UNL A   1      38.905  33.311  37.657  1.00  0.00     0.173 A 
ATOM     43  F   UNL A   1      41.310  35.327  35.817  1.00  0.00    -0.203 F 
ATOM     44  C   UNL A   1      40.203  35.757  37.849  1.00  0.00     0.198 A 
ATOM     45  C   UNL A   1      38.650  34.157  38.734  1.00  0.00     0.198 A 
ATOM     46  F   UNL A   1      38.262  32.136  37.597  1.00  0.00    -0.203 F 
ATOM     47  F   UNL A   1      40.856  36.922  37.954  1.00  0.00    -0.200 F 
ATOM     48  C   UNL A   1      39.303  35.376  38.832  1.00  0.00     0.200 A 
ATOM     49  F   UNL A   1      37.767  33.794  39.676  1.00  0.00    -0.200 F 
ATOM     50  F   UNL A   1      39.070  36.181  39.878  1.00  0.00    -0.200 F 
ENDBRANCH  26  40
BRANCH  27  51
ATOM     51  C   UNL A   1      40.891  27.960  28.512  1.00  0.00     0.064 A 
ATOM     52  C   UNL A   1      41.717  28.382  27.461  1.00  0.00     0.173 A 
ATOM     53  C   UNL A   1      40.230  26.731  28.368  1.00  0.00     0.173 A 
ATOM     54  F   UNL A   1      42.359  29.557  27.544  1.00  0.00    -0.203 F 
ATOM     55  C   UNL A   1      41.848  27.623  26.300  1.00  0.00     0.198 A 
ATOM     56  C   UNL A   1      40.393  25.954  27.224  1.00  0.00     0.198 A 
ATOM     57  F   UNL A   1      39.435  26.275  29.347  1.00  0.00    -0.203 F 
ATOM     58  F   UNL A   1      42.594  28.079  25.286  1.00  0.00    -0.200 F 
ATOM     59  C   UNL A   1      41.191  26.407  26.185  1.00  0.00     0.200 A 
ATOM     60  F   UNL A   1      39.774  24.770  27.128  1.00  0.00    -0.200 F 
ATOM     61  F   UNL A   1      41.319  25.677  25.069  1.00  0.00    -0.200 F 
ENDBRANCH  27  51
BRANCH  39  62
ATOM     62  C   UNL A   1      44.169  28.289  34.647  1.00  0.00     0.064 A 
ATOM     63  C   UNL A   1      45.505  28.694  34.500  1.00  0.00     0.173 A 
ATOM     64  C   UNL A   1      43.916  27.109  35.364  1.00  0.00     0.173 A 
ATOM     65  F   UNL A   1      45.802  29.804  33.808  1.00  0.00    -0.203 F 
ATOM     66  C   UNL A   1      46.546  27.927  35.016  1.00  0.00     0.198 A 
ATOM     67  C   UNL A   1      44.958  26.365  35.910  1.00  0.00     0.198 A 
ATOM     68  F   UNL A   1      42.657  26.680  35.538  1.00  0.00    -0.203 F 
ATOM     69  F   UNL A   1      47.816  28.298  34.806  1.00  0.00    -0.200 F 
ATOM     70  C   UNL A   1      46.271  26.767  35.725  1.00  0.00     0.200 A 
ATOM     71  F   UNL A   1      44.690  25.252  36.608  1.00  0.00    -0.200 F 
ATOM     72  F   UNL A   1      47.276  26.031  36.221  1.00  0.00    -0.200 F 
ENDBRANCH  39  62
ENDBRANCH  13  14
ENDBRANCH   6   8
ENDBRANCH   3   4
ENDBRANCH   2   3
ENDBRANCH   1   2
BRANCH   1  73
ATOM     73  C   UNL A   1      32.369  30.075  26.925  1.00  0.00     0.002 C 
BRANCH  73  74
ATOM     74  C   UNL A   1      31.784  28.793  27.543  1.00  0.00     0.021 C 
BRANCH  74  75
ATOM     75  C   UNL A   1      32.343  27.495  26.943  1.00  0.00     0.116 C 
BRANCH  75  76
ATOM     76  N   UNL A   1      31.268  26.592  26.561  1.00  0.00    -0.356 N 
ATOM     77  C   UNL A   1      30.458  26.425  25.490  1.00  0.00     0.228 C 
ATOM     78  H   UNL A   1      31.080  25.930  27.265  1.00  0.00     0.163 HD
ATOM     79  O   UNL A   1      29.566  25.580  25.660  1.00  0.00    -0.274 OA
BRANCH  77  80
ATOM     80  C   UNL A   1      30.550  27.143  24.125  1.00  0.00     0.078 C 
ATOM     81  C   UNL A   1      31.927  27.821  24.070  1.00  0.00     0.048 C 
ATOM     82  C   UNL A   1      30.692  26.238  22.905  1.00  0.00     0.177 C 
ATOM     83  C   UNL A   1      32.319  27.845  22.605  1.00  0.00     0.161 C 
ATOM     84  O   UNL A   1      31.449  26.947  21.917  1.00  0.00    -0.380 OA
BRANCH  80  85
ATOM     85  C   UNL A   1      29.327  28.145  23.962  1.00  0.00     0.012 C 
ATOM     86  C   UNL A   1      28.120  27.605  23.178  1.00  0.00     0.033 C 
ATOM     87  C   UNL A   1      29.653  29.547  23.351  1.00  0.00     0.043 C 
ATOM     88  C   UNL A   1      26.906  28.505  23.378  1.00  0.00     0.161 C 
ATOM     89  C   UNL A   1      28.382  30.362  22.956  1.00  0.00     0.094 C 
ATOM     90  O   UNL A   1      27.251  29.853  23.677  1.00  0.00    -0.372 OA
ATOM     91  C   UNL A   1      28.490  31.842  23.327  1.00  0.00     0.066 C 
ATOM     92  C   UNL A   1      28.124  30.423  21.433  1.00  0.00     0.195 C 
ATOM     93  C   UNL A   1      28.826  32.542  22.035  1.00  0.00     0.163 C 
ATOM     94  O   UNL A   1      28.192  31.792  21.002  1.00  0.00    -0.378 OA
ENDBRANCH  80  85
ENDBRANCH  77  80
ENDBRANCH  75  76
ENDBRANCH  74  75
ENDBRANCH  73  74
ENDBRANCH   1  73
TORSDOF 14
ENDMDL
MODEL 2
REMARK VINA RESULT:     -12.4      0.623      1.653
REMARK SMILES O=C(NCCCCCCNC(=O)[C@@]1([C@@H]2CCO[C@@]3(CCOC3)C2)CCOC1)c1ccc(-c2c3nc(c(-c4c(F)c(F)c(F)c(F)c4F)c4ccc([nH]4)c(-c4c(F)c(F)c(F)c(F)c4F)c4nc(c(-c5c(F)c(F)c(F)c(F)c5F)c5ccc2[nH]5)C=C4)C=C3)cc1
REMARK SMILES IDX 6 1 5 2 4 3 3 4 1 5 2 6 28 8 29 9 90 10 30 11 89 12 31 13
REMARK SMILES IDX 32 14 33 15 83 16 34 17 88 18 82 19 84 20 35 21 87 22 81 23
REMARK SMILES IDX 80 24 36 26 68 27 48 28 67 29 49 30 52 31 66 32 85 33 50 34
REMARK SMILES IDX 51 35 65 37 86 38 53 39 37 40 38 41 46 42 39 43 40 44 44 45
REMARK SMILES IDX 47 46 41 47 42 48 45 49 43 50 69 51 70 52 78 53 71 54 72 55
REMARK SMILES IDX 76 56 79 57 73 58 74 59 77 60 75 61 54 62 55 63 63 64 56 65
REMARK SMILES IDX 57 66 61 67 64 68 58 69 59 70 62 71 60 72 7 73 8 74 9 75
REMARK SMILES IDX 10 76 11 77 12 79 13 80 24 81 27 82 25 83 26 84 14 85 15 86
REMARK SMILES IDX 23 87 16 88 18 89 17 90 19 91 22 92 20 93 21 94
REMARK H PARENT 3 7 84 25 52 36 10 78
REMARK Flexibility Score: inf
ROOT
ATOM      1  C   UNL A   1      31.571  30.846  26.430  1.00  0.00     0.002 C 
ENDROOT
BRANCH   1   2
ATOM      2  C   UNL A   1      31.385  32.294  26.884  1.00  0.00     0.021 C 
BRANCH   2   3
ATOM      3  C   UNL A   1      32.687  33.046  27.125  1.00  0.00     0.116 C 
BRANCH   3   4
ATOM      4  N   UNL A   1      32.464  34.376  27.673  1.00  0.00    -0.352 N 
ATOM      5  O   UNL A   1      32.608  36.044  29.192  1.00  0.00    -0.269 OA
ATOM      6  C   UNL A   1      33.052  34.983  28.758  1.00  0.00     0.251 C 
ATOM      7  H   UNL A   1      31.796  34.922  27.199  1.00  0.00     0.163 HD
BRANCH   6   8
ATOM      8  C   UNL A   1      34.212  34.347  29.417  1.00  0.00     0.039 A 
ATOM      9  C   UNL A   1      35.509  34.628  28.986  1.00  0.00     0.014 A 
ATOM     10  C   UNL A   1      34.005  33.460  30.479  1.00  0.00     0.014 A 
ATOM     11  C   UNL A   1      36.577  33.906  29.497  1.00  0.00     0.010 A 
ATOM     12  C   UNL A   1      35.097  32.815  31.069  1.00  0.00     0.010 A 
ATOM     13  C   UNL A   1      36.391  33.010  30.562  1.00  0.00    -0.014 A 
BRANCH  13  14
ATOM     14  C   UNL A   1      37.583  32.357  31.164  1.00  0.00     0.031 A 
ATOM     15  C   UNL A   1      38.066  32.714  32.541  1.00  0.00     0.074 A 
ATOM     16  C   UNL A   1      38.200  31.387  30.460  1.00  0.00     0.049 A 
ATOM     17  N   UNL A   1      39.063  32.204  33.222  1.00  0.00    -0.248 NA
ATOM     18  C   UNL A   1      37.348  33.786  33.247  1.00  0.00     0.031 C 
ATOM     19  C   UNL A   1      37.830  30.968  29.106  1.00  0.00     0.029 A 
ATOM     20  N   UNL A   1      39.246  30.562  30.786  1.00  0.00    -0.354 N 
ATOM     21  C   UNL A   1      39.092  32.888  34.430  1.00  0.00     0.074 A 
ATOM     22  C   UNL A   1      38.040  33.881  34.374  1.00  0.00     0.031 C 
ATOM     23  C   UNL A   1      38.598  29.934  28.737  1.00  0.00     0.029 A 
ATOM     24  C   UNL A   1      39.564  29.665  29.796  1.00  0.00     0.049 A 
ATOM     25  H   UNL A   1      39.722  30.608  31.647  1.00  0.00     0.167 HD
ATOM     26  C   UNL A   1      39.911  32.691  35.492  1.00  0.00     0.037 A 
ATOM     27  C   UNL A   1      40.541  28.743  29.732  1.00  0.00     0.037 A 
ATOM     28  C   UNL A   1      40.961  31.703  35.537  1.00  0.00     0.049 A 
ATOM     29  C   UNL A   1      41.461  28.581  30.908  1.00  0.00     0.074 A 
ATOM     30  C   UNL A   1      41.844  31.425  36.567  1.00  0.00     0.029 A 
ATOM     31  N   UNL A   1      41.274  30.833  34.501  1.00  0.00    -0.354 N 
ATOM     32  N   UNL A   1      41.455  29.214  32.057  1.00  0.00    -0.248 NA
ATOM     33  C   UNL A   1      42.522  27.575  30.780  1.00  0.00     0.031 C 
ATOM     34  C   UNL A   1      42.721  30.423  36.138  1.00  0.00     0.029 A 
ATOM     35  C   UNL A   1      42.348  30.032  34.862  1.00  0.00     0.049 A 
ATOM     36  H   UNL A   1      40.804  30.792  33.638  1.00  0.00     0.167 HD
ATOM     37  C   UNL A   1      42.495  28.669  32.795  1.00  0.00     0.074 A 
ATOM     38  C   UNL A   1      43.090  27.634  31.976  1.00  0.00     0.031 C 
ATOM     39  C   UNL A   1      42.926  29.002  34.037  1.00  0.00     0.037 A 
BRANCH  26  40
ATOM     40  C   UNL A   1      39.714  33.565  36.699  1.00  0.00     0.064 A 
ATOM     41  C   UNL A   1      40.370  34.799  36.829  1.00  0.00     0.173 A 
ATOM     42  C   UNL A   1      38.811  33.198  37.710  1.00  0.00     0.173 A 
ATOM     43  F   UNL A   1      41.250  35.197  35.897  1.00  0.00    -0.203 F 
ATOM     44  C   UNL A   1      40.149  35.619  37.934  1.00  0.00     0.198 A 
ATOM     45  C   UNL A   1      38.570  34.033  38.798  1.00  0.00     0.198 A 
ATOM     46  F   UNL A   1      38.150  32.033  37.635  1.00  0.00    -0.203 F 
ATOM     47  F   UNL A   1      40.820  36.772  38.054  1.00  0.00    -0.200 F 
ATOM     48  C   UNL A   1      39.242  35.240  38.911  1.00  0.00     0.200 A 
ATOM     49  F   UNL A   1      37.680  33.673  39.734  1.00  0.00    -0.200 F 
ATOM     50  F   UNL A   1      39.021  36.036  39.967  1.00  0.00    -0.200 F 
ENDBRANCH  26  40
BRANCH  27  51
ATOM     51  C   UNL A   1      40.712  27.924  28.503  1.00  0.00     0.064 A 
ATOM     52  C   UNL A   1      41.497  28.372  27.432  1.00  0.00     0.173 A 
ATOM     53  C   UNL A   1      40.078  26.680  28.369  1.00  0.00     0.173 A 
ATOM     54  F   UNL A   1      42.113  29.562  27.505  1.00  0.00    -0.203 F 
ATOM     55  C   UNL A   1      41.614  27.623  26.264  1.00  0.00     0.198 A 
ATOM     56  C   UNL A   1      40.227  25.914  27.216  1.00  0.00     0.198 A 
ATOM     57  F   UNL A   1      39.322  26.199  29.367  1.00  0.00    -0.203 F 
ATOM     58  F   UNL A   1      42.321  28.104  25.231  1.00  0.00    -0.200 F 
ATOM     59  C   UNL A   1      40.984  26.392  26.158  1.00  0.00     0.200 A 
ATOM     60  F   UNL A   1      39.635  24.715  27.129  1.00  0.00    -0.200 F 
ATOM     61  F   UNL A   1      41.099  25.672  25.035  1.00  0.00    -0.200 F 
ENDBRANCH  27  51
BRANCH  39  62
ATOM     62  C   UNL A   1      44.072  28.207  34.595  1.00  0.00     0.064 A 
ATOM     63  C   UNL A   1      43.867  27.014  35.305  1.00  0.00     0.173 A 
ATOM     64  C   UNL A   1      45.394  28.642  34.412  1.00  0.00     0.173 A 
ATOM     65  F   UNL A   1      42.623  26.563  35.524  1.00  0.00    -0.203 F 
ATOM     66  C   UNL A   1      44.940  26.309  35.846  1.00  0.00     0.198 A 
ATOM     67  C   UNL A   1      46.465  27.915  34.921  1.00  0.00     0.198 A 
ATOM     68  F   UNL A   1      45.646  29.774  33.736  1.00  0.00    -0.203 F 
ATOM     69  F   UNL A   1      44.715  25.209  36.577  1.00  0.00    -0.200 F 
ATOM     70  C   UNL A   1      46.237  26.757  35.648  1.00  0.00     0.200 A 
ATOM     71  F   UNL A   1      47.719  28.342  34.717  1.00  0.00    -0.200 F 
ATOM     72  F   UNL A   1      47.268  26.076  36.168  1.00  0.00    -0.200 F 
ENDBRANCH  39  62
ENDBRANCH  13  14
ENDBRANCH   6   8
ENDBRANCH   3   4
ENDBRANCH   2   3
ENDBRANCH   1   2
BRANCH   1  73
ATOM     73  C   UNL A   1      32.593  30.033  27.238  1.00  0.00     0.002 C 
BRANCH  73  74
ATOM     74  C   UNL A   1      33.907  29.708  26.506  1.00  0.00     0.021 C 
BRANCH  74  75
ATOM     75  C   UNL A   1      33.848  28.441  25.643  1.00  0.00     0.116 C 
BRANCH  75  76
ATOM     76  N   UNL A   1      33.293  28.730  24.329  1.00  0.00    -0.356 N 
ATOM     77  C   UNL A   1      32.185  28.386  23.633  1.00  0.00     0.228 C 
ATOM     78  H   UNL A   1      33.875  29.332  23.811  1.00  0.00     0.163 HD
ATOM     79  O   UNL A   1      32.189  28.776  22.455  1.00  0.00    -0.274 OA
BRANCH  77  80
ATOM     80  C   UNL A   1      30.957  27.605  24.153  1.00  0.00     0.078 C 
ATOM     81  C   UNL A   1      30.949  26.252  23.425  1.00  0.00     0.048 C 
ATOM     82  C   UNL A   1      31.053  27.093  25.587  1.00  0.00     0.177 C 
ATOM     83  C   UNL A   1      30.310  25.268  24.386  1.00  0.00     0.161 C 
ATOM     84  O   UNL A   1      30.288  25.884  25.674  1.00  0.00    -0.380 OA
BRANCH  80  85
ATOM     85  C   UNL A   1      29.640  28.466  23.934  1.00  0.00     0.012 C 
ATOM     86  C   UNL A   1      28.599  27.865  22.976  1.00  0.00     0.033 C 
ATOM     87  C   UNL A   1      29.844  29.949  23.483  1.00  0.00     0.043 C 
ATOM     88  C   UNL A   1      27.265  28.591  23.110  1.00  0.00     0.161 C 
ATOM     89  C   UNL A   1      28.526  30.642  23.014  1.00  0.00     0.094 C 
ATOM     90  O   UNL A   1      27.402  29.936  23.557  1.00  0.00    -0.372 OA
ATOM     91  C   UNL A   1      28.405  32.081  23.516  1.00  0.00     0.066 C 
ATOM     92  C   UNL A   1      28.420  30.818  21.482  1.00  0.00     0.195 C 
ATOM     93  C   UNL A   1      28.780  32.937  22.333  1.00  0.00     0.163 C 
ATOM     94  O   UNL A   1      28.356  32.221  21.177  1.00  0.00    -0.378 OA
ENDBRANCH  80  85
ENDBRANCH  77  80
ENDBRANCH  75  76
ENDBRANCH  74  75
ENDBRANCH  73  74
ENDBRANCH   1  73
TORSDOF 14
ENDMDL
MODEL 3
REMARK VINA RESULT:     -12.3      1.826      3.673
REMARK SMILES O=C(NCCCCCCNC(=O)[C@@]1([C@@H]2CCO[C@@]3(CCOC3)C2)CCOC1)c1ccc(-c2c3nc(c(-c4c(F)c(F)c(F)c(F)c4F)c4ccc([nH]4)c(-c4c(F)c(F)c(F)c(F)c4F)c4nc(c(-c5c(F)c(F)c(F)c(F)c5F)c5ccc2[nH]5)C=C4)C=C3)cc1
REMARK SMILES IDX 6 1 5 2 4 3 3 4 1 5 2 6 28 8 29 9 90 10 30 11 89 12 31 13
REMARK SMILES IDX 32 14 33 15 83 16 34 17 88 18 82 19 84 20 35 21 87 22 81 23
REMARK SMILES IDX 80 24 36 26 68 27 48 28 67 29 49 30 52 31 66 32 85 33 50 34
REMARK SMILES IDX 51 35 65 37 86 38 53 39 37 40 38 41 46 42 39 43 40 44 44 45
REMARK SMILES IDX 47 46 41 47 42 48 45 49 43 50 69 51 70 52 78 53 71 54 72 55
REMARK SMILES IDX 76 56 79 57 73 58 74 59 77 60 75 61 54 62 55 63 63 64 56 65
REMARK SMILES IDX 57 66 61 67 64 68 58 69 59 70 62 71 60 72 7 73 8 74 9 75
REMARK SMILES IDX 10 76 11 77 12 79 13 80 24 81 27 82 25 83 26 84 14 85 15 86
REMARK SMILES IDX 23 87 16 88 18 89 17 90 19 91 22 92 20 93 21 94
REMARK H PARENT 3 7 84 25 52 36 10 78
REMARK Flexibility Score: inf
ROOT
ATOM      1  C   UNL A   1      31.522  30.755  26.108  1.00  0.00     0.002 C 
ENDROOT
BRANCH   1   2
ATOM      2  C   UNL A   1      31.387  32.037  26.928  1.00  0.00     0.021 C 
BRANCH   2   3
ATOM      3  C   UNL A   1      32.622  32.928  26.905  1.00  0.00     0.116 C 
BRANCH   3   4
ATOM      4  N   UNL A   1      32.397  34.202  27.574  1.00  0.00    -0.352 N 
ATOM      5  O   UNL A   1      32.571  35.735  29.225  1.00  0.00    -0.269 OA
ATOM      6  C   UNL A   1      33.016  34.725  28.685  1.00  0.00     0.251 C 
ATOM      7  H   UNL A   1      31.702  34.772  27.173  1.00  0.00     0.163 HD
BRANCH   6   8
ATOM      8  C   UNL A   1      34.211  34.058  29.243  1.00  0.00     0.039 A 
ATOM      9  C   UNL A   1      34.072  32.978  30.115  1.00  0.00     0.014 A 
ATOM     10  C   UNL A   1      35.486  34.513  28.891  1.00  0.00     0.014 A 
ATOM     11  C   UNL A   1      35.188  32.465  30.760  1.00  0.00     0.010 A 
ATOM     12  C   UNL A   1      36.618  33.920  29.460  1.00  0.00     0.010 A 
ATOM     13  C   UNL A   1      36.477  32.910  30.423  1.00  0.00    -0.014 A 
BRANCH  13  14
ATOM     14  C   UNL A   1      37.649  32.240  31.045  1.00  0.00     0.031 A 
ATOM     15  C   UNL A   1      38.103  32.578  32.436  1.00  0.00     0.074 A 
ATOM     16  C   UNL A   1      38.273  31.272  30.345  1.00  0.00     0.049 A 
ATOM     17  N   UNL A   1      39.079  32.050  33.134  1.00  0.00    -0.248 NA
ATOM     18  C   UNL A   1      37.379  33.648  33.137  1.00  0.00     0.031 C 
ATOM     19  C   UNL A   1      37.931  30.871  28.977  1.00  0.00     0.029 A 
ATOM     20  N   UNL A   1      39.304  30.434  30.685  1.00  0.00    -0.354 N 
ATOM     21  C   UNL A   1      39.087  32.721  34.351  1.00  0.00     0.074 A 
ATOM     22  C   UNL A   1      38.045  33.725  34.281  1.00  0.00     0.031 C 
ATOM     23  C   UNL A   1      38.699  29.834  28.615  1.00  0.00     0.029 A 
ATOM     24  C   UNL A   1      39.637  29.545  29.693  1.00  0.00     0.049 A 
ATOM     25  H   UNL A   1      39.761  30.466  31.557  1.00  0.00     0.167 HD
ATOM     26  C   UNL A   1      39.879  32.505  35.429  1.00  0.00     0.037 A 
ATOM     27  C   UNL A   1      40.607  28.615  29.642  1.00  0.00     0.037 A 
ATOM     28  C   UNL A   1      40.918  31.507  35.487  1.00  0.00     0.049 A 
ATOM     29  C   UNL A   1      41.498  28.432  30.836  1.00  0.00     0.074 A 
ATOM     30  C   UNL A   1      41.774  31.209  36.535  1.00  0.00     0.029 A 
ATOM     31  N   UNL A   1      41.248  30.646  34.449  1.00  0.00    -0.354 N 
ATOM     32  N   UNL A   1      41.471  29.052  31.992  1.00  0.00    -0.248 NA
ATOM     33  C   UNL A   1      42.553  27.418  30.722  1.00  0.00     0.031 C 
ATOM     34  C   UNL A   1      42.652  30.205  36.114  1.00  0.00     0.029 A 
ATOM     35  C   UNL A   1      42.305  29.830  34.826  1.00  0.00     0.049 A 
ATOM     36  H   UNL A   1      40.798  30.618  33.575  1.00  0.00     0.167 HD
ATOM     37  C   UNL A   1      42.489  28.489  32.748  1.00  0.00     0.074 A 
ATOM     38  C   UNL A   1      43.093  27.458  31.931  1.00  0.00     0.031 C 
ATOM     39  C   UNL A   1      42.893  28.805  34.003  1.00  0.00     0.037 A 
BRANCH  26  40
ATOM     40  C   UNL A   1      39.661  33.367  36.641  1.00  0.00     0.064 A 
ATOM     41  C   UNL A   1      40.318  34.598  36.795  1.00  0.00     0.173 A 
ATOM     42  C   UNL A   1      38.739  32.992  37.632  1.00  0.00     0.173 A 
ATOM     43  F   UNL A   1      41.216  35.003  35.884  1.00  0.00    -0.203 F 
ATOM     44  C   UNL A   1      40.078  35.408  37.904  1.00  0.00     0.198 A 
ATOM     45  C   UNL A   1      38.480  33.818  38.723  1.00  0.00     0.198 A 
ATOM     46  F   UNL A   1      38.077  31.830  37.533  1.00  0.00    -0.203 F 
ATOM     47  F   UNL A   1      40.749  36.559  38.048  1.00  0.00    -0.200 F 
ATOM     48  C   UNL A   1      39.153  35.022  38.861  1.00  0.00     0.200 A 
ATOM     49  F   UNL A   1      37.573  33.451  39.639  1.00  0.00    -0.200 F 
ATOM     50  F   UNL A   1      38.914  35.808  39.920  1.00  0.00    -0.200 F 
ENDBRANCH  26  40
BRANCH  27  51
ATOM     51  C   UNL A   1      40.799  27.808  28.408  1.00  0.00     0.064 A 
ATOM     52  C   UNL A   1      40.182  26.560  28.250  1.00  0.00     0.173 A 
ATOM     53  C   UNL A   1      41.621  28.264  27.366  1.00  0.00     0.173 A 
ATOM     54  F   UNL A   1      39.399  26.072  29.224  1.00  0.00    -0.203 F 
ATOM     55  C   UNL A   1      40.405  25.786  27.114  1.00  0.00     0.198 A 
ATOM     56  C   UNL A   1      41.811  27.507  26.213  1.00  0.00     0.198 A 
ATOM     57  F   UNL A   1      42.229  29.456  27.461  1.00  0.00    -0.203 F 
ATOM     58  F   UNL A   1      39.851  24.569  27.016  1.00  0.00    -0.200 F 
ATOM     59  C   UNL A   1      41.214  26.262  26.093  1.00  0.00     0.200 A 
ATOM     60  F   UNL A   1      42.576  27.983  25.221  1.00  0.00    -0.200 F 
ATOM     61  F   UNL A   1      41.426  25.518  25.000  1.00  0.00    -0.200 F 
ENDBRANCH  27  51
BRANCH  39  62
ATOM     62  C   UNL A   1      44.019  27.993  34.579  1.00  0.00     0.064 A 
ATOM     63  C   UNL A   1      45.358  28.395  34.457  1.00  0.00     0.173 A 
ATOM     64  C   UNL A   1      43.753  26.799  35.267  1.00  0.00     0.173 A 
ATOM     65  F   UNL A   1      45.668  29.519  33.792  1.00  0.00    -0.203 F 
ATOM     66  C   UNL A   1      46.391  27.611  34.966  1.00  0.00     0.198 A 
ATOM     67  C   UNL A   1      44.785  26.038  35.807  1.00  0.00     0.198 A 
ATOM     68  F   UNL A   1      42.490  26.371  35.417  1.00  0.00    -0.203 F 
ATOM     69  F   UNL A   1      47.664  27.982  34.779  1.00  0.00    -0.200 F 
ATOM     70  C   UNL A   1      46.103  26.438  35.646  1.00  0.00     0.200 A 
ATOM     71  F   UNL A   1      44.505  24.911  36.477  1.00  0.00    -0.200 F 
ATOM     72  F   UNL A   1      47.098  25.686  36.136  1.00  0.00    -0.200 F 
ENDBRANCH  39  62
ENDBRANCH  13  14
ENDBRANCH   6   8
ENDBRANCH   3   4
ENDBRANCH   2   3
ENDBRANCH   1   2
BRANCH   1  73
ATOM     73  C   UNL A   1      31.852  29.491  26.916  1.00  0.00     0.002 C 
BRANCH  73  74
ATOM     74  C   UNL A   1      33.340  29.291  27.253  1.00  0.00     0.021 C 
BRANCH  74  75
ATOM     75  C   UNL A   1      34.021  28.174  26.450  1.00  0.00     0.116 C 
BRANCH  75  76
ATOM     76  N   UNL A   1      34.027  28.483  25.028  1.00  0.00    -0.356 N 
ATOM     77  C   UNL A   1      33.660  27.859  23.885  1.00  0.00     0.228 C 
ATOM     78  H   UNL A   1      34.393  29.380  24.851  1.00  0.00     0.163 HD
ATOM     79  O   UNL A   1      33.980  28.469  22.853  1.00  0.00    -0.274 OA
BRANCH  77  80
ATOM     80  C   UNL A   1      32.895  26.523  23.752  1.00  0.00     0.078 C 
ATOM     81  C   UNL A   1      31.619  26.655  24.597  1.00  0.00     0.048 C 
ATOM     82  C   UNL A   1      32.245  26.262  22.396  1.00  0.00     0.177 C 
ATOM     83  C   UNL A   1      30.581  25.780  23.920  1.00  0.00     0.161 C 
ATOM     84  O   UNL A   1      31.072  25.468  22.616  1.00  0.00    -0.380 OA
BRANCH  80  85
ATOM     85  C   UNL A   1      33.837  25.318  24.183  1.00  0.00     0.012 C 
ATOM     86  C   UNL A   1      34.114  24.265  23.098  1.00  0.00     0.033 C 
ATOM     87  C   UNL A   1      33.413  24.527  25.462  1.00  0.00     0.043 C 
ATOM     88  C   UNL A   1      35.276  23.367  23.508  1.00  0.00     0.161 C 
ATOM     89  C   UNL A   1      34.207  23.197  25.661  1.00  0.00     0.094 C 
ATOM     90  O   UNL A   1      35.433  23.265  24.919  1.00  0.00    -0.372 OA
ATOM     91  C   UNL A   1      34.606  22.961  27.118  1.00  0.00     0.066 C 
ATOM     92  C   UNL A   1      33.394  21.925  25.332  1.00  0.00     0.195 C 
ATOM     93  C   UNL A   1      33.612  21.952  27.633  1.00  0.00     0.163 C 
ATOM     94  O   UNL A   1      33.273  21.128  26.521  1.00  0.00    -0.378 OA
ENDBRANCH  80  85
ENDBRANCH  77  80
ENDBRANCH  75  76
ENDBRANCH  74  75
ENDBRANCH  73  74
ENDBRANCH   1  73
TORSDOF 14
ENDMDL
