MODEL 1
REMARK VINA RESULT:     -13.9      0.000      0.000
REMARK SMILES Cc1cccc(S(=O)(=O)Nc2cc(C(=O)NCCCCCCNC(=O)c3ccc(-c4c5nc(c(-c6c(F)c(F)c(F)c(F)c6F)c6ccc([nH]6)c(-c6c(F)c(F)c(F)c(F)c6F)c6nc(c(-c7c(F)c(F)c(F)c(F)c7F)c7ccc4[nH]7)C=C6)C=C5)cc3)cnc2N2CCC[C@H](C)C2)c1
REMARK SMILES IDX 19 1 18 2 17 3 16 4 14 5 15 6 13 8 11 9 12 10 91 11 90 12
REMARK SMILES IDX 89 13 10 14 7 16 8 17 9 18 6 19 1 20 2 21 3 22 99 23 4 24
REMARK SMILES IDX 5 25 92 26 93 27 98 28 94 29 96 30 95 31 97 32 20 33 21 34
REMARK SMILES IDX 22 35 23 36 24 37 25 39 26 40 27 41 88 42 28 43 87 44 29 45
REMARK SMILES IDX 30 46 31 47 81 48 32 49 86 50 80 51 82 52 33 53 85 54 79 55
REMARK SMILES IDX 78 56 34 58 66 59 46 60 65 61 47 62 50 63 64 64 83 65 48 66
REMARK SMILES IDX 49 67 63 69 84 70 51 71 35 72 36 73 44 74 37 75 38 76 42 77
REMARK SMILES IDX 45 78 39 79 40 80 43 81 41 82 67 83 68 84 76 85 69 86 70 87
REMARK SMILES IDX 74 88 77 89 71 90 72 91 75 92 73 93 52 94 53 95 61 96 54 97
REMARK SMILES IDX 55 98 59 99 62 100 56 101 57 102 60 103 58 104
REMARK H PARENT 16 7 10 15 23 38 82 57 50 68
REMARK Flexibility Score: inf
ROOT
ATOM      1  C   UNL A   1      33.649  27.837  26.129  1.00  0.00     0.002 C 
ENDROOT
BRANCH   1   2
ATOM      2  C   UNL A   1      33.443  26.317  26.120  1.00  0.00     0.021 C 
BRANCH   2   3
ATOM      3  C   UNL A   1      34.251  25.592  25.044  1.00  0.00     0.116 C 
BRANCH   3   4
ATOM      4  N   UNL A   1      35.524  25.116  25.560  1.00  0.00    -0.352 N 
ATOM      5  C   UNL A   1      36.026  23.855  25.771  1.00  0.00     0.252 C 
ATOM      6  O   UNL A   1      37.204  23.748  26.109  1.00  0.00    -0.269 OA
ATOM      7  H   UNL A   1      36.147  25.837  25.807  1.00  0.00     0.163 HD
BRANCH   5   8
ATOM      8  C   UNL A   1      35.235  22.623  25.560  1.00  0.00     0.060 A 
ATOM      9  C   UNL A   1      33.206  21.358  25.401  1.00  0.00     0.092 A 
ATOM     10  C   UNL A   1      33.873  22.514  25.788  1.00  0.00     0.046 A 
ATOM     11  C   UNL A   1      33.940  20.228  24.979  1.00  0.00     0.153 A 
ATOM     12  N   UNL A   1      35.279  20.294  24.832  1.00  0.00    -0.236 NA
ATOM     13  C   UNL A   1      35.889  21.486  25.093  1.00  0.00     0.127 A 
BRANCH   9  14
ATOM     14  N   UNL A   1      31.772  21.357  25.469  1.00  0.00    -0.276 N 
ATOM     15  H   UNL A   1      31.267  20.617  25.062  1.00  0.00     0.180 HD
BRANCH  14  16
ATOM     16  S   UNL A   1      30.936  22.623  26.248  1.00  0.00     0.262 S 
ATOM     17  O   UNL A   1      31.805  23.001  27.348  1.00  0.00    -0.201 OA
ATOM     18  O   UNL A   1      29.600  22.146  26.528  1.00  0.00    -0.201 OA
BRANCH  16  19
ATOM     19  C   UNL A   1      30.747  24.082  25.234  1.00  0.00     0.088 A 
ATOM     20  C   UNL A   1      31.760  25.570  21.877  1.00  0.00     0.044 C 
ATOM     21  C   UNL A   1      31.100  25.387  23.215  1.00  0.00    -0.050 A 
ATOM     22  C   UNL A   1      30.439  26.470  23.805  1.00  0.00     0.003 A 
ATOM     23  C   UNL A   1      31.179  24.166  23.907  1.00  0.00     0.025 A 
ATOM     24  C   UNL A   1      29.904  26.355  25.085  1.00  0.00     0.002 A 
ATOM     25  C   UNL A   1      30.082  25.176  25.808  1.00  0.00     0.022 A 
ENDBRANCH  16  19
ENDBRANCH  14  16
ENDBRANCH   9  14
BRANCH  11  26
ATOM     26  N   UNL A   1      33.312  19.000  24.907  1.00  0.00    -0.355 N 
ATOM     27  C   UNL A   1      32.727  18.363  26.076  1.00  0.00     0.118 C 
ATOM     28  C   UNL A   1      32.670  18.657  23.642  1.00  0.00     0.121 C 
ATOM     29  C   UNL A   1      32.993  16.859  25.946  1.00  0.00     0.022 C 
ATOM     30  C   UNL A   1      32.933  17.163  23.380  1.00  0.00     0.005 C 
ATOM     31  C   UNL A   1      32.508  16.309  24.595  1.00  0.00     0.007 C 
ATOM     32  C   UNL A   1      34.402  16.936  23.005  1.00  0.00     0.009 C 
ENDBRANCH  11  26
ENDBRANCH   5   8
ENDBRANCH   3   4
ENDBRANCH   2   3
ENDBRANCH   1   2
BRANCH   1  33
ATOM     33  C   UNL A   1      32.460  28.678  26.629  1.00  0.00     0.002 C 
BRANCH  33  34
ATOM     34  C   UNL A   1      32.818  29.932  27.432  1.00  0.00     0.021 C 
BRANCH  34  35
ATOM     35  C   UNL A   1      34.246  30.412  27.214  1.00  0.00     0.116 C 
BRANCH  35  36
ATOM     36  N   UNL A   1      34.755  31.244  28.299  1.00  0.00    -0.352 N 
ATOM     37  C   UNL A   1      35.829  31.029  29.146  1.00  0.00     0.251 C 
ATOM     38  H   UNL A   1      34.263  32.083  28.454  1.00  0.00     0.163 HD
ATOM     39  O   UNL A   1      36.083  31.819  30.039  1.00  0.00    -0.269 OA
BRANCH  37  40
ATOM     40  C   UNL A   1      36.751  29.902  28.866  1.00  0.00     0.039 A 
ATOM     41  C   UNL A   1      36.987  28.981  29.894  1.00  0.00     0.014 A 
ATOM     42  C   UNL A   1      37.529  29.883  27.711  1.00  0.00     0.014 A 
ATOM     43  C   UNL A   1      38.158  28.231  29.878  1.00  0.00     0.010 A 
ATOM     44  C   UNL A   1      38.736  29.212  27.738  1.00  0.00     0.010 A 
ATOM     45  C   UNL A   1      39.085  28.451  28.861  1.00  0.00    -0.014 A 
BRANCH  45  46
ATOM     46  C   UNL A   1      40.487  28.057  28.957  1.00  0.00     0.031 A 
ATOM     47  C   UNL A   1      40.952  26.761  28.425  1.00  0.00     0.074 A 
ATOM     48  C   UNL A   1      41.384  28.945  29.439  1.00  0.00     0.049 A 
ATOM     49  N   UNL A   1      42.081  26.214  28.726  1.00  0.00    -0.248 NA
ATOM     50  C   UNL A   1      40.141  25.949  27.529  1.00  0.00     0.031 C 
ATOM     51  C   UNL A   1      42.840  28.887  29.340  1.00  0.00     0.029 A 
ATOM     52  N   UNL A   1      41.140  30.001  30.333  1.00  0.00    -0.354 N 
ATOM     53  C   UNL A   1      42.268  25.134  27.895  1.00  0.00     0.074 A 
ATOM     54  C   UNL A   1      41.006  24.982  27.206  1.00  0.00     0.031 C 
ATOM     55  C   UNL A   1      43.368  29.614  30.337  1.00  0.00     0.029 A 
ATOM     56  C   UNL A   1      42.268  30.028  31.189  1.00  0.00     0.049 A 
ATOM     57  H   UNL A   1      40.354  30.595  30.360  1.00  0.00     0.167 HD
ATOM     58  C   UNL A   1      43.508  24.566  27.813  1.00  0.00     0.037 A 
ATOM     59  C   UNL A   1      42.147  29.736  32.517  1.00  0.00     0.037 A 
ATOM     60  C   UNL A   1      44.430  25.145  28.793  1.00  0.00     0.049 A 
ATOM     61  C   UNL A   1      42.975  28.560  32.993  1.00  0.00     0.074 A 
ATOM     62  C   UNL A   1      45.442  26.089  28.743  1.00  0.00     0.029 A 
ATOM     63  N   UNL A   1      44.175  24.935  30.135  1.00  0.00    -0.354 N 
ATOM     64  N   UNL A   1      43.651  27.766  32.208  1.00  0.00    -0.248 NA
ATOM     65  C   UNL A   1      43.004  28.118  34.389  1.00  0.00     0.031 C 
ATOM     66  C   UNL A   1      45.789  26.442  30.080  1.00  0.00     0.029 A 
ATOM     67  C   UNL A   1      44.986  25.713  30.936  1.00  0.00     0.049 A 
ATOM     68  H   UNL A   1      43.498  24.307  30.478  1.00  0.00     0.167 HD
ATOM     69  C   UNL A   1      44.130  26.713  32.939  1.00  0.00     0.074 A 
ATOM     70  C   UNL A   1      43.703  26.975  34.299  1.00  0.00     0.031 C 
ATOM     71  C   UNL A   1      44.800  25.668  32.375  1.00  0.00     0.037 A 
BRANCH  58  72
ATOM     72  C   UNL A   1      43.957  23.639  26.703  1.00  0.00     0.064 A 
ATOM     73  C   UNL A   1      43.469  22.314  26.631  1.00  0.00     0.173 A 
ATOM     74  C   UNL A   1      44.900  23.965  25.712  1.00  0.00     0.173 A 
ATOM     75  F   UNL A   1      42.478  21.887  27.425  1.00  0.00    -0.203 F 
ATOM     76  C   UNL A   1      43.980  21.370  25.736  1.00  0.00     0.198 A 
ATOM     77  C   UNL A   1      45.457  23.007  24.857  1.00  0.00     0.198 A 
ATOM     78  F   UNL A   1      45.267  25.230  25.485  1.00  0.00    -0.203 F 
ATOM     79  F   UNL A   1      43.478  20.127  25.723  1.00  0.00    -0.200 F 
ATOM     80  C   UNL A   1      45.005  21.705  24.878  1.00  0.00     0.200 A 
ATOM     81  F   UNL A   1      46.430  23.363  24.006  1.00  0.00    -0.200 F 
ATOM     82  F   UNL A   1      45.532  20.789  24.055  1.00  0.00    -0.200 F 
ENDBRANCH  58  72
BRANCH  59  83
ATOM     83  C   UNL A   1      40.817  30.103  33.076  1.00  0.00     0.064 A 
ATOM     84  C   UNL A   1      40.516  31.464  33.276  1.00  0.00     0.173 A 
ATOM     85  C   UNL A   1      39.752  29.196  33.085  1.00  0.00     0.173 A 
ATOM     86  F   UNL A   1      41.499  32.378  33.273  1.00  0.00    -0.203 F 
ATOM     87  C   UNL A   1      39.199  31.909  33.361  1.00  0.00     0.198 A 
ATOM     88  C   UNL A   1      38.434  29.642  33.195  1.00  0.00     0.198 A 
ATOM     89  F   UNL A   1      39.966  27.890  32.877  1.00  0.00    -0.203 F 
ATOM     90  F   UNL A   1      38.939  33.222  33.429  1.00  0.00    -0.200 F 
ATOM     91  C   UNL A   1      38.157  30.999  33.297  1.00  0.00     0.200 A 
ATOM     92  F   UNL A   1      37.427  28.764  33.104  1.00  0.00    -0.200 F 
ATOM     93  F   UNL A   1      36.888  31.427  33.290  1.00  0.00    -0.200 F 
ENDBRANCH  59  83
BRANCH  71  94
ATOM     94  C   UNL A   1      45.319  24.503  33.160  1.00  0.00     0.064 A 
ATOM     95  C   UNL A   1      44.522  23.389  33.459  1.00  0.00     0.173 A 
ATOM     96  C   UNL A   1      46.607  24.526  33.734  1.00  0.00     0.173 A 
ATOM     97  F   UNL A   1      43.265  23.302  32.996  1.00  0.00    -0.203 F 
ATOM     98  C   UNL A   1      44.998  22.344  34.254  1.00  0.00     0.198 A 
ATOM     99  C   UNL A   1      47.060  23.507  34.568  1.00  0.00     0.198 A 
ATOM    100  F   UNL A   1      47.466  25.523  33.479  1.00  0.00    -0.203 F 
ATOM    101  F   UNL A   1      44.224  21.272  34.476  1.00  0.00    -0.200 F 
ATOM    102  C   UNL A   1      46.259  22.409  34.819  1.00  0.00     0.200 A 
ATOM    103  F   UNL A   1      48.278  23.592  35.121  1.00  0.00    -0.200 F 
ATOM    104  F   UNL A   1      46.706  21.416  35.599  1.00  0.00    -0.200 F 
ENDBRANCH  71  94
ENDBRANCH  45  46
ENDBRANCH  37  40
ENDBRANCH  35  36
ENDBRANCH  34  35
ENDBRANCH  33  34
ENDBRANCH   1  33
TORSDOF 17
ENDMDL
MODEL 2
REMARK VINA RESULT:     -13.3      2.191      4.269
REMARK SMILES Cc1cccc(S(=O)(=O)Nc2cc(C(=O)NCCCCCCNC(=O)c3ccc(-c4c5nc(c(-c6c(F)c(F)c(F)c(F)c6F)c6ccc([nH]6)c(-c6c(F)c(F)c(F)c(F)c6F)c6nc(c(-c7c(F)c(F)c(F)c(F)c7F)c7ccc4[nH]7)C=C6)C=C5)cc3)cnc2N2CCC[C@H](C)C2)c1
REMARK SMILES IDX 19 1 18 2 17 3 16 4 14 5 15 6 13 8 11 9 12 10 91 11 90 12
REMARK SMILES IDX 89 13 10 14 7 16 8 17 9 18 6 19 1 20 2 21 3 22 99 23 4 24
REMARK SMILES IDX 5 25 92 26 93 27 98 28 94 29 96 30 95 31 97 32 20 33 21 34
REMARK SMILES IDX 22 35 23 36 24 37 25 39 26 40 27 41 88 42 28 43 87 44 29 45
REMARK SMILES IDX 30 46 31 47 81 48 32 49 86 50 80 51 82 52 33 53 85 54 79 55
REMARK SMILES IDX 78 56 34 58 66 59 46 60 65 61 47 62 50 63 64 64 83 65 48 66
REMARK SMILES IDX 49 67 63 69 84 70 51 71 35 72 36 73 44 74 37 75 38 76 42 77
REMARK SMILES IDX 45 78 39 79 40 80 43 81 41 82 67 83 68 84 76 85 69 86 70 87
REMARK SMILES IDX 74 88 77 89 71 90 72 91 75 92 73 93 52 94 53 95 61 96 54 97
REMARK SMILES IDX 55 98 59 99 62 100 56 101 57 102 60 103 58 104
REMARK H PARENT 16 7 10 15 23 38 82 57 50 68
REMARK Flexibility Score: inf
ROOT
ATOM      1  C   UNL A   1      31.784  28.888  26.513  1.00  0.00     0.002 C 
ENDROOT
BRANCH   1   2
ATOM      2  C   UNL A   1      31.965  29.709  25.230  1.00  0.00     0.021 C 
BRANCH   2   3
ATOM      3  C   UNL A   1      32.613  28.927  24.086  1.00  0.00     0.116 C 
BRANCH   3   4
ATOM      4  N   UNL A   1      31.641  28.114  23.375  1.00  0.00    -0.352 N 
ATOM      5  C   UNL A   1      31.560  26.764  23.136  1.00  0.00     0.252 C 
ATOM      6  O   UNL A   1      30.541  26.329  22.600  1.00  0.00    -0.269 OA
ATOM      7  H   UNL A   1      30.896  28.630  22.991  1.00  0.00     0.163 HD
BRANCH   5   8
ATOM      8  C   UNL A   1      32.613  25.806  23.538  1.00  0.00     0.060 A 
ATOM      9  C   UNL A   1      33.725  24.333  25.066  1.00  0.00     0.092 A 
ATOM     10  C   UNL A   1      32.813  25.355  24.832  1.00  0.00     0.046 A 
ATOM     11  C   UNL A   1      34.590  23.909  24.032  1.00  0.00     0.153 A 
ATOM     12  N   UNL A   1      34.461  24.402  22.784  1.00  0.00    -0.236 NA
ATOM     13  C   UNL A   1      33.467  25.308  22.558  1.00  0.00     0.127 A 
BRANCH   9  14
ATOM     14  N   UNL A   1      33.764  23.756  26.380  1.00  0.00    -0.276 N 
ATOM     15  H   UNL A   1      34.398  24.107  27.046  1.00  0.00     0.180 HD
BRANCH  14  16
ATOM     16  S   UNL A   1      32.724  22.471  26.798  1.00  0.00     0.262 S 
ATOM     17  O   UNL A   1      31.407  23.079  26.847  1.00  0.00    -0.201 OA
ATOM     18  O   UNL A   1      33.266  21.850  27.986  1.00  0.00    -0.201 OA
BRANCH  16  19
ATOM     19  C   UNL A   1      32.639  21.189  25.556  1.00  0.00     0.088 A 
ATOM     20  C   UNL A   1      33.554  17.546  24.919  1.00  0.00     0.044 C 
ATOM     21  C   UNL A   1      32.989  18.927  24.739  1.00  0.00    -0.050 A 
ATOM     22  C   UNL A   1      32.521  19.316  23.478  1.00  0.00     0.003 A 
ATOM     23  C   UNL A   1      32.968  19.851  25.798  1.00  0.00     0.025 A 
ATOM     24  C   UNL A   1      32.083  20.620  23.262  1.00  0.00     0.002 A 
ATOM     25  C   UNL A   1      32.168  21.560  24.288  1.00  0.00     0.022 A 
ENDBRANCH  16  19
ENDBRANCH  14  16
ENDBRANCH   9  14
BRANCH  11  26
ATOM     26  N   UNL A   1      35.693  23.140  24.345  1.00  0.00    -0.355 N 
ATOM     27  C   UNL A   1      35.673  21.688  24.259  1.00  0.00     0.118 C 
ATOM     28  C   UNL A   1      37.005  23.742  24.126  1.00  0.00     0.121 C 
ATOM     29  C   UNL A   1      36.501  21.159  25.435  1.00  0.00     0.022 C 
ATOM     30  C   UNL A   1      37.909  23.322  25.299  1.00  0.00     0.005 C 
ATOM     31  C   UNL A   1      37.903  21.787  25.474  1.00  0.00     0.007 C 
ATOM     32  C   UNL A   1      37.491  24.047  26.584  1.00  0.00     0.009 C 
ENDBRANCH  11  26
ENDBRANCH   5   8
ENDBRANCH   3   4
ENDBRANCH   2   3
ENDBRANCH   1   2
BRANCH   1  33
ATOM     33  C   UNL A   1      33.074  28.526  27.271  1.00  0.00     0.002 C 
BRANCH  33  34
ATOM     34  C   UNL A   1      34.321  29.332  26.895  1.00  0.00     0.021 C 
BRANCH  34  35
ATOM     35  C   UNL A   1      34.879  30.166  28.040  1.00  0.00     0.116 C 
BRANCH  35  36
ATOM     36  N   UNL A   1      34.126  31.390  28.294  1.00  0.00    -0.352 N 
ATOM     37  C   UNL A   1      34.455  32.481  29.079  1.00  0.00     0.251 C 
ATOM     38  H   UNL A   1      33.254  31.450  27.839  1.00  0.00     0.163 HD
ATOM     39  O   UNL A   1      33.673  33.407  29.215  1.00  0.00    -0.269 OA
BRANCH  37  40
ATOM     40  C   UNL A   1      35.824  32.577  29.640  1.00  0.00     0.039 A 
ATOM     41  C   UNL A   1      36.811  33.182  28.852  1.00  0.00     0.014 A 
ATOM     42  C   UNL A   1      36.173  31.891  30.802  1.00  0.00     0.014 A 
ATOM     43  C   UNL A   1      38.148  32.874  29.083  1.00  0.00     0.010 A 
ATOM     44  C   UNL A   1      37.488  31.508  30.974  1.00  0.00     0.010 A 
ATOM     45  C   UNL A   1      38.463  31.935  30.063  1.00  0.00    -0.014 A 
BRANCH  45  46
ATOM     46  C   UNL A   1      39.740  31.231  30.115  1.00  0.00     0.031 A 
ATOM     47  C   UNL A   1      39.891  29.884  29.531  1.00  0.00     0.074 A 
ATOM     48  C   UNL A   1      40.822  31.874  30.607  1.00  0.00     0.049 A 
ATOM     49  N   UNL A   1      40.871  29.085  29.788  1.00  0.00    -0.248 NA
ATOM     50  C   UNL A   1      38.905  29.311  28.626  1.00  0.00     0.031 C 
ATOM     51  C   UNL A   1      42.225  31.492  30.475  1.00  0.00     0.029 A 
ATOM     52  N   UNL A   1      40.836  32.924  31.541  1.00  0.00    -0.354 N 
ATOM     53  C   UNL A   1      40.796  28.022  28.918  1.00  0.00     0.074 A 
ATOM     54  C   UNL A   1      39.523  28.186  28.252  1.00  0.00     0.031 C 
ATOM     55  C   UNL A   1      42.918  32.042  31.484  1.00  0.00     0.029 A 
ATOM     56  C   UNL A   1      41.952  32.663  32.373  1.00  0.00     0.049 A 
ATOM     57  H   UNL A   1      40.206  33.679  31.605  1.00  0.00     0.167 HD
ATOM     58  C   UNL A   1      41.874  27.192  28.791  1.00  0.00     0.037 A 
ATOM     59  C   UNL A   1      41.787  32.356  33.693  1.00  0.00     0.037 A 
ATOM     60  C   UNL A   1      42.916  27.510  29.769  1.00  0.00     0.049 A 
ATOM     61  C   UNL A   1      42.332  31.005  34.111  1.00  0.00     0.074 A 
ATOM     62  C   UNL A   1      44.115  28.201  29.728  1.00  0.00     0.029 A 
ATOM     63  N   UNL A   1      42.638  27.313  31.109  1.00  0.00    -0.354 N 
ATOM     64  N   UNL A   1      42.799  30.109  33.286  1.00  0.00    -0.248 NA
ATOM     65  C   UNL A   1      42.279  30.516  35.490  1.00  0.00     0.031 C 
ATOM     66  C   UNL A   1      44.552  28.416  31.068  1.00  0.00     0.029 A 
ATOM     67  C   UNL A   1      43.615  27.857  31.917  1.00  0.00     0.049 A 
ATOM     68  H   UNL A   1      41.841  26.842  31.445  1.00  0.00     0.167 HD
ATOM     69  C   UNL A   1      43.037  28.948  33.971  1.00  0.00     0.074 A 
ATOM     70  C   UNL A   1      42.698  29.249  35.347  1.00  0.00     0.031 C 
ATOM     71  C   UNL A   1      43.444  27.801  33.357  1.00  0.00     0.037 A 
BRANCH  58  72
ATOM     72  C   UNL A   1      42.084  26.229  27.640  1.00  0.00     0.064 A 
ATOM     73  C   UNL A   1      41.341  25.030  27.561  1.00  0.00     0.173 A 
ATOM     74  C   UNL A   1      43.034  26.393  26.616  1.00  0.00     0.173 A 
ATOM     75  F   UNL A   1      40.317  24.782  28.388  1.00  0.00    -0.203 F 
ATOM     76  C   UNL A   1      41.619  24.032  26.622  1.00  0.00     0.198 A 
ATOM     77  C   UNL A   1      43.355  25.372  25.715  1.00  0.00     0.198 A 
ATOM     78  F   UNL A   1      43.635  27.568  26.401  1.00  0.00    -0.203 F 
ATOM     79  F   UNL A   1      40.880  22.914  26.603  1.00  0.00    -0.200 F 
ATOM     80  C   UNL A   1      42.655  24.184  25.727  1.00  0.00     0.200 A 
ATOM     81  F   UNL A   1      44.345  25.555  24.829  1.00  0.00    -0.200 F 
ATOM     82  F   UNL A   1      42.956  23.208  24.860  1.00  0.00    -0.200 F 
ENDBRANCH  58  72
BRANCH  59  83
ATOM     83  C   UNL A   1      40.582  32.993  34.293  1.00  0.00     0.064 A 
ATOM     84  C   UNL A   1      39.396  32.240  34.395  1.00  0.00     0.173 A 
ATOM     85  C   UNL A   1      40.675  34.162  35.055  1.00  0.00     0.173 A 
ATOM     86  F   UNL A   1      39.255  31.107  33.689  1.00  0.00    -0.203 F 
ATOM     87  C   UNL A   1      38.401  32.579  35.309  1.00  0.00     0.198 A 
ATOM     88  C   UNL A   1      39.665  34.512  35.951  1.00  0.00     0.198 A 
ATOM     89  F   UNL A   1      41.785  34.912  35.021  1.00  0.00    -0.203 F 
ATOM     90  F   UNL A   1      37.339  31.776  35.470  1.00  0.00    -0.200 F 
ATOM     91  C   UNL A   1      38.547  33.703  36.103  1.00  0.00     0.200 A 
ATOM     92  F   UNL A   1      39.821  35.585  36.739  1.00  0.00    -0.200 F 
ATOM     93  F   UNL A   1      37.636  33.986  37.044  1.00  0.00    -0.200 F 
ENDBRANCH  59  83
BRANCH  71  94
ATOM     94  C   UNL A   1      43.695  26.520  34.092  1.00  0.00     0.064 A 
ATOM     95  C   UNL A   1      44.967  25.932  34.155  1.00  0.00     0.173 A 
ATOM     96  C   UNL A   1      42.636  25.785  34.661  1.00  0.00     0.173 A 
ATOM     97  F   UNL A   1      46.029  26.536  33.598  1.00  0.00    -0.203 F 
ATOM     98  C   UNL A   1      45.172  24.701  34.781  1.00  0.00     0.198 A 
ATOM     99  C   UNL A   1      42.834  24.534  35.241  1.00  0.00     0.198 A 
ATOM    100  F   UNL A   1      41.388  26.273  34.694  1.00  0.00    -0.203 F 
ATOM    101  F   UNL A   1      46.410  24.196  34.865  1.00  0.00    -0.200 F 
ATOM    102  C   UNL A   1      44.105  23.997  35.311  1.00  0.00     0.200 A 
ATOM    103  F   UNL A   1      41.788  23.856  35.735  1.00  0.00    -0.200 F 
ATOM    104  F   UNL A   1      44.300  22.806  35.892  1.00  0.00    -0.200 F 
ENDBRANCH  71  94
ENDBRANCH  45  46
ENDBRANCH  37  40
ENDBRANCH  35  36
ENDBRANCH  34  35
ENDBRANCH  33  34
ENDBRANCH   1  33
TORSDOF 17
ENDMDL
MODEL 3
REMARK VINA RESULT:     -13.0      2.351      4.182
REMARK SMILES Cc1cccc(S(=O)(=O)Nc2cc(C(=O)NCCCCCCNC(=O)c3ccc(-c4c5nc(c(-c6c(F)c(F)c(F)c(F)c6F)c6ccc([nH]6)c(-c6c(F)c(F)c(F)c(F)c6F)c6nc(c(-c7c(F)c(F)c(F)c(F)c7F)c7ccc4[nH]7)C=C6)C=C5)cc3)cnc2N2CCC[C@H](C)C2)c1
REMARK SMILES IDX 19 1 18 2 17 3 16 4 14 5 15 6 13 8 11 9 12 10 91 11 90 12
REMARK SMILES IDX 89 13 10 14 7 16 8 17 9 18 6 19 1 20 2 21 3 22 99 23 4 24
REMARK SMILES IDX 5 25 92 26 93 27 98 28 94 29 96 30 95 31 97 32 20 33 21 34
REMARK SMILES IDX 22 35 23 36 24 37 25 39 26 40 27 41 88 42 28 43 87 44 29 45
REMARK SMILES IDX 30 46 31 47 81 48 32 49 86 50 80 51 82 52 33 53 85 54 79 55
REMARK SMILES IDX 78 56 34 58 66 59 46 60 65 61 47 62 50 63 64 64 83 65 48 66
REMARK SMILES IDX 49 67 63 69 84 70 51 71 35 72 36 73 44 74 37 75 38 76 42 77
REMARK SMILES IDX 45 78 39 79 40 80 43 81 41 82 67 83 68 84 76 85 69 86 70 87
REMARK SMILES IDX 74 88 77 89 71 90 72 91 75 92 73 93 52 94 53 95 61 96 54 97
REMARK SMILES IDX 55 98 59 99 62 100 56 101 57 102 60 103 58 104
REMARK H PARENT 16 7 10 15 23 38 82 57 50 68
REMARK Flexibility Score: inf
ROOT
ATOM      1  C   UNL A   1      31.906  28.935  26.763  1.00  0.00     0.002 C 
ENDROOT
BRANCH   1   2
ATOM      2  C   UNL A   1      31.552  29.823  25.562  1.00  0.00     0.021 C 
BRANCH   2   3
ATOM      3  C   UNL A   1      31.585  29.088  24.222  1.00  0.00     0.116 C 
BRANCH   3   4
ATOM      4  N   UNL A   1      30.268  28.605  23.844  1.00  0.00    -0.352 N 
ATOM      5  C   UNL A   1      29.668  27.374  23.948  1.00  0.00     0.252 C 
ATOM      6  O   UNL A   1      28.476  27.282  23.653  1.00  0.00    -0.269 OA
ATOM      7  H   UNL A   1      29.695  29.292  23.434  1.00  0.00     0.163 HD
BRANCH   5   8
ATOM      8  C   UNL A   1      30.368  26.170  24.446  1.00  0.00     0.060 A 
ATOM      9  C   UNL A   1      31.816  24.272  24.239  1.00  0.00     0.092 A 
ATOM     10  C   UNL A   1      31.060  25.275  23.646  1.00  0.00     0.046 A 
ATOM     11  C   UNL A   1      31.708  24.035  25.628  1.00  0.00     0.153 A 
ATOM     12  N   UNL A   1      30.969  24.849  26.408  1.00  0.00    -0.236 NA
ATOM     13  C   UNL A   1      30.346  25.906  25.813  1.00  0.00     0.127 A 
BRANCH   9  14
ATOM     14  N   UNL A   1      32.674  23.490  23.395  1.00  0.00    -0.276 N 
ATOM     15  H   UNL A   1      32.356  22.628  23.043  1.00  0.00     0.180 HD
BRANCH  14  16
ATOM     16  S   UNL A   1      34.238  24.040  22.994  1.00  0.00     0.262 S 
ATOM     17  O   UNL A   1      34.200  25.463  23.278  1.00  0.00    -0.201 OA
ATOM     18  O   UNL A   1      34.520  23.590  21.649  1.00  0.00    -0.201 OA
BRANCH  16  19
ATOM     19  C   UNL A   1      35.522  23.356  24.032  1.00  0.00     0.088 A 
ATOM     20  C   UNL A   1      38.078  24.313  26.690  1.00  0.00     0.044 C 
ATOM     21  C   UNL A   1      37.236  23.497  25.749  1.00  0.00    -0.050 A 
ATOM     22  C   UNL A   1      37.568  22.157  25.521  1.00  0.00     0.003 A 
ATOM     23  C   UNL A   1      36.154  24.068  25.056  1.00  0.00     0.025 A 
ATOM     24  C   UNL A   1      36.865  21.408  24.582  1.00  0.00     0.002 A 
ATOM     25  C   UNL A   1      35.865  22.012  23.820  1.00  0.00     0.022 A 
ENDBRANCH  16  19
ENDBRANCH  14  16
ENDBRANCH   9  14
BRANCH  11  26
ATOM     26  N   UNL A   1      32.197  22.855  26.154  1.00  0.00    -0.355 N 
ATOM     27  C   UNL A   1      33.066  22.831  27.319  1.00  0.00     0.118 C 
ATOM     28  C   UNL A   1      31.371  21.663  25.987  1.00  0.00     0.121 C 
ATOM     29  C   UNL A   1      34.098  21.722  27.084  1.00  0.00     0.022 C 
ATOM     30  C   UNL A   1      32.315  20.486  25.680  1.00  0.00     0.005 C 
ATOM     31  C   UNL A   1      33.427  20.381  26.746  1.00  0.00     0.007 C 
ATOM     32  C   UNL A   1      32.889  20.616  24.263  1.00  0.00     0.009 C 
ENDBRANCH  11  26
ENDBRANCH   5   8
ENDBRANCH   3   4
ENDBRANCH   2   3
ENDBRANCH   1   2
BRANCH   1  33
ATOM     33  C   UNL A   1      33.245  28.179  26.673  1.00  0.00     0.002 C 
BRANCH  33  34
ATOM     34  C   UNL A   1      34.500  29.051  26.573  1.00  0.00     0.021 C 
BRANCH  34  35
ATOM     35  C   UNL A   1      34.826  29.806  27.854  1.00  0.00     0.116 C 
BRANCH  35  36
ATOM     36  N   UNL A   1      34.105  31.068  27.989  1.00  0.00    -0.352 N 
ATOM     37  C   UNL A   1      34.406  32.176  28.761  1.00  0.00     0.251 C 
ATOM     38  H   UNL A   1      33.283  31.142  27.452  1.00  0.00     0.163 HD
ATOM     39  O   UNL A   1      33.655  33.136  28.787  1.00  0.00    -0.269 OA
BRANCH  37  40
ATOM     40  C   UNL A   1      35.720  32.242  29.444  1.00  0.00     0.039 A 
ATOM     41  C   UNL A   1      36.742  32.972  28.826  1.00  0.00     0.014 A 
ATOM     42  C   UNL A   1      36.001  31.425  30.537  1.00  0.00     0.014 A 
ATOM     43  C   UNL A   1      38.067  32.679  29.130  1.00  0.00     0.010 A 
ATOM     44  C   UNL A   1      37.313  31.064  30.773  1.00  0.00     0.010 A 
ATOM     45  C   UNL A   1      38.339  31.633  30.010  1.00  0.00    -0.014 A 
BRANCH  45  46
ATOM     46  C   UNL A   1      39.636  30.967  30.083  1.00  0.00     0.031 A 
ATOM     47  C   UNL A   1      39.849  29.643  29.466  1.00  0.00     0.074 A 
ATOM     48  C   UNL A   1      40.681  31.629  30.627  1.00  0.00     0.049 A 
ATOM     49  N   UNL A   1      40.845  28.868  29.732  1.00  0.00    -0.248 NA
ATOM     50  C   UNL A   1      38.911  29.066  28.514  1.00  0.00     0.031 C 
ATOM     51  C   UNL A   1      42.100  31.295  30.530  1.00  0.00     0.029 A 
ATOM     52  N   UNL A   1      40.633  32.651  31.591  1.00  0.00    -0.354 N 
ATOM     53  C   UNL A   1      40.832  27.829  28.831  1.00  0.00     0.074 A 
ATOM     54  C   UNL A   1      39.575  27.973  28.129  1.00  0.00     0.031 C 
ATOM     55  C   UNL A   1      42.742  31.836  31.576  1.00  0.00     0.029 A 
ATOM     56  C   UNL A   1      41.730  32.401  32.450  1.00  0.00     0.049 A 
ATOM     57  H   UNL A   1      39.977  33.384  31.655  1.00  0.00     0.167 HD
ATOM     58  C   UNL A   1      41.938  27.037  28.715  1.00  0.00     0.037 A 
ATOM     59  C   UNL A   1      41.533  32.051  33.755  1.00  0.00     0.037 A 
ATOM     60  C   UNL A   1      42.939  27.358  29.734  1.00  0.00     0.049 A 
ATOM     61  C   UNL A   1      42.108  30.706  34.152  1.00  0.00     0.074 A 
ATOM     62  C   UNL A   1      44.116  28.087  29.752  1.00  0.00     0.029 A 
ATOM     63  N   UNL A   1      42.626  27.114  31.059  1.00  0.00    -0.354 N 
ATOM     64  N   UNL A   1      42.629  29.850  33.318  1.00  0.00    -0.248 NA
ATOM     65  C   UNL A   1      42.027  30.176  35.515  1.00  0.00     0.031 C 
ATOM     66  C   UNL A   1      44.503  28.276  31.111  1.00  0.00     0.029 A 
ATOM     67  C   UNL A   1      43.559  27.664  31.913  1.00  0.00     0.049 A 
ATOM     68  H   UNL A   1      41.834  26.609  31.356  1.00  0.00     0.167 HD
ATOM     69  C   UNL A   1      42.882  28.677  33.977  1.00  0.00     0.074 A 
ATOM     70  C   UNL A   1      42.491  28.927  35.350  1.00  0.00     0.031 C 
ATOM     71  C   UNL A   1      43.344  27.561  33.345  1.00  0.00     0.037 A 
BRANCH  58  72
ATOM     72  C   UNL A   1      42.216  26.115  27.545  1.00  0.00     0.064 A 
ATOM     73  C   UNL A   1      41.622  24.834  27.483  1.00  0.00     0.173 A 
ATOM     74  C   UNL A   1      43.093  26.401  26.484  1.00  0.00     0.173 A 
ATOM     75  F   UNL A   1      40.672  24.457  28.349  1.00  0.00    -0.203 F 
ATOM     76  C   UNL A   1      41.979  23.884  26.522  1.00  0.00     0.198 A 
ATOM     77  C   UNL A   1      43.498  25.433  25.558  1.00  0.00     0.198 A 
ATOM     78  F   UNL A   1      43.537  27.642  26.259  1.00  0.00    -0.203 F 
ATOM     79  F   UNL A   1      41.382  22.684  26.520  1.00  0.00    -0.200 F 
ATOM     80  C   UNL A   1      42.950  24.168  25.586  1.00  0.00     0.200 A 
ATOM     81  F   UNL A   1      44.420  25.742  24.634  1.00  0.00    -0.200 F 
ATOM     82  F   UNL A   1      43.330  23.242  24.696  1.00  0.00    -0.200 F 
ENDBRANCH  58  72
BRANCH  59  83
ATOM     83  C   UNL A   1      40.290  32.632  34.333  1.00  0.00     0.064 A 
ATOM     84  C   UNL A   1      40.311  33.966  34.786  1.00  0.00     0.173 A 
ATOM     85  C   UNL A   1      39.041  32.037  34.132  1.00  0.00     0.173 A 
ATOM     86  F   UNL A   1      41.483  34.588  34.992  1.00  0.00    -0.203 F 
ATOM     87  C   UNL A   1      39.138  34.705  34.915  1.00  0.00     0.198 A 
ATOM     88  C   UNL A   1      37.866  32.772  34.286  1.00  0.00     0.198 A 
ATOM     89  F   UNL A   1      38.950  30.779  33.679  1.00  0.00    -0.203 F 
ATOM     90  F   UNL A   1      39.198  36.006  35.231  1.00  0.00    -0.200 F 
ATOM     91  C   UNL A   1      37.916  34.113  34.643  1.00  0.00     0.200 A 
ATOM     92  F   UNL A   1      36.687  32.207  33.994  1.00  0.00    -0.200 F 
ATOM     93  F   UNL A   1      36.792  34.841  34.680  1.00  0.00    -0.200 F 
ENDBRANCH  59  83
BRANCH  71  94
ATOM     94  C   UNL A   1      43.614  26.268  34.051  1.00  0.00     0.064 A 
ATOM     95  C   UNL A   1      44.888  25.682  34.076  1.00  0.00     0.173 A 
ATOM     96  C   UNL A   1      42.568  25.521  34.630  1.00  0.00     0.173 A 
ATOM     97  F   UNL A   1      45.936  26.297  33.508  1.00  0.00    -0.203 F 
ATOM     98  C   UNL A   1      45.108  24.440  34.676  1.00  0.00     0.198 A 
ATOM     99  C   UNL A   1      42.781  24.260  35.182  1.00  0.00     0.198 A 
ATOM    100  F   UNL A   1      41.320  26.006  34.698  1.00  0.00    -0.203 F 
ATOM    101  F   UNL A   1      46.349  23.936  34.725  1.00  0.00    -0.200 F 
ATOM    102  C   UNL A   1      44.054  23.724  35.216  1.00  0.00     0.200 A 
ATOM    103  F   UNL A   1      41.747  23.572  35.687  1.00  0.00    -0.200 F 
ATOM    104  F   UNL A   1      44.263  22.523  35.771  1.00  0.00    -0.200 F 
ENDBRANCH  71  94
ENDBRANCH  45  46
ENDBRANCH  37  40
ENDBRANCH  35  36
ENDBRANCH  34  35
ENDBRANCH  33  34
ENDBRANCH   1  33
TORSDOF 17
ENDMDL
