MODEL 1
REMARK VINA RESULT:     -11.6      0.000      0.000
REMARK SMILES CC1(C)CSC[C@H]([NH2+][C@H](C(=O)NCCCCCCNC(=O)c2ccc(-c3c4nc(c(-c5c(F)c(F)c(F)c(F)c5F)c5ccc([nH]5)c(-c5c(F)c(F)c(F)c(F)c5F)c5nc(c(-c6c(F)c(F)c(F)c(F)c6F)c6ccc3[nH]6)C=C5)C=C4)cc2)c2ccccc2)C1
REMARK SMILES IDX 15 1 14 2 13 3 12 4 10 5 11 6 9 8 8 9 7 12 1 13 2 14 3 15
REMARK SMILES IDX 4 16 91 17 5 18 6 19 85 20 86 21 90 22 87 23 89 24 88 25
REMARK SMILES IDX 16 26 17 27 18 28 19 29 20 30 21 32 22 33 23 34 84 35 24 36
REMARK SMILES IDX 83 37 25 38 26 39 27 40 77 41 28 42 82 43 76 44 78 45 29 46
REMARK SMILES IDX 81 47 75 48 74 49 30 51 62 52 42 53 61 54 43 55 46 56 60 57
REMARK SMILES IDX 79 58 44 59 45 60 59 62 80 63 47 64 31 65 32 66 40 67 33 68
REMARK SMILES IDX 34 69 38 70 41 71 35 72 36 73 39 74 37 75 63 76 64 77 72 78
REMARK SMILES IDX 65 79 66 80 70 81 73 82 67 83 68 84 71 85 69 86 48 87 49 88
REMARK SMILES IDX 57 89 50 90 51 91 55 92 58 93 52 94 53 95 56 96 54 97
REMARK H PARENT 12 7 8 10 8 11 19 31 78 50 46 61
REMARK Flexibility Score: inf
ROOT
ATOM      1  C   UNL A   1      40.945  21.927  26.242  1.00  0.00     0.002 C 
ENDROOT
BRANCH   1   2
ATOM      2  C   UNL A   1      39.478  21.514  26.041  1.00  0.00     0.021 C 
BRANCH   2   3
ATOM      3  C   UNL A   1      38.418  22.607  26.198  1.00  0.00     0.116 C 
BRANCH   3   4
ATOM      4  N   UNL A   1      37.072  22.053  26.091  1.00  0.00    -0.351 N 
ATOM      5  C   UNL A   1      36.404  22.002  24.868  1.00  0.00     0.283 C 
ATOM      6  O   UNL A   1      37.016  22.079  23.804  1.00  0.00    -0.268 OA
ATOM      7  H   UNL A   1      36.626  21.708  26.897  1.00  0.00     0.163 HD
BRANCH   5   8
ATOM      8  C   UNL A   1      34.844  22.032  24.999  1.00  0.00     0.304 C 
BRANCH   8   9
ATOM      9  N   UNL A   1      34.284  20.922  25.835  1.00  0.00    -0.329 N 
ATOM     10  H   UNL A   1      35.072  20.446  26.272  1.00  0.00     0.347 HD
ATOM     11  H   UNL A   1      33.636  21.388  26.470  1.00  0.00     0.347 HD
BRANCH   9  12
ATOM     12  C   UNL A   1      33.468  19.897  25.171  1.00  0.00     0.193 C 
ATOM     13  C   UNL A   1      33.417  16.697  25.665  1.00  0.00     0.012 C 
ATOM     14  C   UNL A   1      33.597  17.478  24.344  1.00  0.00    -0.021 C 
ATOM     15  C   UNL A   1      34.400  16.578  23.393  1.00  0.00     0.012 C 
ATOM     16  C   UNL A   1      32.201  17.765  23.735  1.00  0.00     0.076 C 
ATOM     17  C   UNL A   1      34.396  18.789  24.626  1.00  0.00     0.073 C 
ATOM     18  S   UNL A   1      32.153  19.266  22.721  1.00  0.00    -0.155 SA
ATOM     19  C   UNL A   1      32.541  20.456  24.057  1.00  0.00     0.134 C 
ENDBRANCH   9  12
ENDBRANCH   8   9
BRANCH   8  20
ATOM     20  C   UNL A   1      34.237  23.359  25.451  1.00  0.00     0.019 A 
ATOM     21  C   UNL A   1      33.037  23.424  26.175  1.00  0.00     0.010 A 
ATOM     22  C   UNL A   1      34.818  24.571  25.030  1.00  0.00     0.010 A 
ATOM     23  C   UNL A   1      32.458  24.654  26.501  1.00  0.00     0.001 A 
ATOM     24  C   UNL A   1      34.236  25.800  25.352  1.00  0.00     0.001 A 
ATOM     25  C   UNL A   1      33.057  25.841  26.092  1.00  0.00     0.000 A 
ENDBRANCH   8  20
ENDBRANCH   5   8
ENDBRANCH   3   4
ENDBRANCH   2   3
ENDBRANCH   1   2
BRANCH   1  26
ATOM     26  C   UNL A   1      41.979  20.883  26.688  1.00  0.00     0.002 C 
BRANCH  26  27
ATOM     27  C   UNL A   1      42.041  19.536  25.958  1.00  0.00     0.021 C 
BRANCH  27  28
ATOM     28  C   UNL A   1      43.265  18.642  26.144  1.00  0.00     0.116 C 
BRANCH  28  29
ATOM     29  N   UNL A   1      44.044  18.468  24.933  1.00  0.00    -0.352 N 
ATOM     30  C   UNL A   1      44.726  19.371  24.149  1.00  0.00     0.251 C 
ATOM     31  H   UNL A   1      44.092  17.538  24.615  1.00  0.00     0.163 HD
ATOM     32  O   UNL A   1      45.202  18.983  23.085  1.00  0.00    -0.269 OA
BRANCH  30  33
ATOM     33  C   UNL A   1      44.899  20.800  24.529  1.00  0.00     0.039 A 
ATOM     34  C   UNL A   1      45.525  21.083  25.752  1.00  0.00     0.014 A 
ATOM     35  C   UNL A   1      44.375  21.856  23.779  1.00  0.00     0.014 A 
ATOM     36  C   UNL A   1      45.662  22.406  26.196  1.00  0.00     0.010 A 
ATOM     37  C   UNL A   1      44.559  23.182  24.198  1.00  0.00     0.010 A 
ATOM     38  C   UNL A   1      45.198  23.473  25.415  1.00  0.00    -0.014 A 
BRANCH  38  39
ATOM     39  C   UNL A   1      45.361  24.886  25.868  1.00  0.00     0.031 A 
ATOM     40  C   UNL A   1      46.707  25.562  25.811  1.00  0.00     0.074 A 
ATOM     41  C   UNL A   1      44.307  25.558  26.372  1.00  0.00     0.049 A 
ATOM     42  N   UNL A   1      47.052  26.760  26.217  1.00  0.00    -0.248 NA
ATOM     43  C   UNL A   1      47.815  24.783  25.239  1.00  0.00     0.031 C 
ATOM     44  C   UNL A   1      42.955  25.021  26.518  1.00  0.00     0.029 A 
ATOM     45  N   UNL A   1      44.211  26.836  26.871  1.00  0.00    -0.354 N 
ATOM     46  C   UNL A   1      48.415  26.869  25.970  1.00  0.00     0.074 A 
ATOM     47  C   UNL A   1      48.842  25.606  25.406  1.00  0.00     0.031 C 
ATOM     48  C   UNL A   1      42.165  25.959  27.068  1.00  0.00     0.029 A 
ATOM     49  C   UNL A   1      42.959  27.153  27.341  1.00  0.00     0.049 A 
ATOM     50  H   UNL A   1      44.969  27.464  26.891  1.00  0.00     0.167 HD
ATOM     51  C   UNL A   1      49.233  27.929  26.180  1.00  0.00     0.037 A 
ATOM     52  C   UNL A   1      42.503  28.273  27.938  1.00  0.00     0.037 A 
ATOM     53  C   UNL A   1      48.808  29.204  26.700  1.00  0.00     0.049 A 
ATOM     54  C   UNL A   1      43.433  29.438  28.149  1.00  0.00     0.074 A 
ATOM     55  C   UNL A   1      49.556  30.359  26.865  1.00  0.00     0.029 A 
ATOM     56  N   UNL A   1      47.527  29.493  27.139  1.00  0.00    -0.354 N 
ATOM     57  N   UNL A   1      44.702  29.551  27.842  1.00  0.00    -0.248 NA
ATOM     58  C   UNL A   1      42.863  30.637  28.784  1.00  0.00     0.031 C 
ATOM     59  C   UNL A   1      48.737  31.333  27.445  1.00  0.00     0.029 A 
ATOM     60  C   UNL A   1      47.468  30.799  27.599  1.00  0.00     0.049 A 
ATOM     61  H   UNL A   1      46.769  28.863  27.126  1.00  0.00     0.167 HD
ATOM     62  C   UNL A   1      45.074  30.833  28.224  1.00  0.00     0.074 A 
ATOM     63  C   UNL A   1      43.895  31.469  28.768  1.00  0.00     0.031 C 
ATOM     64  C   UNL A   1      46.289  31.427  28.133  1.00  0.00     0.037 A 
BRANCH  51  65
ATOM     65  C   UNL A   1      50.687  27.771  25.846  1.00  0.00     0.064 A 
ATOM     66  C   UNL A   1      51.633  27.427  26.823  1.00  0.00     0.173 A 
ATOM     67  C   UNL A   1      51.127  27.883  24.518  1.00  0.00     0.173 A 
ATOM     68  F   UNL A   1      51.265  27.312  28.108  1.00  0.00    -0.203 F 
ATOM     69  C   UNL A   1      52.968  27.218  26.486  1.00  0.00     0.198 A 
ATOM     70  C   UNL A   1      52.457  27.650  24.180  1.00  0.00     0.198 A 
ATOM     71  F   UNL A   1      50.260  28.201  23.544  1.00  0.00    -0.203 F 
ATOM     72  F   UNL A   1      53.860  26.920  27.440  1.00  0.00    -0.200 F 
ATOM     73  C   UNL A   1      53.377  27.321  25.164  1.00  0.00     0.200 A 
ATOM     74  F   UNL A   1      52.848  27.737  22.901  1.00  0.00    -0.200 F 
ATOM     75  F   UNL A   1      54.658  27.105  24.839  1.00  0.00    -0.200 F 
ENDBRANCH  51  65
BRANCH  52  76
ATOM     76  C   UNL A   1      41.089  28.352  28.388  1.00  0.00     0.064 A 
ATOM     77  C   UNL A   1      40.093  28.883  27.556  1.00  0.00     0.173 A 
ATOM     78  C   UNL A   1      40.710  27.929  29.671  1.00  0.00     0.173 A 
ATOM     79  F   UNL A   1      40.412  29.327  26.331  1.00  0.00    -0.203 F 
ATOM     80  C   UNL A   1      38.778  29.009  27.997  1.00  0.00     0.198 A 
ATOM     81  C   UNL A   1      39.389  28.029  30.101  1.00  0.00     0.198 A 
ATOM     82  F   UNL A   1      41.626  27.415  30.506  1.00  0.00    -0.203 F 
ATOM     83  F   UNL A   1      37.857  29.570  27.202  1.00  0.00    -0.200 F 
ATOM     84  C   UNL A   1      38.425  28.579  29.267  1.00  0.00     0.200 A 
ATOM     85  F   UNL A   1      39.051  27.604  31.326  1.00  0.00    -0.200 F 
ATOM     86  F   UNL A   1      37.161  28.703  29.693  1.00  0.00    -0.200 F 
ENDBRANCH  52  76
BRANCH  64  87
ATOM     87  C   UNL A   1      46.401  32.846  28.608  1.00  0.00     0.064 A 
ATOM     88  C   UNL A   1      46.761  33.152  29.928  1.00  0.00     0.173 A 
ATOM     89  C   UNL A   1      46.184  33.913  27.722  1.00  0.00     0.173 A 
ATOM     90  F   UNL A   1      46.964  32.168  30.817  1.00  0.00    -0.203 F 
ATOM     91  C   UNL A   1      46.878  34.474  30.351  1.00  0.00     0.198 A 
ATOM     92  C   UNL A   1      46.329  35.233  28.140  1.00  0.00     0.198 A 
ATOM     93  F   UNL A   1      45.844  33.674  26.446  1.00  0.00    -0.203 F 
ATOM     94  F   UNL A   1      47.182  34.743  31.627  1.00  0.00    -0.200 F 
ATOM     95  C   UNL A   1      46.670  35.512  29.455  1.00  0.00     0.200 A 
ATOM     96  F   UNL A   1      46.137  36.235  27.271  1.00  0.00    -0.200 F 
ATOM     97  F   UNL A   1      46.789  36.784  29.862  1.00  0.00    -0.200 F 
ENDBRANCH  64  87
ENDBRANCH  38  39
ENDBRANCH  30  33
ENDBRANCH  28  29
ENDBRANCH  27  28
ENDBRANCH  26  27
ENDBRANCH   1  26
TORSDOF 16
ENDMDL
MODEL 2
REMARK VINA RESULT:     -11.6      6.358     10.839
REMARK SMILES CC1(C)CSC[C@H]([NH2+][C@H](C(=O)NCCCCCCNC(=O)c2ccc(-c3c4nc(c(-c5c(F)c(F)c(F)c(F)c5F)c5ccc([nH]5)c(-c5c(F)c(F)c(F)c(F)c5F)c5nc(c(-c6c(F)c(F)c(F)c(F)c6F)c6ccc3[nH]6)C=C5)C=C4)cc2)c2ccccc2)C1
REMARK SMILES IDX 15 1 14 2 13 3 12 4 10 5 11 6 9 8 8 9 7 12 1 13 2 14 3 15
REMARK SMILES IDX 4 16 91 17 5 18 6 19 85 20 86 21 90 22 87 23 89 24 88 25
REMARK SMILES IDX 16 26 17 27 18 28 19 29 20 30 21 32 22 33 23 34 84 35 24 36
REMARK SMILES IDX 83 37 25 38 26 39 27 40 77 41 28 42 82 43 76 44 78 45 29 46
REMARK SMILES IDX 81 47 75 48 74 49 30 51 62 52 42 53 61 54 43 55 46 56 60 57
REMARK SMILES IDX 79 58 44 59 45 60 59 62 80 63 47 64 31 65 32 66 40 67 33 68
REMARK SMILES IDX 34 69 38 70 41 71 35 72 36 73 39 74 37 75 63 76 64 77 72 78
REMARK SMILES IDX 65 79 66 80 70 81 73 82 67 83 68 84 71 85 69 86 48 87 49 88
REMARK SMILES IDX 57 89 50 90 51 91 55 92 58 93 52 94 53 95 56 96 54 97
REMARK H PARENT 12 7 8 10 8 11 19 31 78 50 46 61
REMARK Flexibility Score: inf
ROOT
ATOM      1  C   UNL A   1      31.767  29.639  25.847  1.00  0.00     0.002 C 
ENDROOT
BRANCH   1   2
ATOM      2  C   UNL A   1      33.269  29.488  25.556  1.00  0.00     0.021 C 
BRANCH   2   3
ATOM      3  C   UNL A   1      33.698  28.290  24.704  1.00  0.00     0.116 C 
BRANCH   3   4
ATOM      4  N   UNL A   1      32.552  27.453  24.362  1.00  0.00    -0.351 N 
ATOM      5  C   UNL A   1      32.330  27.030  23.051  1.00  0.00     0.283 C 
ATOM      6  O   UNL A   1      33.235  27.033  22.219  1.00  0.00    -0.268 OA
ATOM      7  H   UNL A   1      31.924  27.181  25.068  1.00  0.00     0.163 HD
BRANCH   5   8
ATOM      8  C   UNL A   1      30.823  26.754  22.725  1.00  0.00     0.304 C 
BRANCH   8   9
ATOM      9  N   UNL A   1      30.216  25.659  23.547  1.00  0.00    -0.329 N 
ATOM     10  H   UNL A   1      29.719  26.101  24.320  1.00  0.00     0.347 HD
ATOM     11  H   UNL A   1      29.640  25.138  22.886  1.00  0.00     0.347 HD
BRANCH   9  12
ATOM     12  C   UNL A   1      31.110  24.647  24.126  1.00  0.00     0.193 C 
ATOM     13  C   UNL A   1      33.606  23.107  22.751  1.00  0.00     0.012 C 
ATOM     14  C   UNL A   1      32.383  22.519  23.492  1.00  0.00    -0.021 C 
ATOM     15  C   UNL A   1      32.153  21.107  22.932  1.00  0.00     0.012 C 
ATOM     16  C   UNL A   1      32.705  22.435  25.005  1.00  0.00     0.076 C 
ATOM     17  C   UNL A   1      31.132  23.407  23.206  1.00  0.00     0.073 C 
ATOM     18  S   UNL A   1      31.237  22.557  26.060  1.00  0.00    -0.155 SA
ATOM     19  C   UNL A   1      30.758  24.259  25.588  1.00  0.00     0.134 C 
ENDBRANCH   9  12
ENDBRANCH   8   9
BRANCH   8  20
ATOM     20  C   UNL A   1      29.901  27.971  22.746  1.00  0.00     0.019 A 
ATOM     21  C   UNL A   1      28.574  27.895  23.198  1.00  0.00     0.010 A 
ATOM     22  C   UNL A   1      30.336  29.186  22.182  1.00  0.00     0.010 A 
ATOM     23  C   UNL A   1      27.725  29.004  23.126  1.00  0.00     0.001 A 
ATOM     24  C   UNL A   1      29.484  30.292  22.106  1.00  0.00     0.001 A 
ATOM     25  C   UNL A   1      28.179  30.201  22.583  1.00  0.00     0.000 A 
ENDBRANCH   8  20
ENDBRANCH   5   8
ENDBRANCH   3   4
ENDBRANCH   2   3
ENDBRANCH   1   2
BRANCH   1  26
ATOM     26  C   UNL A   1      31.021  30.899  25.382  1.00  0.00     0.002 C 
BRANCH  26  27
ATOM     27  C   UNL A   1      31.028  32.143  26.279  1.00  0.00     0.021 C 
BRANCH  27  28
ATOM     28  C   UNL A   1      32.348  32.624  26.876  1.00  0.00     0.116 C 
BRANCH  28  29
ATOM     29  N   UNL A   1      32.277  33.959  27.437  1.00  0.00    -0.352 N 
ATOM     30  C   UNL A   1      33.019  34.578  28.417  1.00  0.00     0.251 C 
ATOM     31  H   UNL A   1      31.570  34.523  27.048  1.00  0.00     0.163 HD
ATOM     32  O   UNL A   1      32.666  35.688  28.809  1.00  0.00    -0.269 OA
BRANCH  30  33
ATOM     33  C   UNL A   1      34.223  33.956  29.031  1.00  0.00     0.039 A 
ATOM     34  C   UNL A   1      34.028  32.906  29.942  1.00  0.00     0.014 A 
ATOM     35  C   UNL A   1      35.518  34.438  28.826  1.00  0.00     0.014 A 
ATOM     36  C   UNL A   1      35.117  32.320  30.601  1.00  0.00     0.010 A 
ATOM     37  C   UNL A   1      36.612  33.817  29.446  1.00  0.00     0.010 A 
ATOM     38  C   UNL A   1      36.425  32.755  30.347  1.00  0.00    -0.014 A 
BRANCH  38  39
ATOM     39  C   UNL A   1      37.594  32.122  31.027  1.00  0.00     0.031 A 
ATOM     40  C   UNL A   1      38.392  31.044  30.339  1.00  0.00     0.074 A 
ATOM     41  C   UNL A   1      37.919  32.482  32.284  1.00  0.00     0.049 A 
ATOM     42  N   UNL A   1      39.398  30.337  30.796  1.00  0.00    -0.248 NA
ATOM     43  C   UNL A   1      37.998  30.704  28.964  1.00  0.00     0.031 C 
ATOM     44  C   UNL A   1      37.216  33.485  33.084  1.00  0.00     0.029 A 
ATOM     45  N   UNL A   1      38.916  32.033  33.118  1.00  0.00    -0.354 N 
ATOM     46  C   UNL A   1      39.741  29.458  29.776  1.00  0.00     0.074 A 
ATOM     47  C   UNL A   1      38.818  29.698  28.686  1.00  0.00     0.031 C 
ATOM     48  C   UNL A   1      37.802  33.577  34.289  1.00  0.00     0.029 A 
ATOM     49  C   UNL A   1      38.903  32.620  34.361  1.00  0.00     0.049 A 
ATOM     50  H   UNL A   1      39.577  31.355  32.850  1.00  0.00     0.167 HD
ATOM     51  C   UNL A   1      40.742  28.545  29.743  1.00  0.00     0.037 A 
ATOM     52  C   UNL A   1      39.678  32.403  35.443  1.00  0.00     0.037 A 
ATOM     53  C   UNL A   1      41.692  28.330  30.805  1.00  0.00     0.049 A 
ATOM     54  C   UNL A   1      40.788  31.389  35.374  1.00  0.00     0.074 A 
ATOM     55  C   UNL A   1      42.789  27.484  30.821  1.00  0.00     0.029 A 
ATOM     56  N   UNL A   1      41.659  28.963  32.036  1.00  0.00    -0.354 N 
ATOM     57  N   UNL A   1      41.145  30.618  34.376  1.00  0.00    -0.248 NA
ATOM     58  C   UNL A   1      41.610  31.220  36.583  1.00  0.00     0.031 C 
ATOM     59  C   UNL A   1      43.394  27.573  32.078  1.00  0.00     0.029 A 
ATOM     60  C   UNL A   1      42.700  28.507  32.829  1.00  0.00     0.049 A 
ATOM     61  H   UNL A   1      40.995  29.637  32.309  1.00  0.00     0.167 HD
ATOM     62  C   UNL A   1      42.240  29.893  34.827  1.00  0.00     0.074 A 
ATOM     63  C   UNL A   1      42.505  30.327  36.181  1.00  0.00     0.031 C 
ATOM     64  C   UNL A   1      42.961  28.949  34.174  1.00  0.00     0.037 A 
BRANCH  51  65
ATOM     65  C   UNL A   1      40.877  27.695  28.514  1.00  0.00     0.064 A 
ATOM     66  C   UNL A   1      40.163  26.498  28.366  1.00  0.00     0.173 A 
ATOM     67  C   UNL A   1      41.668  28.125  27.438  1.00  0.00     0.173 A 
ATOM     68  F   UNL A   1      39.396  26.040  29.368  1.00  0.00    -0.203 F 
ATOM     69  C   UNL A   1      40.247  25.753  27.192  1.00  0.00     0.198 A 
ATOM     70  C   UNL A   1      41.732  27.392  26.256  1.00  0.00     0.198 A 
ATOM     71  F   UNL A   1      42.365  29.269  27.525  1.00  0.00    -0.203 F 
ATOM     72  F   UNL A   1      39.579  24.597  27.084  1.00  0.00    -0.200 F 
ATOM     73  C   UNL A   1      41.025  26.205  26.136  1.00  0.00     0.200 A 
ATOM     74  F   UNL A   1      42.473  27.836  25.231  1.00  0.00    -0.200 F 
ATOM     75  F   UNL A   1      41.094  25.496  25.001  1.00  0.00    -0.200 F 
ENDBRANCH  51  65
BRANCH  52  76
ATOM     76  C   UNL A   1      39.431  33.161  36.698  1.00  0.00     0.064 A 
ATOM     77  C   UNL A   1      38.501  32.709  37.644  1.00  0.00     0.173 A 
ATOM     78  C   UNL A   1      40.096  34.367  36.961  1.00  0.00     0.173 A 
ATOM     79  F   UNL A   1      37.819  31.575  37.425  1.00  0.00    -0.203 F 
ATOM     80  C   UNL A   1      38.228  33.447  38.795  1.00  0.00     0.198 A 
ATOM     81  C   UNL A   1      39.843  35.090  38.124  1.00  0.00     0.198 A 
ATOM     82  F   UNL A   1      40.994  34.843  36.085  1.00  0.00    -0.203 F 
ATOM     83  F   UNL A   1      37.294  33.020  39.656  1.00  0.00    -0.200 F 
ATOM     84  C   UNL A   1      38.901  34.634  39.035  1.00  0.00     0.200 A 
ATOM     85  F   UNL A   1      40.503  36.233  38.358  1.00  0.00    -0.200 F 
ATOM     86  F   UNL A   1      38.636  35.346  40.139  1.00  0.00    -0.200 F 
ENDBRANCH  52  76
BRANCH  64  87
ATOM     87  C   UNL A   1      44.121  28.338  34.904  1.00  0.00     0.064 A 
ATOM     88  C   UNL A   1      43.984  27.152  35.639  1.00  0.00     0.173 A 
ATOM     89  C   UNL A   1      45.394  28.925  34.835  1.00  0.00     0.173 A 
ATOM     90  F   UNL A   1      42.784  26.562  35.747  1.00  0.00    -0.203 F 
ATOM     91  C   UNL A   1      45.074  26.587  36.297  1.00  0.00     0.198 A 
ATOM     92  C   UNL A   1      46.487  28.343  35.471  1.00  0.00     0.198 A 
ATOM     93  F   UNL A   1      45.581  30.057  34.139  1.00  0.00    -0.203 F 
ATOM     94  F   UNL A   1      44.910  25.476  37.028  1.00  0.00    -0.200 F 
ATOM     95  C   UNL A   1      46.325  27.178  36.206  1.00  0.00     0.200 A 
ATOM     96  F   UNL A   1      47.698  28.909  35.373  1.00  0.00    -0.200 F 
ATOM     97  F   UNL A   1      47.373  26.629  36.835  1.00  0.00    -0.200 F 
ENDBRANCH  64  87
ENDBRANCH  38  39
ENDBRANCH  30  33
ENDBRANCH  28  29
ENDBRANCH  27  28
ENDBRANCH  26  27
ENDBRANCH   1  26
TORSDOF 16
ENDMDL
MODEL 3
REMARK VINA RESULT:     -11.4      6.309     10.878
REMARK SMILES CC1(C)CSC[C@H]([NH2+][C@H](C(=O)NCCCCCCNC(=O)c2ccc(-c3c4nc(c(-c5c(F)c(F)c(F)c(F)c5F)c5ccc([nH]5)c(-c5c(F)c(F)c(F)c(F)c5F)c5nc(c(-c6c(F)c(F)c(F)c(F)c6F)c6ccc3[nH]6)C=C5)C=C4)cc2)c2ccccc2)C1
REMARK SMILES IDX 15 1 14 2 13 3 12 4 10 5 11 6 9 8 8 9 7 12 1 13 2 14 3 15
REMARK SMILES IDX 4 16 91 17 5 18 6 19 85 20 86 21 90 22 87 23 89 24 88 25
REMARK SMILES IDX 16 26 17 27 18 28 19 29 20 30 21 32 22 33 23 34 84 35 24 36
REMARK SMILES IDX 83 37 25 38 26 39 27 40 77 41 28 42 82 43 76 44 78 45 29 46
REMARK SMILES IDX 81 47 75 48 74 49 30 51 62 52 42 53 61 54 43 55 46 56 60 57
REMARK SMILES IDX 79 58 44 59 45 60 59 62 80 63 47 64 31 65 32 66 40 67 33 68
REMARK SMILES IDX 34 69 38 70 41 71 35 72 36 73 39 74 37 75 63 76 64 77 72 78
REMARK SMILES IDX 65 79 66 80 70 81 73 82 67 83 68 84 71 85 69 86 48 87 49 88
REMARK SMILES IDX 57 89 50 90 51 91 55 92 58 93 52 94 53 95 56 96 54 97
REMARK H PARENT 12 7 8 10 8 11 19 31 78 50 46 61
REMARK Flexibility Score: inf
ROOT
ATOM      1  C   UNL A   1      31.795  29.772  26.280  1.00  0.00     0.002 C 
ENDROOT
BRANCH   1   2
ATOM      2  C   UNL A   1      33.275  29.469  25.993  1.00  0.00     0.021 C 
BRANCH   2   3
ATOM      3  C   UNL A   1      33.585  28.595  24.776  1.00  0.00     0.116 C 
BRANCH   3   4
ATOM      4  N   UNL A   1      32.453  27.737  24.443  1.00  0.00    -0.351 N 
ATOM      5  C   UNL A   1      32.331  27.153  23.182  1.00  0.00     0.283 C 
ATOM      6  O   UNL A   1      33.304  27.035  22.439  1.00  0.00    -0.268 OA
ATOM      7  H   UNL A   1      31.760  27.567  25.121  1.00  0.00     0.163 HD
BRANCH   5   8
ATOM      8  C   UNL A   1      30.852  26.858  22.764  1.00  0.00     0.304 C 
BRANCH   8   9
ATOM      9  N   UNL A   1      30.235  25.700  23.487  1.00  0.00    -0.329 N 
ATOM     10  H   UNL A   1      29.666  26.083  24.241  1.00  0.00     0.347 HD
ATOM     11  H   UNL A   1      29.731  25.190  22.761  1.00  0.00     0.347 HD
BRANCH   9  12
ATOM     12  C   UNL A   1      31.129  24.698  24.082  1.00  0.00     0.193 C 
ATOM     13  C   UNL A   1      33.613  23.122  22.727  1.00  0.00     0.012 C 
ATOM     14  C   UNL A   1      32.392  22.553  23.486  1.00  0.00    -0.021 C 
ATOM     15  C   UNL A   1      32.155  21.131  22.957  1.00  0.00     0.012 C 
ATOM     16  C   UNL A   1      32.721  22.499  24.999  1.00  0.00     0.076 C 
ATOM     17  C   UNL A   1      31.142  23.439  23.187  1.00  0.00     0.073 C 
ATOM     18  S   UNL A   1      31.259  22.648  26.059  1.00  0.00    -0.155 SA
ATOM     19  C   UNL A   1      30.783  24.342  25.553  1.00  0.00     0.134 C 
ENDBRANCH   9  12
ENDBRANCH   8   9
BRANCH   8  20
ATOM     20  C   UNL A   1      29.895  28.048  22.809  1.00  0.00     0.019 A 
ATOM     21  C   UNL A   1      28.553  27.914  23.198  1.00  0.00     0.010 A 
ATOM     22  C   UNL A   1      30.319  29.302  22.329  1.00  0.00     0.010 A 
ATOM     23  C   UNL A   1      27.677  29.002  23.148  1.00  0.00     0.001 A 
ATOM     24  C   UNL A   1      29.440  30.389  22.275  1.00  0.00     0.001 A 
ATOM     25  C   UNL A   1      28.119  30.239  22.690  1.00  0.00     0.000 A 
ENDBRANCH   8  20
ENDBRANCH   5   8
ENDBRANCH   3   4
ENDBRANCH   2   3
ENDBRANCH   1   2
BRANCH   1  26
ATOM     26  C   UNL A   1      31.147  31.035  25.693  1.00  0.00     0.002 C 
BRANCH  26  27
ATOM     27  C   UNL A   1      31.169  32.332  26.510  1.00  0.00     0.021 C 
BRANCH  27  28
ATOM     28  C   UNL A   1      32.503  32.865  27.028  1.00  0.00     0.116 C 
BRANCH  28  29
ATOM     29  N   UNL A   1      32.414  34.197  27.594  1.00  0.00    -0.352 N 
ATOM     30  C   UNL A   1      33.094  34.795  28.630  1.00  0.00     0.251 C 
ATOM     31  H   UNL A   1      31.747  34.776  27.160  1.00  0.00     0.163 HD
ATOM     32  O   UNL A   1      32.732  35.908  29.006  1.00  0.00    -0.269 OA
BRANCH  30  33
ATOM     33  C   UNL A   1      34.240  34.147  29.324  1.00  0.00     0.039 A 
ATOM     34  C   UNL A   1      35.533  34.428  28.860  1.00  0.00     0.014 A 
ATOM     35  C   UNL A   1      34.078  33.196  30.335  1.00  0.00     0.014 A 
ATOM     36  C   UNL A   1      36.650  33.801  29.430  1.00  0.00     0.010 A 
ATOM     37  C   UNL A   1      35.199  32.608  30.940  1.00  0.00     0.010 A 
ATOM     38  C   UNL A   1      36.498  32.898  30.491  1.00  0.00    -0.014 A 
BRANCH  38  39
ATOM     39  C   UNL A   1      37.683  32.243  31.120  1.00  0.00     0.031 A 
ATOM     40  C   UNL A   1      38.452  31.175  30.385  1.00  0.00     0.074 A 
ATOM     41  C   UNL A   1      38.049  32.575  32.374  1.00  0.00     0.049 A 
ATOM     42  N   UNL A   1      39.467  30.452  30.795  1.00  0.00    -0.248 NA
ATOM     43  C   UNL A   1      38.013  30.866  29.016  1.00  0.00     0.031 C 
ATOM     44  C   UNL A   1      37.379  33.565  33.216  1.00  0.00     0.029 A 
ATOM     45  N   UNL A   1      39.070  32.102  33.167  1.00  0.00    -0.354 N 
ATOM     46  C   UNL A   1      39.771  29.593  29.747  1.00  0.00     0.074 A 
ATOM     47  C   UNL A   1      38.816  29.861  28.692  1.00  0.00     0.031 C 
ATOM     48  C   UNL A   1      38.003  33.627  34.404  1.00  0.00     0.029 A 
ATOM     49  C   UNL A   1      39.099  32.662  34.421  1.00  0.00     0.049 A 
ATOM     50  H   UNL A   1      39.717  31.425  32.863  1.00  0.00     0.167 HD
ATOM     51  C   UNL A   1      40.764  28.674  29.663  1.00  0.00     0.037 A 
ATOM     52  C   UNL A   1      39.906  32.417  35.473  1.00  0.00     0.037 A 
ATOM     53  C   UNL A   1      41.745  28.431  30.690  1.00  0.00     0.049 A 
ATOM     54  C   UNL A   1      41.006  31.398  35.348  1.00  0.00     0.074 A 
ATOM     55  C   UNL A   1      42.837  27.578  30.653  1.00  0.00     0.029 A 
ATOM     56  N   UNL A   1      41.756  29.038  31.935  1.00  0.00    -0.354 N 
ATOM     57  N   UNL A   1      41.326  30.646  34.324  1.00  0.00    -0.248 NA
ATOM     58  C   UNL A   1      41.865  31.198  36.527  1.00  0.00     0.031 C 
ATOM     59  C   UNL A   1      43.481  27.636  31.893  1.00  0.00     0.029 A 
ATOM     60  C   UNL A   1      42.818  28.559  32.685  1.00  0.00     0.049 A 
ATOM     61  H   UNL A   1      41.105  29.710  32.242  1.00  0.00     0.167 HD
ATOM     62  C   UNL A   1      42.430  29.905  34.725  1.00  0.00     0.074 A 
ATOM     63  C   UNL A   1      42.740  30.309  36.079  1.00  0.00     0.031 C 
ATOM     64  C   UNL A   1      43.124  28.970  34.029  1.00  0.00     0.037 A 
BRANCH  51  65
ATOM     65  C   UNL A   1      40.855  27.849  28.413  1.00  0.00     0.064 A 
ATOM     66  C   UNL A   1      41.639  28.250  27.323  1.00  0.00     0.173 A 
ATOM     67  C   UNL A   1      40.214  26.603  28.338  1.00  0.00     0.173 A 
ATOM     68  F   UNL A   1      42.268  29.435  27.343  1.00  0.00    -0.203 F 
ATOM     69  C   UNL A   1      41.766  27.442  26.195  1.00  0.00     0.198 A 
ATOM     70  C   UNL A   1      40.362  25.786  27.220  1.00  0.00     0.198 A 
ATOM     71  F   UNL A   1      39.459  26.168  29.358  1.00  0.00    -0.203 F 
ATOM     72  F   UNL A   1      42.497  27.859  25.153  1.00  0.00    -0.200 F 
ATOM     73  C   UNL A   1      41.134  26.208  26.149  1.00  0.00     0.200 A 
ATOM     74  F   UNL A   1      39.762  24.588  27.182  1.00  0.00    -0.200 F 
ATOM     75  F   UNL A   1      41.270  25.425  25.070  1.00  0.00    -0.200 F 
ENDBRANCH  51  65
BRANCH  52  76
ATOM     76  C   UNL A   1      39.704  33.150  36.751  1.00  0.00     0.064 A 
ATOM     77  C   UNL A   1      40.438  34.308  37.044  1.00  0.00     0.173 A 
ATOM     78  C   UNL A   1      38.799  32.689  37.718  1.00  0.00     0.173 A 
ATOM     79  F   UNL A   1      41.337  34.772  36.163  1.00  0.00    -0.203 F 
ATOM     80  C   UNL A   1      40.291  34.964  38.265  1.00  0.00     0.198 A 
ATOM     81  C   UNL A   1      38.631  33.361  38.926  1.00  0.00     0.198 A 
ATOM     82  F   UNL A   1      38.074  31.584  37.486  1.00  0.00    -0.203 F 
ATOM     83  F   UNL A   1      41.044  36.037  38.542  1.00  0.00    -0.200 F 
ATOM     84  C   UNL A   1      39.385  34.493  39.203  1.00  0.00     0.200 A 
ATOM     85  F   UNL A   1      37.749  32.908  39.826  1.00  0.00    -0.200 F 
ATOM     86  F   UNL A   1      39.246  35.121  40.378  1.00  0.00    -0.200 F 
ENDBRANCH  52  76
BRANCH  64  87
ATOM     87  C   UNL A   1      44.302  28.337  34.710  1.00  0.00     0.064 A 
ATOM     88  C   UNL A   1      45.585  28.896  34.628  1.00  0.00     0.173 A 
ATOM     89  C   UNL A   1      44.139  27.179  35.485  1.00  0.00     0.173 A 
ATOM     90  F   UNL A   1      45.796  29.995  33.886  1.00  0.00    -0.203 F 
ATOM     91  C   UNL A   1      46.666  28.307  35.279  1.00  0.00     0.198 A 
ATOM     92  C   UNL A   1      45.215  26.608  36.157  1.00  0.00     0.198 A 
ATOM     93  F   UNL A   1      42.930  26.608  35.601  1.00  0.00    -0.203 F 
ATOM     94  F   UNL A   1      47.891  28.836  35.152  1.00  0.00    -0.200 F 
ATOM     95  C   UNL A   1      46.479  27.169  36.049  1.00  0.00     0.200 A 
ATOM     96  F   UNL A   1      45.031  25.514  36.909  1.00  0.00    -0.200 F 
ATOM     97  F   UNL A   1      47.520  26.607  36.680  1.00  0.00    -0.200 F 
ENDBRANCH  64  87
ENDBRANCH  38  39
ENDBRANCH  30  33
ENDBRANCH  28  29
ENDBRANCH  27  28
ENDBRANCH  26  27
ENDBRANCH   1  26
TORSDOF 16
ENDMDL
