MODEL 1
REMARK VINA RESULT:     -11.9      0.000      0.000
REMARK SMILES C[NH+](C)Cc1noc(C[C@@](C)(C(=O)NCCCCCCNC(=O)c2ccc(-c3c4nc(c(-c5c(F)c(F)c(F)c(F)c5F)c5ccc([nH]5)c(-c5c(F)c(F)c(F)c(F)c5F)c5nc(c(-c6c(F)c(F)c(F)c(F)c6F)c6ccc3[nH]6)C=C5)C=C4)cc2)c2ccccc2)n1
REMARK SMILES IDX 16 1 15 2 14 3 12 4 13 5 10 7 11 8 9 9 8 10 5 11 6 12 93 13
REMARK SMILES IDX 7 14 4 15 2 16 1 17 3 18 87 20 88 21 92 22 89 23 91 24 90 25
REMARK SMILES IDX 17 26 18 27 19 28 20 29 21 30 22 31 23 33 24 34 25 35 86 36
REMARK SMILES IDX 26 37 85 38 27 39 28 40 29 41 79 42 30 43 84 44 78 45 80 46
REMARK SMILES IDX 31 47 83 48 77 49 76 50 32 52 64 53 44 54 63 55 45 56 48 57
REMARK SMILES IDX 62 58 81 59 46 60 47 61 61 63 82 64 49 65 33 66 34 67 42 68
REMARK SMILES IDX 35 69 36 70 40 71 43 72 37 73 38 74 41 75 39 76 65 77 66 78
REMARK SMILES IDX 74 79 67 80 68 81 72 82 75 83 69 84 70 85 73 86 71 87 50 88
REMARK SMILES IDX 51 89 59 90 52 91 53 92 57 93 60 94 54 95 55 96 58 97 56 98
REMARK H PARENT 14 6 2 19 21 32 80 51 48 62
REMARK Flexibility Score: inf
ROOT
ATOM      1  C   UNL A   1      33.356  29.226  26.916  1.00  0.00     0.021 C 
ENDROOT
BRANCH   1   2
ATOM      2  C   UNL A   1      33.315  28.072  25.917  1.00  0.00     0.116 C 
BRANCH   2   3
ATOM      3  N   UNL A   1      32.390  27.034  26.339  1.00  0.00    -0.355 N 
ATOM      4  C   UNL A   1      31.535  26.202  25.677  1.00  0.00     0.230 C 
ATOM      5  O   UNL A   1      30.899  25.434  26.406  1.00  0.00    -0.274 OA
ATOM      6  H   UNL A   1      32.377  26.905  27.315  1.00  0.00     0.163 HD
BRANCH   4   7
ATOM      7  C   UNL A   1      31.383  26.203  24.124  1.00  0.00     0.080 C 
ATOM      8  C   UNL A   1      30.799  24.819  23.736  1.00  0.00     0.027 C 
BRANCH   7   9
ATOM      9  C   UNL A   1      32.780  26.465  23.496  1.00  0.00     0.122 C 
BRANCH   9  10
ATOM     10  C   UNL A   1      33.735  25.340  23.628  1.00  0.00     0.228 A 
ATOM     11  C   UNL A   1      34.986  23.761  24.188  1.00  0.00     0.226 A 
ATOM     12  N   UNL A   1      34.856  23.596  22.862  1.00  0.00    -0.056 NA
ATOM     13  N   UNL A   1      34.282  24.823  24.703  1.00  0.00    -0.190 NA
ATOM     14  O   UNL A   1      34.030  24.653  22.486  1.00  0.00    -0.339 OA
BRANCH  11  15
ATOM     15  C   UNL A   1      35.774  22.833  25.060  1.00  0.00     0.344 C 
BRANCH  15  16
ATOM     16  N   UNL A   1      36.021  21.488  24.499  1.00  0.00    -0.333 N 
ATOM     17  C   UNL A   1      37.402  21.048  24.672  1.00  0.00     0.332 C 
ATOM     18  C   UNL A   1      35.077  20.491  25.001  1.00  0.00     0.332 C 
ATOM     19  H   UNL A   1      35.862  21.574  23.495  1.00  0.00     0.348 HD
ENDBRANCH  15  16
ENDBRANCH  11  15
ENDBRANCH   9  10
ENDBRANCH   7   9
BRANCH   7  20
ATOM     20  C   UNL A   1      30.430  27.354  23.664  1.00  0.00    -0.032 A 
ATOM     21  C   UNL A   1      29.029  27.223  23.638  1.00  0.00     0.005 A 
ATOM     22  C   UNL A   1      30.969  28.568  23.188  1.00  0.00     0.005 A 
ATOM     23  C   UNL A   1      28.213  28.236  23.126  1.00  0.00     0.000 A 
ATOM     24  C   UNL A   1      30.153  29.578  22.672  1.00  0.00     0.000 A 
ATOM     25  C   UNL A   1      28.774  29.408  22.632  1.00  0.00     0.000 A 
ENDBRANCH   7  20
ENDBRANCH   4   7
ENDBRANCH   2   3
ENDBRANCH   1   2
BRANCH   1  26
ATOM     26  C   UNL A   1      31.989  29.859  27.200  1.00  0.00     0.002 C 
BRANCH  26  27
ATOM     27  C   UNL A   1      31.462  30.790  26.103  1.00  0.00     0.002 C 
BRANCH  27  28
ATOM     28  C   UNL A   1      31.331  32.263  26.501  1.00  0.00     0.021 C 
BRANCH  28  29
ATOM     29  C   UNL A   1      32.531  32.829  27.253  1.00  0.00     0.116 C 
BRANCH  29  30
ATOM     30  N   UNL A   1      32.338  34.219  27.626  1.00  0.00    -0.352 N 
ATOM     31  C   UNL A   1      32.951  34.945  28.613  1.00  0.00     0.251 C 
ATOM     32  H   UNL A   1      31.671  34.710  27.095  1.00  0.00     0.163 HD
ATOM     33  O   UNL A   1      32.529  36.062  28.914  1.00  0.00    -0.269 OA
BRANCH  31  34
ATOM     34  C   UNL A   1      34.112  34.383  29.334  1.00  0.00     0.039 A 
ATOM     35  C   UNL A   1      33.902  33.748  30.561  1.00  0.00     0.014 A 
ATOM     36  C   UNL A   1      35.403  34.493  28.810  1.00  0.00     0.014 A 
ATOM     37  C   UNL A   1      34.981  33.177  31.237  1.00  0.00     0.010 A 
ATOM     38  C   UNL A   1      36.466  33.863  29.450  1.00  0.00     0.010 A 
ATOM     39  C   UNL A   1      36.267  33.205  30.674  1.00  0.00    -0.014 A 
BRANCH  39  40
ATOM     40  C   UNL A   1      37.418  32.559  31.355  1.00  0.00     0.031 A 
ATOM     41  C   UNL A   1      38.139  31.416  30.696  1.00  0.00     0.074 A 
ATOM     42  C   UNL A   1      37.772  32.961  32.589  1.00  0.00     0.049 A 
ATOM     43  N   UNL A   1      39.117  30.678  31.157  1.00  0.00    -0.248 NA
ATOM     44  C   UNL A   1      37.680  31.033  29.352  1.00  0.00     0.031 C 
ATOM     45  C   UNL A   1      37.121  34.029  33.350  1.00  0.00     0.029 A 
ATOM     46  N   UNL A   1      38.762  32.511  33.428  1.00  0.00    -0.354 N 
ATOM     47  C   UNL A   1      39.379  29.738  30.169  1.00  0.00     0.074 A 
ATOM     48  C   UNL A   1      38.424  29.964  29.106  1.00  0.00     0.031 C 
ATOM     49  C   UNL A   1      37.738  34.162  34.535  1.00  0.00     0.029 A 
ATOM     50  C   UNL A   1      38.803  33.169  34.633  1.00  0.00     0.049 A 
ATOM     51  H   UNL A   1      39.381  31.785  33.188  1.00  0.00     0.167 HD
ATOM     52  C   UNL A   1      40.343  28.788  30.142  1.00  0.00     0.037 A 
ATOM     53  C   UNL A   1      39.605  32.985  35.698  1.00  0.00     0.037 A 
ATOM     54  C   UNL A   1      41.309  28.584  31.189  1.00  0.00     0.049 A 
ATOM     55  C   UNL A   1      40.669  31.923  35.642  1.00  0.00     0.074 A 
ATOM     56  C   UNL A   1      42.365  27.691  31.229  1.00  0.00     0.029 A 
ATOM     57  N   UNL A   1      41.334  29.287  32.386  1.00  0.00    -0.354 N 
ATOM     58  N   UNL A   1      40.952  31.086  34.674  1.00  0.00    -0.248 NA
ATOM     59  C   UNL A   1      41.530  31.785  36.824  1.00  0.00     0.031 C 
ATOM     60  C   UNL A   1      43.001  27.820  32.468  1.00  0.00     0.029 A 
ATOM     61  C   UNL A   1      42.374  28.830  33.180  1.00  0.00     0.049 A 
ATOM     62  H   UNL A   1      40.706  30.003  32.634  1.00  0.00     0.167 HD
ATOM     63  C   UNL A   1      42.038  30.344  35.116  1.00  0.00     0.074 A 
ATOM     64  C   UNL A   1      42.373  30.839  36.435  1.00  0.00     0.031 C 
ATOM     65  C   UNL A   1      42.700  29.341  34.486  1.00  0.00     0.037 A 
BRANCH  52  66
ATOM     66  C   UNL A   1      40.404  27.893  28.937  1.00  0.00     0.064 A 
ATOM     67  C   UNL A   1      39.660  26.705  28.863  1.00  0.00     0.173 A 
ATOM     68  C   UNL A   1      41.188  28.245  27.828  1.00  0.00     0.173 A 
ATOM     69  F   UNL A   1      38.903  26.316  29.901  1.00  0.00    -0.203 F 
ATOM     70  C   UNL A   1      39.721  25.889  27.736  1.00  0.00     0.198 A 
ATOM     71  C   UNL A   1      41.222  27.443  26.690  1.00  0.00     0.198 A 
ATOM     72  F   UNL A   1      41.914  29.372  27.843  1.00  0.00    -0.203 F 
ATOM     73  F   UNL A   1      39.040  24.735  27.710  1.00  0.00    -0.200 F 
ATOM     74  C   UNL A   1      40.496  26.262  26.649  1.00  0.00     0.200 A 
ATOM     75  F   UNL A   1      41.960  27.811  25.634  1.00  0.00    -0.200 F 
ATOM     76  F   UNL A   1      40.548  25.480  25.562  1.00  0.00    -0.200 F 
ENDBRANCH  52  66
BRANCH  53  77
ATOM     77  C   UNL A   1      39.449  33.844  36.901  1.00  0.00     0.064 A 
ATOM     78  C   UNL A   1      40.066  35.101  36.973  1.00  0.00     0.173 A 
ATOM     79  C   UNL A   1      38.685  33.429  38.001  1.00  0.00     0.173 A 
ATOM     80  F   UNL A   1      40.823  35.534  35.954  1.00  0.00    -0.203 F 
ATOM     81  C   UNL A   1      39.942  35.900  38.108  1.00  0.00     0.198 A 
ATOM     82  C   UNL A   1      38.539  34.240  39.124  1.00  0.00     0.198 A 
ATOM     83  F   UNL A   1      38.070  32.237  37.980  1.00  0.00    -0.203 F 
ATOM     84  F   UNL A   1      40.580  37.077  38.168  1.00  0.00    -0.200 F 
ATOM     85  C   UNL A   1      39.175  35.472  39.180  1.00  0.00     0.200 A 
ATOM     86  F   UNL A   1      37.783  33.829  40.151  1.00  0.00    -0.200 F 
ATOM     87  F   UNL A   1      39.052  36.241  40.270  1.00  0.00    -0.200 F 
ENDBRANCH  53  77
BRANCH  65  88
ATOM     88  C   UNL A   1      43.875  28.738  35.200  1.00  0.00     0.064 A 
ATOM     89  C   UNL A   1      45.173  29.249  35.045  1.00  0.00     0.173 A 
ATOM     90  C   UNL A   1      43.691  27.662  36.082  1.00  0.00     0.173 A 
ATOM     91  F   UNL A   1      45.402  30.266  34.202  1.00  0.00    -0.203 F 
ATOM     92  C   UNL A   1      46.248  28.687  35.729  1.00  0.00     0.198 A 
ATOM     93  C   UNL A   1      44.764  27.123  36.787  1.00  0.00     0.198 A 
ATOM     94  F   UNL A   1      42.469  27.142  36.270  1.00  0.00    -0.203 F 
ATOM     95  F   UNL A   1      47.485  29.160  35.531  1.00  0.00    -0.200 F 
ATOM     96  C   UNL A   1      46.041  27.631  36.605  1.00  0.00     0.200 A 
ATOM     97  F   UNL A   1      44.561  26.113  37.643  1.00  0.00    -0.200 F 
ATOM     98  F   UNL A   1      47.077  27.098  37.268  1.00  0.00    -0.200 F 
ENDBRANCH  65  88
ENDBRANCH  39  40
ENDBRANCH  31  34
ENDBRANCH  29  30
ENDBRANCH  28  29
ENDBRANCH  27  28
ENDBRANCH  26  27
ENDBRANCH   1  26
TORSDOF 18
ENDMDL
MODEL 2
REMARK VINA RESULT:     -11.8      0.463      2.037
REMARK SMILES C[NH+](C)Cc1noc(C[C@@](C)(C(=O)NCCCCCCNC(=O)c2ccc(-c3c4nc(c(-c5c(F)c(F)c(F)c(F)c5F)c5ccc([nH]5)c(-c5c(F)c(F)c(F)c(F)c5F)c5nc(c(-c6c(F)c(F)c(F)c(F)c6F)c6ccc3[nH]6)C=C5)C=C4)cc2)c2ccccc2)n1
REMARK SMILES IDX 16 1 15 2 14 3 12 4 13 5 10 7 11 8 9 9 8 10 5 11 6 12 93 13
REMARK SMILES IDX 7 14 4 15 2 16 1 17 3 18 87 20 88 21 92 22 89 23 91 24 90 25
REMARK SMILES IDX 17 26 18 27 19 28 20 29 21 30 22 31 23 33 24 34 25 35 86 36
REMARK SMILES IDX 26 37 85 38 27 39 28 40 29 41 79 42 30 43 84 44 78 45 80 46
REMARK SMILES IDX 31 47 83 48 77 49 76 50 32 52 64 53 44 54 63 55 45 56 48 57
REMARK SMILES IDX 62 58 81 59 46 60 47 61 61 63 82 64 49 65 33 66 34 67 42 68
REMARK SMILES IDX 35 69 36 70 40 71 43 72 37 73 38 74 41 75 39 76 65 77 66 78
REMARK SMILES IDX 74 79 67 80 68 81 72 82 75 83 69 84 70 85 73 86 71 87 50 88
REMARK SMILES IDX 51 89 59 90 52 91 53 92 57 93 60 94 54 95 55 96 58 97 56 98
REMARK H PARENT 14 6 2 19 21 32 80 51 48 62
REMARK Flexibility Score: inf
ROOT
ATOM      1  C   UNL A   1      33.671  29.511  26.277  1.00  0.00     0.021 C 
ENDROOT
BRANCH   1   2
ATOM      2  C   UNL A   1      33.401  28.298  25.388  1.00  0.00     0.116 C 
BRANCH   2   3
ATOM      3  N   UNL A   1      32.474  27.373  26.016  1.00  0.00    -0.355 N 
ATOM      4  C   UNL A   1      31.506  26.535  25.543  1.00  0.00     0.230 C 
ATOM      5  O   UNL A   1      30.916  25.890  26.415  1.00  0.00    -0.274 OA
ATOM      6  H   UNL A   1      32.563  27.345  26.996  1.00  0.00     0.163 HD
BRANCH   4   7
ATOM      7  C   UNL A   1      31.182  26.386  24.024  1.00  0.00     0.080 C 
ATOM      8  C   UNL A   1      30.553  24.981  23.841  1.00  0.00     0.027 C 
BRANCH   7   9
ATOM      9  C   UNL A   1      32.502  26.564  23.222  1.00  0.00     0.122 C 
BRANCH   9  10
ATOM     10  C   UNL A   1      33.395  25.382  23.236  1.00  0.00     0.228 A 
ATOM     11  C   UNL A   1      34.587  23.712  23.637  1.00  0.00     0.226 A 
ATOM     12  N   UNL A   1      34.347  23.611  22.319  1.00  0.00    -0.056 NA
ATOM     13  N   UNL A   1      33.989  24.790  24.245  1.00  0.00    -0.190 NA
ATOM     14  O   UNL A   1      33.560  24.728  22.050  1.00  0.00    -0.339 OA
BRANCH  11  15
ATOM     15  C   UNL A   1      35.382  22.704  24.408  1.00  0.00     0.344 C 
BRANCH  15  16
ATOM     16  N   UNL A   1      34.590  21.747  25.209  1.00  0.00    -0.333 N 
ATOM     17  C   UNL A   1      34.880  20.356  24.874  1.00  0.00     0.332 C 
ATOM     18  C   UNL A   1      34.712  21.986  26.646  1.00  0.00     0.332 C 
ATOM     19  H   UNL A   1      33.616  21.915  24.957  1.00  0.00     0.348 HD
ENDBRANCH  15  16
ENDBRANCH  11  15
ENDBRANCH   9  10
ENDBRANCH   7   9
BRANCH   7  20
ATOM     20  C   UNL A   1      30.189  27.501  23.560  1.00  0.00    -0.032 A 
ATOM     21  C   UNL A   1      30.607  28.797  23.204  1.00  0.00     0.005 A 
ATOM     22  C   UNL A   1      28.801  27.249  23.547  1.00  0.00     0.005 A 
ATOM     23  C   UNL A   1      29.684  29.799  22.891  1.00  0.00     0.000 A 
ATOM     24  C   UNL A   1      27.879  28.253  23.238  1.00  0.00     0.000 A 
ATOM     25  C   UNL A   1      28.320  29.531  22.919  1.00  0.00     0.000 A 
ENDBRANCH   7  20
ENDBRANCH   4   7
ENDBRANCH   2   3
ENDBRANCH   1   2
BRANCH   1  26
ATOM     26  C   UNL A   1      32.444  30.010  27.046  1.00  0.00     0.002 C 
BRANCH  26  27
ATOM     27  C   UNL A   1      31.418  30.779  26.206  1.00  0.00     0.002 C 
BRANCH  27  28
ATOM     28  C   UNL A   1      31.360  32.288  26.463  1.00  0.00     0.021 C 
BRANCH  28  29
ATOM     29  C   UNL A   1      32.545  32.847  27.243  1.00  0.00     0.116 C 
BRANCH  29  30
ATOM     30  N   UNL A   1      32.344  34.235  27.625  1.00  0.00    -0.352 N 
ATOM     31  C   UNL A   1      32.966  34.962  28.605  1.00  0.00     0.251 C 
ATOM     32  H   UNL A   1      31.663  34.721  27.106  1.00  0.00     0.163 HD
ATOM     33  O   UNL A   1      32.538  36.074  28.917  1.00  0.00    -0.269 OA
BRANCH  31  34
ATOM     34  C   UNL A   1      34.144  34.409  29.303  1.00  0.00     0.039 A 
ATOM     35  C   UNL A   1      33.957  33.737  30.514  1.00  0.00     0.014 A 
ATOM     36  C   UNL A   1      35.429  34.564  28.776  1.00  0.00     0.014 A 
ATOM     37  C   UNL A   1      35.053  33.174  31.170  1.00  0.00     0.010 A 
ATOM     38  C   UNL A   1      36.511  33.943  29.394  1.00  0.00     0.010 A 
ATOM     39  C   UNL A   1      36.334  33.248  30.600  1.00  0.00    -0.014 A 
BRANCH  39  40
ATOM     40  C   UNL A   1      37.504  32.612  31.257  1.00  0.00     0.031 A 
ATOM     41  C   UNL A   1      38.229  31.483  30.578  1.00  0.00     0.074 A 
ATOM     42  C   UNL A   1      37.874  33.010  32.489  1.00  0.00     0.049 A 
ATOM     43  N   UNL A   1      39.224  30.754  31.018  1.00  0.00    -0.248 NA
ATOM     44  C   UNL A   1      37.753  31.104  29.239  1.00  0.00     0.031 C 
ATOM     45  C   UNL A   1      37.222  34.064  33.268  1.00  0.00     0.029 A 
ATOM     46  N   UNL A   1      38.883  32.566  33.308  1.00  0.00    -0.354 N 
ATOM     47  C   UNL A   1      39.481  29.824  30.019  1.00  0.00     0.074 A 
ATOM     48  C   UNL A   1      38.506  30.046  28.973  1.00  0.00     0.031 C 
ATOM     49  C   UNL A   1      37.857  34.196  34.444  1.00  0.00     0.029 A 
ATOM     50  C   UNL A   1      38.936  33.216  34.516  1.00  0.00     0.049 A 
ATOM     51  H   UNL A   1      39.507  31.850  33.053  1.00  0.00     0.167 HD
ATOM     52  C   UNL A   1      40.456  28.887  29.969  1.00  0.00     0.037 A 
ATOM     53  C   UNL A   1      39.757  33.035  35.567  1.00  0.00     0.037 A 
ATOM     54  C   UNL A   1      41.442  28.688  30.999  1.00  0.00     0.049 A 
ATOM     55  C   UNL A   1      40.834  31.987  35.486  1.00  0.00     0.074 A 
ATOM     56  C   UNL A   1      42.510  27.808  31.015  1.00  0.00     0.029 A 
ATOM     57  N   UNL A   1      41.478  29.383  32.200  1.00  0.00    -0.354 N 
ATOM     58  N   UNL A   1      41.111  31.160  34.507  1.00  0.00    -0.248 NA
ATOM     59  C   UNL A   1      41.716  31.851  36.653  1.00  0.00     0.031 C 
ATOM     60  C   UNL A   1      43.165  27.936  32.244  1.00  0.00     0.029 A 
ATOM     61  C   UNL A   1      42.537  28.933  32.974  1.00  0.00     0.049 A 
ATOM     62  H   UNL A   1      40.845  30.089  32.464  1.00  0.00     0.167 HD
ATOM     63  C   UNL A   1      42.214  30.429  34.926  1.00  0.00     0.074 A 
ATOM     64  C   UNL A   1      42.564  30.919  36.243  1.00  0.00     0.031 C 
ATOM     65  C   UNL A   1      42.878  29.439  34.278  1.00  0.00     0.037 A 
BRANCH  52  66
ATOM     66  C   UNL A   1      40.508  28.001  28.757  1.00  0.00     0.064 A 
ATOM     67  C   UNL A   1      41.265  28.344  27.626  1.00  0.00     0.173 A 
ATOM     68  C   UNL A   1      39.822  26.777  28.740  1.00  0.00     0.173 A 
ATOM     69  F   UNL A   1      41.930  29.508  27.587  1.00  0.00    -0.203 F 
ATOM     70  C   UNL A   1      41.310  27.509  26.513  1.00  0.00     0.198 A 
ATOM     71  C   UNL A   1      39.894  25.930  27.637  1.00  0.00     0.198 A 
ATOM     72  F   UNL A   1      39.088  26.397  29.796  1.00  0.00    -0.203 F 
ATOM     73  F   UNL A   1      41.999  27.882  25.425  1.00  0.00    -0.200 F 
ATOM     74  C   UNL A   1      40.631  26.301  26.522  1.00  0.00     0.200 A 
ATOM     75  F   UNL A   1      39.249  24.756  27.652  1.00  0.00    -0.200 F 
ATOM     76  F   UNL A   1      40.681  25.495  25.452  1.00  0.00    -0.200 F 
ENDBRANCH  52  66
BRANCH  53  77
ATOM     77  C   UNL A   1      39.610  33.883  36.779  1.00  0.00     0.064 A 
ATOM     78  C   UNL A   1      38.829  33.460  37.863  1.00  0.00     0.173 A 
ATOM     79  C   UNL A   1      40.242  35.131  36.878  1.00  0.00     0.173 A 
ATOM     80  F   UNL A   1      38.189  32.283  37.807  1.00  0.00    -0.203 F 
ATOM     81  C   UNL A   1      38.668  34.262  38.991  1.00  0.00     0.198 A 
ATOM     82  C   UNL A   1      40.103  35.920  38.018  1.00  0.00     0.198 A 
ATOM     83  F   UNL A   1      41.005  35.579  35.870  1.00  0.00    -0.203 F 
ATOM     84  F   UNL A   1      37.879  33.853  39.994  1.00  0.00    -0.200 F 
ATOM     85  C   UNL A   1      39.310  35.488  39.070  1.00  0.00     0.200 A 
ATOM     86  F   UNL A   1      40.738  37.097  38.096  1.00  0.00    -0.200 F 
ATOM     87  F   UNL A   1      39.159  36.258  40.156  1.00  0.00    -0.200 F 
ENDBRANCH  53  77
BRANCH  65  88
ATOM     88  C   UNL A   1      44.072  28.846  34.967  1.00  0.00     0.064 A 
ATOM     89  C   UNL A   1      43.966  27.700  35.770  1.00  0.00     0.173 A 
ATOM     90  C   UNL A   1      45.345  29.408  34.787  1.00  0.00     0.173 A 
ATOM     91  F   UNL A   1      42.769  27.134  35.984  1.00  0.00    -0.203 F 
ATOM     92  C   UNL A   1      45.089  27.154  36.387  1.00  0.00     0.198 A 
ATOM     93  C   UNL A   1      46.469  28.842  35.381  1.00  0.00     0.198 A 
ATOM     94  F   UNL A   1      45.500  30.500  34.024  1.00  0.00    -0.203 F 
ATOM     95  F   UNL A   1      44.958  26.087  37.186  1.00  0.00    -0.200 F 
ATOM     96  C   UNL A   1      46.339  27.719  36.185  1.00  0.00     0.200 A 
ATOM     97  F   UNL A   1      47.678  29.381  35.174  1.00  0.00    -0.200 F 
ATOM     98  F   UNL A   1      47.419  27.187  36.774  1.00  0.00    -0.200 F 
ENDBRANCH  65  88
ENDBRANCH  39  40
ENDBRANCH  31  34
ENDBRANCH  29  30
ENDBRANCH  28  29
ENDBRANCH  27  28
ENDBRANCH  26  27
ENDBRANCH   1  26
TORSDOF 18
ENDMDL
MODEL 3
REMARK VINA RESULT:     -11.6      5.166     10.046
REMARK SMILES C[NH+](C)Cc1noc(C[C@@](C)(C(=O)NCCCCCCNC(=O)c2ccc(-c3c4nc(c(-c5c(F)c(F)c(F)c(F)c5F)c5ccc([nH]5)c(-c5c(F)c(F)c(F)c(F)c5F)c5nc(c(-c6c(F)c(F)c(F)c(F)c6F)c6ccc3[nH]6)C=C5)C=C4)cc2)c2ccccc2)n1
REMARK SMILES IDX 16 1 15 2 14 3 12 4 13 5 10 7 11 8 9 9 8 10 5 11 6 12 93 13
REMARK SMILES IDX 7 14 4 15 2 16 1 17 3 18 87 20 88 21 92 22 89 23 91 24 90 25
REMARK SMILES IDX 17 26 18 27 19 28 20 29 21 30 22 31 23 33 24 34 25 35 86 36
REMARK SMILES IDX 26 37 85 38 27 39 28 40 29 41 79 42 30 43 84 44 78 45 80 46
REMARK SMILES IDX 31 47 83 48 77 49 76 50 32 52 64 53 44 54 63 55 45 56 48 57
REMARK SMILES IDX 62 58 81 59 46 60 47 61 61 63 82 64 49 65 33 66 34 67 42 68
REMARK SMILES IDX 35 69 36 70 40 71 43 72 37 73 38 74 41 75 39 76 65 77 66 78
REMARK SMILES IDX 74 79 67 80 68 81 72 82 75 83 69 84 70 85 73 86 71 87 50 88
REMARK SMILES IDX 51 89 59 90 52 91 53 92 57 93 60 94 54 95 55 96 58 97 56 98
REMARK H PARENT 14 6 2 19 21 32 80 51 48 62
REMARK Flexibility Score: inf
ROOT
ATOM      1  C   UNL A   1      36.422  22.387  23.887  1.00  0.00     0.021 C 
ENDROOT
BRANCH   1   2
ATOM      2  C   UNL A   1      35.659  23.653  24.271  1.00  0.00     0.116 C 
BRANCH   2   3
ATOM      3  N   UNL A   1      34.784  24.093  23.197  1.00  0.00    -0.355 N 
ATOM      4  C   UNL A   1      33.442  23.991  22.969  1.00  0.00     0.230 C 
ATOM      5  O   UNL A   1      33.062  24.507  21.913  1.00  0.00    -0.274 OA
ATOM      6  H   UNL A   1      35.263  24.566  22.480  1.00  0.00     0.163 HD
BRANCH   4   7
ATOM      7  C   UNL A   1      32.462  23.298  23.965  1.00  0.00     0.080 C 
ATOM      8  C   UNL A   1      31.033  23.754  23.569  1.00  0.00     0.027 C 
BRANCH   7   9
ATOM      9  C   UNL A   1      32.851  23.723  25.409  1.00  0.00     0.122 C 
BRANCH   9  10
ATOM     10  C   UNL A   1      32.324  25.043  25.825  1.00  0.00     0.228 A 
ATOM     11  C   UNL A   1      31.753  27.036  26.093  1.00  0.00     0.226 A 
ATOM     12  N   UNL A   1      30.888  26.360  26.867  1.00  0.00    -0.056 NA
ATOM     13  N   UNL A   1      32.646  26.245  25.411  1.00  0.00    -0.190 NA
ATOM     14  O   UNL A   1      31.273  25.033  26.696  1.00  0.00    -0.339 OA
BRANCH  11  15
ATOM     15  C   UNL A   1      31.717  28.523  25.923  1.00  0.00     0.344 C 
BRANCH  15  16
ATOM     16  N   UNL A   1      32.467  29.298  26.933  1.00  0.00    -0.333 N 
ATOM     17  C   UNL A   1      33.906  29.058  26.876  1.00  0.00     0.332 C 
ATOM     18  C   UNL A   1      32.163  30.727  26.880  1.00  0.00     0.332 C 
ATOM     19  H   UNL A   1      32.146  28.956  27.839  1.00  0.00     0.348 HD
ENDBRANCH  15  16
ENDBRANCH  11  15
ENDBRANCH   9  10
ENDBRANCH   7   9
BRANCH   7  20
ATOM     20  C   UNL A   1      32.592  21.743  23.874  1.00  0.00    -0.032 A 
ATOM     21  C   UNL A   1      32.147  21.002  22.764  1.00  0.00     0.005 A 
ATOM     22  C   UNL A   1      33.117  21.014  24.962  1.00  0.00     0.005 A 
ATOM     23  C   UNL A   1      32.186  19.604  22.758  1.00  0.00     0.000 A 
ATOM     24  C   UNL A   1      33.152  19.617  24.957  1.00  0.00     0.000 A 
ATOM     25  C   UNL A   1      32.677  18.911  23.858  1.00  0.00     0.000 A 
ENDBRANCH   7  20
ENDBRANCH   4   7
ENDBRANCH   2   3
ENDBRANCH   1   2
BRANCH   1  26
ATOM     26  C   UNL A   1      37.012  21.624  25.078  1.00  0.00     0.002 C 
BRANCH  26  27
ATOM     27  C   UNL A   1      36.882  20.099  25.002  1.00  0.00     0.002 C 
BRANCH  27  28
ATOM     28  C   UNL A   1      38.206  19.331  24.944  1.00  0.00     0.021 C 
BRANCH  28  29
ATOM     29  C   UNL A   1      39.274  19.830  25.910  1.00  0.00     0.116 C 
BRANCH  29  30
ATOM     30  N   UNL A   1      40.399  18.914  26.005  1.00  0.00    -0.352 N 
ATOM     31  C   UNL A   1      41.734  19.192  26.128  1.00  0.00     0.251 C 
ATOM     32  H   UNL A   1      40.167  17.958  25.975  1.00  0.00     0.163 HD
ATOM     33  O   UNL A   1      42.568  18.293  26.004  1.00  0.00    -0.269 OA
BRANCH  31  34
ATOM     34  C   UNL A   1      42.182  20.574  26.393  1.00  0.00     0.039 A 
ATOM     35  C   UNL A   1      42.515  21.395  25.312  1.00  0.00     0.014 A 
ATOM     36  C   UNL A   1      42.288  21.055  27.701  1.00  0.00     0.014 A 
ATOM     37  C   UNL A   1      42.904  22.716  25.541  1.00  0.00     0.010 A 
ATOM     38  C   UNL A   1      42.607  22.392  27.924  1.00  0.00     0.010 A 
ATOM     39  C   UNL A   1      42.925  23.233  26.847  1.00  0.00    -0.014 A 
BRANCH  39  40
ATOM     40  C   UNL A   1      43.287  24.649  27.106  1.00  0.00     0.031 A 
ATOM     41  C   UNL A   1      44.687  25.130  26.841  1.00  0.00     0.074 A 
ATOM     42  C   UNL A   1      42.374  25.483  27.637  1.00  0.00     0.049 A 
ATOM     43  N   UNL A   1      45.216  26.306  27.068  1.00  0.00    -0.248 NA
ATOM     44  C   UNL A   1      45.625  24.151  26.271  1.00  0.00     0.031 C 
ATOM     45  C   UNL A   1      40.998  25.123  27.980  1.00  0.00     0.029 A 
ATOM     46  N   UNL A   1      42.470  26.806  27.992  1.00  0.00    -0.354 N 
ATOM     47  C   UNL A   1      46.546  26.203  26.685  1.00  0.00     0.074 A 
ATOM     48  C   UNL A   1      46.759  24.837  26.258  1.00  0.00     0.031 C 
ATOM     49  C   UNL A   1      40.374  26.201  28.481  1.00  0.00     0.029 A 
ATOM     50  C   UNL A   1      41.313  27.317  28.527  1.00  0.00     0.049 A 
ATOM     51  H   UNL A   1      43.291  27.337  27.877  1.00  0.00     0.167 HD
ATOM     52  C   UNL A   1      47.498  27.166  26.668  1.00  0.00     0.037 A 
ATOM     53  C   UNL A   1      41.043  28.546  29.007  1.00  0.00     0.037 A 
ATOM     54  C   UNL A   1      47.275  28.531  27.066  1.00  0.00     0.049 A 
ATOM     55  C   UNL A   1      42.117  29.599  28.976  1.00  0.00     0.074 A 
ATOM     56  C   UNL A   1      48.156  29.597  27.025  1.00  0.00     0.029 A 
ATOM     57  N   UNL A   1      46.081  29.017  27.580  1.00  0.00    -0.354 N 
ATOM     58  N   UNL A   1      43.353  29.508  28.546  1.00  0.00    -0.248 NA
ATOM     59  C   UNL A   1      41.759  30.927  29.490  1.00  0.00     0.031 C 
ATOM     60  C   UNL A   1      47.511  30.719  27.558  1.00  0.00     0.029 A 
ATOM     61  C   UNL A   1      46.211  30.364  27.882  1.00  0.00     0.049 A 
ATOM     62  H   UNL A   1      45.264  28.485  27.711  1.00  0.00     0.167 HD
ATOM     63  C   UNL A   1      43.908  30.769  28.710  1.00  0.00     0.074 A 
ATOM     64  C   UNL A   1      42.870  31.613  29.266  1.00  0.00     0.031 C 
ATOM     65  C   UNL A   1      45.165  31.191  28.425  1.00  0.00     0.037 A 
BRANCH  52  66
ATOM     66  C   UNL A   1      48.872  26.778  26.201  1.00  0.00     0.064 A 
ATOM     67  C   UNL A   1      49.278  26.966  24.871  1.00  0.00     0.173 A 
ATOM     68  C   UNL A   1      49.806  26.246  27.103  1.00  0.00     0.173 A 
ATOM     69  F   UNL A   1      48.420  27.460  23.966  1.00  0.00    -0.203 F 
ATOM     70  C   UNL A   1      50.558  26.609  24.454  1.00  0.00     0.198 A 
ATOM     71  C   UNL A   1      51.096  25.919  26.690  1.00  0.00     0.198 A 
ATOM     72  F   UNL A   1      49.473  26.051  28.387  1.00  0.00    -0.203 F 
ATOM     73  F   UNL A   1      50.906  26.751  23.168  1.00  0.00    -0.200 F 
ATOM     74  C   UNL A   1      51.467  26.093  25.365  1.00  0.00     0.200 A 
ATOM     75  F   UNL A   1      51.977  25.433  27.574  1.00  0.00    -0.200 F 
ATOM     76  F   UNL A   1      52.701  25.756  24.964  1.00  0.00    -0.200 F 
ENDBRANCH  52  66
BRANCH  53  77
ATOM     77  C   UNL A   1      39.689  28.855  29.536  1.00  0.00     0.064 A 
ATOM     78  C   UNL A   1      39.361  28.591  30.874  1.00  0.00     0.173 A 
ATOM     79  C   UNL A   1      38.696  29.416  28.720  1.00  0.00     0.173 A 
ATOM     80  F   UNL A   1      40.271  28.036  31.688  1.00  0.00    -0.203 F 
ATOM     81  C   UNL A   1      38.086  28.856  31.368  1.00  0.00     0.198 A 
ATOM     82  C   UNL A   1      37.430  29.707  29.223  1.00  0.00     0.198 A 
ATOM     83  F   UNL A   1      38.961  29.692  27.434  1.00  0.00    -0.203 F 
ATOM     84  F   UNL A   1      37.786  28.551  32.638  1.00  0.00    -0.200 F 
ATOM     85  C   UNL A   1      37.124  29.419  30.544  1.00  0.00     0.200 A 
ATOM     86  F   UNL A   1      36.508  30.265  28.427  1.00  0.00    -0.200 F 
ATOM     87  F   UNL A   1      35.899  29.678  31.021  1.00  0.00    -0.200 F 
ENDBRANCH  53  77
BRANCH  65  88
ATOM     88  C   UNL A   1      45.478  32.638  28.676  1.00  0.00     0.064 A 
ATOM     89  C   UNL A   1      46.061  33.069  29.877  1.00  0.00     0.173 A 
ATOM     90  C   UNL A   1      45.229  33.598  27.683  1.00  0.00     0.173 A 
ATOM     91  F   UNL A   1      46.305  32.193  30.862  1.00  0.00    -0.203 F 
ATOM     92  C   UNL A   1      46.360  34.414  30.084  1.00  0.00     0.198 A 
ATOM     93  C   UNL A   1      45.558  34.936  27.881  1.00  0.00     0.198 A 
ATOM     94  F   UNL A   1      44.679  33.236  26.514  1.00  0.00    -0.203 F 
ATOM     95  F   UNL A   1      46.873  34.810  31.256  1.00  0.00    -0.200 F 
ATOM     96  C   UNL A   1      46.116  35.343  29.084  1.00  0.00     0.200 A 
ATOM     97  F   UNL A   1      45.334  35.831  26.910  1.00  0.00    -0.200 F 
ATOM     98  F   UNL A   1      46.413  36.636  29.282  1.00  0.00    -0.200 F 
ENDBRANCH  65  88
ENDBRANCH  39  40
ENDBRANCH  31  34
ENDBRANCH  29  30
ENDBRANCH  28  29
ENDBRANCH  27  28
ENDBRANCH  26  27
ENDBRANCH   1  26
TORSDOF 18
ENDMDL
