MODEL 1
REMARK VINA RESULT:     -12.6      0.000      0.000
REMARK SMILES O=C(NCCCCCCNC(=O)c1c(F)cccc1Oc1cccc(Cl)c1)c1ccc(-c2c3nc(c(-c4c(F)c(F)c(F)c(F)c4F)c4ccc([nH]4)c(-c4c(F)c(F)c(F)c(F)c4F)c4nc(c(-c5c(F)c(F)c(F)c(F)c5F)c5ccc2[nH]5)C=C4)C=C3)cc1
REMARK SMILES IDX 6 1 5 2 4 3 3 4 1 5 2 6 28 8 29 9 90 10 30 11 89 12 31 13
REMARK SMILES IDX 32 14 33 15 83 16 34 17 88 18 82 19 84 20 35 21 87 22 81 23
REMARK SMILES IDX 80 24 36 26 68 27 48 28 67 29 49 30 52 31 66 32 85 33 50 34
REMARK SMILES IDX 51 35 65 37 86 38 53 39 37 40 38 41 46 42 39 43 40 44 44 45
REMARK SMILES IDX 47 46 41 47 42 48 45 49 43 50 69 51 70 52 78 53 71 54 72 55
REMARK SMILES IDX 76 56 79 57 73 58 74 59 77 60 75 61 54 62 55 63 63 64 56 65
REMARK SMILES IDX 57 66 61 67 64 68 58 69 59 70 62 71 60 72 7 73 8 74 9 75
REMARK SMILES IDX 10 76 11 77 12 79 13 80 14 81 19 82 15 83 16 84 18 85 17 86
REMARK SMILES IDX 20 87 21 88 22 89 27 90 23 91 25 92 24 93 26 94
REMARK H PARENT 3 7 84 25 52 36 10 78
REMARK Flexibility Score: inf
ROOT
ATOM      1  C   UNL A   1      37.205  21.241  24.446  1.00  0.00     0.002 C 
ENDROOT
BRANCH   1   2
ATOM      2  C   UNL A   1      37.936  19.982  24.913  1.00  0.00     0.021 C 
BRANCH   2   3
ATOM      3  C   UNL A   1      39.017  20.200  25.966  1.00  0.00     0.116 C 
BRANCH   3   4
ATOM      4  N   UNL A   1      40.073  19.203  25.919  1.00  0.00    -0.352 N 
ATOM      5  O   UNL A   1      42.183  18.403  25.871  1.00  0.00    -0.269 OA
ATOM      6  C   UNL A   1      41.433  19.356  26.060  1.00  0.00     0.251 C 
ATOM      7  H   UNL A   1      39.771  18.279  25.764  1.00  0.00     0.163 HD
BRANCH   6   8
ATOM      8  C   UNL A   1      42.003  20.680  26.403  1.00  0.00     0.039 A 
ATOM      9  C   UNL A   1      42.287  21.022  27.725  1.00  0.00     0.014 A 
ATOM     10  C   UNL A   1      42.255  21.596  25.376  1.00  0.00     0.014 A 
ATOM     11  C   UNL A   1      42.658  22.328  28.036  1.00  0.00     0.010 A 
ATOM     12  C   UNL A   1      42.712  22.882  25.682  1.00  0.00     0.010 A 
ATOM     13  C   UNL A   1      42.872  23.274  27.020  1.00  0.00    -0.014 A 
BRANCH  13  14
ATOM     14  C   UNL A   1      43.275  24.657  27.387  1.00  0.00     0.031 A 
ATOM     15  C   UNL A   1      44.658  25.167  27.088  1.00  0.00     0.074 A 
ATOM     16  C   UNL A   1      42.364  25.477  27.945  1.00  0.00     0.049 A 
ATOM     17  N   UNL A   1      45.157  26.363  27.289  1.00  0.00    -0.248 NA
ATOM     18  C   UNL A   1      45.609  24.216  26.493  1.00  0.00     0.031 C 
ATOM     19  C   UNL A   1      40.994  25.096  28.290  1.00  0.00     0.029 A 
ATOM     20  N   UNL A   1      42.439  26.802  28.291  1.00  0.00    -0.354 N 
ATOM     21  C   UNL A   1      46.477  26.302  26.861  1.00  0.00     0.074 A 
ATOM     22  C   UNL A   1      46.714  24.945  26.416  1.00  0.00     0.031 C 
ATOM     23  C   UNL A   1      40.340  26.173  28.745  1.00  0.00     0.029 A 
ATOM     24  C   UNL A   1      41.257  27.309  28.771  1.00  0.00     0.049 A 
ATOM     25  H   UNL A   1      43.260  27.337  28.204  1.00  0.00     0.167 HD
ATOM     26  C   UNL A   1      47.402  27.292  26.830  1.00  0.00     0.037 A 
ATOM     27  C   UNL A   1      40.941  28.550  29.187  1.00  0.00     0.037 A 
ATOM     28  C   UNL A   1      47.161  28.646  27.256  1.00  0.00     0.049 A 
ATOM     29  C   UNL A   1      41.985  29.629  29.144  1.00  0.00     0.074 A 
ATOM     30  C   UNL A   1      48.035  29.721  27.251  1.00  0.00     0.029 A 
ATOM     31  N   UNL A   1      45.956  29.114  27.761  1.00  0.00    -0.354 N 
ATOM     32  N   UNL A   1      43.224  29.560  28.725  1.00  0.00    -0.248 NA
ATOM     33  C   UNL A   1      41.587  30.956  29.630  1.00  0.00     0.031 C 
ATOM     34  C   UNL A   1      47.370  30.829  27.785  1.00  0.00     0.029 A 
ATOM     35  C   UNL A   1      46.068  30.459  28.078  1.00  0.00     0.049 A 
ATOM     36  H   UNL A   1      45.143  28.571  27.876  1.00  0.00     0.167 HD
ATOM     37  C   UNL A   1      43.752  30.834  28.882  1.00  0.00     0.074 A 
ATOM     38  C   UNL A   1      42.691  31.661  29.420  1.00  0.00     0.031 C 
ATOM     39  C   UNL A   1      45.003  31.273  28.608  1.00  0.00     0.037 A 
BRANCH  26  40
ATOM     40  C   UNL A   1      48.773  26.951  26.321  1.00  0.00     0.064 A 
ATOM     41  C   UNL A   1      49.081  27.086  24.958  1.00  0.00     0.173 A 
ATOM     42  C   UNL A   1      49.762  26.431  27.168  1.00  0.00     0.173 A 
ATOM     43  F   UNL A   1      48.167  27.572  24.104  1.00  0.00    -0.203 F 
ATOM     44  C   UNL A   1      50.324  26.703  24.462  1.00  0.00     0.198 A 
ATOM     45  C   UNL A   1      51.014  26.073  26.672  1.00  0.00     0.198 A 
ATOM     46  F   UNL A   1      49.522  26.292  28.480  1.00  0.00    -0.203 F 
ATOM     47  F   UNL A   1      50.585  26.815  23.152  1.00  0.00    -0.200 F 
ATOM     48  C   UNL A   1      51.291  26.201  25.319  1.00  0.00     0.200 A 
ATOM     49  F   UNL A   1      51.954  25.608  27.506  1.00  0.00    -0.200 F 
ATOM     50  F   UNL A   1      52.492  25.844  24.843  1.00  0.00    -0.200 F 
ENDBRANCH  26  40
BRANCH  27  51
ATOM     51  C   UNL A   1      39.559  28.830  29.648  1.00  0.00     0.064 A 
ATOM     52  C   UNL A   1      38.595  29.361  28.779  1.00  0.00     0.173 A 
ATOM     53  C   UNL A   1      39.192  28.623  30.984  1.00  0.00     0.173 A 
ATOM     54  F   UNL A   1      38.902  29.582  27.492  1.00  0.00    -0.203 F 
ATOM     55  C   UNL A   1      37.324  29.700  29.235  1.00  0.00     0.198 A 
ATOM     56  C   UNL A   1      37.912  28.939  31.434  1.00  0.00     0.198 A 
ATOM     57  F   UNL A   1      40.075  28.101  31.848  1.00  0.00    -0.203 F 
ATOM     58  F   UNL A   1      36.436  30.246  28.394  1.00  0.00    -0.200 F 
ATOM     59  C   UNL A   1      36.983  29.487  30.562  1.00  0.00     0.200 A 
ATOM     60  F   UNL A   1      37.580  28.714  32.712  1.00  0.00    -0.200 F 
ATOM     61  F   UNL A   1      35.759  29.811  31.001  1.00  0.00    -0.200 F 
ENDBRANCH  27  51
BRANCH  39  62
ATOM     62  C   UNL A   1      45.297  32.722  28.859  1.00  0.00     0.064 A 
ATOM     63  C   UNL A   1      45.059  33.677  27.860  1.00  0.00     0.173 A 
ATOM     64  C   UNL A   1      45.871  33.156  30.062  1.00  0.00     0.173 A 
ATOM     65  F   UNL A   1      44.518  33.310  26.688  1.00  0.00    -0.203 F 
ATOM     66  C   UNL A   1      45.395  35.014  28.054  1.00  0.00     0.198 A 
ATOM     67  C   UNL A   1      46.181  34.498  30.262  1.00  0.00     0.198 A 
ATOM     68  F   UNL A   1      46.105  32.281  31.053  1.00  0.00    -0.203 F 
ATOM     69  F   UNL A   1      45.183  35.906  27.075  1.00  0.00    -0.200 F 
ATOM     70  C   UNL A   1      45.952  35.424  29.256  1.00  0.00     0.200 A 
ATOM     71  F   UNL A   1      46.698  34.898  31.433  1.00  0.00    -0.200 F 
ATOM     72  F   UNL A   1      46.262  36.713  29.446  1.00  0.00    -0.200 F 
ENDBRANCH  39  62
ENDBRANCH  13  14
ENDBRANCH   6   8
ENDBRANCH   3   4
ENDBRANCH   2   3
ENDBRANCH   1   2
BRANCH   1  73
ATOM     73  C   UNL A   1      37.353  22.475  25.338  1.00  0.00     0.002 C 
BRANCH  73  74
ATOM     74  C   UNL A   1      36.069  23.009  25.979  1.00  0.00     0.021 C 
BRANCH  74  75
ATOM     75  C   UNL A   1      35.153  21.968  26.617  1.00  0.00     0.116 C 
BRANCH  75  76
ATOM     76  N   UNL A   1      33.932  22.528  27.164  1.00  0.00    -0.352 N 
ATOM     77  C   UNL A   1      32.687  22.607  26.585  1.00  0.00     0.258 C 
ATOM     78  H   UNL A   1      34.004  22.902  28.073  1.00  0.00     0.163 HD
ATOM     79  O   UNL A   1      31.710  22.953  27.241  1.00  0.00    -0.269 OA
BRANCH  77  80
ATOM     80  C   UNL A   1      32.526  22.244  25.172  1.00  0.00     0.118 A 
ATOM     81  C   UNL A   1      32.657  23.301  24.261  1.00  0.00     0.139 A 
ATOM     82  C   UNL A   1      32.287  20.947  24.698  1.00  0.00     0.143 A 
ATOM     83  F   UNL A   1      32.887  24.551  24.694  1.00  0.00    -0.206 F 
ATOM     84  C   UNL A   1      32.517  23.103  22.891  1.00  0.00     0.040 A 
ATOM     85  C   UNL A   1      32.153  20.761  23.308  1.00  0.00     0.048 A 
ATOM     86  C   UNL A   1      32.261  21.826  22.411  1.00  0.00     0.007 A 
BRANCH  82  87
ATOM     87  O   UNL A   1      32.153  19.753  25.376  1.00  0.00    -0.456 OA
BRANCH  87  88
ATOM     88  C   UNL A   1      32.924  18.670  25.064  1.00  0.00     0.128 A 
ATOM     89  C   UNL A   1      34.237  18.843  24.626  1.00  0.00     0.047 A 
ATOM     90  C   UNL A   1      32.424  17.395  25.324  1.00  0.00     0.067 A 
ATOM     91  C   UNL A   1      35.029  17.727  24.356  1.00  0.00     0.005 A 
ATOM     92  C   UNL A   1      33.223  16.285  25.066  1.00  0.00     0.044 A 
ATOM     93  C   UNL A   1      34.519  16.445  24.571  1.00  0.00     0.021 A 
ATOM     94  Cl  UNL A   1      32.619  14.703  25.376  1.00  0.00    -0.084 Cl
ENDBRANCH  87  88
ENDBRANCH  82  87
ENDBRANCH  77  80
ENDBRANCH  75  76
ENDBRANCH  74  75
ENDBRANCH  73  74
ENDBRANCH   1  73
TORSDOF 15
ENDMDL
MODEL 2
REMARK VINA RESULT:     -12.5      6.367     11.576
REMARK SMILES O=C(NCCCCCCNC(=O)c1c(F)cccc1Oc1cccc(Cl)c1)c1ccc(-c2c3nc(c(-c4c(F)c(F)c(F)c(F)c4F)c4ccc([nH]4)c(-c4c(F)c(F)c(F)c(F)c4F)c4nc(c(-c5c(F)c(F)c(F)c(F)c5F)c5ccc2[nH]5)C=C4)C=C3)cc1
REMARK SMILES IDX 6 1 5 2 4 3 3 4 1 5 2 6 28 8 29 9 90 10 30 11 89 12 31 13
REMARK SMILES IDX 32 14 33 15 83 16 34 17 88 18 82 19 84 20 35 21 87 22 81 23
REMARK SMILES IDX 80 24 36 26 68 27 48 28 67 29 49 30 52 31 66 32 85 33 50 34
REMARK SMILES IDX 51 35 65 37 86 38 53 39 37 40 38 41 46 42 39 43 40 44 44 45
REMARK SMILES IDX 47 46 41 47 42 48 45 49 43 50 69 51 70 52 78 53 71 54 72 55
REMARK SMILES IDX 76 56 79 57 73 58 74 59 77 60 75 61 54 62 55 63 63 64 56 65
REMARK SMILES IDX 57 66 61 67 64 68 58 69 59 70 62 71 60 72 7 73 8 74 9 75
REMARK SMILES IDX 10 76 11 77 12 79 13 80 14 81 19 82 15 83 16 84 18 85 17 86
REMARK SMILES IDX 20 87 21 88 22 89 27 90 23 91 25 92 24 93 26 94
REMARK H PARENT 3 7 84 25 52 36 10 78
REMARK Flexibility Score: inf
ROOT
ATOM      1  C   UNL A   1      31.621  30.417  26.564  1.00  0.00     0.002 C 
ENDROOT
BRANCH   1   2
ATOM      2  C   UNL A   1      31.444  31.925  26.747  1.00  0.00     0.021 C 
BRANCH   2   3
ATOM      3  C   UNL A   1      32.696  32.690  27.157  1.00  0.00     0.116 C 
BRANCH   3   4
ATOM      4  N   UNL A   1      32.418  34.036  27.628  1.00  0.00    -0.352 N 
ATOM      5  O   UNL A   1      32.581  35.856  28.953  1.00  0.00    -0.269 OA
ATOM      6  C   UNL A   1      33.037  34.767  28.615  1.00  0.00     0.251 C 
ATOM      7  H   UNL A   1      31.676  34.495  27.171  1.00  0.00     0.163 HD
BRANCH   6   8
ATOM      8  C   UNL A   1      34.234  34.230  29.302  1.00  0.00     0.039 A 
ATOM      9  C   UNL A   1      35.519  34.502  28.831  1.00  0.00     0.014 A 
ATOM     10  C   UNL A   1      34.062  33.435  30.440  1.00  0.00     0.014 A 
ATOM     11  C   UNL A   1      36.613  33.847  29.391  1.00  0.00     0.010 A 
ATOM     12  C   UNL A   1      35.172  32.846  31.056  1.00  0.00     0.010 A 
ATOM     13  C   UNL A   1      36.453  33.008  30.507  1.00  0.00    -0.014 A 
BRANCH  13  14
ATOM     14  C   UNL A   1      37.643  32.330  31.084  1.00  0.00     0.031 A 
ATOM     15  C   UNL A   1      38.102  32.627  32.485  1.00  0.00     0.074 A 
ATOM     16  C   UNL A   1      38.282  31.397  30.353  1.00  0.00     0.049 A 
ATOM     17  N   UNL A   1      39.085  32.085  33.163  1.00  0.00    -0.248 NA
ATOM     18  C   UNL A   1      37.371  33.668  33.223  1.00  0.00     0.031 C 
ATOM     19  C   UNL A   1      37.937  31.028  28.979  1.00  0.00     0.029 A 
ATOM     20  N   UNL A   1      39.329  30.569  30.667  1.00  0.00    -0.354 N 
ATOM     21  C   UNL A   1      39.098  32.727  34.395  1.00  0.00     0.074 A 
ATOM     22  C   UNL A   1      38.046  33.720  34.364  1.00  0.00     0.031 C 
ATOM     23  C   UNL A   1      38.717  30.011  28.589  1.00  0.00     0.029 A 
ATOM     24  C   UNL A   1      39.651  29.689  29.664  1.00  0.00     0.049 A 
ATOM     25  H   UNL A   1      39.804  30.603  31.528  1.00  0.00     0.167 HD
ATOM     26  C   UNL A   1      39.907  32.499  35.458  1.00  0.00     0.037 A 
ATOM     27  C   UNL A   1      40.592  28.728  29.610  1.00  0.00     0.037 A 
ATOM     28  C   UNL A   1      40.942  31.500  35.495  1.00  0.00     0.049 A 
ATOM     29  C   UNL A   1      41.476  28.496  30.802  1.00  0.00     0.074 A 
ATOM     30  C   UNL A   1      41.805  31.187  36.532  1.00  0.00     0.029 A 
ATOM     31  N   UNL A   1      41.254  30.644  34.447  1.00  0.00    -0.354 N 
ATOM     32  N   UNL A   1      41.469  29.102  31.964  1.00  0.00    -0.248 NA
ATOM     33  C   UNL A   1      42.498  27.449  30.676  1.00  0.00     0.031 C 
ATOM     34  C   UNL A   1      42.660  30.170  36.101  1.00  0.00     0.029 A 
ATOM     35  C   UNL A   1      42.301  29.812  34.812  1.00  0.00     0.049 A 
ATOM     36  H   UNL A   1      40.798  30.631  33.575  1.00  0.00     0.167 HD
ATOM     37  C   UNL A   1      42.471  28.503  32.712  1.00  0.00     0.074 A 
ATOM     38  C   UNL A   1      43.056  27.472  31.878  1.00  0.00     0.031 C 
ATOM     39  C   UNL A   1      42.870  28.786  33.975  1.00  0.00     0.037 A 
BRANCH  26  40
ATOM     40  C   UNL A   1      39.712  33.351  36.679  1.00  0.00     0.064 A 
ATOM     41  C   UNL A   1      38.772  32.990  37.657  1.00  0.00     0.173 A 
ATOM     42  C   UNL A   1      40.407  34.557  36.850  1.00  0.00     0.173 A 
ATOM     43  F   UNL A   1      38.075  31.850  37.537  1.00  0.00    -0.203 F 
ATOM     44  C   UNL A   1      38.530  33.811  38.756  1.00  0.00     0.198 A 
ATOM     45  C   UNL A   1      40.180  35.362  37.964  1.00  0.00     0.198 A 
ATOM     46  F   UNL A   1      41.323  34.942  35.950  1.00  0.00    -0.203 F 
ATOM     47  F   UNL A   1      37.608  33.458  39.663  1.00  0.00    -0.200 F 
ATOM     48  C   UNL A   1      39.237  34.993  38.911  1.00  0.00     0.200 A 
ATOM     49  F   UNL A   1      40.880  36.494  38.124  1.00  0.00    -0.200 F 
ATOM     50  F   UNL A   1      39.012  35.776  39.975  1.00  0.00    -0.200 F 
ENDBRANCH  26  40
BRANCH  27  51
ATOM     51  C   UNL A   1      40.712  27.898  28.386  1.00  0.00     0.064 A 
ATOM     52  C   UNL A   1      40.062  26.660  28.281  1.00  0.00     0.173 A 
ATOM     53  C   UNL A   1      41.524  28.305  27.320  1.00  0.00     0.173 A 
ATOM     54  F   UNL A   1      39.280  26.226  29.279  1.00  0.00    -0.203 F 
ATOM     55  C   UNL A   1      40.244  25.846  27.165  1.00  0.00     0.198 A 
ATOM     56  C   UNL A   1      41.685  27.501  26.193  1.00  0.00     0.198 A 
ATOM     57  F   UNL A   1      42.151  29.489  27.369  1.00  0.00    -0.203 F 
ATOM     58  F   UNL A   1      39.647  24.648  27.108  1.00  0.00    -0.200 F 
ATOM     59  C   UNL A   1      41.053  26.269  26.122  1.00  0.00     0.200 A 
ATOM     60  F   UNL A   1      42.452  27.921  25.178  1.00  0.00    -0.200 F 
ATOM     61  F   UNL A   1      41.226  25.486  25.046  1.00  0.00    -0.200 F 
ENDBRANCH  27  51
BRANCH  39  62
ATOM     62  C   UNL A   1      43.979  27.957  34.552  1.00  0.00     0.064 A 
ATOM     63  C   UNL A   1      43.691  26.763  35.231  1.00  0.00     0.173 A 
ATOM     64  C   UNL A   1      45.316  28.374  34.489  1.00  0.00     0.173 A 
ATOM     65  F   UNL A   1      42.426  26.326  35.324  1.00  0.00    -0.203 F 
ATOM     66  C   UNL A   1      44.704  26.021  35.833  1.00  0.00     0.198 A 
ATOM     67  C   UNL A   1      46.328  27.615  35.070  1.00  0.00     0.198 A 
ATOM     68  F   UNL A   1      45.642  29.502  33.839  1.00  0.00    -0.203 F 
ATOM     69  F   UNL A   1      44.403  24.897  36.498  1.00  0.00    -0.200 F 
ATOM     70  C   UNL A   1      46.021  26.445  35.749  1.00  0.00     0.200 A 
ATOM     71  F   UNL A   1      47.604  28.013  34.968  1.00  0.00    -0.200 F 
ATOM     72  F   UNL A   1      46.995  25.723  36.318  1.00  0.00    -0.200 F 
ENDBRANCH  39  62
ENDBRANCH  13  14
ENDBRANCH   6   8
ENDBRANCH   3   4
ENDBRANCH   2   3
ENDBRANCH   1   2
BRANCH   1  73
ATOM     73  C   UNL A   1      33.023  29.867  26.831  1.00  0.00     0.002 C 
BRANCH  73  74
ATOM     74  C   UNL A   1      33.655  29.040  25.708  1.00  0.00     0.021 C 
BRANCH  74  75
ATOM     75  C   UNL A   1      33.152  29.330  24.295  1.00  0.00     0.116 C 
BRANCH  75  76
ATOM     76  N   UNL A   1      33.581  28.351  23.316  1.00  0.00    -0.352 N 
ATOM     77  C   UNL A   1      32.864  27.314  22.766  1.00  0.00     0.258 C 
ATOM     78  H   UNL A   1      34.510  28.441  23.001  1.00  0.00     0.163 HD
ATOM     79  O   UNL A   1      33.310  26.674  21.818  1.00  0.00    -0.269 OA
BRANCH  77  80
ATOM     80  C   UNL A   1      31.537  26.991  23.304  1.00  0.00     0.118 A 
ATOM     81  C   UNL A   1      31.521  26.037  24.331  1.00  0.00     0.139 A 
ATOM     82  C   UNL A   1      30.335  27.580  22.886  1.00  0.00     0.143 A 
ATOM     83  F   UNL A   1      32.660  25.462  24.746  1.00  0.00    -0.206 F 
ATOM     84  C   UNL A   1      30.331  25.627  24.926  1.00  0.00     0.040 A 
ATOM     85  C   UNL A   1      29.140  27.159  23.501  1.00  0.00     0.048 A 
ATOM     86  C   UNL A   1      29.132  26.189  24.507  1.00  0.00     0.007 A 
BRANCH  82  87
ATOM     87  O   UNL A   1      30.093  28.548  21.935  1.00  0.00    -0.456 OA
BRANCH  87  88
ATOM     88  C   UNL A   1      29.518  29.742  22.268  1.00  0.00     0.128 A 
ATOM     89  C   UNL A   1      29.645  30.247  23.561  1.00  0.00     0.047 A 
ATOM     90  C   UNL A   1      28.928  30.504  21.261  1.00  0.00     0.067 A 
ATOM     91  C   UNL A   1      29.095  31.489  23.877  1.00  0.00     0.005 A 
ATOM     92  C   UNL A   1      28.392  31.750  21.578  1.00  0.00     0.044 A 
ATOM     93  C   UNL A   1      28.461  32.240  22.884  1.00  0.00     0.021 A 
ATOM     94  Cl  UNL A   1      27.654  32.703  20.349  1.00  0.00    -0.084 Cl
ENDBRANCH  87  88
ENDBRANCH  82  87
ENDBRANCH  77  80
ENDBRANCH  75  76
ENDBRANCH  74  75
ENDBRANCH  73  74
ENDBRANCH   1  73
TORSDOF 15
ENDMDL
MODEL 3
REMARK VINA RESULT:     -12.5      0.151      1.590
REMARK SMILES O=C(NCCCCCCNC(=O)c1c(F)cccc1Oc1cccc(Cl)c1)c1ccc(-c2c3nc(c(-c4c(F)c(F)c(F)c(F)c4F)c4ccc([nH]4)c(-c4c(F)c(F)c(F)c(F)c4F)c4nc(c(-c5c(F)c(F)c(F)c(F)c5F)c5ccc2[nH]5)C=C4)C=C3)cc1
REMARK SMILES IDX 6 1 5 2 4 3 3 4 1 5 2 6 28 8 29 9 90 10 30 11 89 12 31 13
REMARK SMILES IDX 32 14 33 15 83 16 34 17 88 18 82 19 84 20 35 21 87 22 81 23
REMARK SMILES IDX 80 24 36 26 68 27 48 28 67 29 49 30 52 31 66 32 85 33 50 34
REMARK SMILES IDX 51 35 65 37 86 38 53 39 37 40 38 41 46 42 39 43 40 44 44 45
REMARK SMILES IDX 47 46 41 47 42 48 45 49 43 50 69 51 70 52 78 53 71 54 72 55
REMARK SMILES IDX 76 56 79 57 73 58 74 59 77 60 75 61 54 62 55 63 63 64 56 65
REMARK SMILES IDX 57 66 61 67 64 68 58 69 59 70 62 71 60 72 7 73 8 74 9 75
REMARK SMILES IDX 10 76 11 77 12 79 13 80 14 81 19 82 15 83 16 84 18 85 17 86
REMARK SMILES IDX 20 87 21 88 22 89 27 90 23 91 25 92 24 93 26 94
REMARK H PARENT 3 7 84 25 52 36 10 78
REMARK Flexibility Score: inf
ROOT
ATOM      1  C   UNL A   1      36.994  21.101  24.550  1.00  0.00     0.002 C 
ENDROOT
BRANCH   1   2
ATOM      2  C   UNL A   1      37.963  19.955  24.841  1.00  0.00     0.021 C 
BRANCH   2   3
ATOM      3  C   UNL A   1      39.094  20.278  25.811  1.00  0.00     0.116 C 
BRANCH   3   4
ATOM      4  N   UNL A   1      40.121  19.251  25.857  1.00  0.00    -0.352 N 
ATOM      5  O   UNL A   1      42.205  18.391  25.966  1.00  0.00    -0.269 OA
ATOM      6  C   UNL A   1      41.473  19.370  26.081  1.00  0.00     0.251 C 
ATOM      7  H   UNL A   1      39.802  18.332  25.708  1.00  0.00     0.163 HD
BRANCH   6   8
ATOM      8  C   UNL A   1      42.059  20.687  26.424  1.00  0.00     0.039 A 
ATOM      9  C   UNL A   1      42.315  21.038  27.750  1.00  0.00     0.014 A 
ATOM     10  C   UNL A   1      42.356  21.586  25.395  1.00  0.00     0.014 A 
ATOM     11  C   UNL A   1      42.703  22.340  28.057  1.00  0.00     0.010 A 
ATOM     12  C   UNL A   1      42.829  22.867  25.699  1.00  0.00     0.010 A 
ATOM     13  C   UNL A   1      42.961  23.271  27.036  1.00  0.00    -0.014 A 
BRANCH  13  14
ATOM     14  C   UNL A   1      43.382  24.650  27.399  1.00  0.00     0.031 A 
ATOM     15  C   UNL A   1      44.771  25.141  27.101  1.00  0.00     0.074 A 
ATOM     16  C   UNL A   1      42.480  25.483  27.953  1.00  0.00     0.049 A 
ATOM     17  N   UNL A   1      45.285  26.331  27.298  1.00  0.00    -0.248 NA
ATOM     18  C   UNL A   1      45.711  24.176  26.510  1.00  0.00     0.031 C 
ATOM     19  C   UNL A   1      41.105  25.120  28.297  1.00  0.00     0.029 A 
ATOM     20  N   UNL A   1      42.571  26.808  28.294  1.00  0.00    -0.354 N 
ATOM     21  C   UNL A   1      46.605  26.253  26.872  1.00  0.00     0.074 A 
ATOM     22  C   UNL A   1      46.825  24.891  26.432  1.00  0.00     0.031 C 
ATOM     23  C   UNL A   1      40.464  26.208  28.747  1.00  0.00     0.029 A 
ATOM     24  C   UNL A   1      41.395  27.332  28.771  1.00  0.00     0.049 A 
ATOM     25  H   UNL A   1      43.399  27.333  28.207  1.00  0.00     0.167 HD
ATOM     26  C   UNL A   1      47.542  27.230  26.839  1.00  0.00     0.037 A 
ATOM     27  C   UNL A   1      41.094  28.579  29.182  1.00  0.00     0.037 A 
ATOM     28  C   UNL A   1      47.318  28.589  27.260  1.00  0.00     0.049 A 
ATOM     29  C   UNL A   1      42.152  29.644  29.136  1.00  0.00     0.074 A 
ATOM     30  C   UNL A   1      48.205  29.653  27.253  1.00  0.00     0.029 A 
ATOM     31  N   UNL A   1      46.118  29.074  27.761  1.00  0.00    -0.354 N 
ATOM     32  N   UNL A   1      43.391  29.558  28.719  1.00  0.00    -0.248 NA
ATOM     33  C   UNL A   1      41.770  30.977  29.617  1.00  0.00     0.031 C 
ATOM     34  C   UNL A   1      47.553  30.771  27.781  1.00  0.00     0.029 A 
ATOM     35  C   UNL A   1      46.246  30.419  28.074  1.00  0.00     0.049 A 
ATOM     36  H   UNL A   1      45.298  28.542  27.877  1.00  0.00     0.167 HD
ATOM     37  C   UNL A   1      43.933  30.825  28.873  1.00  0.00     0.074 A 
ATOM     38  C   UNL A   1      42.882  31.668  29.406  1.00  0.00     0.031 C 
ATOM     39  C   UNL A   1      45.190  31.247  28.599  1.00  0.00     0.037 A 
BRANCH  26  40
ATOM     40  C   UNL A   1      48.910  26.871  26.333  1.00  0.00     0.064 A 
ATOM     41  C   UNL A   1      49.240  27.052  24.981  1.00  0.00     0.173 A 
ATOM     42  C   UNL A   1      49.871  26.288  27.170  1.00  0.00     0.173 A 
ATOM     43  F   UNL A   1      48.352  27.599  24.136  1.00  0.00    -0.203 F 
ATOM     44  C   UNL A   1      50.478  26.653  24.485  1.00  0.00     0.198 A 
ATOM     45  C   UNL A   1      51.119  25.913  26.676  1.00  0.00     0.198 A 
ATOM     46  F   UNL A   1      49.610  26.102  28.472  1.00  0.00    -0.203 F 
ATOM     47  F   UNL A   1      50.760  26.812  23.184  1.00  0.00    -0.200 F 
ATOM     48  C   UNL A   1      51.418  26.088  25.333  1.00  0.00     0.200 A 
ATOM     49  F   UNL A   1      52.034  25.387  27.501  1.00  0.00    -0.200 F 
ATOM     50  F   UNL A   1      52.614  25.716  24.857  1.00  0.00    -0.200 F 
ENDBRANCH  26  40
BRANCH  27  51
ATOM     51  C   UNL A   1      39.714  28.877  29.640  1.00  0.00     0.064 A 
ATOM     52  C   UNL A   1      39.336  28.690  30.977  1.00  0.00     0.173 A 
ATOM     53  C   UNL A   1      38.734  29.302  28.734  1.00  0.00     0.173 A 
ATOM     54  F   UNL A   1      40.239  28.278  31.878  1.00  0.00    -0.203 F 
ATOM     55  C   UNL A   1      38.020  28.890  31.386  1.00  0.00     0.198 A 
ATOM     56  C   UNL A   1      37.423  29.526  29.150  1.00  0.00     0.198 A 
ATOM     57  F   UNL A   1      39.054  29.509  27.449  1.00  0.00    -0.203 F 
ATOM     58  F   UNL A   1      37.674  28.662  32.660  1.00  0.00    -0.200 F 
ATOM     59  C   UNL A   1      37.065  29.310  30.472  1.00  0.00     0.200 A 
ATOM     60  F   UNL A   1      36.507  29.950  28.269  1.00  0.00    -0.200 F 
ATOM     61  F   UNL A   1      35.799  29.505  30.866  1.00  0.00    -0.200 F 
ENDBRANCH  27  51
BRANCH  39  62
ATOM     62  C   UNL A   1      45.503  32.694  28.845  1.00  0.00     0.064 A 
ATOM     63  C   UNL A   1      45.981  33.113  30.096  1.00  0.00     0.173 A 
ATOM     64  C   UNL A   1      45.271  33.671  27.868  1.00  0.00     0.173 A 
ATOM     65  F   UNL A   1      46.212  32.215  31.066  1.00  0.00    -0.203 F 
ATOM     66  C   UNL A   1      46.207  34.460  30.361  1.00  0.00     0.198 A 
ATOM     67  C   UNL A   1      45.523  35.015  28.128  1.00  0.00     0.198 A 
ATOM     68  F   UNL A   1      44.826  33.318  26.652  1.00  0.00    -0.203 F 
ATOM     69  F   UNL A   1      46.640  34.841  31.571  1.00  0.00    -0.200 F 
ATOM     70  C   UNL A   1      45.981  35.410  29.376  1.00  0.00     0.200 A 
ATOM     71  F   UNL A   1      45.327  35.930  27.168  1.00  0.00    -0.200 F 
ATOM     72  F   UNL A   1      46.212  36.705  29.628  1.00  0.00    -0.200 F 
ENDBRANCH  39  62
ENDBRANCH  13  14
ENDBRANCH   6   8
ENDBRANCH   3   4
ENDBRANCH   2   3
ENDBRANCH   1   2
BRANCH   1  73
ATOM     73  C   UNL A   1      37.249  22.406  25.307  1.00  0.00     0.002 C 
BRANCH  73  74
ATOM     74  C   UNL A   1      36.072  22.966  26.111  1.00  0.00     0.021 C 
BRANCH  74  75
ATOM     75  C   UNL A   1      35.107  21.937  26.697  1.00  0.00     0.116 C 
BRANCH  75  76
ATOM     76  N   UNL A   1      33.885  22.520  27.217  1.00  0.00    -0.352 N 
ATOM     77  C   UNL A   1      32.655  22.620  26.610  1.00  0.00     0.258 C 
ATOM     78  H   UNL A   1      33.943  22.892  28.127  1.00  0.00     0.163 HD
ATOM     79  O   UNL A   1      31.669  22.984  27.243  1.00  0.00    -0.269 OA
BRANCH  77  80
ATOM     80  C   UNL A   1      32.519  22.259  25.193  1.00  0.00     0.118 A 
ATOM     81  C   UNL A   1      32.665  23.318  24.287  1.00  0.00     0.139 A 
ATOM     82  C   UNL A   1      32.290  20.962  24.713  1.00  0.00     0.143 A 
ATOM     83  F   UNL A   1      32.886  24.567  24.726  1.00  0.00    -0.206 F 
ATOM     84  C   UNL A   1      32.549  23.122  22.914  1.00  0.00     0.040 A 
ATOM     85  C   UNL A   1      32.181  20.779  23.320  1.00  0.00     0.048 A 
ATOM     86  C   UNL A   1      32.303  21.846  22.427  1.00  0.00     0.007 A 
BRANCH  82  87
ATOM     87  O   UNL A   1      32.146  19.768  25.386  1.00  0.00    -0.456 OA
BRANCH  87  88
ATOM     88  C   UNL A   1      32.915  18.682  25.077  1.00  0.00     0.128 A 
ATOM     89  C   UNL A   1      34.225  18.852  24.631  1.00  0.00     0.047 A 
ATOM     90  C   UNL A   1      32.416  17.409  25.350  1.00  0.00     0.067 A 
ATOM     91  C   UNL A   1      35.015  17.734  24.364  1.00  0.00     0.005 A 
ATOM     92  C   UNL A   1      33.214  16.297  25.095  1.00  0.00     0.044 A 
ATOM     93  C   UNL A   1      34.507  16.453  24.591  1.00  0.00     0.021 A 
ATOM     94  Cl  UNL A   1      32.611  14.717  25.420  1.00  0.00    -0.084 Cl
ENDBRANCH  87  88
ENDBRANCH  82  87
ENDBRANCH  77  80
ENDBRANCH  75  76
ENDBRANCH  74  75
ENDBRANCH  73  74
ENDBRANCH   1  73
TORSDOF 15
ENDMDL
