MODEL 1
REMARK VINA RESULT:     -13.5      0.000      0.000
REMARK SMILES C[C@H]1c2ccc(O)cc2OC(=O)[C@@H]1CC(=O)N[C@@H](CC1=c2ccccc2=NC1)C(=O)NCCCCCCNC(=O)c1ccc(-c2c3nc(c(-c4c(F)c(F)c(F)c(F)c4F)c4ccc([nH]4)c(-c4c(F)c(F)c(F)c(F)c4F)c4nc(c(-c5c(F)c(F)c(F)c(F)c5F)c5ccc2[nH]5)C=C4)C=C3)cc1
REMARK SMILES IDX 33 1 32 2 31 3 29 4 30 5 18 7 17 8 15 9 16 10 14 12 13 13
REMARK SMILES IDX 1 14 2 15 3 16 4 17 9 18 11 19 5 20 8 21 10 22 12 23 6 24
REMARK SMILES IDX 7 25 19 27 20 28 21 29 28 30 22 31 26 32 27 33 23 34 25 35
REMARK SMILES IDX 24 36 34 37 35 38 36 39 37 40 38 41 39 42 40 44 41 45 42 46
REMARK SMILES IDX 103 47 43 48 102 49 44 50 45 51 46 52 96 53 47 54 101 55
REMARK SMILES IDX 95 56 97 57 48 58 100 59 94 60 93 61 49 63 81 64 61 65 80 66
REMARK SMILES IDX 62 67 65 68 79 69 98 70 63 71 64 72 78 74 99 75 66 76 50 77
REMARK SMILES IDX 51 78 59 79 52 80 53 81 57 82 60 83 54 84 55 85 58 86 56 87
REMARK SMILES IDX 82 88 83 89 91 90 84 91 85 92 89 93 92 94 86 95 87 96 90 97
REMARK SMILES IDX 88 98 67 99 68 100 76 101 69 102 70 103 74 104 77 105 71 106
REMARK SMILES IDX 72 107 75 108 73 109
REMARK H PARENT 31 6 17 11 7 26 38 43 97 62 65 73
REMARK Flexibility Score: inf
ROOT
ATOM      1  C   UNL A   1      33.164  29.299  26.398  1.00  0.00     0.021 C 
ENDROOT
BRANCH   1   2
ATOM      2  C   UNL A   1      33.328  29.507  24.899  1.00  0.00     0.116 C 
BRANCH   2   3
ATOM      3  N   UNL A   1      33.935  28.519  24.056  1.00  0.00    -0.354 N 
ATOM      4  C   UNL A   1      33.209  27.819  23.112  1.00  0.00     0.242 C 
ATOM      5  O   UNL A   1      33.725  27.702  21.994  1.00  0.00    -0.273 OA
ATOM      6  H   UNL A   1      34.898  28.334  24.151  1.00  0.00     0.163 HD
BRANCH   4   7
ATOM      7  C   UNL A   1      31.774  27.215  23.369  1.00  0.00     0.175 C 
BRANCH   7   8
ATOM      8  N   UNL A   1      31.415  26.736  24.708  1.00  0.00    -0.344 N 
ATOM      9  C   UNL A   1      31.763  25.570  25.330  1.00  0.00     0.221 C 
ATOM     10  O   UNL A   1      31.153  25.254  26.353  1.00  0.00    -0.275 OA
ATOM     11  H   UNL A   1      30.841  27.340  25.232  1.00  0.00     0.164 HD
BRANCH   9  12
ATOM     12  C   UNL A   1      32.918  24.713  24.822  1.00  0.00     0.116 C 
BRANCH  12  13
ATOM     13  C   UNL A   1      32.604  23.785  23.623  1.00  0.00     0.116 C 
ATOM     14  C   UNL A   1      32.365  21.373  22.796  1.00  0.00     0.014 C 
ATOM     15  C   UNL A   1      32.851  22.287  23.930  1.00  0.00     0.034 C 
ATOM     16  C   UNL A   1      34.329  22.085  24.178  1.00  0.00    -0.001 A 
ATOM     17  C   UNL A   1      34.809  21.080  25.021  1.00  0.00     0.011 A 
ATOM     18  C   UNL A   1      35.247  22.959  23.588  1.00  0.00     0.138 A 
ATOM     19  C   UNL A   1      33.475  24.079  22.425  1.00  0.00     0.315 C 
ATOM     20  C   UNL A   1      36.175  21.007  25.317  1.00  0.00     0.047 A 
ATOM     21  C   UNL A   1      36.601  22.924  23.902  1.00  0.00     0.093 A 
ATOM     22  O   UNL A   1      34.834  23.894  22.625  1.00  0.00    -0.426 OA
ATOM     23  O   UNL A   1      33.027  24.472  21.354  1.00  0.00    -0.251 OA
ATOM     24  C   UNL A   1      37.052  21.947  24.778  1.00  0.00     0.119 A 
BRANCH  24  25
ATOM     25  O   UNL A   1      38.381  21.935  25.083  1.00  0.00    -0.508 OA
ATOM     26  H   UNL A   1      38.735  21.241  25.605  1.00  0.00     0.293 HD
ENDBRANCH  24  25
ENDBRANCH  12  13
ENDBRANCH   9  12
ENDBRANCH   7   8
BRANCH   7  27
ATOM     27  C   UNL A   1      30.520  27.785  22.598  1.00  0.00     0.068 C 
BRANCH  27  28
ATOM     28  C   UNL A   1      29.536  28.786  23.208  1.00  0.00    -0.037 C 
ATOM     29  C   UNL A   1      29.560  30.105  22.912  1.00  0.00     0.001 A 
ATOM     30  C   UNL A   1      28.129  28.308  23.227  1.00  0.00     0.174 C 
ATOM     31  C   UNL A   1      29.170  31.224  23.794  1.00  0.00     0.010 A 
ATOM     32  C   UNL A   1      28.425  30.030  21.945  1.00  0.00     0.065 A 
ATOM     33  N   UNL A   1      27.548  29.101  22.131  1.00  0.00    -0.280 NA
ATOM     34  C   UNL A   1      28.537  32.287  23.241  1.00  0.00     0.001 A 
ATOM     35  C   UNL A   1      28.272  31.203  21.078  1.00  0.00     0.028 A 
ATOM     36  C   UNL A   1      28.312  32.339  21.794  1.00  0.00     0.002 A 
ENDBRANCH  27  28
ENDBRANCH   7  27
ENDBRANCH   4   7
ENDBRANCH   2   3
ENDBRANCH   1   2
BRANCH   1  37
ATOM     37  C   UNL A   1      34.348  29.697  27.299  1.00  0.00     0.002 C 
BRANCH  37  38
ATOM     38  C   UNL A   1      34.426  31.105  27.922  1.00  0.00     0.002 C 
BRANCH  38  39
ATOM     39  C   UNL A   1      33.164  31.958  28.047  1.00  0.00     0.021 C 
BRANCH  39  40
ATOM     40  C   UNL A   1      32.971  33.105  27.073  1.00  0.00     0.116 C 
BRANCH  40  41
ATOM     41  N   UNL A   1      32.590  34.342  27.728  1.00  0.00    -0.352 N 
ATOM     42  C   UNL A   1      33.108  34.958  28.848  1.00  0.00     0.251 C 
ATOM     43  H   UNL A   1      31.839  34.819  27.305  1.00  0.00     0.163 HD
ATOM     44  O   UNL A   1      32.557  35.934  29.318  1.00  0.00    -0.269 OA
BRANCH  42  45
ATOM     45  C   UNL A   1      34.319  34.406  29.506  1.00  0.00     0.039 A 
ATOM     46  C   UNL A   1      35.588  34.571  28.952  1.00  0.00     0.014 A 
ATOM     47  C   UNL A   1      34.168  33.711  30.710  1.00  0.00     0.014 A 
ATOM     48  C   UNL A   1      36.677  33.902  29.505  1.00  0.00     0.010 A 
ATOM     49  C   UNL A   1      35.278  33.105  31.310  1.00  0.00     0.010 A 
ATOM     50  C   UNL A   1      36.533  33.153  30.684  1.00  0.00    -0.014 A 
BRANCH  50  51
ATOM     51  C   UNL A   1      37.701  32.421  31.243  1.00  0.00     0.031 A 
ATOM     52  C   UNL A   1      38.195  32.715  32.635  1.00  0.00     0.074 A 
ATOM     53  C   UNL A   1      38.289  31.456  30.512  1.00  0.00     0.049 A 
ATOM     54  N   UNL A   1      39.198  32.179  33.287  1.00  0.00    -0.248 NA
ATOM     55  C   UNL A   1      37.469  33.742  33.399  1.00  0.00     0.031 C 
ATOM     56  C   UNL A   1      37.890  31.068  29.157  1.00  0.00     0.029 A 
ATOM     57  N   UNL A   1      39.331  30.614  30.805  1.00  0.00    -0.354 N 
ATOM     58  C   UNL A   1      39.231  32.810  34.523  1.00  0.00     0.074 A 
ATOM     59  C   UNL A   1      38.168  33.792  34.524  1.00  0.00     0.031 C 
ATOM     60  C   UNL A   1      38.645  30.035  28.757  1.00  0.00     0.029 A 
ATOM     61  C   UNL A   1      39.623  29.729  29.795  1.00  0.00     0.049 A 
ATOM     62  H   UNL A   1      39.822  30.639  31.658  1.00  0.00     0.167 HD
ATOM     63  C   UNL A   1      40.065  32.581  35.567  1.00  0.00     0.037 A 
ATOM     64  C   UNL A   1      40.582  28.788  29.706  1.00  0.00     0.037 A 
ATOM     65  C   UNL A   1      41.112  31.592  35.567  1.00  0.00     0.049 A 
ATOM     66  C   UNL A   1      41.526  28.591  30.858  1.00  0.00     0.074 A 
ATOM     67  C   UNL A   1      42.005  31.282  36.579  1.00  0.00     0.029 A 
ATOM     68  N   UNL A   1      41.408  30.749  34.505  1.00  0.00    -0.354 N 
ATOM     69  N   UNL A   1      41.548  29.197  32.021  1.00  0.00    -0.248 NA
ATOM     70  C   UNL A   1      42.581  27.583  30.686  1.00  0.00     0.031 C 
ATOM     71  C   UNL A   1      42.868  30.285  36.114  1.00  0.00     0.029 A 
ATOM     72  C   UNL A   1      42.478  29.932  34.833  1.00  0.00     0.049 A 
ATOM     73  H   UNL A   1      40.928  30.735  33.645  1.00  0.00     0.167 HD
ATOM     74  C   UNL A   1      42.601  28.630  32.726  1.00  0.00     0.074 A 
ATOM     75  C   UNL A   1      43.183  27.621  31.867  1.00  0.00     0.031 C 
ATOM     76  C   UNL A   1      43.042  28.923  33.973  1.00  0.00     0.037 A 
BRANCH  63  77
ATOM     77  C   UNL A   1      39.891  33.413  36.805  1.00  0.00     0.064 A 
ATOM     78  C   UNL A   1      39.028  33.020  37.839  1.00  0.00     0.173 A 
ATOM     79  C   UNL A   1      40.662  34.570  36.999  1.00  0.00     0.173 A 
ATOM     80  F   UNL A   1      38.262  31.928  37.701  1.00  0.00    -0.203 F 
ATOM     81  C   UNL A   1      38.935  33.760  39.016  1.00  0.00     0.198 A 
ATOM     82  C   UNL A   1      40.587  35.292  38.187  1.00  0.00     0.198 A 
ATOM     83  F   UNL A   1      41.509  34.987  36.045  1.00  0.00    -0.203 F 
ATOM     84  F   UNL A   1      38.084  33.380  39.978  1.00  0.00    -0.200 F 
ATOM     85  C   UNL A   1      39.723  34.888  39.194  1.00  0.00     0.200 A 
ATOM     86  F   UNL A   1      41.361  36.373  38.364  1.00  0.00    -0.200 F 
ATOM     87  F   UNL A   1      39.648  35.586  40.336  1.00  0.00    -0.200 F 
ENDBRANCH  63  77
BRANCH  64  88
ATOM     88  C   UNL A   1      40.681  27.958  28.479  1.00  0.00     0.064 A 
ATOM     89  C   UNL A   1      41.438  28.386  27.380  1.00  0.00     0.173 A 
ATOM     90  C   UNL A   1      40.051  26.707  28.391  1.00  0.00     0.173 A 
ATOM     91  F   UNL A   1      42.041  29.583  27.408  1.00  0.00    -0.203 F 
ATOM     92  C   UNL A   1      41.558  27.596  26.237  1.00  0.00     0.198 A 
ATOM     93  C   UNL A   1      40.197  25.905  27.261  1.00  0.00     0.198 A 
ATOM     94  F   UNL A   1      39.317  26.250  29.416  1.00  0.00    -0.203 F 
ATOM     95  F   UNL A   1      42.261  28.042  25.188  1.00  0.00    -0.200 F 
ATOM     96  C   UNL A   1      40.946  26.352  26.184  1.00  0.00     0.200 A 
ATOM     97  F   UNL A   1      39.619  24.696  27.221  1.00  0.00    -0.200 F 
ATOM     98  F   UNL A   1      41.076  25.586  25.092  1.00  0.00    -0.200 F 
ENDBRANCH  64  88
BRANCH  76  99
ATOM     99  C   UNL A   1      44.192  28.119  34.507  1.00  0.00     0.064 A 
ATOM    100  C   UNL A   1      45.516  28.569  34.406  1.00  0.00     0.173 A 
ATOM    101  C   UNL A   1      43.957  26.911  35.183  1.00  0.00     0.173 A 
ATOM    102  F   UNL A   1      45.793  29.712  33.758  1.00  0.00    -0.203 F 
ATOM    103  C   UNL A   1      46.565  27.829  34.944  1.00  0.00     0.198 A 
ATOM    104  C   UNL A   1      45.007  26.190  35.745  1.00  0.00     0.198 A 
ATOM    105  F   UNL A   1      42.709  26.441  35.314  1.00  0.00    -0.203 F 
ATOM    106  F   UNL A   1      47.828  28.258  34.799  1.00  0.00    -0.200 F 
ATOM    107  C   UNL A   1      46.309  26.647  35.620  1.00  0.00     0.200 A 
ATOM    108  F   UNL A   1      44.756  25.055  36.412  1.00  0.00    -0.200 F 
ATOM    109  F   UNL A   1      47.320  25.943  36.148  1.00  0.00    -0.200 F 
ENDBRANCH  76  99
ENDBRANCH  50  51
ENDBRANCH  42  45
ENDBRANCH  40  41
ENDBRANCH  39  40
ENDBRANCH  38  39
ENDBRANCH  37  38
ENDBRANCH   1  37
TORSDOF 19
ENDMDL
MODEL 2
REMARK VINA RESULT:     -13.2      0.736      6.824
REMARK SMILES C[C@H]1c2ccc(O)cc2OC(=O)[C@@H]1CC(=O)N[C@@H](CC1=c2ccccc2=NC1)C(=O)NCCCCCCNC(=O)c1ccc(-c2c3nc(c(-c4c(F)c(F)c(F)c(F)c4F)c4ccc([nH]4)c(-c4c(F)c(F)c(F)c(F)c4F)c4nc(c(-c5c(F)c(F)c(F)c(F)c5F)c5ccc2[nH]5)C=C4)C=C3)cc1
REMARK SMILES IDX 33 1 32 2 31 3 29 4 30 5 18 7 17 8 15 9 16 10 14 12 13 13
REMARK SMILES IDX 1 14 2 15 3 16 4 17 9 18 11 19 5 20 8 21 10 22 12 23 6 24
REMARK SMILES IDX 7 25 19 27 20 28 21 29 28 30 22 31 26 32 27 33 23 34 25 35
REMARK SMILES IDX 24 36 34 37 35 38 36 39 37 40 38 41 39 42 40 44 41 45 42 46
REMARK SMILES IDX 103 47 43 48 102 49 44 50 45 51 46 52 96 53 47 54 101 55
REMARK SMILES IDX 95 56 97 57 48 58 100 59 94 60 93 61 49 63 81 64 61 65 80 66
REMARK SMILES IDX 62 67 65 68 79 69 98 70 63 71 64 72 78 74 99 75 66 76 50 77
REMARK SMILES IDX 51 78 59 79 52 80 53 81 57 82 60 83 54 84 55 85 58 86 56 87
REMARK SMILES IDX 82 88 83 89 91 90 84 91 85 92 89 93 92 94 86 95 87 96 90 97
REMARK SMILES IDX 88 98 67 99 68 100 76 101 69 102 70 103 74 104 77 105 71 106
REMARK SMILES IDX 72 107 75 108 73 109
REMARK H PARENT 31 6 17 11 7 26 38 43 97 62 65 73
REMARK Flexibility Score: inf
ROOT
ATOM      1  C   UNL A   1      33.429  29.287  26.813  1.00  0.00     0.021 C 
ENDROOT
BRANCH   1   2
ATOM      2  C   UNL A   1      33.287  29.499  25.313  1.00  0.00     0.116 C 
BRANCH   2   3
ATOM      3  N   UNL A   1      33.926  28.640  24.359  1.00  0.00    -0.354 N 
ATOM      4  C   UNL A   1      33.225  28.048  23.327  1.00  0.00     0.242 C 
ATOM      5  O   UNL A   1      33.753  28.086  22.209  1.00  0.00    -0.273 OA
ATOM      6  H   UNL A   1      34.891  28.467  24.442  1.00  0.00     0.163 HD
BRANCH   4   7
ATOM      7  C   UNL A   1      31.803  27.384  23.488  1.00  0.00     0.175 C 
BRANCH   7   8
ATOM      8  N   UNL A   1      31.392  26.852  24.792  1.00  0.00    -0.344 N 
ATOM      9  C   UNL A   1      31.686  25.646  25.365  1.00  0.00     0.221 C 
ATOM     10  O   UNL A   1      31.039  25.300  26.354  1.00  0.00    -0.275 OA
ATOM     11  H   UNL A   1      30.823  27.448  25.331  1.00  0.00     0.164 HD
BRANCH   9  12
ATOM     12  C   UNL A   1      32.826  24.778  24.844  1.00  0.00     0.116 C 
BRANCH  12  13
ATOM     13  C   UNL A   1      32.513  23.912  23.599  1.00  0.00     0.116 C 
ATOM     14  C   UNL A   1      32.258  21.546  22.654  1.00  0.00     0.014 C 
ATOM     15  C   UNL A   1      32.745  22.399  23.834  1.00  0.00     0.034 C 
ATOM     16  C   UNL A   1      34.218  22.171  24.082  1.00  0.00    -0.001 A 
ATOM     17  C   UNL A   1      34.684  21.122  24.878  1.00  0.00     0.011 A 
ATOM     18  C   UNL A   1      35.149  23.065  23.542  1.00  0.00     0.138 A 
ATOM     19  C   UNL A   1      33.395  24.256  22.423  1.00  0.00     0.315 C 
ATOM     20  C   UNL A   1      36.046  21.022  25.179  1.00  0.00     0.047 A 
ATOM     21  C   UNL A   1      36.500  23.002  23.862  1.00  0.00     0.093 A 
ATOM     22  O   UNL A   1      34.751  24.050  22.623  1.00  0.00    -0.426 OA
ATOM     23  O   UNL A   1      32.958  24.706  21.370  1.00  0.00    -0.251 OA
ATOM     24  C   UNL A   1      36.936  21.979  24.692  1.00  0.00     0.119 A 
BRANCH  24  25
ATOM     25  O   UNL A   1      38.262  21.939  25.005  1.00  0.00    -0.508 OA
ATOM     26  H   UNL A   1      38.539  21.578  25.825  1.00  0.00     0.293 HD
ENDBRANCH  24  25
ENDBRANCH  12  13
ENDBRANCH   9  12
ENDBRANCH   7   8
BRANCH   7  27
ATOM     27  C   UNL A   1      30.570  27.930  22.667  1.00  0.00     0.068 C 
BRANCH  27  28
ATOM     28  C   UNL A   1      29.536  28.902  23.240  1.00  0.00    -0.037 C 
ATOM     29  C   UNL A   1      29.508  30.214  22.911  1.00  0.00     0.001 A 
ATOM     30  C   UNL A   1      28.151  28.366  23.254  1.00  0.00     0.174 C 
ATOM     31  C   UNL A   1      29.061  31.337  23.759  1.00  0.00     0.010 A 
ATOM     32  C   UNL A   1      28.391  30.067  21.933  1.00  0.00     0.065 A 
ATOM     33  N   UNL A   1      27.551  29.106  22.131  1.00  0.00    -0.280 NA
ATOM     34  C   UNL A   1      28.391  32.358  23.172  1.00  0.00     0.001 A 
ATOM     35  C   UNL A   1      28.200  31.209  21.034  1.00  0.00     0.028 A 
ATOM     36  C   UNL A   1      28.183  32.364  21.722  1.00  0.00     0.002 A 
ENDBRANCH  27  28
ENDBRANCH   7  27
ENDBRANCH   4   7
ENDBRANCH   2   3
ENDBRANCH   1   2
BRANCH   1  37
ATOM     37  C   UNL A   1      34.701  29.836  27.487  1.00  0.00     0.002 C 
BRANCH  37  38
ATOM     38  C   UNL A   1      34.766  31.296  27.976  1.00  0.00     0.002 C 
BRANCH  38  39
ATOM     39  C   UNL A   1      33.524  32.184  27.908  1.00  0.00     0.021 C 
BRANCH  39  40
ATOM     40  C   UNL A   1      33.704  33.650  27.561  1.00  0.00     0.116 C 
BRANCH  40  41
ATOM     41  N   UNL A   1      33.003  34.534  28.472  1.00  0.00    -0.352 N 
ATOM     42  C   UNL A   1      33.229  34.807  29.805  1.00  0.00     0.251 C 
ATOM     43  H   UNL A   1      32.243  35.017  28.075  1.00  0.00     0.163 HD
ATOM     44  O   UNL A   1      32.439  35.486  30.431  1.00  0.00    -0.269 OA
BRANCH  42  45
ATOM     45  C   UNL A   1      34.417  34.238  30.489  1.00  0.00     0.039 A 
ATOM     46  C   UNL A   1      35.712  34.618  30.135  1.00  0.00     0.014 A 
ATOM     47  C   UNL A   1      34.219  33.306  31.512  1.00  0.00     0.014 A 
ATOM     48  C   UNL A   1      36.803  33.946  30.680  1.00  0.00     0.010 A 
ATOM     49  C   UNL A   1      35.318  32.688  32.117  1.00  0.00     0.010 A 
ATOM     50  C   UNL A   1      36.619  32.966  31.669  1.00  0.00    -0.014 A 
BRANCH  50  51
ATOM     51  C   UNL A   1      37.795  32.238  32.217  1.00  0.00     0.031 A 
ATOM     52  C   UNL A   1      38.458  31.145  31.423  1.00  0.00     0.074 A 
ATOM     53  C   UNL A   1      38.295  32.596  33.415  1.00  0.00     0.049 A 
ATOM     54  N   UNL A   1      39.490  30.402  31.740  1.00  0.00    -0.248 NA
ATOM     55  C   UNL A   1      37.892  30.845  30.098  1.00  0.00     0.031 C 
ATOM     56  C   UNL A   1      37.751  33.653  34.270  1.00  0.00     0.029 A 
ATOM     57  N   UNL A   1      39.381  32.130  34.112  1.00  0.00    -0.354 N 
ATOM     58  C   UNL A   1      39.686  29.542  30.667  1.00  0.00     0.074 A 
ATOM     59  C   UNL A   1      38.650  29.832  29.700  1.00  0.00     0.031 C 
ATOM     60  C   UNL A   1      38.531  33.785  35.353  1.00  0.00     0.029 A 
ATOM     61  C   UNL A   1      39.590  32.783  35.303  1.00  0.00     0.049 A 
ATOM     62  H   UNL A   1      39.955  31.398  33.790  1.00  0.00     0.167 HD
ATOM     63  C   UNL A   1      40.653  28.607  30.499  1.00  0.00     0.037 A 
ATOM     64  C   UNL A   1      40.520  32.587  36.256  1.00  0.00     0.037 A 
ATOM     65  C   UNL A   1      41.692  28.332  31.458  1.00  0.00     0.049 A 
ATOM     66  C   UNL A   1      41.548  31.507  36.068  1.00  0.00     0.074 A 
ATOM     67  C   UNL A   1      42.719  27.407  31.375  1.00  0.00     0.029 A 
ATOM     68  N   UNL A   1      41.840  28.982  32.675  1.00  0.00    -0.354 N 
ATOM     69  N   UNL A   1      41.721  30.700  35.049  1.00  0.00    -0.248 NA
ATOM     70  C   UNL A   1      42.508  31.307  37.162  1.00  0.00     0.031 C 
ATOM     71  C   UNL A   1      43.460  27.466  32.559  1.00  0.00     0.029 A 
ATOM     72  C   UNL A   1      42.931  28.467  33.357  1.00  0.00     0.049 A 
ATOM     73  H   UNL A   1      41.255  29.703  33.005  1.00  0.00     0.167 HD
ATOM     74  C   UNL A   1      42.819  29.914  35.368  1.00  0.00     0.074 A 
ATOM     75  C   UNL A   1      43.283  30.352  36.668  1.00  0.00     0.031 C 
ATOM     76  C   UNL A   1      43.390  28.919  34.646  1.00  0.00     0.037 A 
BRANCH  63  77
ATOM     77  C   UNL A   1      40.640  27.798  29.233  1.00  0.00     0.064 A 
ATOM     78  C   UNL A   1      39.772  26.710  29.065  1.00  0.00     0.173 A 
ATOM     79  C   UNL A   1      41.443  28.171  28.144  1.00  0.00     0.173 A 
ATOM     80  F   UNL A   1      38.990  26.306  30.078  1.00  0.00    -0.203 F 
ATOM     81  C   UNL A   1      39.715  26.018  27.858  1.00  0.00     0.198 A 
ATOM     82  C   UNL A   1      41.363  27.494  26.929  1.00  0.00     0.198 A 
ATOM     83  F   UNL A   1      42.286  29.209  28.248  1.00  0.00    -0.203 F 
ATOM     84  F   UNL A   1      38.897  24.964  27.729  1.00  0.00    -0.200 F 
ATOM     85  C   UNL A   1      40.502  26.418  26.787  1.00  0.00     0.200 A 
ATOM     86  F   UNL A   1      42.113  27.892  25.891  1.00  0.00    -0.200 F 
ATOM     87  F   UNL A   1      40.429  25.764  25.619  1.00  0.00    -0.200 F 
ENDBRANCH  63  77
BRANCH  64  88
ATOM     88  C   UNL A   1      40.519  33.446  37.468  1.00  0.00     0.064 A 
ATOM     89  C   UNL A   1      39.637  33.194  38.528  1.00  0.00     0.173 A 
ATOM     90  C   UNL A   1      41.419  34.513  37.607  1.00  0.00     0.173 A 
ATOM     91  F   UNL A   1      38.744  32.198  38.433  1.00  0.00    -0.203 F 
ATOM     92  C   UNL A   1      39.653  33.979  39.679  1.00  0.00     0.198 A 
ATOM     93  C   UNL A   1      41.455  35.278  38.771  1.00  0.00     0.198 A 
ATOM     94  F   UNL A   1      42.286  34.794  36.623  1.00  0.00    -0.203 F 
ATOM     95  F   UNL A   1      38.778  33.737  40.664  1.00  0.00    -0.200 F 
ATOM     96  C   UNL A   1      40.569  35.013  39.803  1.00  0.00     0.200 A 
ATOM     97  F   UNL A   1      42.354  36.265  38.894  1.00  0.00    -0.200 F 
ATOM     98  F   UNL A   1      40.595  35.757  40.917  1.00  0.00    -0.200 F 
ENDBRANCH  64  88
BRANCH  76  99
ATOM     99  C   UNL A   1      44.604  28.253  35.224  1.00  0.00     0.064 A 
ATOM    100  C   UNL A   1      45.894  28.755  35.005  1.00  0.00     0.173 A 
ATOM    101  C   UNL A   1      44.467  27.132  36.058  1.00  0.00     0.173 A 
ATOM    102  F   UNL A   1      46.079  29.817  34.205  1.00  0.00    -0.203 F 
ATOM    103  C   UNL A   1      47.005  28.147  35.584  1.00  0.00     0.198 A 
ATOM    104  C   UNL A   1      45.577  26.546  36.658  1.00  0.00     0.198 A 
ATOM    105  F   UNL A   1      43.253  26.617  36.306  1.00  0.00    -0.203 F 
ATOM    106  F   UNL A   1      48.234  28.620  35.328  1.00  0.00    -0.200 F 
ATOM    107  C   UNL A   1      46.845  27.051  36.417  1.00  0.00     0.200 A 
ATOM    108  F   UNL A   1      45.419  25.496  37.476  1.00  0.00    -0.200 F 
ATOM    109  F   UNL A   1      47.915  26.476  36.983  1.00  0.00    -0.200 F 
ENDBRANCH  76  99
ENDBRANCH  50  51
ENDBRANCH  42  45
ENDBRANCH  40  41
ENDBRANCH  39  40
ENDBRANCH  38  39
ENDBRANCH  37  38
ENDBRANCH   1  37
TORSDOF 19
ENDMDL
MODEL 3
REMARK VINA RESULT:     -13.2      0.946      6.979
REMARK SMILES C[C@H]1c2ccc(O)cc2OC(=O)[C@@H]1CC(=O)N[C@@H](CC1=c2ccccc2=NC1)C(=O)NCCCCCCNC(=O)c1ccc(-c2c3nc(c(-c4c(F)c(F)c(F)c(F)c4F)c4ccc([nH]4)c(-c4c(F)c(F)c(F)c(F)c4F)c4nc(c(-c5c(F)c(F)c(F)c(F)c5F)c5ccc2[nH]5)C=C4)C=C3)cc1
REMARK SMILES IDX 33 1 32 2 31 3 29 4 30 5 18 7 17 8 15 9 16 10 14 12 13 13
REMARK SMILES IDX 1 14 2 15 3 16 4 17 9 18 11 19 5 20 8 21 10 22 12 23 6 24
REMARK SMILES IDX 7 25 19 27 20 28 21 29 28 30 22 31 26 32 27 33 23 34 25 35
REMARK SMILES IDX 24 36 34 37 35 38 36 39 37 40 38 41 39 42 40 44 41 45 42 46
REMARK SMILES IDX 103 47 43 48 102 49 44 50 45 51 46 52 96 53 47 54 101 55
REMARK SMILES IDX 95 56 97 57 48 58 100 59 94 60 93 61 49 63 81 64 61 65 80 66
REMARK SMILES IDX 62 67 65 68 79 69 98 70 63 71 64 72 78 74 99 75 66 76 50 77
REMARK SMILES IDX 51 78 59 79 52 80 53 81 57 82 60 83 54 84 55 85 58 86 56 87
REMARK SMILES IDX 82 88 83 89 91 90 84 91 85 92 89 93 92 94 86 95 87 96 90 97
REMARK SMILES IDX 88 98 67 99 68 100 76 101 69 102 70 103 74 104 77 105 71 106
REMARK SMILES IDX 72 107 75 108 73 109
REMARK H PARENT 31 6 17 11 7 26 38 43 97 62 65 73
REMARK Flexibility Score: inf
ROOT
ATOM      1  C   UNL A   1      33.078  29.227  26.566  1.00  0.00     0.021 C 
ENDROOT
BRANCH   1   2
ATOM      2  C   UNL A   1      33.192  29.339  25.053  1.00  0.00     0.116 C 
BRANCH   2   3
ATOM      3  N   UNL A   1      33.670  28.256  24.244  1.00  0.00    -0.354 N 
ATOM      4  C   UNL A   1      32.878  27.660  23.282  1.00  0.00     0.242 C 
ATOM      5  O   UNL A   1      33.407  27.447  22.185  1.00  0.00    -0.273 OA
ATOM      6  H   UNL A   1      34.589  27.928  24.376  1.00  0.00     0.163 HD
BRANCH   4   7
ATOM      7  C   UNL A   1      31.359  27.286  23.493  1.00  0.00     0.175 C 
BRANCH   7   8
ATOM      8  N   UNL A   1      30.873  26.944  24.834  1.00  0.00    -0.344 N 
ATOM      9  C   UNL A   1      30.888  25.737  25.476  1.00  0.00     0.221 C 
ATOM     10  O   UNL A   1      30.208  25.614  26.495  1.00  0.00    -0.275 OA
ATOM     11  H   UNL A   1      30.480  27.689  25.343  1.00  0.00     0.164 HD
BRANCH   9  12
ATOM     12  C   UNL A   1      31.772  24.592  24.992  1.00  0.00     0.116 C 
BRANCH  12  13
ATOM     13  C   UNL A   1      31.999  23.434  25.995  1.00  0.00     0.116 C 
ATOM     14  C   UNL A   1      33.515  22.445  27.806  1.00  0.00     0.014 C 
ATOM     15  C   UNL A   1      33.381  23.491  26.690  1.00  0.00     0.034 C 
ATOM     16  C   UNL A   1      34.454  23.291  25.645  1.00  0.00    -0.001 A 
ATOM     17  C   UNL A   1      35.729  23.850  25.773  1.00  0.00     0.011 A 
ATOM     18  C   UNL A   1      34.154  22.569  24.485  1.00  0.00     0.138 A 
ATOM     19  C   UNL A   1      31.963  22.081  25.326  1.00  0.00     0.315 C 
ATOM     20  C   UNL A   1      36.650  23.741  24.725  1.00  0.00     0.047 A 
ATOM     21  C   UNL A   1      35.043  22.485  23.420  1.00  0.00     0.093 A 
ATOM     22  O   UNL A   1      32.941  21.870  24.368  1.00  0.00    -0.426 OA
ATOM     23  O   UNL A   1      31.122  21.229  25.589  1.00  0.00    -0.251 OA
ATOM     24  C   UNL A   1      36.288  23.085  23.549  1.00  0.00     0.119 A 
BRANCH  24  25
ATOM     25  O   UNL A   1      37.143  23.003  22.490  1.00  0.00    -0.508 OA
ATOM     26  H   UNL A   1      38.067  23.072  22.629  1.00  0.00     0.293 HD
ENDBRANCH  24  25
ENDBRANCH  12  13
ENDBRANCH   9  12
ENDBRANCH   7   8
BRANCH   7  27
ATOM     27  C   UNL A   1      30.239  27.987  22.629  1.00  0.00     0.068 C 
BRANCH  27  28
ATOM     28  C   UNL A   1      29.277  29.040  23.185  1.00  0.00    -0.037 C 
ATOM     29  C   UNL A   1      29.382  30.354  22.883  1.00  0.00     0.001 A 
ATOM     30  C   UNL A   1      27.849  28.633  23.136  1.00  0.00     0.174 C 
ATOM     31  C   UNL A   1      29.007  31.498  23.739  1.00  0.00     0.010 A 
ATOM     32  C   UNL A   1      28.295  30.329  21.862  1.00  0.00     0.065 A 
ATOM     33  N   UNL A   1      27.364  29.447  22.008  1.00  0.00    -0.280 NA
ATOM     34  C   UNL A   1      28.456  32.587  23.151  1.00  0.00     0.001 A 
ATOM     35  C   UNL A   1      28.244  31.501  20.982  1.00  0.00     0.028 A 
ATOM     36  C   UNL A   1      28.306  32.639  21.694  1.00  0.00     0.002 A 
ENDBRANCH  27  28
ENDBRANCH   7  27
ENDBRANCH   4   7
ENDBRANCH   2   3
ENDBRANCH   1   2
BRANCH   1  37
ATOM     37  C   UNL A   1      34.303  29.646  27.400  1.00  0.00     0.002 C 
BRANCH  37  38
ATOM     38  C   UNL A   1      34.480  31.105  27.862  1.00  0.00     0.002 C 
BRANCH  38  39
ATOM     39  C   UNL A   1      33.256  31.999  28.064  1.00  0.00     0.021 C 
BRANCH  39  40
ATOM     40  C   UNL A   1      33.020  33.129  27.080  1.00  0.00     0.116 C 
BRANCH  40  41
ATOM     41  N   UNL A   1      32.611  34.362  27.726  1.00  0.00    -0.352 N 
ATOM     42  C   UNL A   1      33.104  34.988  28.852  1.00  0.00     0.251 C 
ATOM     43  H   UNL A   1      31.860  34.826  27.292  1.00  0.00     0.163 HD
ATOM     44  O   UNL A   1      32.533  35.957  29.312  1.00  0.00    -0.269 OA
BRANCH  42  45
ATOM     45  C   UNL A   1      34.314  34.456  29.528  1.00  0.00     0.039 A 
ATOM     46  C   UNL A   1      35.583  34.597  28.967  1.00  0.00     0.014 A 
ATOM     47  C   UNL A   1      34.163  33.807  30.757  1.00  0.00     0.014 A 
ATOM     48  C   UNL A   1      36.671  33.944  29.543  1.00  0.00     0.010 A 
ATOM     49  C   UNL A   1      35.271  33.219  31.377  1.00  0.00     0.010 A 
ATOM     50  C   UNL A   1      36.525  33.239  30.749  1.00  0.00    -0.014 A 
BRANCH  50  51
ATOM     51  C   UNL A   1      37.692  32.524  31.333  1.00  0.00     0.031 A 
ATOM     52  C   UNL A   1      38.356  31.400  30.582  1.00  0.00     0.074 A 
ATOM     53  C   UNL A   1      38.184  32.921  32.522  1.00  0.00     0.049 A 
ATOM     54  N   UNL A   1      39.380  30.663  30.935  1.00  0.00    -0.248 NA
ATOM     55  C   UNL A   1      37.800  31.058  29.263  1.00  0.00     0.031 C 
ATOM     56  C   UNL A   1      37.638  34.009  33.335  1.00  0.00     0.029 A 
ATOM     57  N   UNL A   1      39.260  32.472  33.245  1.00  0.00    -0.354 N 
ATOM     58  C   UNL A   1      39.581  29.765  29.894  1.00  0.00     0.074 A 
ATOM     59  C   UNL A   1      38.555  30.027  28.907  1.00  0.00     0.031 C 
ATOM     60  C   UNL A   1      38.409  34.174  34.420  1.00  0.00     0.029 A 
ATOM     61  C   UNL A   1      39.463  33.165  34.414  1.00  0.00     0.049 A 
ATOM     62  H   UNL A   1      39.832  31.727  32.954  1.00  0.00     0.167 HD
ATOM     63  C   UNL A   1      40.543  28.819  29.768  1.00  0.00     0.037 A 
ATOM     64  C   UNL A   1      40.383  32.997  35.382  1.00  0.00     0.037 A 
ATOM     65  C   UNL A   1      41.572  28.572  30.745  1.00  0.00     0.049 A 
ATOM     66  C   UNL A   1      41.406  31.905  35.241  1.00  0.00     0.074 A 
ATOM     67  C   UNL A   1      42.594  27.639  30.703  1.00  0.00     0.029 A 
ATOM     68  N   UNL A   1      41.713  29.263  31.940  1.00  0.00    -0.354 N 
ATOM     69  N   UNL A   1      41.583  31.062  34.252  1.00  0.00    -0.248 NA
ATOM     70  C   UNL A   1      42.354  31.738  36.350  1.00  0.00     0.031 C 
ATOM     71  C   UNL A   1      43.325  27.735  31.891  1.00  0.00     0.029 A 
ATOM     72  C   UNL A   1      42.795  28.766  32.649  1.00  0.00     0.049 A 
ATOM     73  H   UNL A   1      41.130  29.998  32.239  1.00  0.00     0.167 HD
ATOM     74  C   UNL A   1      42.673  30.281  34.608  1.00  0.00     0.074 A 
ATOM     75  C   UNL A   1      43.127  30.761  35.896  1.00  0.00     0.031 C 
ATOM     76  C   UNL A   1      43.244  29.259  33.926  1.00  0.00     0.037 A 
BRANCH  63  77
ATOM     77  C   UNL A   1      40.537  27.968  28.530  1.00  0.00     0.064 A 
ATOM     78  C   UNL A   1      41.291  28.312  27.398  1.00  0.00     0.173 A 
ATOM     79  C   UNL A   1      39.840  26.749  28.508  1.00  0.00     0.173 A 
ATOM     80  F   UNL A   1      41.968  29.470  27.364  1.00  0.00    -0.203 F 
ATOM     81  C   UNL A   1      41.339  27.474  26.287  1.00  0.00     0.198 A 
ATOM     82  C   UNL A   1      39.913  25.901  27.406  1.00  0.00     0.198 A 
ATOM     83  F   UNL A   1      39.110  26.368  29.566  1.00  0.00    -0.203 F 
ATOM     84  F   UNL A   1      42.044  27.836  25.206  1.00  0.00    -0.200 F 
ATOM     85  C   UNL A   1      40.660  26.264  26.296  1.00  0.00     0.200 A 
ATOM     86  F   UNL A   1      39.269  24.725  27.423  1.00  0.00    -0.200 F 
ATOM     87  F   UNL A   1      40.726  25.449  25.234  1.00  0.00    -0.200 F 
ENDBRANCH  63  77
BRANCH  64  88
ATOM     88  C   UNL A   1      40.375  33.897  36.563  1.00  0.00     0.064 A 
ATOM     89  C   UNL A   1      41.089  35.103  36.553  1.00  0.00     0.173 A 
ATOM     90  C   UNL A   1      39.630  33.588  37.712  1.00  0.00     0.173 A 
ATOM     91  F   UNL A   1      41.833  35.432  35.487  1.00  0.00    -0.203 F 
ATOM     92  C   UNL A   1      41.061  35.964  37.649  1.00  0.00     0.198 A 
ATOM     93  C   UNL A   1      39.578  34.465  38.793  1.00  0.00     0.198 A 
ATOM     94  F   UNL A   1      38.928  32.447  37.770  1.00  0.00    -0.203 F 
ATOM     95  F   UNL A   1      41.777  37.096  37.626  1.00  0.00    -0.200 F 
ATOM     96  C   UNL A   1      40.297  35.649  38.763  1.00  0.00     0.200 A 
ATOM     97  F   UNL A   1      38.824  34.164  39.860  1.00  0.00    -0.200 F 
ATOM     98  F   UNL A   1      40.257  36.486  39.809  1.00  0.00    -0.200 F 
ENDBRANCH  64  88
BRANCH  76  99
ATOM     99  C   UNL A   1      44.449  28.606  34.538  1.00  0.00     0.064 A 
ATOM    100  C   UNL A   1      44.338  27.471  35.354  1.00  0.00     0.173 A 
ATOM    101  C   UNL A   1      45.736  29.088  34.252  1.00  0.00     0.173 A 
ATOM    102  F   UNL A   1      43.129  26.980  35.666  1.00  0.00    -0.203 F 
ATOM    103  C   UNL A   1      45.471  26.855  35.879  1.00  0.00     0.198 A 
ATOM    104  C   UNL A   1      46.867  28.451  34.755  1.00  0.00     0.198 A 
ATOM    105  F   UNL A   1      45.898  30.165  33.470  1.00  0.00    -0.203 F 
ATOM    106  F   UNL A   1      45.340  25.796  36.690  1.00  0.00    -0.200 F 
ATOM    107  C   UNL A   1      46.733  27.339  35.571  1.00  0.00     0.200 A 
ATOM    108  F   UNL A   1      48.087  28.911  34.444  1.00  0.00    -0.200 F 
ATOM    109  F   UNL A   1      47.823  26.736  36.067  1.00  0.00    -0.200 F 
ENDBRANCH  76  99
ENDBRANCH  50  51
ENDBRANCH  42  45
ENDBRANCH  40  41
ENDBRANCH  39  40
ENDBRANCH  38  39
ENDBRANCH  37  38
ENDBRANCH   1  37
TORSDOF 19
ENDMDL
