MODEL 1
REMARK VINA RESULT:     -12.9      0.000      0.000
REMARK SMILES O=C(NCCCCCCNC(=O)c1ccsc1NC(=O)c1cc2c(F)cccc2s1)c1ccc(-c2c3nc(c(-c4c(F)c(F)c(F)c(F)c4F)c4ccc([nH]4)c(-c4c(F)c(F)c(F)c(F)c4F)c4nc(c(-c5c(F)c(F)c(F)c(F)c5F)c5ccc2[nH]5)C=C4)C=C3)cc1
REMARK SMILES IDX 6 1 5 2 4 3 3 4 1 5 2 6 31 8 32 9 93 10 33 11 92 12 34 13
REMARK SMILES IDX 35 14 36 15 86 16 37 17 91 18 85 19 87 20 38 21 90 22 84 23
REMARK SMILES IDX 83 24 39 26 71 27 51 28 70 29 52 30 55 31 69 32 88 33 53 34
REMARK SMILES IDX 54 35 68 37 89 38 56 39 40 40 41 41 49 42 42 43 43 44 47 45
REMARK SMILES IDX 50 46 44 47 45 48 48 49 46 50 72 51 73 52 81 53 74 54 75 55
REMARK SMILES IDX 79 56 82 57 76 58 77 59 80 60 78 61 57 62 58 63 66 64 59 65
REMARK SMILES IDX 60 66 64 67 67 68 61 69 62 70 65 71 63 72 7 73 8 74 9 75
REMARK SMILES IDX 10 76 11 77 12 79 13 80 14 81 17 82 15 83 16 84 18 85 19 86
REMARK SMILES IDX 20 88 21 89 22 90 30 91 23 92 29 93 24 94 28 95 25 96 26 97
REMARK SMILES IDX 27 98
REMARK H PARENT 3 7 87 25 55 36 10 78 18 87
REMARK Flexibility Score: inf
ROOT
ATOM      1  C   UNL A   1      40.981  21.028  27.342  1.00  0.00     0.002 C 
ENDROOT
BRANCH   1   2
ATOM      2  C   UNL A   1      41.200  19.955  26.271  1.00  0.00     0.021 C 
BRANCH   2   3
ATOM      3  C   UNL A   1      42.586  19.308  26.300  1.00  0.00     0.116 C 
BRANCH   3   4
ATOM      4  N   UNL A   1      43.450  19.680  25.198  1.00  0.00    -0.352 N 
ATOM      5  O   UNL A   1      44.859  20.785  23.880  1.00  0.00    -0.269 OA
ATOM      6  C   UNL A   1      44.105  20.832  24.853  1.00  0.00     0.251 C 
ATOM      7  H   UNL A   1      43.596  18.946  24.559  1.00  0.00     0.163 HD
BRANCH   6   8
ATOM      8  C   UNL A   1      43.898  22.138  25.532  1.00  0.00     0.039 A 
ATOM      9  C   UNL A   1      44.481  22.503  26.742  1.00  0.00     0.014 A 
ATOM     10  C   UNL A   1      43.044  23.052  24.886  1.00  0.00     0.014 A 
ATOM     11  C   UNL A   1      44.128  23.695  27.357  1.00  0.00     0.010 A 
ATOM     12  C   UNL A   1      42.720  24.271  25.477  1.00  0.00     0.010 A 
ATOM     13  C   UNL A   1      43.238  24.572  26.732  1.00  0.00    -0.014 A 
BRANCH  13  14
ATOM     14  C   UNL A   1      43.038  25.863  27.379  1.00  0.00     0.031 A 
ATOM     15  C   UNL A   1      44.066  26.890  27.045  1.00  0.00     0.074 A 
ATOM     16  C   UNL A   1      41.986  26.172  28.159  1.00  0.00     0.049 A 
ATOM     17  N   UNL A   1      44.876  27.507  27.844  1.00  0.00    -0.248 NA
ATOM     18  C   UNL A   1      44.275  27.197  25.622  1.00  0.00     0.031 C 
ATOM     19  C   UNL A   1      40.754  25.408  28.360  1.00  0.00     0.029 A 
ATOM     20  N   UNL A   1      41.772  27.310  28.881  1.00  0.00    -0.354 N 
ATOM     21  C   UNL A   1      45.594  28.396  27.048  1.00  0.00     0.074 A 
ATOM     22  C   UNL A   1      45.270  28.082  25.681  1.00  0.00     0.031 C 
ATOM     23  C   UNL A   1      39.844  26.193  28.981  1.00  0.00     0.029 A 
ATOM     24  C   UNL A   1      40.471  27.456  29.334  1.00  0.00     0.049 A 
ATOM     25  H   UNL A   1      42.480  27.970  29.064  1.00  0.00     0.167 HD
ATOM     26  C   UNL A   1      46.250  29.464  27.580  1.00  0.00     0.037 A 
ATOM     27  C   UNL A   1      39.936  28.569  29.892  1.00  0.00     0.037 A 
ATOM     28  C   UNL A   1      46.537  29.268  28.975  1.00  0.00     0.049 A 
ATOM     29  C   UNL A   1      41.053  29.400  30.404  1.00  0.00     0.074 A 
ATOM     30  C   UNL A   1      47.280  28.360  29.703  1.00  0.00     0.029 A 
ATOM     31  N   UNL A   1      45.764  29.932  29.893  1.00  0.00    -0.354 N 
ATOM     32  N   UNL A   1      41.806  29.084  31.420  1.00  0.00    -0.248 NA
ATOM     33  C   UNL A   1      41.569  30.459  29.549  1.00  0.00     0.031 C 
ATOM     34  C   UNL A   1      46.578  28.204  30.935  1.00  0.00     0.029 A 
ATOM     35  C   UNL A   1      45.466  29.045  30.892  1.00  0.00     0.049 A 
ATOM     36  H   UNL A   1      45.477  30.871  29.843  1.00  0.00     0.167 HD
ATOM     37  C   UNL A   1      43.054  29.594  31.102  1.00  0.00     0.074 A 
ATOM     38  C   UNL A   1      42.818  30.532  30.012  1.00  0.00     0.031 C 
ATOM     39  C   UNL A   1      44.191  29.000  31.566  1.00  0.00     0.037 A 
BRANCH  26  40
ATOM     40  C   UNL A   1      46.300  30.829  26.931  1.00  0.00     0.064 A 
ATOM     41  C   UNL A   1      47.531  31.515  26.864  1.00  0.00     0.173 A 
ATOM     42  C   UNL A   1      45.155  31.612  26.668  1.00  0.00     0.173 A 
ATOM     43  F   UNL A   1      48.685  30.877  27.113  1.00  0.00    -0.203 F 
ATOM     44  C   UNL A   1      47.598  32.893  26.644  1.00  0.00     0.198 A 
ATOM     45  C   UNL A   1      45.230  32.977  26.395  1.00  0.00     0.198 A 
ATOM     46  F   UNL A   1      43.915  31.123  26.776  1.00  0.00    -0.203 F 
ATOM     47  F   UNL A   1      48.777  33.524  26.727  1.00  0.00    -0.200 F 
ATOM     48  C   UNL A   1      46.447  33.624  26.418  1.00  0.00     0.200 A 
ATOM     49  F   UNL A   1      44.101  33.671  26.196  1.00  0.00    -0.200 F 
ATOM     50  F   UNL A   1      46.501  34.955  26.275  1.00  0.00    -0.200 F 
ENDBRANCH  26  40
BRANCH  27  51
ATOM     51  C   UNL A   1      38.562  29.106  29.747  1.00  0.00     0.064 A 
ATOM     52  C   UNL A   1      37.734  29.280  30.869  1.00  0.00     0.173 A 
ATOM     53  C   UNL A   1      38.141  29.732  28.557  1.00  0.00     0.173 A 
ATOM     54  F   UNL A   1      38.082  28.752  32.052  1.00  0.00    -0.203 F 
ATOM     55  C   UNL A   1      36.578  30.064  30.813  1.00  0.00     0.198 A 
ATOM     56  C   UNL A   1      36.980  30.505  28.500  1.00  0.00     0.198 A 
ATOM     57  F   UNL A   1      38.896  29.692  27.451  1.00  0.00    -0.203 F 
ATOM     58  F   UNL A   1      35.856  30.269  31.924  1.00  0.00    -0.200 F 
ATOM     59  C   UNL A   1      36.209  30.685  29.632  1.00  0.00     0.200 A 
ATOM     60  F   UNL A   1      36.654  31.128  27.359  1.00  0.00    -0.200 F 
ATOM     61  F   UNL A   1      35.139  31.492  29.595  1.00  0.00    -0.200 F 
ENDBRANCH  27  51
BRANCH  39  62
ATOM     62  C   UNL A   1      44.061  28.016  32.690  1.00  0.00     0.064 A 
ATOM     63  C   UNL A   1      43.898  26.632  32.507  1.00  0.00     0.173 A 
ATOM     64  C   UNL A   1      44.273  28.476  33.997  1.00  0.00     0.173 A 
ATOM     65  F   UNL A   1      43.789  26.107  31.279  1.00  0.00    -0.203 F 
ATOM     66  C   UNL A   1      43.915  25.757  33.590  1.00  0.00     0.198 A 
ATOM     67  C   UNL A   1      44.325  27.595  35.073  1.00  0.00     0.198 A 
ATOM     68  F   UNL A   1      44.490  29.782  34.224  1.00  0.00    -0.203 F 
ATOM     69  F   UNL A   1      43.757  24.439  33.393  1.00  0.00    -0.200 F 
ATOM     70  C   UNL A   1      44.139  26.237  34.870  1.00  0.00     0.200 A 
ATOM     71  F   UNL A   1      44.595  28.058  36.301  1.00  0.00    -0.200 F 
ATOM     72  F   UNL A   1      44.210  25.388  35.905  1.00  0.00    -0.200 F 
ENDBRANCH  39  62
ENDBRANCH  13  14
ENDBRANCH   6   8
ENDBRANCH   3   4
ENDBRANCH   2   3
ENDBRANCH   1   2
BRANCH   1  73
ATOM     73  C   UNL A   1      40.048  22.177  26.940  1.00  0.00     0.002 C 
BRANCH  73  74
ATOM     74  C   UNL A   1      38.827  21.763  26.115  1.00  0.00     0.021 C 
BRANCH  74  75
ATOM     75  C   UNL A   1      37.851  22.901  25.832  1.00  0.00     0.116 C 
BRANCH  75  76
ATOM     76  N   UNL A   1      37.646  23.087  24.402  1.00  0.00    -0.352 N 
ATOM     77  C   UNL A   1      36.458  23.233  23.722  1.00  0.00     0.254 C 
ATOM     78  H   UNL A   1      38.462  23.112  23.851  1.00  0.00     0.163 HD
ATOM     79  O   UNL A   1      36.411  23.061  22.512  1.00  0.00    -0.269 OA
BRANCH  77  80
ATOM     80  C   UNL A   1      35.282  23.550  24.515  1.00  0.00     0.074 A 
ATOM     81  C   UNL A   1      35.171  23.328  25.938  1.00  0.00     0.028 A 
ATOM     82  C   UNL A   1      34.138  24.147  24.003  1.00  0.00     0.108 A 
ATOM     83  C   UNL A   1      33.894  23.513  26.396  1.00  0.00     0.068 A 
ATOM     84  S   UNL A   1      32.883  23.993  25.132  1.00  0.00    -0.126 S 
BRANCH  82  85
ATOM     85  N   UNL A   1      33.943  24.656  22.720  1.00  0.00    -0.312 N 
ATOM     86  C   UNL A   1      33.359  25.828  22.240  1.00  0.00     0.266 C 
ATOM     87  H   UNL A   1      34.288  24.070  22.008  1.00  0.00     0.171 HD
ATOM     88  O   UNL A   1      33.241  25.949  21.019  1.00  0.00    -0.268 OA
BRANCH  86  89
ATOM     89  C   UNL A   1      33.013  26.891  23.151  1.00  0.00     0.094 A 
ATOM     90  C   UNL A   1      33.843  27.746  23.851  1.00  0.00     0.037 A 
ATOM     91  S   UNL A   1      31.376  27.244  23.514  1.00  0.00    -0.130 S 
ATOM     92  C   UNL A   1      33.208  28.139  25.083  1.00  0.00     0.029 A 
ATOM     93  C   UNL A   1      31.868  27.735  25.102  1.00  0.00     0.038 A 
ATOM     94  C   UNL A   1      33.758  28.648  26.277  1.00  0.00     0.131 A 
ATOM     95  C   UNL A   1      31.131  27.663  26.299  1.00  0.00     0.020 A 
ATOM     96  F   UNL A   1      35.016  29.111  26.299  1.00  0.00    -0.206 F 
ATOM     97  C   UNL A   1      33.064  28.521  27.480  1.00  0.00     0.040 A 
ATOM     98  C   UNL A   1      31.781  27.983  27.494  1.00  0.00     0.005 A 
ENDBRANCH  86  89
ENDBRANCH  82  85
ENDBRANCH  77  80
ENDBRANCH  75  76
ENDBRANCH  74  75
ENDBRANCH  73  74
ENDBRANCH   1  73
TORSDOF 15
ENDMDL
MODEL 2
REMARK VINA RESULT:     -12.8      2.912      8.622
REMARK SMILES O=C(NCCCCCCNC(=O)c1ccsc1NC(=O)c1cc2c(F)cccc2s1)c1ccc(-c2c3nc(c(-c4c(F)c(F)c(F)c(F)c4F)c4ccc([nH]4)c(-c4c(F)c(F)c(F)c(F)c4F)c4nc(c(-c5c(F)c(F)c(F)c(F)c5F)c5ccc2[nH]5)C=C4)C=C3)cc1
REMARK SMILES IDX 6 1 5 2 4 3 3 4 1 5 2 6 31 8 32 9 93 10 33 11 92 12 34 13
REMARK SMILES IDX 35 14 36 15 86 16 37 17 91 18 85 19 87 20 38 21 90 22 84 23
REMARK SMILES IDX 83 24 39 26 71 27 51 28 70 29 52 30 55 31 69 32 88 33 53 34
REMARK SMILES IDX 54 35 68 37 89 38 56 39 40 40 41 41 49 42 42 43 43 44 47 45
REMARK SMILES IDX 50 46 44 47 45 48 48 49 46 50 72 51 73 52 81 53 74 54 75 55
REMARK SMILES IDX 79 56 82 57 76 58 77 59 80 60 78 61 57 62 58 63 66 64 59 65
REMARK SMILES IDX 60 66 64 67 67 68 61 69 62 70 65 71 63 72 7 73 8 74 9 75
REMARK SMILES IDX 10 76 11 77 12 79 13 80 14 81 17 82 15 83 16 84 18 85 19 86
REMARK SMILES IDX 20 88 21 89 22 90 30 91 23 92 29 93 24 94 28 95 25 96 26 97
REMARK SMILES IDX 27 98
REMARK H PARENT 3 7 87 25 55 36 10 78 18 87
REMARK Flexibility Score: inf
ROOT
ATOM      1  C   UNL A   1      35.746  30.719  27.409  1.00  0.00     0.002 C 
ENDROOT
BRANCH   1   2
ATOM      2  C   UNL A   1      34.511  31.595  27.639  1.00  0.00     0.021 C 
BRANCH   2   3
ATOM      3  C   UNL A   1      34.783  32.871  28.438  1.00  0.00     0.116 C 
BRANCH   3   4
ATOM      4  N   UNL A   1      34.515  32.763  29.858  1.00  0.00    -0.352 N 
ATOM      5  O   UNL A   1      34.738  32.427  32.045  1.00  0.00    -0.269 OA
ATOM      6  C   UNL A   1      35.224  32.274  30.923  1.00  0.00     0.251 C 
ATOM      7  H   UNL A   1      33.632  33.117  30.112  1.00  0.00     0.163 HD
BRANCH   6   8
ATOM      8  C   UNL A   1      36.491  31.509  30.793  1.00  0.00     0.039 A 
ATOM      9  C   UNL A   1      37.749  32.082  30.627  1.00  0.00     0.014 A 
ATOM     10  C   UNL A   1      36.385  30.106  30.840  1.00  0.00     0.014 A 
ATOM     11  C   UNL A   1      38.857  31.282  30.390  1.00  0.00     0.010 A 
ATOM     12  C   UNL A   1      37.501  29.295  30.647  1.00  0.00     0.010 A 
ATOM     13  C   UNL A   1      38.731  29.890  30.387  1.00  0.00    -0.014 A 
BRANCH  13  14
ATOM     14  C   UNL A   1      39.969  29.127  30.275  1.00  0.00     0.031 A 
ATOM     15  C   UNL A   1      40.720  28.975  31.554  1.00  0.00     0.074 A 
ATOM     16  C   UNL A   1      40.397  28.526  29.150  1.00  0.00     0.049 A 
ATOM     17  N   UNL A   1      41.919  29.372  31.834  1.00  0.00    -0.248 NA
ATOM     18  C   UNL A   1      40.000  28.384  32.693  1.00  0.00     0.031 C 
ATOM     19  C   UNL A   1      39.666  28.322  27.900  1.00  0.00     0.029 A 
ATOM     20  N   UNL A   1      41.582  27.885  28.932  1.00  0.00    -0.354 N 
ATOM     21  C   UNL A   1      42.169  28.945  33.136  1.00  0.00     0.074 A 
ATOM     22  C   UNL A   1      40.920  28.450  33.655  1.00  0.00     0.031 C 
ATOM     23  C   UNL A   1      40.341  27.434  27.134  1.00  0.00     0.029 A 
ATOM     24  C   UNL A   1      41.603  27.115  27.780  1.00  0.00     0.049 A 
ATOM     25  H   UNL A   1      42.353  27.963  29.539  1.00  0.00     0.167 HD
ATOM     26  C   UNL A   1      43.435  28.841  33.626  1.00  0.00     0.037 A 
ATOM     27  C   UNL A   1      42.562  26.224  27.429  1.00  0.00     0.037 A 
ATOM     28  C   UNL A   1      44.356  29.665  32.891  1.00  0.00     0.049 A 
ATOM     29  C   UNL A   1      43.796  26.569  28.176  1.00  0.00     0.074 A 
ATOM     30  C   UNL A   1      44.482  31.019  32.656  1.00  0.00     0.029 A 
ATOM     31  N   UNL A   1      45.197  29.055  31.996  1.00  0.00    -0.354 N 
ATOM     32  N   UNL A   1      44.515  27.636  27.967  1.00  0.00    -0.248 NA
ATOM     33  C   UNL A   1      44.056  25.876  29.430  1.00  0.00     0.031 C 
ATOM     34  C   UNL A   1      45.022  31.122  31.340  1.00  0.00     0.029 A 
ATOM     35  C   UNL A   1      45.215  29.824  30.865  1.00  0.00     0.049 A 
ATOM     36  H   UNL A   1      45.695  28.219  32.141  1.00  0.00     0.167 HD
ATOM     37  C   UNL A   1      45.003  27.980  29.217  1.00  0.00     0.074 A 
ATOM     38  C   UNL A   1      44.796  26.799  30.046  1.00  0.00     0.031 C 
ATOM     39  C   UNL A   1      45.271  29.280  29.529  1.00  0.00     0.037 A 
BRANCH  26  40
ATOM     40  C   UNL A   1      43.900  27.718  34.525  1.00  0.00     0.064 A 
ATOM     41  C   UNL A   1      43.816  26.387  34.064  1.00  0.00     0.173 A 
ATOM     42  C   UNL A   1      44.117  27.865  35.912  1.00  0.00     0.173 A 
ATOM     43  F   UNL A   1      43.593  26.124  32.766  1.00  0.00    -0.203 F 
ATOM     44  C   UNL A   1      43.853  25.298  34.938  1.00  0.00     0.198 A 
ATOM     45  C   UNL A   1      44.208  26.773  36.774  1.00  0.00     0.198 A 
ATOM     46  F   UNL A   1      44.136  29.062  36.509  1.00  0.00    -0.203 F 
ATOM     47  F   UNL A   1      43.629  24.062  34.471  1.00  0.00    -0.200 F 
ATOM     48  C   UNL A   1      44.040  25.492  36.293  1.00  0.00     0.200 A 
ATOM     49  F   UNL A   1      44.372  26.984  38.087  1.00  0.00    -0.200 F 
ATOM     50  F   UNL A   1      44.007  24.456  37.142  1.00  0.00    -0.200 F 
ENDBRANCH  26  40
BRANCH  27  51
ATOM     51  C   UNL A   1      42.405  24.925  26.731  1.00  0.00     0.064 A 
ATOM     52  C   UNL A   1      43.084  24.668  25.528  1.00  0.00     0.173 A 
ATOM     53  C   UNL A   1      41.829  23.812  27.373  1.00  0.00     0.173 A 
ATOM     54  F   UNL A   1      43.697  25.665  24.872  1.00  0.00    -0.203 F 
ATOM     55  C   UNL A   1      43.211  23.372  25.019  1.00  0.00     0.198 A 
ATOM     56  C   UNL A   1      41.947  22.520  26.859  1.00  0.00     0.198 A 
ATOM     57  F   UNL A   1      41.227  23.937  28.564  1.00  0.00    -0.203 F 
ATOM     58  F   UNL A   1      43.931  23.157  23.909  1.00  0.00    -0.200 F 
ATOM     59  C   UNL A   1      42.653  22.298  25.692  1.00  0.00     0.200 A 
ATOM     60  F   UNL A   1      41.431  21.486  27.539  1.00  0.00    -0.200 F 
ATOM     61  F   UNL A   1      42.833  21.048  25.243  1.00  0.00    -0.200 F 
ENDBRANCH  27  51
BRANCH  39  62
ATOM     62  C   UNL A   1      45.362  30.268  28.405  1.00  0.00     0.064 A 
ATOM     63  C   UNL A   1      44.259  30.965  27.882  1.00  0.00     0.173 A 
ATOM     64  C   UNL A   1      46.636  30.641  27.955  1.00  0.00     0.173 A 
ATOM     65  F   UNL A   1      43.019  30.734  28.334  1.00  0.00    -0.203 F 
ATOM     66  C   UNL A   1      44.428  31.965  26.927  1.00  0.00     0.198 A 
ATOM     67  C   UNL A   1      46.804  31.665  27.029  1.00  0.00     0.198 A 
ATOM     68  F   UNL A   1      47.728  30.047  28.463  1.00  0.00    -0.203 F 
ATOM     69  F   UNL A   1      43.361  32.617  26.441  1.00  0.00    -0.200 F 
ATOM     70  C   UNL A   1      45.699  32.321  26.510  1.00  0.00     0.200 A 
ATOM     71  F   UNL A   1      48.038  32.042  26.668  1.00  0.00    -0.200 F 
ATOM     72  F   UNL A   1      45.864  33.322  25.632  1.00  0.00    -0.200 F 
ENDBRANCH  39  62
ENDBRANCH  13  14
ENDBRANCH   6   8
ENDBRANCH   3   4
ENDBRANCH   2   3
ENDBRANCH   1   2
BRANCH   1  73
ATOM     73  C   UNL A   1      35.468  29.219  27.255  1.00  0.00     0.002 C 
BRANCH  73  74
ATOM     74  C   UNL A   1      33.988  28.832  27.235  1.00  0.00     0.021 C 
BRANCH  74  75
ATOM     75  C   UNL A   1      33.562  28.059  25.991  1.00  0.00     0.116 C 
BRANCH  75  76
ATOM     76  N   UNL A   1      34.164  28.611  24.785  1.00  0.00    -0.352 N 
ATOM     77  C   UNL A   1      33.606  28.736  23.532  1.00  0.00     0.254 C 
ATOM     78  H   UNL A   1      35.088  28.937  24.877  1.00  0.00     0.163 HD
ATOM     79  O   UNL A   1      34.315  28.915  22.552  1.00  0.00    -0.269 OA
BRANCH  77  80
ATOM     80  C   UNL A   1      32.162  28.599  23.441  1.00  0.00     0.074 A 
ATOM     81  C   UNL A   1      31.216  29.383  24.201  1.00  0.00     0.028 A 
ATOM     82  C   UNL A   1      31.517  27.726  22.575  1.00  0.00     0.108 A 
ATOM     83  C   UNL A   1      29.936  28.910  24.086  1.00  0.00     0.068 A 
ATOM     84  S   UNL A   1      29.893  27.588  23.038  1.00  0.00    -0.126 S 
BRANCH  82  85
ATOM     85  N   UNL A   1      32.090  26.939  21.577  1.00  0.00    -0.312 N 
ATOM     86  C   UNL A   1      32.855  25.773  21.605  1.00  0.00     0.266 C 
ATOM     87  H   UNL A   1      31.920  27.274  20.666  1.00  0.00     0.171 HD
ATOM     88  O   UNL A   1      33.313  25.364  20.537  1.00  0.00    -0.268 OA
BRANCH  86  89
ATOM     89  C   UNL A   1      33.001  25.033  22.835  1.00  0.00     0.094 A 
ATOM     90  C   UNL A   1      34.014  25.088  23.773  1.00  0.00     0.037 A 
ATOM     91  S   UNL A   1      31.827  23.880  23.314  1.00  0.00    -0.130 S 
ATOM     92  C   UNL A   1      34.150  23.806  24.417  1.00  0.00     0.029 A 
ATOM     93  C   UNL A   1      33.085  22.964  24.077  1.00  0.00     0.038 A 
ATOM     94  C   UNL A   1      35.235  23.244  25.120  1.00  0.00     0.131 A 
ATOM     95  C   UNL A   1      33.153  21.571  24.262  1.00  0.00     0.020 A 
ATOM     96  F   UNL A   1      36.250  24.018  25.529  1.00  0.00    -0.206 F 
ATOM     97  C   UNL A   1      35.344  21.860  25.250  1.00  0.00     0.040 A 
ATOM     98  C   UNL A   1      34.334  21.030  24.776  1.00  0.00     0.005 A 
ENDBRANCH  86  89
ENDBRANCH  82  85
ENDBRANCH  77  80
ENDBRANCH  75  76
ENDBRANCH  74  75
ENDBRANCH  73  74
ENDBRANCH   1  73
TORSDOF 15
ENDMDL
MODEL 3
REMARK VINA RESULT:     -12.8      2.956      4.309
REMARK SMILES O=C(NCCCCCCNC(=O)c1ccsc1NC(=O)c1cc2c(F)cccc2s1)c1ccc(-c2c3nc(c(-c4c(F)c(F)c(F)c(F)c4F)c4ccc([nH]4)c(-c4c(F)c(F)c(F)c(F)c4F)c4nc(c(-c5c(F)c(F)c(F)c(F)c5F)c5ccc2[nH]5)C=C4)C=C3)cc1
REMARK SMILES IDX 6 1 5 2 4 3 3 4 1 5 2 6 31 8 32 9 93 10 33 11 92 12 34 13
REMARK SMILES IDX 35 14 36 15 86 16 37 17 91 18 85 19 87 20 38 21 90 22 84 23
REMARK SMILES IDX 83 24 39 26 71 27 51 28 70 29 52 30 55 31 69 32 88 33 53 34
REMARK SMILES IDX 54 35 68 37 89 38 56 39 40 40 41 41 49 42 42 43 43 44 47 45
REMARK SMILES IDX 50 46 44 47 45 48 48 49 46 50 72 51 73 52 81 53 74 54 75 55
REMARK SMILES IDX 79 56 82 57 76 58 77 59 80 60 78 61 57 62 58 63 66 64 59 65
REMARK SMILES IDX 60 66 64 67 67 68 61 69 62 70 65 71 63 72 7 73 8 74 9 75
REMARK SMILES IDX 10 76 11 77 12 79 13 80 14 81 17 82 15 83 16 84 18 85 19 86
REMARK SMILES IDX 20 88 21 89 22 90 30 91 23 92 29 93 24 94 28 95 25 96 26 97
REMARK SMILES IDX 27 98
REMARK H PARENT 3 7 87 25 55 36 10 78 18 87
REMARK Flexibility Score: inf
ROOT
ATOM      1  C   UNL A   1      38.160  23.604  26.147  1.00  0.00     0.002 C 
ENDROOT
BRANCH   1   2
ATOM      2  C   UNL A   1      38.781  22.206  26.069  1.00  0.00     0.021 C 
BRANCH   2   3
ATOM      3  C   UNL A   1      40.151  22.086  26.739  1.00  0.00     0.116 C 
BRANCH   3   4
ATOM      4  N   UNL A   1      41.276  22.359  25.867  1.00  0.00    -0.352 N 
ATOM      5  O   UNL A   1      43.079  23.280  24.948  1.00  0.00    -0.269 OA
ATOM      6  C   UNL A   1      42.148  23.407  25.745  1.00  0.00     0.251 C 
ATOM      7  H   UNL A   1      41.450  21.635  25.225  1.00  0.00     0.163 HD
BRANCH   6   8
ATOM      8  C   UNL A   1      41.988  24.705  26.452  1.00  0.00     0.039 A 
ATOM      9  C   UNL A   1      42.560  25.011  27.683  1.00  0.00     0.014 A 
ATOM     10  C   UNL A   1      41.195  25.676  25.812  1.00  0.00     0.014 A 
ATOM     11  C   UNL A   1      42.252  26.203  28.322  1.00  0.00     0.010 A 
ATOM     12  C   UNL A   1      40.916  26.894  26.427  1.00  0.00     0.010 A 
ATOM     13  C   UNL A   1      41.420  27.138  27.700  1.00  0.00    -0.014 A 
BRANCH  13  14
ATOM     14  C   UNL A   1      41.267  28.421  28.376  1.00  0.00     0.031 A 
ATOM     15  C   UNL A   1      42.377  29.386  28.131  1.00  0.00     0.074 A 
ATOM     16  C   UNL A   1      40.194  28.777  29.106  1.00  0.00     0.049 A 
ATOM     17  N   UNL A   1      43.178  29.925  28.993  1.00  0.00    -0.248 NA
ATOM     18  C   UNL A   1      42.686  29.718  26.732  1.00  0.00     0.031 C 
ATOM     19  C   UNL A   1      38.907  28.092  29.214  1.00  0.00     0.029 A 
ATOM     20  N   UNL A   1      40.014  29.906  29.851  1.00  0.00    -0.354 N 
ATOM     21  C   UNL A   1      43.997  30.787  28.266  1.00  0.00     0.074 A 
ATOM     22  C   UNL A   1      43.731  30.533  26.874  1.00  0.00     0.031 C 
ATOM     23  C   UNL A   1      38.016  28.918  29.809  1.00  0.00     0.029 A 
ATOM     24  C   UNL A   1      38.702  30.126  30.236  1.00  0.00     0.049 A 
ATOM     25  H   UNL A   1      40.752  30.512  30.093  1.00  0.00     0.167 HD
ATOM     26  C   UNL A   1      44.690  31.793  28.867  1.00  0.00     0.037 A 
ATOM     27  C   UNL A   1      38.209  31.256  30.799  1.00  0.00     0.037 A 
ATOM     28  C   UNL A   1      44.883  31.540  30.269  1.00  0.00     0.049 A 
ATOM     29  C   UNL A   1      39.347  31.997  31.397  1.00  0.00     0.074 A 
ATOM     30  C   UNL A   1      45.523  30.564  31.007  1.00  0.00     0.029 A 
ATOM     31  N   UNL A   1      44.104  32.227  31.163  1.00  0.00    -0.354 N 
ATOM     32  N   UNL A   1      40.018  31.603  32.443  1.00  0.00    -0.248 NA
ATOM     33  C   UNL A   1      39.978  33.042  30.606  1.00  0.00     0.031 C 
ATOM     34  C   UNL A   1      44.744  30.420  32.193  1.00  0.00     0.029 A 
ATOM     35  C   UNL A   1      43.693  31.335  32.116  1.00  0.00     0.049 A 
ATOM     36  H   UNL A   1      43.881  33.185  31.127  1.00  0.00     0.167 HD
ATOM     37  C   UNL A   1      41.314  32.037  32.210  1.00  0.00     0.074 A 
ATOM     38  C   UNL A   1      41.201  33.019  31.139  1.00  0.00     0.031 C 
ATOM     39  C   UNL A   1      42.381  31.356  32.717  1.00  0.00     0.037 A 
BRANCH  26  40
ATOM     40  C   UNL A   1      44.865  33.169  28.265  1.00  0.00     0.064 A 
ATOM     41  C   UNL A   1      46.166  33.640  27.988  1.00  0.00     0.173 A 
ATOM     42  C   UNL A   1      43.850  34.151  28.250  1.00  0.00     0.173 A 
ATOM     43  F   UNL A   1      47.213  32.800  27.993  1.00  0.00    -0.203 F 
ATOM     44  C   UNL A   1      46.437  34.997  27.805  1.00  0.00     0.198 A 
ATOM     45  C   UNL A   1      44.118  35.498  28.011  1.00  0.00     0.198 A 
ATOM     46  F   UNL A   1      42.582  33.873  28.574  1.00  0.00    -0.203 F 
ATOM     47  F   UNL A   1      47.706  35.412  27.684  1.00  0.00    -0.200 F 
ATOM     48  C   UNL A   1      45.414  35.927  27.825  1.00  0.00     0.200 A 
ATOM     49  F   UNL A   1      43.114  36.385  28.053  1.00  0.00    -0.200 F 
ATOM     50  F   UNL A   1      45.679  37.236  27.718  1.00  0.00    -0.200 F 
ENDBRANCH  26  40
BRANCH  27  51
ATOM     51  C   UNL A   1      36.883  31.887  30.595  1.00  0.00     0.064 A 
ATOM     52  C   UNL A   1      35.932  31.913  31.628  1.00  0.00     0.173 A 
ATOM     53  C   UNL A   1      36.634  32.731  29.495  1.00  0.00     0.173 A 
ATOM     54  F   UNL A   1      36.113  31.171  32.731  1.00  0.00    -0.203 F 
ATOM     55  C   UNL A   1      34.820  32.759  31.581  1.00  0.00     0.198 A 
ATOM     56  C   UNL A   1      35.517  33.567  29.444  1.00  0.00     0.198 A 
ATOM     57  F   UNL A   1      37.517  32.839  28.493  1.00  0.00    -0.203 F 
ATOM     58  F   UNL A   1      33.975  32.811  32.621  1.00  0.00    -0.200 F 
ATOM     59  C   UNL A   1      34.620  33.594  30.495  1.00  0.00     0.200 A 
ATOM     60  F   UNL A   1      35.355  34.395  28.402  1.00  0.00    -0.200 F 
ATOM     61  F   UNL A   1      33.593  34.455  30.480  1.00  0.00    -0.200 F 
ENDBRANCH  27  51
BRANCH  39  62
ATOM     62  C   UNL A   1      42.123  30.352  33.800  1.00  0.00     0.064 A 
ATOM     63  C   UNL A   1      41.721  29.026  33.562  1.00  0.00     0.173 A 
ATOM     64  C   UNL A   1      42.455  30.702  35.117  1.00  0.00     0.173 A 
ATOM     65  F   UNL A   1      41.482  28.590  32.318  1.00  0.00    -0.203 F 
ATOM     66  C   UNL A   1      41.625  28.106  34.604  1.00  0.00     0.198 A 
ATOM     67  C   UNL A   1      42.394  29.771  36.149  1.00  0.00     0.198 A 
ATOM     68  F   UNL A   1      42.899  31.939  35.392  1.00  0.00    -0.203 F 
ATOM     69  F   UNL A   1      41.239  26.846  34.354  1.00  0.00    -0.200 F 
ATOM     70  C   UNL A   1      41.972  28.476  35.893  1.00  0.00     0.200 A 
ATOM     71  F   UNL A   1      42.780  30.119  37.384  1.00  0.00    -0.200 F 
ATOM     72  F   UNL A   1      41.932  27.575  36.885  1.00  0.00    -0.200 F 
ENDBRANCH  39  62
ENDBRANCH  13  14
ENDBRANCH   6   8
ENDBRANCH   3   4
ENDBRANCH   2   3
ENDBRANCH   1   2
BRANCH   1  73
ATOM     73  C   UNL A   1      36.636  23.655  25.991  1.00  0.00     0.002 C 
BRANCH  73  74
ATOM     74  C   UNL A   1      36.132  23.694  24.547  1.00  0.00     0.021 C 
BRANCH  74  75
ATOM     75  C   UNL A   1      34.803  24.422  24.369  1.00  0.00     0.116 C 
BRANCH  75  76
ATOM     76  N   UNL A   1      34.527  25.314  25.487  1.00  0.00    -0.352 N 
ATOM     77  C   UNL A   1      33.557  26.286  25.585  1.00  0.00     0.254 C 
ATOM     78  H   UNL A   1      35.109  25.208  26.274  1.00  0.00     0.163 HD
ATOM     79  O   UNL A   1      33.640  27.162  26.434  1.00  0.00    -0.269 OA
BRANCH  77  80
ATOM     80  C   UNL A   1      32.478  26.236  24.613  1.00  0.00     0.074 A 
ATOM     81  C   UNL A   1      32.576  26.723  23.256  1.00  0.00     0.028 A 
ATOM     82  C   UNL A   1      31.233  25.673  24.861  1.00  0.00     0.108 A 
ATOM     83  C   UNL A   1      31.362  26.752  22.624  1.00  0.00     0.068 A 
ATOM     84  S   UNL A   1      30.157  26.153  23.644  1.00  0.00    -0.126 S 
BRANCH  82  85
ATOM     85  N   UNL A   1      30.830  24.961  25.991  1.00  0.00    -0.312 N 
ATOM     86  C   UNL A   1      30.970  23.628  26.375  1.00  0.00     0.266 C 
ATOM     87  H   UNL A   1      30.348  25.511  26.650  1.00  0.00     0.171 HD
ATOM     88  O   UNL A   1      30.402  23.269  27.407  1.00  0.00    -0.268 OA
BRANCH  86  89
ATOM     89  C   UNL A   1      31.841  22.748  25.634  1.00  0.00     0.094 A 
ATOM     90  C   UNL A   1      31.872  22.489  24.277  1.00  0.00     0.037 A 
ATOM     91  S   UNL A   1      33.046  21.826  26.430  1.00  0.00    -0.130 S 
ATOM     92  C   UNL A   1      32.345  21.147  24.050  1.00  0.00     0.029 A 
ATOM     93  C   UNL A   1      32.845  20.590  25.232  1.00  0.00     0.038 A 
ATOM     94  C   UNL A   1      32.191  20.297  22.936  1.00  0.00     0.131 A 
ATOM     95  C   UNL A   1      33.026  19.202  25.379  1.00  0.00     0.020 A 
ATOM     96  F   UNL A   1      31.780  20.792  21.759  1.00  0.00    -0.206 F 
ATOM     97  C   UNL A   1      32.303  18.916  23.086  1.00  0.00     0.040 A 
ATOM     98  C   UNL A   1      32.665  18.373  24.314  1.00  0.00     0.005 A 
ENDBRANCH  86  89
ENDBRANCH  82  85
ENDBRANCH  77  80
ENDBRANCH  75  76
ENDBRANCH  74  75
ENDBRANCH  73  74
ENDBRANCH   1  73
TORSDOF 15
ENDMDL
