MODEL 1
REMARK VINA RESULT:     -11.9      0.000      0.000
REMARK SMILES Cc1c(Cl)cc2c(c1C)O[C@H](C(F)(F)F)C(C(=O)NCCCCCCNC(=O)c1ccc(-c3c4nc(c(-c5c(F)c(F)c(F)c(F)c5F)c5ccc([nH]5)c(-c5c(F)c(F)c(F)c(F)c5F)c5nc(c(-c6c(F)c(F)c(F)c(F)c6F)c6ccc3[nH]6)C=C5)C=C4)cc1)=C2
REMARK SMILES IDX 23 1 22 2 21 3 20 4 19 5 17 6 18 7 16 9 1 10 2 11 3 12 8 13
REMARK SMILES IDX 4 14 5 15 7 16 9 17 6 18 10 19 92 20 11 21 12 22 13 23 14 24
REMARK SMILES IDX 15 25 24 26 25 27 26 28 27 29 28 31 29 32 30 33 91 34 31 35
REMARK SMILES IDX 90 36 32 37 33 38 34 39 84 40 35 41 89 42 83 43 85 44 36 45
REMARK SMILES IDX 88 46 82 47 81 48 37 50 69 51 49 52 68 53 50 54 53 55 67 56
REMARK SMILES IDX 86 57 51 58 52 59 66 61 87 62 54 63 38 64 39 65 47 66 40 67
REMARK SMILES IDX 41 68 45 69 48 70 42 71 43 72 46 73 44 74 70 75 71 76 79 77
REMARK SMILES IDX 72 78 73 79 77 80 80 81 74 82 75 83 78 84 76 85 55 86 56 87
REMARK SMILES IDX 64 88 57 89 58 90 62 91 65 92 59 93 60 94 63 95 61 96
REMARK H PARENT 19 8 26 30 85 49 53 60
REMARK Flexibility Score: inf
ROOT
ATOM      1  C   UNL A   1      33.591  28.963  24.703  1.00  0.00     0.002 C 
ENDROOT
BRANCH   1   2
ATOM      2  C   UNL A   1      33.318  28.330  23.331  1.00  0.00     0.002 C 
BRANCH   2   3
ATOM      3  C   UNL A   1      33.111  26.814  23.352  1.00  0.00     0.021 C 
BRANCH   3   4
ATOM      4  C   UNL A   1      31.641  26.409  23.379  1.00  0.00     0.116 C 
BRANCH   4   5
ATOM      5  N   UNL A   1      31.213  26.021  24.711  1.00  0.00    -0.352 N 
ATOM      6  C   UNL A   1      31.507  25.046  25.603  1.00  0.00     0.251 C 
ATOM      7  O   UNL A   1      30.901  25.111  26.677  1.00  0.00    -0.270 OA
ATOM      8  H   UNL A   1      30.524  26.631  25.059  1.00  0.00     0.163 HD
BRANCH   6   9
ATOM      9  C   UNL A   1      32.481  23.939  25.371  1.00  0.00     0.067 C 
ATOM     10  C   UNL A   1      37.640  19.936  25.008  1.00  0.00     0.046 C 
ATOM     11  C   UNL A   1      36.650  21.058  25.175  1.00  0.00    -0.026 A 
ATOM     12  C   UNL A   1      37.049  22.362  25.536  1.00  0.00     0.045 A 
ATOM     13  C   UNL A   1      35.270  20.803  24.998  1.00  0.00    -0.004 A 
ATOM     14  Cl  UNL A   1      38.706  22.775  25.818  1.00  0.00    -0.084 Cl
ATOM     15  C   UNL A   1      36.113  23.392  25.699  1.00  0.00     0.032 A 
ATOM     16  C   UNL A   1      34.351  21.857  25.155  1.00  0.00     0.131 A 
ATOM     17  C   UNL A   1      34.722  19.443  24.634  1.00  0.00     0.049 C 
ATOM     18  C   UNL A   1      34.758  23.144  25.506  1.00  0.00     0.019 A 
ATOM     19  O   UNL A   1      33.035  21.535  24.995  1.00  0.00    -0.475 OA
ATOM     20  C   UNL A   1      33.758  24.186  25.713  1.00  0.00     0.025 C 
ATOM     21  C   UNL A   1      32.107  22.618  24.767  1.00  0.00     0.314 C 
BRANCH  21  22
ATOM     22  C   UNL A   1      31.800  22.711  23.263  1.00  0.00     0.429 C 
ATOM     23  F   UNL A   1      30.591  23.295  23.063  1.00  0.00    -0.167 F 
ATOM     24  F   UNL A   1      32.699  23.463  22.588  1.00  0.00    -0.167 F 
ATOM     25  F   UNL A   1      31.769  21.501  22.661  1.00  0.00    -0.167 F 
ENDBRANCH  21  22
ENDBRANCH   6   9
ENDBRANCH   4   5
ENDBRANCH   3   4
ENDBRANCH   2   3
ENDBRANCH   1   2
BRANCH   1  26
ATOM     26  C   UNL A   1      34.008  27.978  25.800  1.00  0.00     0.021 C 
BRANCH  26  27
ATOM     27  C   UNL A   1      33.570  28.386  27.201  1.00  0.00     0.116 C 
BRANCH  27  28
ATOM     28  N   UNL A   1      33.509  29.830  27.344  1.00  0.00    -0.352 N 
ATOM     29  C   UNL A   1      34.394  30.677  27.955  1.00  0.00     0.251 C 
ATOM     30  H   UNL A   1      32.719  30.261  26.946  1.00  0.00     0.163 HD
ATOM     31  O   UNL A   1      34.081  31.840  28.195  1.00  0.00    -0.269 OA
BRANCH  29  32
ATOM     32  C   UNL A   1      35.731  30.180  28.332  1.00  0.00     0.039 A 
ATOM     33  C   UNL A   1      36.749  30.182  27.377  1.00  0.00     0.014 A 
ATOM     34  C   UNL A   1      35.970  29.703  29.625  1.00  0.00     0.014 A 
ATOM     35  C   UNL A   1      38.023  29.744  27.734  1.00  0.00     0.010 A 
ATOM     36  C   UNL A   1      37.257  29.340  29.999  1.00  0.00     0.010 A 
ATOM     37  C   UNL A   1      38.292  29.342  29.053  1.00  0.00    -0.014 A 
BRANCH  37  38
ATOM     38  C   UNL A   1      39.645  28.885  29.450  1.00  0.00     0.031 A 
ATOM     39  C   UNL A   1      40.475  29.727  30.378  1.00  0.00     0.074 A 
ATOM     40  C   UNL A   1      40.133  27.733  28.953  1.00  0.00     0.049 A 
ATOM     41  N   UNL A   1      41.692  29.524  30.812  1.00  0.00    -0.248 NA
ATOM     42  C   UNL A   1      39.865  30.974  30.866  1.00  0.00     0.031 C 
ATOM     43  C   UNL A   1      39.428  26.849  28.024  1.00  0.00     0.029 A 
ATOM     44  N   UNL A   1      41.336  27.107  29.161  1.00  0.00    -0.354 N 
ATOM     45  C   UNL A   1      41.989  30.612  31.621  1.00  0.00     0.074 A 
ATOM     46  C   UNL A   1      40.856  31.508  31.565  1.00  0.00     0.031 C 
ATOM     47  C   UNL A   1      40.197  25.778  27.769  1.00  0.00     0.029 A 
ATOM     48  C   UNL A   1      41.463  25.920  28.482  1.00  0.00     0.049 A 
ATOM     49  H   UNL A   1      42.042  27.475  29.741  1.00  0.00     0.167 HD
ATOM     50  C   UNL A   1      43.095  30.827  32.369  1.00  0.00     0.037 A 
ATOM     51  C   UNL A   1      42.487  25.045  28.442  1.00  0.00     0.037 A 
ATOM     52  C   UNL A   1      44.211  29.922  32.437  1.00  0.00     0.049 A 
ATOM     53  C   UNL A   1      43.725  25.332  29.250  1.00  0.00     0.074 A 
ATOM     54  C   UNL A   1      45.363  30.031  33.195  1.00  0.00     0.029 A 
ATOM     55  N   UNL A   1      44.312  28.739  31.719  1.00  0.00    -0.354 N 
ATOM     56  N   UNL A   1      43.974  26.339  30.052  1.00  0.00    -0.248 NA
ATOM     57  C   UNL A   1      44.823  24.361  29.149  1.00  0.00     0.031 C 
ATOM     58  C   UNL A   1      46.185  28.941  32.896  1.00  0.00     0.029 A 
ATOM     59  C   UNL A   1      45.521  28.121  31.997  1.00  0.00     0.049 A 
ATOM     60  H   UNL A   1      43.627  28.390  31.105  1.00  0.00     0.167 HD
ATOM     61  C   UNL A   1      45.243  26.111  30.569  1.00  0.00     0.074 A 
ATOM     62  C   UNL A   1      45.705  24.860  30.004  1.00  0.00     0.031 C 
ATOM     63  C   UNL A   1      45.962  26.873  31.429  1.00  0.00     0.037 A 
BRANCH  50  64
ATOM     64  C   UNL A   1      43.150  32.080  33.194  1.00  0.00     0.064 A 
ATOM     65  C   UNL A   1      42.666  32.110  34.511  1.00  0.00     0.173 A 
ATOM     66  C   UNL A   1      43.753  33.242  32.690  1.00  0.00     0.173 A 
ATOM     67  F   UNL A   1      42.067  31.031  35.036  1.00  0.00    -0.203 F 
ATOM     68  C   UNL A   1      42.769  33.263  35.286  1.00  0.00     0.198 A 
ATOM     69  C   UNL A   1      43.883  34.382  33.478  1.00  0.00     0.198 A 
ATOM     70  F   UNL A   1      44.236  33.265  31.438  1.00  0.00    -0.203 F 
ATOM     71  F   UNL A   1      42.265  33.279  36.528  1.00  0.00    -0.200 F 
ATOM     72  C   UNL A   1      43.388  34.392  34.773  1.00  0.00     0.200 A 
ATOM     73  F   UNL A   1      44.494  35.469  32.987  1.00  0.00    -0.200 F 
ATOM     74  F   UNL A   1      43.504  35.494  35.528  1.00  0.00    -0.200 F 
ENDBRANCH  50  64
BRANCH  51  75
ATOM     75  C   UNL A   1      42.370  23.804  27.633  1.00  0.00     0.064 A 
ATOM     76  C   UNL A   1      41.817  22.639  28.183  1.00  0.00     0.173 A 
ATOM     77  C   UNL A   1      42.790  23.757  26.295  1.00  0.00     0.173 A 
ATOM     78  F   UNL A   1      41.418  22.628  29.463  1.00  0.00    -0.203 F 
ATOM     79  C   UNL A   1      41.701  21.472  27.431  1.00  0.00     0.198 A 
ATOM     80  C   UNL A   1      42.646  22.598  25.536  1.00  0.00     0.198 A 
ATOM     81  F   UNL A   1      43.324  24.844  25.720  1.00  0.00    -0.203 F 
ATOM     82  F   UNL A   1      41.203  20.362  27.993  1.00  0.00    -0.200 F 
ATOM     83  C   UNL A   1      42.107  21.454  26.105  1.00  0.00     0.200 A 
ATOM     84  F   UNL A   1      43.026  22.591  24.251  1.00  0.00    -0.200 F 
ATOM     85  F   UNL A   1      41.985  20.335  25.379  1.00  0.00    -0.200 F 
ENDBRANCH  51  75
BRANCH  63  86
ATOM     86  C   UNL A   1      47.322  26.377  31.829  1.00  0.00     0.064 A 
ATOM     87  C   UNL A   1      47.499  25.550  32.947  1.00  0.00     0.173 A 
ATOM     88  C   UNL A   1      48.446  26.661  31.036  1.00  0.00     0.173 A 
ATOM     89  F   UNL A   1      46.459  25.257  33.743  1.00  0.00    -0.203 F 
ATOM     90  C   UNL A   1      48.754  25.040  33.266  1.00  0.00     0.198 A 
ATOM     91  C   UNL A   1      49.692  26.122  31.340  1.00  0.00     0.198 A 
ATOM     92  F   UNL A   1      48.327  27.440  29.950  1.00  0.00    -0.203 F 
ATOM     93  F   UNL A   1      48.907  24.280  34.361  1.00  0.00    -0.200 F 
ATOM     94  C   UNL A   1      49.846  25.315  32.458  1.00  0.00     0.200 A 
ATOM     95  F   UNL A   1      50.740  26.374  30.546  1.00  0.00    -0.200 F 
ATOM     96  F   UNL A   1      51.048  24.804  32.755  1.00  0.00    -0.200 F 
ENDBRANCH  63  86
ENDBRANCH  37  38
ENDBRANCH  29  32
ENDBRANCH  27  28
ENDBRANCH  26  27
ENDBRANCH   1  26
TORSDOF 14
ENDMDL
MODEL 2
REMARK VINA RESULT:     -11.8      3.219      8.434
REMARK SMILES Cc1c(Cl)cc2c(c1C)O[C@H](C(F)(F)F)C(C(=O)NCCCCCCNC(=O)c1ccc(-c3c4nc(c(-c5c(F)c(F)c(F)c(F)c5F)c5ccc([nH]5)c(-c5c(F)c(F)c(F)c(F)c5F)c5nc(c(-c6c(F)c(F)c(F)c(F)c6F)c6ccc3[nH]6)C=C5)C=C4)cc1)=C2
REMARK SMILES IDX 23 1 22 2 21 3 20 4 19 5 17 6 18 7 16 9 1 10 2 11 3 12 8 13
REMARK SMILES IDX 4 14 5 15 7 16 9 17 6 18 10 19 92 20 11 21 12 22 13 23 14 24
REMARK SMILES IDX 15 25 24 26 25 27 26 28 27 29 28 31 29 32 30 33 91 34 31 35
REMARK SMILES IDX 90 36 32 37 33 38 34 39 84 40 35 41 89 42 83 43 85 44 36 45
REMARK SMILES IDX 88 46 82 47 81 48 37 50 69 51 49 52 68 53 50 54 53 55 67 56
REMARK SMILES IDX 86 57 51 58 52 59 66 61 87 62 54 63 38 64 39 65 47 66 40 67
REMARK SMILES IDX 41 68 45 69 48 70 42 71 43 72 46 73 44 74 70 75 71 76 79 77
REMARK SMILES IDX 72 78 73 79 77 80 80 81 74 82 75 83 78 84 76 85 55 86 56 87
REMARK SMILES IDX 64 88 57 89 58 90 62 91 65 92 59 93 60 94 63 95 61 96
REMARK H PARENT 19 8 26 30 85 49 53 60
REMARK Flexibility Score: inf
ROOT
ATOM      1  C   UNL A   1      31.648  30.656  26.770  1.00  0.00     0.002 C 
ENDROOT
BRANCH   1   2
ATOM      2  C   UNL A   1      31.491  30.035  25.375  1.00  0.00     0.002 C 
BRANCH   2   3
ATOM      3  C   UNL A   1      32.739  29.329  24.842  1.00  0.00     0.021 C 
BRANCH   3   4
ATOM      4  C   UNL A   1      32.484  27.880  24.440  1.00  0.00     0.116 C 
BRANCH   4   5
ATOM      5  N   UNL A   1      31.475  27.258  25.277  1.00  0.00    -0.352 N 
ATOM      6  C   UNL A   1      31.222  26.026  25.777  1.00  0.00     0.251 C 
ATOM      7  O   UNL A   1      30.225  25.942  26.501  1.00  0.00    -0.270 OA
ATOM      8  H   UNL A   1      30.791  27.907  25.558  1.00  0.00     0.163 HD
BRANCH   6   9
ATOM      9  C   UNL A   1      32.044  24.808  25.509  1.00  0.00     0.067 C 
ATOM     10  C   UNL A   1      36.649  20.192  24.997  1.00  0.00     0.046 C 
ATOM     11  C   UNL A   1      35.811  21.427  25.200  1.00  0.00    -0.026 A 
ATOM     12  C   UNL A   1      36.376  22.662  25.581  1.00  0.00     0.045 A 
ATOM     13  C   UNL A   1      34.408  21.353  25.037  1.00  0.00    -0.004 A 
ATOM     14  Cl  UNL A   1      38.076  22.855  25.849  1.00  0.00    -0.084 Cl
ATOM     15  C   UNL A   1      35.581  23.798  25.778  1.00  0.00     0.032 A 
ATOM     16  C   UNL A   1      33.633  22.512  25.227  1.00  0.00     0.131 A 
ATOM     17  C   UNL A   1      33.688  20.082  24.654  1.00  0.00     0.049 C 
ATOM     18  C   UNL A   1      34.203  23.728  25.599  1.00  0.00     0.019 A 
ATOM     19  O   UNL A   1      32.284  22.362  25.078  1.00  0.00    -0.475 OA
ATOM     20  C   UNL A   1      33.347  24.885  25.839  1.00  0.00     0.025 C 
ATOM     21  C   UNL A   1      31.499  23.559  24.885  1.00  0.00     0.314 C 
BRANCH  21  22
ATOM     22  C   UNL A   1      31.190  23.722  23.387  1.00  0.00     0.429 C 
ATOM     23  F   UNL A   1      31.376  22.545  22.736  1.00  0.00    -0.167 F 
ATOM     24  F   UNL A   1      29.908  24.085  23.151  1.00  0.00    -0.167 F 
ATOM     25  F   UNL A   1      31.977  24.644  22.790  1.00  0.00    -0.167 F 
ENDBRANCH  21  22
ENDBRANCH   6   9
ENDBRANCH   4   5
ENDBRANCH   3   4
ENDBRANCH   2   3
ENDBRANCH   1   2
BRANCH   1  26
ATOM     26  C   UNL A   1      31.502  32.181  26.821  1.00  0.00     0.021 C 
BRANCH  26  27
ATOM     27  C   UNL A   1      32.795  32.918  27.147  1.00  0.00     0.116 C 
BRANCH  27  28
ATOM     28  N   UNL A   1      32.537  34.267  27.622  1.00  0.00    -0.352 N 
ATOM     29  C   UNL A   1      33.024  34.901  28.733  1.00  0.00     0.251 C 
ATOM     30  H   UNL A   1      31.925  34.801  27.066  1.00  0.00     0.163 HD
ATOM     31  O   UNL A   1      32.526  35.955  29.119  1.00  0.00    -0.269 OA
BRANCH  29  32
ATOM     32  C   UNL A   1      34.151  34.302  29.474  1.00  0.00     0.039 A 
ATOM     33  C   UNL A   1      33.883  33.522  30.599  1.00  0.00     0.014 A 
ATOM     34  C   UNL A   1      35.468  34.524  29.059  1.00  0.00     0.014 A 
ATOM     35  C   UNL A   1      34.940  32.926  31.287  1.00  0.00     0.010 A 
ATOM     36  C   UNL A   1      36.512  33.867  29.698  1.00  0.00     0.010 A 
ATOM     37  C   UNL A   1      36.259  33.075  30.827  1.00  0.00    -0.014 A 
BRANCH  37  38
ATOM     38  C   UNL A   1      37.391  32.438  31.541  1.00  0.00     0.031 A 
ATOM     39  C   UNL A   1      38.124  31.291  30.904  1.00  0.00     0.074 A 
ATOM     40  C   UNL A   1      37.736  32.872  32.767  1.00  0.00     0.049 A 
ATOM     41  N   UNL A   1      39.112  30.576  31.377  1.00  0.00    -0.248 NA
ATOM     42  C   UNL A   1      37.674  30.878  29.564  1.00  0.00     0.031 C 
ATOM     43  C   UNL A   1      37.079  33.959  33.494  1.00  0.00     0.029 A 
ATOM     44  N   UNL A   1      38.728  32.453  33.619  1.00  0.00    -0.354 N 
ATOM     45  C   UNL A   1      39.398  29.635  30.398  1.00  0.00     0.074 A 
ATOM     46  C   UNL A   1      38.440  29.823  29.333  1.00  0.00     0.031 C 
ATOM     47  C   UNL A   1      37.706  34.144  34.667  1.00  0.00     0.029 A 
ATOM     48  C   UNL A   1      38.781  33.164  34.793  1.00  0.00     0.049 A 
ATOM     49  H   UNL A   1      39.341  31.712  33.409  1.00  0.00     0.167 HD
ATOM     50  C   UNL A   1      40.394  28.721  30.377  1.00  0.00     0.037 A 
ATOM     51  C   UNL A   1      39.606  33.036  35.851  1.00  0.00     0.037 A 
ATOM     52  C   UNL A   1      41.358  28.553  31.431  1.00  0.00     0.049 A 
ATOM     53  C   UNL A   1      40.677  31.980  35.819  1.00  0.00     0.074 A 
ATOM     54  C   UNL A   1      42.429  27.679  31.488  1.00  0.00     0.029 A 
ATOM     55  N   UNL A   1      41.367  29.278  32.614  1.00  0.00    -0.354 N 
ATOM     56  N   UNL A   1      40.972  31.130  34.865  1.00  0.00    -0.248 NA
ATOM     57  C   UNL A   1      41.531  31.865  37.009  1.00  0.00     0.031 C 
ATOM     58  C   UNL A   1      43.055  27.838  32.727  1.00  0.00     0.029 A 
ATOM     59  C   UNL A   1      42.411  28.851  33.420  1.00  0.00     0.049 A 
ATOM     60  H   UNL A   1      40.728  29.990  32.846  1.00  0.00     0.167 HD
ATOM     61  C   UNL A   1      42.057  30.397  35.328  1.00  0.00     0.074 A 
ATOM     62  C   UNL A   1      42.381  30.916  36.641  1.00  0.00     0.031 C 
ATOM     63  C   UNL A   1      42.721  29.383  34.722  1.00  0.00     0.037 A 
BRANCH  50  64
ATOM     64  C   UNL A   1      40.510  27.839  29.167  1.00  0.00     0.064 A 
ATOM     65  C   UNL A   1      41.405  28.136  28.129  1.00  0.00     0.173 A 
ATOM     66  C   UNL A   1      39.769  26.651  29.075  1.00  0.00     0.173 A 
ATOM     67  F   UNL A   1      42.126  29.267  28.161  1.00  0.00    -0.203 F 
ATOM     68  C   UNL A   1      41.543  27.285  27.035  1.00  0.00     0.198 A 
ATOM     69  C   UNL A   1      39.932  25.786  27.996  1.00  0.00     0.198 A 
ATOM     70  F   UNL A   1      38.901  26.317  30.043  1.00  0.00    -0.203 F 
ATOM     71  F   UNL A   1      42.377  27.609  26.037  1.00  0.00    -0.200 F 
ATOM     72  C   UNL A   1      40.815  26.106  26.976  1.00  0.00     0.200 A 
ATOM     73  F   UNL A   1      39.239  24.640  27.946  1.00  0.00    -0.200 F 
ATOM     74  F   UNL A   1      40.964  25.278  25.932  1.00  0.00    -0.200 F 
ENDBRANCH  50  64
BRANCH  51  75
ATOM     75  C   UNL A   1      39.469  33.955  37.011  1.00  0.00     0.064 A 
ATOM     76  C   UNL A   1      38.697  33.595  38.124  1.00  0.00     0.173 A 
ATOM     77  C   UNL A   1      40.114  35.201  37.042  1.00  0.00     0.173 A 
ATOM     78  F   UNL A   1      38.044  32.423  38.135  1.00  0.00    -0.203 F 
ATOM     79  C   UNL A   1      38.565  34.449  39.218  1.00  0.00     0.198 A 
ATOM     80  C   UNL A   1      40.006  36.041  38.148  1.00  0.00     0.198 A 
ATOM     81  F   UNL A   1      40.867  35.593  36.004  1.00  0.00    -0.203 F 
ATOM     82  F   UNL A   1      37.790  34.095  40.252  1.00  0.00    -0.200 F 
ATOM     83  C   UNL A   1      39.227  35.668  39.233  1.00  0.00     0.200 A 
ATOM     84  F   UNL A   1      40.659  37.211  38.164  1.00  0.00    -0.200 F 
ATOM     85  F   UNL A   1      39.108  36.484  40.289  1.00  0.00    -0.200 F 
ENDBRANCH  51  75
BRANCH  63  86
ATOM     86  C   UNL A   1      43.877  28.768  35.459  1.00  0.00     0.064 A 
ATOM     87  C   UNL A   1      45.187  29.234  35.285  1.00  0.00     0.173 A 
ATOM     88  C   UNL A   1      43.658  27.761  36.413  1.00  0.00     0.173 A 
ATOM     89  F   UNL A   1      45.450  30.188  34.378  1.00  0.00    -0.203 F 
ATOM     90  C   UNL A   1      46.239  28.703  36.026  1.00  0.00     0.198 A 
ATOM     91  C   UNL A   1      44.707  27.257  37.176  1.00  0.00     0.198 A 
ATOM     92  F   UNL A   1      42.420  27.288  36.625  1.00  0.00    -0.203 F 
ATOM     93  F   UNL A   1      47.490  29.139  35.817  1.00  0.00    -0.200 F 
ATOM     94  C   UNL A   1      45.997  27.725  36.978  1.00  0.00     0.200 A 
ATOM     95  F   UNL A   1      44.467  26.326  38.108  1.00  0.00    -0.200 F 
ATOM     96  F   UNL A   1      47.008  27.232  37.706  1.00  0.00    -0.200 F 
ENDBRANCH  63  86
ENDBRANCH  37  38
ENDBRANCH  29  32
ENDBRANCH  27  28
ENDBRANCH  26  27
ENDBRANCH   1  26
TORSDOF 14
ENDMDL
MODEL 3
REMARK VINA RESULT:     -11.7      2.938      4.231
REMARK SMILES Cc1c(Cl)cc2c(c1C)O[C@H](C(F)(F)F)C(C(=O)NCCCCCCNC(=O)c1ccc(-c3c4nc(c(-c5c(F)c(F)c(F)c(F)c5F)c5ccc([nH]5)c(-c5c(F)c(F)c(F)c(F)c5F)c5nc(c(-c6c(F)c(F)c(F)c(F)c6F)c6ccc3[nH]6)C=C5)C=C4)cc1)=C2
REMARK SMILES IDX 23 1 22 2 21 3 20 4 19 5 17 6 18 7 16 9 1 10 2 11 3 12 8 13
REMARK SMILES IDX 4 14 5 15 7 16 9 17 6 18 10 19 92 20 11 21 12 22 13 23 14 24
REMARK SMILES IDX 15 25 24 26 25 27 26 28 27 29 28 31 29 32 30 33 91 34 31 35
REMARK SMILES IDX 90 36 32 37 33 38 34 39 84 40 35 41 89 42 83 43 85 44 36 45
REMARK SMILES IDX 88 46 82 47 81 48 37 50 69 51 49 52 68 53 50 54 53 55 67 56
REMARK SMILES IDX 86 57 51 58 52 59 66 61 87 62 54 63 38 64 39 65 47 66 40 67
REMARK SMILES IDX 41 68 45 69 48 70 42 71 43 72 46 73 44 74 70 75 71 76 79 77
REMARK SMILES IDX 72 78 73 79 77 80 80 81 74 82 75 83 78 84 76 85 55 86 56 87
REMARK SMILES IDX 64 88 57 89 58 90 62 91 65 92 59 93 60 94 63 95 61 96
REMARK H PARENT 19 8 26 30 85 49 53 60
REMARK Flexibility Score: inf
ROOT
ATOM      1  C   UNL A   1      31.587  30.623  26.707  1.00  0.00     0.002 C 
ENDROOT
BRANCH   1   2
ATOM      2  C   UNL A   1      31.424  30.056  25.289  1.00  0.00     0.002 C 
BRANCH   2   3
ATOM      3  C   UNL A   1      32.646  29.308  24.753  1.00  0.00     0.021 C 
BRANCH   3   4
ATOM      4  C   UNL A   1      32.342  27.867  24.356  1.00  0.00     0.116 C 
BRANCH   4   5
ATOM      5  N   UNL A   1      31.386  27.250  25.259  1.00  0.00    -0.352 N 
ATOM      6  C   UNL A   1      31.179  26.027  25.799  1.00  0.00     0.251 C 
ATOM      7  O   UNL A   1      30.222  25.946  26.576  1.00  0.00    -0.270 OA
ATOM      8  H   UNL A   1      30.707  27.896  25.560  1.00  0.00     0.163 HD
BRANCH   6   9
ATOM      9  C   UNL A   1      32.005  24.815  25.517  1.00  0.00     0.067 C 
ATOM     10  C   UNL A   1      36.622  20.217  24.959  1.00  0.00     0.046 C 
ATOM     11  C   UNL A   1      35.780  21.447  25.176  1.00  0.00    -0.026 A 
ATOM     12  C   UNL A   1      36.341  22.677  25.579  1.00  0.00     0.045 A 
ATOM     13  C   UNL A   1      34.379  21.372  25.005  1.00  0.00    -0.004 A 
ATOM     14  Cl  UNL A   1      38.039  22.870  25.858  1.00  0.00    -0.084 Cl
ATOM     15  C   UNL A   1      35.542  23.808  25.788  1.00  0.00     0.032 A 
ATOM     16  C   UNL A   1      33.600  22.527  25.208  1.00  0.00     0.131 A 
ATOM     17  C   UNL A   1      33.663  20.106  24.599  1.00  0.00     0.049 C 
ATOM     18  C   UNL A   1      34.165  23.739  25.601  1.00  0.00     0.019 A 
ATOM     19  O   UNL A   1      32.253  22.376  25.050  1.00  0.00    -0.475 OA
ATOM     20  C   UNL A   1      33.306  24.889  25.855  1.00  0.00     0.025 C 
ATOM     21  C   UNL A   1      31.465  23.574  24.871  1.00  0.00     0.314 C 
BRANCH  21  22
ATOM     22  C   UNL A   1      31.163  23.760  23.374  1.00  0.00     0.429 C 
ATOM     23  F   UNL A   1      31.179  22.560  22.738  1.00  0.00    -0.167 F 
ATOM     24  F   UNL A   1      29.941  24.292  23.146  1.00  0.00    -0.167 F 
ATOM     25  F   UNL A   1      32.062  24.558  22.756  1.00  0.00    -0.167 F 
ENDBRANCH  21  22
ENDBRANCH   6   9
ENDBRANCH   4   5
ENDBRANCH   3   4
ENDBRANCH   2   3
ENDBRANCH   1   2
BRANCH   1  26
ATOM     26  C   UNL A   1      31.429  32.143  26.820  1.00  0.00     0.021 C 
BRANCH  26  27
ATOM     27  C   UNL A   1      32.741  32.893  27.014  1.00  0.00     0.116 C 
BRANCH  27  28
ATOM     28  N   UNL A   1      32.523  34.218  27.568  1.00  0.00    -0.352 N 
ATOM     29  C   UNL A   1      33.086  34.798  28.673  1.00  0.00     0.251 C 
ATOM     30  H   UNL A   1      31.878  34.779  27.080  1.00  0.00     0.163 HD
ATOM     31  O   UNL A   1      32.622  35.834  29.140  1.00  0.00    -0.269 OA
BRANCH  29  32
ATOM     32  C   UNL A   1      34.256  34.162  29.307  1.00  0.00     0.039 A 
ATOM     33  C   UNL A   1      34.050  33.198  30.296  1.00  0.00     0.014 A 
ATOM     34  C   UNL A   1      35.553  34.528  28.931  1.00  0.00     0.014 A 
ATOM     35  C   UNL A   1      35.150  32.569  30.879  1.00  0.00     0.010 A 
ATOM     36  C   UNL A   1      36.643  33.846  29.457  1.00  0.00     0.010 A 
ATOM     37  C   UNL A   1      36.452  32.871  30.447  1.00  0.00    -0.014 A 
BRANCH  37  38
ATOM     38  C   UNL A   1      37.630  32.202  31.049  1.00  0.00     0.031 A 
ATOM     39  C   UNL A   1      38.079  32.584  32.430  1.00  0.00     0.074 A 
ATOM     40  C   UNL A   1      38.306  31.278  30.341  1.00  0.00     0.049 A 
ATOM     41  N   UNL A   1      39.103  32.148  33.117  1.00  0.00    -0.248 NA
ATOM     42  C   UNL A   1      37.284  33.609  33.127  1.00  0.00     0.031 C 
ATOM     43  C   UNL A   1      37.978  30.848  28.982  1.00  0.00     0.029 A 
ATOM     44  N   UNL A   1      39.411  30.532  30.669  1.00  0.00    -0.354 N 
ATOM     45  C   UNL A   1      39.074  32.841  34.319  1.00  0.00     0.074 A 
ATOM     46  C   UNL A   1      37.974  33.776  34.246  1.00  0.00     0.031 C 
ATOM     47  C   UNL A   1      38.840  29.890  28.605  1.00  0.00     0.029 A 
ATOM     48  C   UNL A   1      39.806  29.669  29.677  1.00  0.00     0.049 A 
ATOM     49  H   UNL A   1      39.877  30.611  31.533  1.00  0.00     0.167 HD
ATOM     50  C   UNL A   1      39.873  32.686  35.399  1.00  0.00     0.037 A 
ATOM     51  C   UNL A   1      40.832  28.796  29.640  1.00  0.00     0.037 A 
ATOM     52  C   UNL A   1      40.953  31.739  35.474  1.00  0.00     0.049 A 
ATOM     53  C   UNL A   1      41.733  28.677  30.840  1.00  0.00     0.074 A 
ATOM     54  C   UNL A   1      41.798  31.479  36.537  1.00  0.00     0.029 A 
ATOM     55  N   UNL A   1      41.336  30.895  34.441  1.00  0.00    -0.354 N 
ATOM     56  N   UNL A   1      41.664  29.300  31.991  1.00  0.00    -0.248 NA
ATOM     57  C   UNL A   1      42.853  27.732  30.736  1.00  0.00     0.031 C 
ATOM     58  C   UNL A   1      42.725  30.516  36.132  1.00  0.00     0.029 A 
ATOM     59  C   UNL A   1      42.423  30.132  34.835  1.00  0.00     0.049 A 
ATOM     60  H   UNL A   1      40.899  30.846  33.560  1.00  0.00     0.167 HD
ATOM     61  C   UNL A   1      42.713  28.808  32.756  1.00  0.00     0.074 A 
ATOM     62  C   UNL A   1      43.392  27.818  31.945  1.00  0.00     0.031 C 
ATOM     63  C   UNL A   1      43.083  29.148  34.015  1.00  0.00     0.037 A 
BRANCH  50  64
ATOM     64  C   UNL A   1      39.601  33.545  36.601  1.00  0.00     0.064 A 
ATOM     65  C   UNL A   1      38.731  33.124  37.618  1.00  0.00     0.173 A 
ATOM     66  C   UNL A   1      40.267  34.768  36.770  1.00  0.00     0.173 A 
ATOM     67  F   UNL A   1      38.059  31.969  37.497  1.00  0.00    -0.203 F 
ATOM     68  C   UNL A   1      38.526  33.903  38.753  1.00  0.00     0.198 A 
ATOM     69  C   UNL A   1      40.083  35.529  37.921  1.00  0.00     0.198 A 
ATOM     70  F   UNL A   1      41.112  35.215  35.829  1.00  0.00    -0.203 F 
ATOM     71  F   UNL A   1      37.661  33.498  39.694  1.00  0.00    -0.200 F 
ATOM     72  C   UNL A   1      39.211  35.099  38.909  1.00  0.00     0.200 A 
ATOM     73  F   UNL A   1      40.756  36.678  38.077  1.00  0.00    -0.200 F 
ATOM     74  F   UNL A   1      39.027  35.838  40.012  1.00  0.00    -0.200 F 
ENDBRANCH  50  64
BRANCH  51  75
ATOM     75  C   UNL A   1      41.039  27.948  28.437  1.00  0.00     0.064 A 
ATOM     76  C   UNL A   1      40.499  26.656  28.369  1.00  0.00     0.173 A 
ATOM     77  C   UNL A   1      41.764  28.410  27.329  1.00  0.00     0.173 A 
ATOM     78  F   UNL A   1      39.814  26.162  29.411  1.00  0.00    -0.203 F 
ATOM     79  C   UNL A   1      40.686  25.855  27.244  1.00  0.00     0.198 A 
ATOM     80  C   UNL A   1      41.925  27.619  26.193  1.00  0.00     0.198 A 
ATOM     81  F   UNL A   1      42.301  29.639  27.341  1.00  0.00    -0.203 F 
ATOM     82  F   UNL A   1      40.190  24.610  27.221  1.00  0.00    -0.200 F 
ATOM     83  C   UNL A   1      41.392  26.340  26.153  1.00  0.00     0.200 A 
ATOM     84  F   UNL A   1      42.595  28.098  25.136  1.00  0.00    -0.200 F 
ATOM     85  F   UNL A   1      41.562  25.573  25.068  1.00  0.00    -0.200 F 
ENDBRANCH  51  75
BRANCH  63  86
ATOM     86  C   UNL A   1      44.269  28.441  34.608  1.00  0.00     0.064 A 
ATOM     87  C   UNL A   1      44.133  27.213  35.267  1.00  0.00     0.173 A 
ATOM     88  C   UNL A   1      45.563  28.958  34.439  1.00  0.00     0.173 A 
ATOM     89  F   UNL A   1      42.916  26.682  35.464  1.00  0.00    -0.203 F 
ATOM     90  C   UNL A   1      45.248  26.534  35.751  1.00  0.00     0.198 A 
ATOM     91  C   UNL A   1      46.678  28.260  34.894  1.00  0.00     0.198 A 
ATOM     92  F   UNL A   1      45.748  30.127  33.805  1.00  0.00    -0.203 F 
ATOM     93  F   UNL A   1      45.092  25.376  36.410  1.00  0.00    -0.200 F 
ATOM     94  C   UNL A   1      46.519  27.051  35.553  1.00  0.00     0.200 A 
ATOM     95  F   UNL A   1      47.906  28.753  34.684  1.00  0.00    -0.200 F 
ATOM     96  F   UNL A   1      47.592  26.385  35.999  1.00  0.00    -0.200 F 
ENDBRANCH  63  86
ENDBRANCH  37  38
ENDBRANCH  29  32
ENDBRANCH  27  28
ENDBRANCH  26  27
ENDBRANCH   1  26
TORSDOF 14
ENDMDL
