MODEL 1
REMARK VINA RESULT:     -11.9      0.000      0.000
REMARK SMILES N#Cc1ccc(C(=O)NCCCCCCNC(=O)c2ccc(-c3c4nc(c(-c5c(F)c(F)c(F)c(F)c5F)c5ccc([nH]5)c(-c5c(F)c(F)c(F)c(F)c5F)c5nc(c(-c6c(F)c(F)c(F)c(F)c6F)c6ccc3[nH]6)C=C5)C=C4)cc2)nc1/C=C/c1ccc(O)c(Cl)c1
REMARK SMILES IDX 12 1 11 2 10 3 9 4 7 5 8 6 6 8 3 9 4 10 83 11 5 12 82 13
REMARK SMILES IDX 2 14 1 15 84 16 85 17 86 18 87 19 93 20 88 21 91 22 89 23
REMARK SMILES IDX 92 24 90 25 13 27 14 28 15 29 16 30 17 31 18 33 19 34 20 35
REMARK SMILES IDX 81 36 21 37 80 38 22 39 23 40 24 41 74 42 25 43 79 44 73 45
REMARK SMILES IDX 75 46 26 47 78 48 72 49 71 50 27 52 59 53 39 54 58 55 40 56
REMARK SMILES IDX 43 57 57 58 76 59 41 60 42 61 56 63 77 64 44 65 28 66 29 67
REMARK SMILES IDX 37 68 30 69 31 70 35 71 38 72 32 73 33 74 36 75 34 76 60 77
REMARK SMILES IDX 61 78 69 79 62 80 63 81 67 82 70 83 64 84 65 85 68 86 66 87
REMARK SMILES IDX 45 88 46 89 54 90 47 91 48 92 52 93 55 94 49 95 50 96 53 97
REMARK SMILES IDX 51 98
REMARK H PARENT 9 7 90 26 16 32 75 51 43 62
REMARK Flexibility Score: inf
ROOT
ATOM      1  C   UNL A   1      30.419  28.094  24.252  1.00  0.00     0.002 C 
ENDROOT
BRANCH   1   2
ATOM      2  C   UNL A   1      30.881  28.391  22.827  1.00  0.00     0.021 C 
BRANCH   2   3
ATOM      3  C   UNL A   1      32.374  28.236  22.570  1.00  0.00     0.116 C 
BRANCH   3   4
ATOM      4  N   UNL A   1      32.692  27.224  21.584  1.00  0.00    -0.351 N 
ATOM      5  C   UNL A   1      32.803  25.850  21.660  1.00  0.00     0.269 C 
ATOM      6  O   UNL A   1      33.138  25.265  20.629  1.00  0.00    -0.268 OA
ATOM      7  H   UNL A   1      32.861  27.586  20.684  1.00  0.00     0.163 HD
BRANCH   5   8
ATOM      8  C   UNL A   1      32.566  25.063  22.926  1.00  0.00     0.128 A 
ATOM      9  C   UNL A   1      32.328  23.792  25.365  1.00  0.00     0.078 A 
ATOM     10  C   UNL A   1      31.186  24.092  24.626  1.00  0.00     0.024 A 
ATOM     11  C   UNL A   1      33.571  24.051  24.786  1.00  0.00     0.082 A 
ATOM     12  C   UNL A   1      31.312  24.664  23.363  1.00  0.00     0.035 A 
ATOM     13  N   UNL A   1      33.692  24.725  23.613  1.00  0.00    -0.242 NA
BRANCH   9  14
ATOM     14  C   UNL A   1      32.179  23.180  26.648  1.00  0.00     0.101 C 
ATOM     15  N   UNL A   1      32.068  22.694  27.698  1.00  0.00    -0.192 NA
ENDBRANCH   9  14
BRANCH  11  16
ATOM     16  C   UNL A   1      34.811  23.476  25.340  1.00  0.00     0.030 C 
ATOM     17  C   UNL A   1      36.024  24.050  25.265  1.00  0.00     0.010 C 
BRANCH  17  18
ATOM     18  C   UNL A   1      37.234  23.315  25.657  1.00  0.00    -0.024 A 
ATOM     19  C   UNL A   1      38.252  23.962  26.367  1.00  0.00     0.012 A 
ATOM     20  C   UNL A   1      37.402  21.967  25.294  1.00  0.00     0.032 A 
ATOM     21  C   UNL A   1      39.401  23.263  26.751  1.00  0.00     0.048 A 
ATOM     22  C   UNL A   1      38.547  21.273  25.679  1.00  0.00     0.083 A 
ATOM     23  C   UNL A   1      39.539  21.921  26.413  1.00  0.00     0.134 A 
ATOM     24  Cl  UNL A   1      38.719  19.613  25.245  1.00  0.00    -0.080 Cl
BRANCH  23  25
ATOM     25  O   UNL A   1      40.672  21.276  26.827  1.00  0.00    -0.506 OA
ATOM     26  H   UNL A   1      40.776  21.043  27.728  1.00  0.00     0.293 HD
ENDBRANCH  23  25
ENDBRANCH  17  18
ENDBRANCH  11  16
ENDBRANCH   5   8
ENDBRANCH   3   4
ENDBRANCH   2   3
ENDBRANCH   1   2
BRANCH   1  27
ATOM     27  C   UNL A   1      31.528  27.752  25.251  1.00  0.00     0.002 C 
BRANCH  27  28
ATOM     28  C   UNL A   1      31.825  28.825  26.303  1.00  0.00     0.021 C 
BRANCH  28  29
ATOM     29  C   UNL A   1      33.020  29.717  25.987  1.00  0.00     0.116 C 
BRANCH  29  30
ATOM     30  N   UNL A   1      32.776  31.103  26.346  1.00  0.00    -0.352 N 
ATOM     31  C   UNL A   1      33.404  31.886  27.281  1.00  0.00     0.251 C 
ATOM     32  H   UNL A   1      32.055  31.547  25.844  1.00  0.00     0.163 HD
ATOM     33  O   UNL A   1      32.921  32.964  27.609  1.00  0.00    -0.269 OA
BRANCH  31  34
ATOM     34  C   UNL A   1      34.657  31.416  27.908  1.00  0.00     0.039 A 
ATOM     35  C   UNL A   1      35.721  32.312  28.041  1.00  0.00     0.014 A 
ATOM     36  C   UNL A   1      34.788  30.098  28.354  1.00  0.00     0.014 A 
ATOM     37  C   UNL A   1      36.895  31.899  28.672  1.00  0.00     0.010 A 
ATOM     38  C   UNL A   1      35.923  29.715  29.062  1.00  0.00     0.010 A 
ATOM     39  C   UNL A   1      36.992  30.609  29.223  1.00  0.00    -0.014 A 
BRANCH  39  40
ATOM     40  C   UNL A   1      38.204  30.185  29.968  1.00  0.00     0.031 A 
ATOM     41  C   UNL A   1      38.441  30.669  31.372  1.00  0.00     0.074 A 
ATOM     42  C   UNL A   1      39.115  29.397  29.361  1.00  0.00     0.049 A 
ATOM     43  N   UNL A   1      39.462  30.449  32.161  1.00  0.00    -0.248 NA
ATOM     44  C   UNL A   1      37.406  31.535  31.959  1.00  0.00     0.031 C 
ATOM     45  C   UNL A   1      39.018  28.895  27.989  1.00  0.00     0.029 A 
ATOM     46  N   UNL A   1      40.305  28.886  29.817  1.00  0.00    -0.354 N 
ATOM     47  C   UNL A   1      39.192  31.147  33.331  1.00  0.00     0.074 A 
ATOM     48  C   UNL A   1      37.945  31.852  33.126  1.00  0.00     0.031 C 
ATOM     49  C   UNL A   1      40.085  28.125  27.725  1.00  0.00     0.029 A 
ATOM     50  C   UNL A   1      40.969  28.122  28.887  1.00  0.00     0.049 A 
ATOM     51  H   UNL A   1      40.650  29.051  30.724  1.00  0.00     0.167 HD
ATOM     52  C   UNL A   1      39.905  31.176  34.481  1.00  0.00     0.037 A 
ATOM     53  C   UNL A   1      42.163  27.503  28.957  1.00  0.00     0.037 A 
ATOM     54  C   UNL A   1      41.142  30.466  34.683  1.00  0.00     0.049 A 
ATOM     55  C   UNL A   1      42.957  27.592  30.234  1.00  0.00     0.074 A 
ATOM     56  C   UNL A   1      41.921  30.399  35.825  1.00  0.00     0.029 A 
ATOM     57  N   UNL A   1      41.786  29.708  33.715  1.00  0.00    -0.354 N 
ATOM     58  N   UNL A   1      42.659  28.201  31.356  1.00  0.00    -0.248 NA
ATOM     59  C   UNL A   1      44.253  26.901  30.255  1.00  0.00     0.031 C 
ATOM     60  C   UNL A   1      43.069  29.661  35.528  1.00  0.00     0.029 A 
ATOM     61  C   UNL A   1      42.969  29.198  34.227  1.00  0.00     0.049 A 
ATOM     62  H   UNL A   1      41.453  29.555  32.802  1.00  0.00     0.167 HD
ATOM     63  C   UNL A   1      43.708  27.936  32.225  1.00  0.00     0.074 A 
ATOM     64  C   UNL A   1      44.642  27.095  31.506  1.00  0.00     0.031 C 
ATOM     65  C   UNL A   1      43.886  28.352  33.504  1.00  0.00     0.037 A 
BRANCH  52  66
ATOM     66  C   UNL A   1      39.371  32.002  35.617  1.00  0.00     0.064 A 
ATOM     67  C   UNL A   1      38.476  31.471  36.559  1.00  0.00     0.173 A 
ATOM     68  C   UNL A   1      39.803  33.324  35.801  1.00  0.00     0.173 A 
ATOM     69  F   UNL A   1      38.022  30.215  36.428  1.00  0.00    -0.203 F 
ATOM     70  C   UNL A   1      38.014  32.240  37.625  1.00  0.00     0.198 A 
ATOM     71  C   UNL A   1      39.369  34.078  36.888  1.00  0.00     0.198 A 
ATOM     72  F   UNL A   1      40.663  33.882  34.935  1.00  0.00    -0.203 F 
ATOM     73  F   UNL A   1      37.122  31.726  38.482  1.00  0.00    -0.200 F 
ATOM     74  C   UNL A   1      38.468  33.539  37.794  1.00  0.00     0.200 A 
ATOM     75  F   UNL A   1      39.824  35.327  37.060  1.00  0.00    -0.200 F 
ATOM     76  F   UNL A   1      38.035  34.272  38.828  1.00  0.00    -0.200 F 
ENDBRANCH  52  66
BRANCH  53  77
ATOM     77  C   UNL A   1      42.688  26.749  27.786  1.00  0.00     0.064 A 
ATOM     78  C   UNL A   1      42.489  25.366  27.666  1.00  0.00     0.173 A 
ATOM     79  C   UNL A   1      43.432  27.387  26.782  1.00  0.00     0.173 A 
ATOM     80  F   UNL A   1      41.799  24.704  28.606  1.00  0.00    -0.203 F 
ATOM     81  C   UNL A   1      43.048  24.645  26.611  1.00  0.00     0.198 A 
ATOM     82  C   UNL A   1      43.955  26.672  25.707  1.00  0.00     0.198 A 
ATOM     83  F   UNL A   1      43.647  28.710  26.842  1.00  0.00    -0.203 F 
ATOM     84  F   UNL A   1      42.902  23.315  26.561  1.00  0.00    -0.200 F 
ATOM     85  C   UNL A   1      43.776  25.300  25.630  1.00  0.00     0.200 A 
ATOM     86  F   UNL A   1      44.641  27.314  24.750  1.00  0.00    -0.200 F 
ATOM     87  F   UNL A   1      44.316  24.608  24.618  1.00  0.00    -0.200 F 
ENDBRANCH  53  77
BRANCH  65  88
ATOM     88  C   UNL A   1      45.109  27.865  34.228  1.00  0.00     0.064 A 
ATOM     89  C   UNL A   1      46.308  28.593  34.238  1.00  0.00     0.173 A 
ATOM     90  C   UNL A   1      45.068  26.664  34.956  1.00  0.00     0.173 A 
ATOM     91  F   UNL A   1      46.407  29.741  33.549  1.00  0.00    -0.203 F 
ATOM     92  C   UNL A   1      47.428  28.122  34.918  1.00  0.00     0.198 A 
ATOM     93  C   UNL A   1      46.177  26.217  35.669  1.00  0.00     0.198 A 
ATOM     94  F   UNL A   1      43.945  25.931  34.990  1.00  0.00    -0.203 F 
ATOM     95  F   UNL A   1      48.580  28.804  34.860  1.00  0.00    -0.200 F 
ATOM     96  C   UNL A   1      47.359  26.940  35.640  1.00  0.00     0.200 A 
ATOM     97  F   UNL A   1      46.099  25.086  36.384  1.00  0.00    -0.200 F 
ATOM     98  F   UNL A   1      48.434  26.493  36.302  1.00  0.00    -0.200 F 
ENDBRANCH  65  88
ENDBRANCH  39  40
ENDBRANCH  31  34
ENDBRANCH  29  30
ENDBRANCH  28  29
ENDBRANCH  27  28
ENDBRANCH   1  27
TORSDOF 17
ENDMDL
MODEL 2
REMARK VINA RESULT:     -11.8      1.895      7.559
REMARK SMILES N#Cc1ccc(C(=O)NCCCCCCNC(=O)c2ccc(-c3c4nc(c(-c5c(F)c(F)c(F)c(F)c5F)c5ccc([nH]5)c(-c5c(F)c(F)c(F)c(F)c5F)c5nc(c(-c6c(F)c(F)c(F)c(F)c6F)c6ccc3[nH]6)C=C5)C=C4)cc2)nc1/C=C/c1ccc(O)c(Cl)c1
REMARK SMILES IDX 12 1 11 2 10 3 9 4 7 5 8 6 6 8 3 9 4 10 83 11 5 12 82 13
REMARK SMILES IDX 2 14 1 15 84 16 85 17 86 18 87 19 93 20 88 21 91 22 89 23
REMARK SMILES IDX 92 24 90 25 13 27 14 28 15 29 16 30 17 31 18 33 19 34 20 35
REMARK SMILES IDX 81 36 21 37 80 38 22 39 23 40 24 41 74 42 25 43 79 44 73 45
REMARK SMILES IDX 75 46 26 47 78 48 72 49 71 50 27 52 59 53 39 54 58 55 40 56
REMARK SMILES IDX 43 57 57 58 76 59 41 60 42 61 56 63 77 64 44 65 28 66 29 67
REMARK SMILES IDX 37 68 30 69 31 70 35 71 38 72 32 73 33 74 36 75 34 76 60 77
REMARK SMILES IDX 61 78 69 79 62 80 63 81 67 82 70 83 64 84 65 85 68 86 66 87
REMARK SMILES IDX 45 88 46 89 54 90 47 91 48 92 52 93 55 94 49 95 50 96 53 97
REMARK SMILES IDX 51 98
REMARK H PARENT 9 7 90 26 16 32 75 51 43 62
REMARK Flexibility Score: inf
ROOT
ATOM      1  C   UNL A   1      31.779  29.851  25.752  1.00  0.00     0.002 C 
ENDROOT
BRANCH   1   2
ATOM      2  C   UNL A   1      32.014  29.200  24.391  1.00  0.00     0.021 C 
BRANCH   2   3
ATOM      3  C   UNL A   1      33.463  28.878  24.052  1.00  0.00     0.116 C 
BRANCH   3   4
ATOM      4  N   UNL A   1      33.614  28.028  22.889  1.00  0.00    -0.351 N 
ATOM      5  C   UNL A   1      33.542  26.659  22.719  1.00  0.00     0.269 C 
ATOM      6  O   UNL A   1      33.765  26.232  21.586  1.00  0.00    -0.268 OA
ATOM      7  H   UNL A   1      33.803  28.521  22.059  1.00  0.00     0.163 HD
BRANCH   5   8
ATOM      8  C   UNL A   1      33.239  25.694  23.840  1.00  0.00     0.128 A 
ATOM      9  C   UNL A   1      32.921  24.028  26.017  1.00  0.00     0.078 A 
ATOM     10  C   UNL A   1      31.816  24.686  25.481  1.00  0.00     0.024 A 
ATOM     11  C   UNL A   1      34.143  24.153  25.356  1.00  0.00     0.082 A 
ATOM     12  C   UNL A   1      31.966  25.466  24.338  1.00  0.00     0.035 A 
ATOM     13  N   UNL A   1      34.316  25.014  24.319  1.00  0.00    -0.242 NA
BRANCH   9  14
ATOM     14  C   UNL A   1      32.742  23.210  27.175  1.00  0.00     0.101 C 
ATOM     15  N   UNL A   1      32.578  22.545  28.114  1.00  0.00    -0.192 NA
ENDBRANCH   9  14
BRANCH  11  16
ATOM     16  C   UNL A   1      35.271  23.249  25.649  1.00  0.00     0.030 C 
ATOM     17  C   UNL A   1      36.391  23.154  24.912  1.00  0.00     0.010 C 
BRANCH  17  18
ATOM     18  C   UNL A   1      37.369  22.084  25.157  1.00  0.00    -0.024 A 
ATOM     19  C   UNL A   1      37.114  20.782  24.712  1.00  0.00     0.012 A 
ATOM     20  C   UNL A   1      38.551  22.346  25.871  1.00  0.00     0.032 A 
ATOM     21  C   UNL A   1      38.046  19.764  24.934  1.00  0.00     0.048 A 
ATOM     22  C   UNL A   1      39.478  21.330  26.089  1.00  0.00     0.083 A 
ATOM     23  C   UNL A   1      39.227  20.044  25.613  1.00  0.00     0.134 A 
ATOM     24  Cl  UNL A   1      40.934  21.680  26.946  1.00  0.00    -0.080 Cl
BRANCH  23  25
ATOM     25  O   UNL A   1      40.115  19.020  25.790  1.00  0.00    -0.506 OA
ATOM     26  H   UNL A   1      40.143  18.559  26.605  1.00  0.00     0.293 HD
ENDBRANCH  23  25
ENDBRANCH  17  18
ENDBRANCH  11  16
ENDBRANCH   5   8
ENDBRANCH   3   4
ENDBRANCH   2   3
ENDBRANCH   1   2
BRANCH   1  27
ATOM     27  C   UNL A   1      31.243  31.285  25.718  1.00  0.00     0.002 C 
BRANCH  27  28
ATOM     28  C   UNL A   1      31.371  32.071  27.026  1.00  0.00     0.021 C 
BRANCH  28  29
ATOM     29  C   UNL A   1      32.674  32.848  27.181  1.00  0.00     0.116 C 
BRANCH  29  30
ATOM     30  N   UNL A   1      32.442  34.233  27.554  1.00  0.00    -0.352 N 
ATOM     31  C   UNL A   1      32.992  34.965  28.574  1.00  0.00     0.251 C 
ATOM     32  H   UNL A   1      31.795  34.717  26.990  1.00  0.00     0.163 HD
ATOM     33  O   UNL A   1      32.515  36.052  28.881  1.00  0.00    -0.269 OA
BRANCH  31  34
ATOM     34  C   UNL A   1      34.152  34.431  29.318  1.00  0.00     0.039 A 
ATOM     35  C   UNL A   1      33.938  33.844  30.567  1.00  0.00     0.014 A 
ATOM     36  C   UNL A   1      35.444  34.517  28.793  1.00  0.00     0.014 A 
ATOM     37  C   UNL A   1      35.015  33.292  31.262  1.00  0.00     0.010 A 
ATOM     38  C   UNL A   1      36.500  33.890  29.445  1.00  0.00     0.010 A 
ATOM     39  C   UNL A   1      36.300  33.277  30.690  1.00  0.00    -0.014 A 
BRANCH  39  40
ATOM     40  C   UNL A   1      37.438  32.622  31.384  1.00  0.00     0.031 A 
ATOM     41  C   UNL A   1      38.129  31.441  30.760  1.00  0.00     0.074 A 
ATOM     42  C   UNL A   1      37.820  33.066  32.598  1.00  0.00     0.049 A 
ATOM     43  N   UNL A   1      39.105  30.707  31.235  1.00  0.00    -0.248 NA
ATOM     44  C   UNL A   1      37.645  31.010  29.438  1.00  0.00     0.031 C 
ATOM     45  C   UNL A   1      37.203  34.177  33.324  1.00  0.00     0.029 A 
ATOM     46  N   UNL A   1      38.814  32.632  33.440  1.00  0.00    -0.354 N 
ATOM     47  C   UNL A   1      39.348  29.734  30.274  1.00  0.00     0.074 A 
ATOM     48  C   UNL A   1      38.376  29.927  29.221  1.00  0.00     0.031 C 
ATOM     49  C   UNL A   1      37.849  34.358  34.486  1.00  0.00     0.029 A 
ATOM     50  C   UNL A   1      38.891  33.343  34.614  1.00  0.00     0.049 A 
ATOM     51  H   UNL A   1      39.416  31.884  33.222  1.00  0.00     0.167 HD
ATOM     52  C   UNL A   1      40.312  28.784  30.261  1.00  0.00     0.037 A 
ATOM     53  C   UNL A   1      39.698  33.183  35.680  1.00  0.00     0.037 A 
ATOM     54  C   UNL A   1      41.282  28.601  31.310  1.00  0.00     0.049 A 
ATOM     55  C   UNL A   1      40.730  32.086  35.656  1.00  0.00     0.074 A 
ATOM     56  C   UNL A   1      42.323  27.692  31.371  1.00  0.00     0.029 A 
ATOM     57  N   UNL A   1      41.323  29.336  32.486  1.00  0.00    -0.354 N 
ATOM     58  N   UNL A   1      40.994  31.215  34.713  1.00  0.00    -0.248 NA
ATOM     59  C   UNL A   1      41.582  31.955  36.846  1.00  0.00     0.031 C 
ATOM     60  C   UNL A   1      42.949  27.828  32.613  1.00  0.00     0.029 A 
ATOM     61  C   UNL A   1      42.352  28.877  33.292  1.00  0.00     0.049 A 
ATOM     62  H   UNL A   1      40.712  30.073  32.714  1.00  0.00     0.167 HD
ATOM     63  C   UNL A   1      42.061  30.459  35.178  1.00  0.00     0.074 A 
ATOM     64  C   UNL A   1      42.410  30.988  36.480  1.00  0.00     0.031 C 
ATOM     65  C   UNL A   1      42.696  29.419  34.583  1.00  0.00     0.037 A 
BRANCH  52  66
ATOM     66  C   UNL A   1      40.370  27.862  29.076  1.00  0.00     0.064 A 
ATOM     67  C   UNL A   1      39.609  26.684  29.019  1.00  0.00     0.173 A 
ATOM     68  C   UNL A   1      41.151  28.188  27.956  1.00  0.00     0.173 A 
ATOM     69  F   UNL A   1      38.851  26.318  30.064  1.00  0.00    -0.203 F 
ATOM     70  C   UNL A   1      39.649  25.855  27.900  1.00  0.00     0.198 A 
ATOM     71  C   UNL A   1      41.161  27.377  26.825  1.00  0.00     0.198 A 
ATOM     72  F   UNL A   1      41.894  29.305  27.952  1.00  0.00    -0.203 F 
ATOM     73  F   UNL A   1      38.953  24.711  27.890  1.00  0.00    -0.200 F 
ATOM     74  C   UNL A   1      40.417  26.208  26.800  1.00  0.00     0.200 A 
ATOM     75  F   UNL A   1      41.888  27.731  25.756  1.00  0.00    -0.200 F 
ATOM     76  F   UNL A   1      40.442  25.418  25.719  1.00  0.00    -0.200 F 
ENDBRANCH  52  66
BRANCH  53  77
ATOM     77  C   UNL A   1      39.565  34.077  36.864  1.00  0.00     0.064 A 
ATOM     78  C   UNL A   1      40.233  35.309  36.921  1.00  0.00     0.173 A 
ATOM     79  C   UNL A   1      38.798  33.702  37.977  1.00  0.00     0.173 A 
ATOM     80  F   UNL A   1      40.993  35.708  35.890  1.00  0.00    -0.203 F 
ATOM     81  C   UNL A   1      40.173  36.109  38.061  1.00  0.00     0.198 A 
ATOM     82  C   UNL A   1      38.706  34.522  39.099  1.00  0.00     0.198 A 
ATOM     83  F   UNL A   1      38.132  32.537  37.974  1.00  0.00    -0.203 F 
ATOM     84  F   UNL A   1      40.879  37.246  38.114  1.00  0.00    -0.200 F 
ATOM     85  C   UNL A   1      39.406  35.717  39.146  1.00  0.00     0.200 A 
ATOM     86  F   UNL A   1      37.946  34.148  40.138  1.00  0.00    -0.200 F 
ATOM     87  F   UNL A   1      39.351  36.486  40.244  1.00  0.00    -0.200 F 
ENDBRANCH  53  77
BRANCH  65  88
ATOM     88  C   UNL A   1      43.867  28.815  35.307  1.00  0.00     0.064 A 
ATOM     89  C   UNL A   1      43.709  27.787  36.249  1.00  0.00     0.173 A 
ATOM     90  C   UNL A   1      45.173  29.249  35.026  1.00  0.00     0.173 A 
ATOM     91  F   UNL A   1      42.483  27.343  36.565  1.00  0.00    -0.203 F 
ATOM     92  C   UNL A   1      44.809  27.242  36.906  1.00  0.00     0.198 A 
ATOM     93  C   UNL A   1      46.273  28.673  35.654  1.00  0.00     0.198 A 
ATOM     94  F   UNL A   1      45.383  30.222  34.127  1.00  0.00    -0.203 F 
ATOM     95  F   UNL A   1      44.627  26.306  37.847  1.00  0.00    -0.200 F 
ATOM     96  C   UNL A   1      46.089  27.678  36.602  1.00  0.00     0.200 A 
ATOM     97  F   UNL A   1      47.510  29.081  35.341  1.00  0.00    -0.200 F 
ATOM     98  F   UNL A   1      47.147  27.145  37.228  1.00  0.00    -0.200 F 
ENDBRANCH  65  88
ENDBRANCH  39  40
ENDBRANCH  31  34
ENDBRANCH  29  30
ENDBRANCH  28  29
ENDBRANCH  27  28
ENDBRANCH   1  27
TORSDOF 17
ENDMDL
MODEL 3
REMARK VINA RESULT:     -11.7      1.955      7.510
REMARK SMILES N#Cc1ccc(C(=O)NCCCCCCNC(=O)c2ccc(-c3c4nc(c(-c5c(F)c(F)c(F)c(F)c5F)c5ccc([nH]5)c(-c5c(F)c(F)c(F)c(F)c5F)c5nc(c(-c6c(F)c(F)c(F)c(F)c6F)c6ccc3[nH]6)C=C5)C=C4)cc2)nc1/C=C/c1ccc(O)c(Cl)c1
REMARK SMILES IDX 12 1 11 2 10 3 9 4 7 5 8 6 6 8 3 9 4 10 83 11 5 12 82 13
REMARK SMILES IDX 2 14 1 15 84 16 85 17 86 18 87 19 93 20 88 21 91 22 89 23
REMARK SMILES IDX 92 24 90 25 13 27 14 28 15 29 16 30 17 31 18 33 19 34 20 35
REMARK SMILES IDX 81 36 21 37 80 38 22 39 23 40 24 41 74 42 25 43 79 44 73 45
REMARK SMILES IDX 75 46 26 47 78 48 72 49 71 50 27 52 59 53 39 54 58 55 40 56
REMARK SMILES IDX 43 57 57 58 76 59 41 60 42 61 56 63 77 64 44 65 28 66 29 67
REMARK SMILES IDX 37 68 30 69 31 70 35 71 38 72 32 73 33 74 36 75 34 76 60 77
REMARK SMILES IDX 61 78 69 79 62 80 63 81 67 82 70 83 64 84 65 85 68 86 66 87
REMARK SMILES IDX 45 88 46 89 54 90 47 91 48 92 52 93 55 94 49 95 50 96 53 97
REMARK SMILES IDX 51 98
REMARK H PARENT 9 7 90 26 16 32 75 51 43 62
REMARK Flexibility Score: inf
ROOT
ATOM      1  C   UNL A   1      32.297  29.933  27.145  1.00  0.00     0.002 C 
ENDROOT
BRANCH   1   2
ATOM      2  C   UNL A   1      32.339  28.438  26.838  1.00  0.00     0.021 C 
BRANCH   2   3
ATOM      3  C   UNL A   1      33.660  27.913  26.291  1.00  0.00     0.116 C 
BRANCH   3   4
ATOM      4  N   UNL A   1      33.797  28.068  24.857  1.00  0.00    -0.351 N 
ATOM      5  C   UNL A   1      33.633  27.189  23.804  1.00  0.00     0.269 C 
ATOM      6  O   UNL A   1      33.873  27.627  22.678  1.00  0.00    -0.268 OA
ATOM      7  H   UNL A   1      34.056  28.975  24.579  1.00  0.00     0.163 HD
BRANCH   5   8
ATOM      8  C   UNL A   1      33.215  25.749  23.977  1.00  0.00     0.128 A 
ATOM      9  C   UNL A   1      32.560  23.130  24.555  1.00  0.00     0.078 A 
ATOM     10  C   UNL A   1      31.643  23.944  23.892  1.00  0.00     0.024 A 
ATOM     11  C   UNL A   1      33.832  23.646  24.807  1.00  0.00     0.082 A 
ATOM     12  C   UNL A   1      32.004  25.240  23.534  1.00  0.00     0.035 A 
ATOM     13  N   UNL A   1      34.139  24.949  24.574  1.00  0.00    -0.242 NA
BRANCH   9  14
ATOM     14  C   UNL A   1      32.181  21.794  24.889  1.00  0.00     0.101 C 
ATOM     15  N   UNL A   1      31.856  20.711  25.157  1.00  0.00    -0.192 NA
ENDBRANCH   9  14
BRANCH  11  16
ATOM     16  C   UNL A   1      34.953  22.770  25.198  1.00  0.00     0.030 C 
ATOM     17  C   UNL A   1      36.241  22.985  24.882  1.00  0.00     0.010 C 
BRANCH  17  18
ATOM     18  C   UNL A   1      37.262  21.958  25.132  1.00  0.00    -0.024 A 
ATOM     19  C   UNL A   1      37.041  20.634  24.737  1.00  0.00     0.012 A 
ATOM     20  C   UNL A   1      38.454  22.283  25.803  1.00  0.00     0.032 A 
ATOM     21  C   UNL A   1      38.014  19.656  24.964  1.00  0.00     0.048 A 
ATOM     22  C   UNL A   1      39.422  21.307  26.027  1.00  0.00     0.083 A 
ATOM     23  C   UNL A   1      39.203  19.998  25.600  1.00  0.00     0.134 A 
ATOM     24  Cl  UNL A   1      40.888  21.734  26.829  1.00  0.00    -0.080 Cl
BRANCH  23  25
ATOM     25  O   UNL A   1      40.131  19.011  25.783  1.00  0.00    -0.506 OA
ATOM     26  H   UNL A   1      40.339  18.427  25.081  1.00  0.00     0.293 HD
ENDBRANCH  23  25
ENDBRANCH  17  18
ENDBRANCH  11  16
ENDBRANCH   5   8
ENDBRANCH   3   4
ENDBRANCH   2   3
ENDBRANCH   1   2
BRANCH   1  27
ATOM     27  C   UNL A   1      31.495  30.790  26.160  1.00  0.00     0.002 C 
BRANCH  27  28
ATOM     28  C   UNL A   1      31.396  32.279  26.507  1.00  0.00     0.021 C 
BRANCH  28  29
ATOM     29  C   UNL A   1      32.568  32.827  27.313  1.00  0.00     0.116 C 
BRANCH  29  30
ATOM     30  N   UNL A   1      32.388  34.228  27.653  1.00  0.00    -0.352 N 
ATOM     31  C   UNL A   1      32.994  34.973  28.632  1.00  0.00     0.251 C 
ATOM     32  H   UNL A   1      31.736  34.715  27.098  1.00  0.00     0.163 HD
ATOM     33  O   UNL A   1      32.559  36.082  28.924  1.00  0.00    -0.269 OA
BRANCH  31  34
ATOM     34  C   UNL A   1      34.164  34.427  29.351  1.00  0.00     0.039 A 
ATOM     35  C   UNL A   1      33.963  33.782  30.573  1.00  0.00     0.014 A 
ATOM     36  C   UNL A   1      35.454  34.558  28.829  1.00  0.00     0.014 A 
ATOM     37  C   UNL A   1      35.051  33.219  31.243  1.00  0.00     0.010 A 
ATOM     38  C   UNL A   1      36.522  33.921  29.452  1.00  0.00     0.010 A 
ATOM     39  C   UNL A   1      36.334  33.251  30.669  1.00  0.00    -0.014 A 
BRANCH  39  40
ATOM     40  C   UNL A   1      37.484  32.586  31.332  1.00  0.00     0.031 A 
ATOM     41  C   UNL A   1      38.167  31.417  30.677  1.00  0.00     0.074 A 
ATOM     42  C   UNL A   1      37.886  33.009  32.548  1.00  0.00     0.049 A 
ATOM     43  N   UNL A   1      39.151  30.677  31.123  1.00  0.00    -0.248 NA
ATOM     44  C   UNL A   1      37.662  31.008  29.356  1.00  0.00     0.031 C 
ATOM     45  C   UNL A   1      37.279  34.106  33.303  1.00  0.00     0.029 A 
ATOM     46  N   UNL A   1      38.894  32.563  33.365  1.00  0.00    -0.354 N 
ATOM     47  C   UNL A   1      39.380  29.721  30.142  1.00  0.00     0.074 A 
ATOM     48  C   UNL A   1      38.390  29.930  29.107  1.00  0.00     0.031 C 
ATOM     49  C   UNL A   1      37.944  34.268  34.458  1.00  0.00     0.029 A 
ATOM     50  C   UNL A   1      38.989  33.253  34.550  1.00  0.00     0.049 A 
ATOM     51  H   UNL A   1      39.494  31.819  33.125  1.00  0.00     0.167 HD
ATOM     52  C   UNL A   1      40.345  28.773  30.095  1.00  0.00     0.037 A 
ATOM     53  C   UNL A   1      39.814  33.076  35.601  1.00  0.00     0.037 A 
ATOM     54  C   UNL A   1      41.332  28.573  31.125  1.00  0.00     0.049 A 
ATOM     55  C   UNL A   1      40.847  31.981  35.540  1.00  0.00     0.074 A 
ATOM     56  C   UNL A   1      42.376  27.666  31.153  1.00  0.00     0.029 A 
ATOM     57  N   UNL A   1      41.392  29.288  32.313  1.00  0.00    -0.354 N 
ATOM     58  N   UNL A   1      41.096  31.127  34.578  1.00  0.00    -0.248 NA
ATOM     59  C   UNL A   1      41.719  31.831  36.714  1.00  0.00     0.031 C 
ATOM     60  C   UNL A   1      43.022  27.781  32.386  1.00  0.00     0.029 A 
ATOM     61  C   UNL A   1      42.435  28.816  33.094  1.00  0.00     0.049 A 
ATOM     62  H   UNL A   1      40.784  30.020  32.564  1.00  0.00     0.167 HD
ATOM     63  C   UNL A   1      42.173  30.365  35.012  1.00  0.00     0.074 A 
ATOM     64  C   UNL A   1      42.542  30.871  36.317  1.00  0.00     0.031 C 
ATOM     65  C   UNL A   1      42.799  29.337  34.388  1.00  0.00     0.037 A 
BRANCH  52  66
ATOM     66  C   UNL A   1      40.384  27.872  28.893  1.00  0.00     0.064 A 
ATOM     67  C   UNL A   1      41.144  28.190  27.757  1.00  0.00     0.173 A 
ATOM     68  C   UNL A   1      39.701  26.646  28.899  1.00  0.00     0.173 A 
ATOM     69  F   UNL A   1      41.811  29.352  27.693  1.00  0.00    -0.203 F 
ATOM     70  C   UNL A   1      41.196  27.329  26.663  1.00  0.00     0.198 A 
ATOM     71  C   UNL A   1      39.784  25.771  27.820  1.00  0.00     0.198 A 
ATOM     72  F   UNL A   1      38.964  26.287  29.961  1.00  0.00    -0.203 F 
ATOM     73  F   UNL A   1      41.888  27.678  25.571  1.00  0.00    -0.200 F 
ATOM     74  C   UNL A   1      40.525  26.116  26.699  1.00  0.00     0.200 A 
ATOM     75  F   UNL A   1      39.150  24.591  27.865  1.00  0.00    -0.200 F 
ATOM     76  F   UNL A   1      40.589  25.282  25.653  1.00  0.00    -0.200 F 
ENDBRANCH  52  66
BRANCH  53  77
ATOM     77  C   UNL A   1      39.699  33.949  36.801  1.00  0.00     0.064 A 
ATOM     78  C   UNL A   1      38.917  33.569  37.901  1.00  0.00     0.173 A 
ATOM     79  C   UNL A   1      40.337  35.197  36.858  1.00  0.00     0.173 A 
ATOM     80  F   UNL A   1      38.271  32.393  37.891  1.00  0.00    -0.203 F 
ATOM     81  C   UNL A   1      38.744  34.421  38.992  1.00  0.00     0.198 A 
ATOM     82  C   UNL A   1      40.197  36.029  37.966  1.00  0.00     0.198 A 
ATOM     83  F   UNL A   1      41.105  35.608  35.837  1.00  0.00    -0.203 F 
ATOM     84  F   UNL A   1      37.933  34.062  39.996  1.00  0.00    -0.200 F 
ATOM     85  C   UNL A   1      39.388  35.647  39.025  1.00  0.00     0.200 A 
ATOM     86  F   UNL A   1      40.839  37.205  38.002  1.00  0.00    -0.200 F 
ATOM     87  F   UNL A   1      39.220  36.467  40.072  1.00  0.00    -0.200 F 
ENDBRANCH  53  77
BRANCH  65  88
ATOM     88  C   UNL A   1      43.982  28.722  35.083  1.00  0.00     0.064 A 
ATOM     89  C   UNL A   1      45.288  29.200  34.893  1.00  0.00     0.173 A 
ATOM     90  C   UNL A   1      43.800  27.660  35.984  1.00  0.00     0.173 A 
ATOM     91  F   UNL A   1      45.521  30.205  34.035  1.00  0.00    -0.203 F 
ATOM     92  C   UNL A   1      46.367  28.615  35.549  1.00  0.00     0.198 A 
ATOM     93  C   UNL A   1      44.876  27.105  36.669  1.00  0.00     0.198 A 
ATOM     94  F   UNL A   1      42.572  27.169  36.211  1.00  0.00    -0.203 F 
ATOM     95  F   UNL A   1      47.611  29.047  35.303  1.00  0.00    -0.200 F 
ATOM     96  C   UNL A   1      46.160  27.576  36.443  1.00  0.00     0.200 A 
ATOM     97  F   UNL A   1      44.670  26.116  37.549  1.00  0.00    -0.200 F 
ATOM     98  F   UNL A   1      47.200  27.021  37.081  1.00  0.00    -0.200 F 
ENDBRANCH  65  88
ENDBRANCH  39  40
ENDBRANCH  31  34
ENDBRANCH  29  30
ENDBRANCH  28  29
ENDBRANCH  27  28
ENDBRANCH   1  27
TORSDOF 17
ENDMDL
