MODEL 1
REMARK VINA RESULT:     -12.0      0.000      0.000
REMARK SMILES C[C@H](C(=O)N[C@H](C)C(=O)NCCCCCCNC(=O)c1ccc(-c2c3nc(c(-c4c(F)c(F)c(F)c(F)c4F)c4ccc([nH]4)c(-c4c(F)c(F)c(F)c(F)c4F)c4nc(c(-c5c(F)c(F)c(F)c(F)c5F)c5ccc2[nH]5)C=C4)C=C3)cc1)n1cnc2ccccc21
REMARK SMILES IDX 13 1 12 2 11 3 10 4 8 5 9 6 6 8 7 9 5 10 3 11 4 12 2 14 1 15
REMARK SMILES IDX 83 16 84 17 91 18 85 19 86 20 90 21 87 22 89 23 88 24 14 25
REMARK SMILES IDX 15 26 16 27 17 28 18 29 19 31 20 32 21 33 82 34 22 35 81 36
REMARK SMILES IDX 23 37 24 38 25 39 75 40 26 41 80 42 74 43 76 44 27 45 79 46
REMARK SMILES IDX 73 47 72 48 28 50 60 51 40 52 59 53 41 54 44 55 58 56 77 57
REMARK SMILES IDX 42 58 43 59 57 61 78 62 45 63 29 64 30 65 38 66 31 67 32 68
REMARK SMILES IDX 36 69 39 70 33 71 34 72 37 73 35 74 61 75 62 76 70 77 63 78
REMARK SMILES IDX 64 79 68 80 71 81 65 82 66 83 69 84 67 85 46 86 47 87 55 88
REMARK SMILES IDX 48 89 49 90 53 91 56 92 50 93 51 94 54 95 52 96
REMARK H PARENT 10 7 5 13 17 30 76 49 44 60
REMARK Flexibility Score: inf
ROOT
ATOM      1  C   UNL A   1      32.432  29.944  27.077  1.00  0.00     0.002 C 
ENDROOT
BRANCH   1   2
ATOM      2  C   UNL A   1      32.519  28.466  26.665  1.00  0.00     0.021 C 
BRANCH   2   3
ATOM      3  C   UNL A   1      33.864  28.036  26.061  1.00  0.00     0.116 C 
BRANCH   3   4
ATOM      4  N   UNL A   1      34.023  28.579  24.726  1.00  0.00    -0.354 N 
ATOM      5  C   UNL A   1      33.690  28.097  23.502  1.00  0.00     0.242 C 
ATOM      6  O   UNL A   1      34.150  28.686  22.516  1.00  0.00    -0.273 OA
ATOM      7  H   UNL A   1      34.453  29.463  24.702  1.00  0.00     0.163 HD
BRANCH   5   8
ATOM      8  C   UNL A   1      32.904  26.791  23.281  1.00  0.00     0.168 C 
ATOM      9  C   UNL A   1      31.530  27.127  22.698  1.00  0.00     0.041 C 
BRANCH   8  10
ATOM     10  N   UNL A   1      33.520  25.711  22.507  1.00  0.00    -0.343 N 
ATOM     11  C   UNL A   1      33.304  24.363  22.563  1.00  0.00     0.243 C 
ATOM     12  O   UNL A   1      33.569  23.732  21.534  1.00  0.00    -0.273 OA
ATOM     13  H   UNL A   1      34.191  25.999  21.847  1.00  0.00     0.164 HD
BRANCH  11  14
ATOM     14  C   UNL A   1      32.758  23.661  23.813  1.00  0.00     0.174 C 
ATOM     15  C   UNL A   1      31.391  23.011  23.533  1.00  0.00     0.042 C 
BRANCH  14  16
ATOM     16  N   UNL A   1      33.656  22.620  24.301  1.00  0.00    -0.318 N 
ATOM     17  C   UNL A   1      33.396  21.277  24.261  1.00  0.00     0.201 A 
ATOM     18  C   UNL A   1      34.950  22.789  24.738  1.00  0.00     0.069 A 
ATOM     19  N   UNL A   1      34.427  20.572  24.665  1.00  0.00    -0.237 NA
ATOM     20  C   UNL A   1      35.404  21.491  24.946  1.00  0.00     0.088 A 
ATOM     21  C   UNL A   1      35.749  23.919  24.958  1.00  0.00     0.028 A 
ATOM     22  C   UNL A   1      36.719  21.286  25.380  1.00  0.00     0.030 A 
ATOM     23  C   UNL A   1      37.058  23.696  25.386  1.00  0.00     0.002 A 
ATOM     24  C   UNL A   1      37.543  22.402  25.578  1.00  0.00     0.002 A 
ENDBRANCH  14  16
ENDBRANCH  11  14
ENDBRANCH   8  10
ENDBRANCH   5   8
ENDBRANCH   3   4
ENDBRANCH   2   3
ENDBRANCH   1   2
BRANCH   1  25
ATOM     25  C   UNL A   1      31.618  30.835  26.137  1.00  0.00     0.002 C 
BRANCH  25  26
ATOM     26  C   UNL A   1      31.404  32.279  26.583  1.00  0.00     0.021 C 
BRANCH  26  27
ATOM     27  C   UNL A   1      32.609  32.923  27.248  1.00  0.00     0.116 C 
BRANCH  27  28
ATOM     28  N   UNL A   1      32.373  34.306  27.628  1.00  0.00    -0.352 N 
ATOM     29  C   UNL A   1      32.975  35.035  28.623  1.00  0.00     0.251 C 
ATOM     30  H   UNL A   1      31.691  34.783  27.102  1.00  0.00     0.163 HD
ATOM     31  O   UNL A   1      32.558  36.156  28.914  1.00  0.00    -0.269 OA
BRANCH  29  32
ATOM     32  C   UNL A   1      34.109  34.454  29.372  1.00  0.00     0.039 A 
ATOM     33  C   UNL A   1      33.854  33.773  30.564  1.00  0.00     0.014 A 
ATOM     34  C   UNL A   1      35.418  34.563  28.892  1.00  0.00     0.014 A 
ATOM     35  C   UNL A   1      34.905  33.158  31.245  1.00  0.00     0.010 A 
ATOM     36  C   UNL A   1      36.447  33.872  29.521  1.00  0.00     0.010 A 
ATOM     37  C   UNL A   1      36.206  33.177  30.713  1.00  0.00    -0.014 A 
BRANCH  37  38
ATOM     38  C   UNL A   1      37.317  32.482  31.409  1.00  0.00     0.031 A 
ATOM     39  C   UNL A   1      38.024  31.330  30.750  1.00  0.00     0.074 A 
ATOM     40  C   UNL A   1      37.661  32.862  32.654  1.00  0.00     0.049 A 
ATOM     41  N   UNL A   1      39.030  30.616  31.188  1.00  0.00    -0.248 NA
ATOM     42  C   UNL A   1      37.513  30.898  29.439  1.00  0.00     0.031 C 
ATOM     43  C   UNL A   1      36.996  33.912  33.429  1.00  0.00     0.029 A 
ATOM     44  N   UNL A   1      38.656  32.415  33.487  1.00  0.00    -0.354 N 
ATOM     45  C   UNL A   1      39.262  29.651  30.217  1.00  0.00     0.074 A 
ATOM     46  C   UNL A   1      38.249  29.825  29.200  1.00  0.00     0.031 C 
ATOM     47  C   UNL A   1      37.624  34.053  34.607  1.00  0.00     0.029 A 
ATOM     48  C   UNL A   1      38.716  33.087  34.683  1.00  0.00     0.049 A 
ATOM     49  H   UNL A   1      39.268  31.681  33.249  1.00  0.00     0.167 HD
ATOM     50  C   UNL A   1      40.246  28.723  30.164  1.00  0.00     0.037 A 
ATOM     51  C   UNL A   1      39.562  32.944  35.720  1.00  0.00     0.037 A 
ATOM     52  C   UNL A   1      41.266  28.576  31.169  1.00  0.00     0.049 A 
ATOM     53  C   UNL A   1      40.671  31.932  35.624  1.00  0.00     0.074 A 
ATOM     54  C   UNL A   1      42.356  27.723  31.175  1.00  0.00     0.029 A 
ATOM     55  N   UNL A   1      41.315  29.296  32.354  1.00  0.00    -0.354 N 
ATOM     56  N   UNL A   1      40.944  31.093  34.655  1.00  0.00    -0.248 NA
ATOM     57  C   UNL A   1      41.602  31.861  36.758  1.00  0.00     0.031 C 
ATOM     58  C   UNL A   1      43.031  27.887  32.390  1.00  0.00     0.029 A 
ATOM     59  C   UNL A   1      42.400  28.888  33.112  1.00  0.00     0.049 A 
ATOM     60  H   UNL A   1      40.672  29.995  32.618  1.00  0.00     0.167 HD
ATOM     61  C   UNL A   1      42.089  30.414  35.046  1.00  0.00     0.074 A 
ATOM     62  C   UNL A   1      42.470  30.952  36.337  1.00  0.00     0.031 C 
ATOM     63  C   UNL A   1      42.766  29.436  34.394  1.00  0.00     0.037 A 
BRANCH  50  64
ATOM     64  C   UNL A   1      40.266  27.797  28.980  1.00  0.00     0.064 A 
ATOM     65  C   UNL A   1      40.970  28.109  27.806  1.00  0.00     0.173 A 
ATOM     66  C   UNL A   1      39.586  26.570  29.027  1.00  0.00     0.173 A 
ATOM     67  F   UNL A   1      41.630  29.273  27.703  1.00  0.00    -0.203 F 
ATOM     68  C   UNL A   1      40.960  27.248  26.711  1.00  0.00     0.198 A 
ATOM     69  C   UNL A   1      39.608  25.696  27.943  1.00  0.00     0.198 A 
ATOM     70  F   UNL A   1      38.901  26.216  30.125  1.00  0.00    -0.203 F 
ATOM     71  F   UNL A   1      41.588  27.598  25.580  1.00  0.00    -0.200 F 
ATOM     72  C   UNL A   1      40.285  26.040  26.783  1.00  0.00     0.200 A 
ATOM     73  F   UNL A   1      38.966  24.521  28.020  1.00  0.00    -0.200 F 
ATOM     74  F   UNL A   1      40.279  25.210  25.730  1.00  0.00    -0.200 F 
ENDBRANCH  50  64
BRANCH  51  75
ATOM     75  C   UNL A   1      39.415  33.818  36.915  1.00  0.00     0.064 A 
ATOM     76  C   UNL A   1      39.978  35.101  36.946  1.00  0.00     0.173 A 
ATOM     77  C   UNL A   1      38.690  33.396  38.038  1.00  0.00     0.173 A 
ATOM     78  F   UNL A   1      40.694  35.544  35.902  1.00  0.00    -0.203 F 
ATOM     79  C   UNL A   1      39.835  35.923  38.063  1.00  0.00     0.198 A 
ATOM     80  C   UNL A   1      38.522  34.229  39.142  1.00  0.00     0.198 A 
ATOM     81  F   UNL A   1      38.123  32.181  38.054  1.00  0.00    -0.203 F 
ATOM     82  F   UNL A   1      40.417  37.130  38.083  1.00  0.00    -0.200 F 
ATOM     83  C   UNL A   1      39.101  35.490  39.157  1.00  0.00     0.200 A 
ATOM     84  F   UNL A   1      37.796  33.814  40.189  1.00  0.00    -0.200 F 
ATOM     85  F   UNL A   1      38.954  36.285  40.226  1.00  0.00    -0.200 F 
ENDBRANCH  51  75
BRANCH  63  86
ATOM     86  C   UNL A   1      44.011  28.908  35.048  1.00  0.00     0.064 A 
ATOM     87  C   UNL A   1      43.984  27.794  35.901  1.00  0.00     0.173 A 
ATOM     88  C   UNL A   1      45.254  29.502  34.784  1.00  0.00     0.173 A 
ATOM     89  F   UNL A   1      42.818  27.198  36.196  1.00  0.00    -0.203 F 
ATOM     90  C   UNL A   1      45.151  27.316  36.490  1.00  0.00     0.198 A 
ATOM     91  C   UNL A   1      46.424  28.999  35.347  1.00  0.00     0.198 A 
ATOM     92  F   UNL A   1      45.338  30.564  33.969  1.00  0.00    -0.203 F 
ATOM     93  F   UNL A   1      45.094  26.283  37.343  1.00  0.00    -0.200 F 
ATOM     94  C   UNL A   1      46.370  27.913  36.206  1.00  0.00     0.200 A 
ATOM     95  F   UNL A   1      47.603  29.567  35.058  1.00  0.00    -0.200 F 
ATOM     96  F   UNL A   1      47.494  27.444  36.767  1.00  0.00    -0.200 F 
ENDBRANCH  63  86
ENDBRANCH  37  38
ENDBRANCH  29  32
ENDBRANCH  27  28
ENDBRANCH  26  27
ENDBRANCH  25  26
ENDBRANCH   1  25
TORSDOF 16
ENDMDL
MODEL 2
REMARK VINA RESULT:     -11.9      0.185      1.585
REMARK SMILES C[C@H](C(=O)N[C@H](C)C(=O)NCCCCCCNC(=O)c1ccc(-c2c3nc(c(-c4c(F)c(F)c(F)c(F)c4F)c4ccc([nH]4)c(-c4c(F)c(F)c(F)c(F)c4F)c4nc(c(-c5c(F)c(F)c(F)c(F)c5F)c5ccc2[nH]5)C=C4)C=C3)cc1)n1cnc2ccccc21
REMARK SMILES IDX 13 1 12 2 11 3 10 4 8 5 9 6 6 8 7 9 5 10 3 11 4 12 2 14 1 15
REMARK SMILES IDX 83 16 84 17 91 18 85 19 86 20 90 21 87 22 89 23 88 24 14 25
REMARK SMILES IDX 15 26 16 27 17 28 18 29 19 31 20 32 21 33 82 34 22 35 81 36
REMARK SMILES IDX 23 37 24 38 25 39 75 40 26 41 80 42 74 43 76 44 27 45 79 46
REMARK SMILES IDX 73 47 72 48 28 50 60 51 40 52 59 53 41 54 44 55 58 56 77 57
REMARK SMILES IDX 42 58 43 59 57 61 78 62 45 63 29 64 30 65 38 66 31 67 32 68
REMARK SMILES IDX 36 69 39 70 33 71 34 72 37 73 35 74 61 75 62 76 70 77 63 78
REMARK SMILES IDX 64 79 68 80 71 81 65 82 66 83 69 84 67 85 46 86 47 87 55 88
REMARK SMILES IDX 48 89 49 90 53 91 56 92 50 93 51 94 54 95 52 96
REMARK H PARENT 10 7 5 13 17 30 76 49 44 60
REMARK Flexibility Score: inf
ROOT
ATOM      1  C   UNL A   1      32.972  30.203  26.532  1.00  0.00     0.002 C 
ENDROOT
BRANCH   1   2
ATOM      2  C   UNL A   1      32.979  28.684  26.764  1.00  0.00     0.021 C 
BRANCH   2   3
ATOM      3  C   UNL A   1      33.939  27.892  25.864  1.00  0.00     0.116 C 
BRANCH   3   4
ATOM      4  N   UNL A   1      34.017  28.491  24.546  1.00  0.00    -0.354 N 
ATOM      5  C   UNL A   1      33.611  28.061  23.325  1.00  0.00     0.242 C 
ATOM      6  O   UNL A   1      34.011  28.692  22.339  1.00  0.00    -0.273 OA
ATOM      7  H   UNL A   1      34.446  29.376  24.534  1.00  0.00     0.163 HD
BRANCH   5   8
ATOM      8  C   UNL A   1      32.811  26.765  23.097  1.00  0.00     0.168 C 
ATOM      9  C   UNL A   1      31.493  27.106  22.399  1.00  0.00     0.041 C 
BRANCH   8  10
ATOM     10  N   UNL A   1      33.456  25.641  22.414  1.00  0.00    -0.343 N 
ATOM     11  C   UNL A   1      33.365  24.300  22.662  1.00  0.00     0.243 C 
ATOM     12  O   UNL A   1      33.602  23.558  21.702  1.00  0.00    -0.273 OA
ATOM     13  H   UNL A   1      34.045  25.888  21.665  1.00  0.00     0.164 HD
BRANCH  11  14
ATOM     14  C   UNL A   1      32.985  23.733  24.036  1.00  0.00     0.174 C 
ATOM     15  C   UNL A   1      31.540  23.201  24.036  1.00  0.00     0.042 C 
BRANCH  14  16
ATOM     16  N   UNL A   1      33.863  22.644  24.449  1.00  0.00    -0.318 N 
ATOM     17  C   UNL A   1      33.543  21.314  24.392  1.00  0.00     0.201 A 
ATOM     18  C   UNL A   1      35.184  22.748  24.818  1.00  0.00     0.069 A 
ATOM     19  N   UNL A   1      34.564  20.557  24.721  1.00  0.00    -0.237 NA
ATOM     20  C   UNL A   1      35.593  21.427  24.969  1.00  0.00     0.088 A 
ATOM     21  C   UNL A   1      36.041  23.838  25.020  1.00  0.00     0.028 A 
ATOM     22  C   UNL A   1      36.919  21.158  25.326  1.00  0.00     0.030 A 
ATOM     23  C   UNL A   1      37.361  23.550  25.370  1.00  0.00     0.002 A 
ATOM     24  C   UNL A   1      37.800  22.233  25.504  1.00  0.00     0.002 A 
ENDBRANCH  14  16
ENDBRANCH  11  14
ENDBRANCH   8  10
ENDBRANCH   5   8
ENDBRANCH   3   4
ENDBRANCH   2   3
ENDBRANCH   1   2
BRANCH   1  25
ATOM     25  C   UNL A   1      31.600  30.811  26.239  1.00  0.00     0.002 C 
BRANCH  25  26
ATOM     26  C   UNL A   1      31.394  32.264  26.659  1.00  0.00     0.021 C 
BRANCH  26  27
ATOM     27  C   UNL A   1      32.621  32.932  27.254  1.00  0.00     0.116 C 
BRANCH  27  28
ATOM     28  N   UNL A   1      32.385  34.317  27.630  1.00  0.00    -0.352 N 
ATOM     29  C   UNL A   1      32.993  35.051  28.618  1.00  0.00     0.251 C 
ATOM     30  H   UNL A   1      31.699  34.790  27.107  1.00  0.00     0.163 HD
ATOM     31  O   UNL A   1      32.576  36.172  28.907  1.00  0.00    -0.269 OA
BRANCH  29  32
ATOM     32  C   UNL A   1      34.133  34.475  29.362  1.00  0.00     0.039 A 
ATOM     33  C   UNL A   1      33.887  33.801  30.560  1.00  0.00     0.014 A 
ATOM     34  C   UNL A   1      35.437  34.581  28.871  1.00  0.00     0.014 A 
ATOM     35  C   UNL A   1      34.944  33.191  31.237  1.00  0.00     0.010 A 
ATOM     36  C   UNL A   1      36.472  33.894  29.496  1.00  0.00     0.010 A 
ATOM     37  C   UNL A   1      36.241  33.207  30.695  1.00  0.00    -0.014 A 
BRANCH  37  38
ATOM     38  C   UNL A   1      37.358  32.516  31.387  1.00  0.00     0.031 A 
ATOM     39  C   UNL A   1      38.055  31.357  30.732  1.00  0.00     0.074 A 
ATOM     40  C   UNL A   1      37.714  32.908  32.624  1.00  0.00     0.049 A 
ATOM     41  N   UNL A   1      39.065  30.646  31.167  1.00  0.00    -0.248 NA
ATOM     42  C   UNL A   1      37.531  30.913  29.430  1.00  0.00     0.031 C 
ATOM     43  C   UNL A   1      37.058  33.967  33.396  1.00  0.00     0.029 A 
ATOM     44  N   UNL A   1      38.716  32.467  33.452  1.00  0.00    -0.354 N 
ATOM     45  C   UNL A   1      39.285  29.671  30.203  1.00  0.00     0.074 A 
ATOM     46  C   UNL A   1      38.263  29.836  29.195  1.00  0.00     0.031 C 
ATOM     47  C   UNL A   1      37.698  34.118  34.566  1.00  0.00     0.029 A 
ATOM     48  C   UNL A   1      38.789  33.150  34.641  1.00  0.00     0.049 A 
ATOM     49  H   UNL A   1      39.324  31.730  33.215  1.00  0.00     0.167 HD
ATOM     50  C   UNL A   1      40.268  28.741  30.150  1.00  0.00     0.037 A 
ATOM     51  C   UNL A   1      39.645  33.017  35.671  1.00  0.00     0.037 A 
ATOM     52  C   UNL A   1      41.297  28.601  31.146  1.00  0.00     0.049 A 
ATOM     53  C   UNL A   1      40.751  32.002  35.574  1.00  0.00     0.074 A 
ATOM     54  C   UNL A   1      42.386  27.747  31.150  1.00  0.00     0.029 A 
ATOM     55  N   UNL A   1      41.358  29.333  32.324  1.00  0.00    -0.354 N 
ATOM     56  N   UNL A   1      41.013  31.153  34.610  1.00  0.00    -0.248 NA
ATOM     57  C   UNL A   1      41.693  31.940  36.700  1.00  0.00     0.031 C 
ATOM     58  C   UNL A   1      43.072  27.921  32.356  1.00  0.00     0.029 A 
ATOM     59  C   UNL A   1      42.451  28.930  33.075  1.00  0.00     0.049 A 
ATOM     60  H   UNL A   1      40.720  30.035  32.587  1.00  0.00     0.167 HD
ATOM     61  C   UNL A   1      42.161  30.475  34.997  1.00  0.00     0.074 A 
ATOM     62  C   UNL A   1      42.555  31.025  36.279  1.00  0.00     0.031 C 
ATOM     63  C   UNL A   1      42.830  29.491  34.348  1.00  0.00     0.037 A 
BRANCH  50  64
ATOM     64  C   UNL A   1      40.275  27.803  28.975  1.00  0.00     0.064 A 
ATOM     65  C   UNL A   1      40.991  28.090  27.802  1.00  0.00     0.173 A 
ATOM     66  C   UNL A   1      39.570  26.591  29.030  1.00  0.00     0.173 A 
ATOM     67  F   UNL A   1      41.674  29.239  27.691  1.00  0.00    -0.203 F 
ATOM     68  C   UNL A   1      40.968  27.219  26.715  1.00  0.00     0.198 A 
ATOM     69  C   UNL A   1      39.579  25.706  27.954  1.00  0.00     0.198 A 
ATOM     70  F   UNL A   1      38.872  26.262  30.127  1.00  0.00    -0.203 F 
ATOM     71  F   UNL A   1      41.608  27.545  25.583  1.00  0.00    -0.200 F 
ATOM     72  C   UNL A   1      40.269  26.025  26.795  1.00  0.00     0.200 A 
ATOM     73  F   UNL A   1      38.913  24.545  28.039  1.00  0.00    -0.200 F 
ATOM     74  F   UNL A   1      40.251  25.186  25.750  1.00  0.00    -0.200 F 
ENDBRANCH  50  64
BRANCH  51  75
ATOM     75  C   UNL A   1      39.511  33.902  36.859  1.00  0.00     0.064 A 
ATOM     76  C   UNL A   1      38.815  33.481  38.000  1.00  0.00     0.173 A 
ATOM     77  C   UNL A   1      40.096  35.175  36.885  1.00  0.00     0.173 A 
ATOM     78  F   UNL A   1      38.224  32.277  38.018  1.00  0.00    -0.203 F 
ATOM     79  C   UNL A   1      38.695  34.307  39.116  1.00  0.00     0.198 A 
ATOM     80  C   UNL A   1      40.001  35.989  38.012  1.00  0.00     0.198 A 
ATOM     81  F   UNL A   1      40.781  35.622  35.822  1.00  0.00    -0.203 F 
ATOM     82  F   UNL A   1      37.991  33.895  40.179  1.00  0.00    -0.200 F 
ATOM     83  C   UNL A   1      39.295  35.557  39.125  1.00  0.00     0.200 A 
ATOM     84  F   UNL A   1      40.598  37.188  38.022  1.00  0.00    -0.200 F 
ATOM     85  F   UNL A   1      39.189  36.346  40.202  1.00  0.00    -0.200 F 
ENDBRANCH  51  75
BRANCH  63  86
ATOM     86  C   UNL A   1      44.080  28.967  34.995  1.00  0.00     0.064 A 
ATOM     87  C   UNL A   1      45.325  29.588  34.811  1.00  0.00     0.173 A 
ATOM     88  C   UNL A   1      44.023  27.851  35.845  1.00  0.00     0.173 A 
ATOM     89  F   UNL A   1      45.436  30.650  33.998  1.00  0.00    -0.203 F 
ATOM     90  C   UNL A   1      46.470  29.091  35.427  1.00  0.00     0.198 A 
ATOM     91  C   UNL A   1      45.163  27.379  36.487  1.00  0.00     0.198 A 
ATOM     92  F   UNL A   1      42.856  27.226  36.063  1.00  0.00    -0.203 F 
ATOM     93  F   UNL A   1      47.657  29.668  35.194  1.00  0.00    -0.200 F 
ATOM     94  C   UNL A   1      46.387  27.993  36.271  1.00  0.00     0.200 A 
ATOM     95  F   UNL A   1      45.078  26.328  37.315  1.00  0.00    -0.200 F 
ATOM     96  F   UNL A   1      47.490  27.522  36.870  1.00  0.00    -0.200 F 
ENDBRANCH  63  86
ENDBRANCH  37  38
ENDBRANCH  29  32
ENDBRANCH  27  28
ENDBRANCH  26  27
ENDBRANCH  25  26
ENDBRANCH   1  25
TORSDOF 16
ENDMDL
MODEL 3
REMARK VINA RESULT:     -11.9      0.706      7.349
REMARK SMILES C[C@H](C(=O)N[C@H](C)C(=O)NCCCCCCNC(=O)c1ccc(-c2c3nc(c(-c4c(F)c(F)c(F)c(F)c4F)c4ccc([nH]4)c(-c4c(F)c(F)c(F)c(F)c4F)c4nc(c(-c5c(F)c(F)c(F)c(F)c5F)c5ccc2[nH]5)C=C4)C=C3)cc1)n1cnc2ccccc21
REMARK SMILES IDX 13 1 12 2 11 3 10 4 8 5 9 6 6 8 7 9 5 10 3 11 4 12 2 14 1 15
REMARK SMILES IDX 83 16 84 17 91 18 85 19 86 20 90 21 87 22 89 23 88 24 14 25
REMARK SMILES IDX 15 26 16 27 17 28 18 29 19 31 20 32 21 33 82 34 22 35 81 36
REMARK SMILES IDX 23 37 24 38 25 39 75 40 26 41 80 42 74 43 76 44 27 45 79 46
REMARK SMILES IDX 73 47 72 48 28 50 60 51 40 52 59 53 41 54 44 55 58 56 77 57
REMARK SMILES IDX 42 58 43 59 57 61 78 62 45 63 29 64 30 65 38 66 31 67 32 68
REMARK SMILES IDX 36 69 39 70 33 71 34 72 37 73 35 74 61 75 62 76 70 77 63 78
REMARK SMILES IDX 64 79 68 80 71 81 65 82 66 83 69 84 67 85 46 86 47 87 55 88
REMARK SMILES IDX 48 89 49 90 53 91 56 92 50 93 51 94 54 95 52 96
REMARK H PARENT 10 7 5 13 17 30 76 49 44 60
REMARK Flexibility Score: inf
ROOT
ATOM      1  C   UNL A   1      32.445  29.988  27.140  1.00  0.00     0.002 C 
ENDROOT
BRANCH   1   2
ATOM      2  C   UNL A   1      32.484  28.478  26.855  1.00  0.00     0.021 C 
BRANCH   2   3
ATOM      3  C   UNL A   1      33.784  27.969  26.216  1.00  0.00     0.116 C 
BRANCH   3   4
ATOM      4  N   UNL A   1      33.997  28.590  24.922  1.00  0.00    -0.354 N 
ATOM      5  C   UNL A   1      33.682  28.198  23.662  1.00  0.00     0.242 C 
ATOM      6  O   UNL A   1      34.187  28.832  22.728  1.00  0.00    -0.273 OA
ATOM      7  H   UNL A   1      34.456  29.459  24.966  1.00  0.00     0.163 HD
BRANCH   5   8
ATOM      8  C   UNL A   1      32.859  26.937  23.338  1.00  0.00     0.168 C 
ATOM      9  C   UNL A   1      31.571  27.349  22.623  1.00  0.00     0.041 C 
BRANCH   8  10
ATOM     10  N   UNL A   1      33.498  25.836  22.613  1.00  0.00    -0.343 N 
ATOM     11  C   UNL A   1      33.372  24.486  22.786  1.00  0.00     0.243 C 
ATOM     12  O   UNL A   1      33.619  23.792  21.794  1.00  0.00    -0.273 OA
ATOM     13  H   UNL A   1      34.112  26.110  21.894  1.00  0.00     0.164 HD
BRANCH  11  14
ATOM     14  C   UNL A   1      32.942  23.856  24.117  1.00  0.00     0.174 C 
ATOM     15  C   UNL A   1      31.472  23.404  24.067  1.00  0.00     0.042 C 
BRANCH  14  16
ATOM     16  N   UNL A   1      33.755  22.698  24.470  1.00  0.00    -0.318 N 
ATOM     17  C   UNL A   1      33.353  21.394  24.357  1.00  0.00     0.201 A 
ATOM     18  C   UNL A   1      35.083  22.704  24.825  1.00  0.00     0.069 A 
ATOM     19  N   UNL A   1      34.328  20.561  24.639  1.00  0.00    -0.237 NA
ATOM     20  C   UNL A   1      35.412  21.355  24.913  1.00  0.00     0.088 A 
ATOM     21  C   UNL A   1      36.008  23.729  25.065  1.00  0.00     0.028 A 
ATOM     22  C   UNL A   1      36.722  20.988  25.240  1.00  0.00     0.030 A 
ATOM     23  C   UNL A   1      37.311  23.345  25.385  1.00  0.00     0.002 A 
ATOM     24  C   UNL A   1      37.670  21.998  25.455  1.00  0.00     0.002 A 
ENDBRANCH  14  16
ENDBRANCH  11  14
ENDBRANCH   8  10
ENDBRANCH   5   8
ENDBRANCH   3   4
ENDBRANCH   2   3
ENDBRANCH   1   2
BRANCH   1  25
ATOM     25  C   UNL A   1      31.541  30.803  26.213  1.00  0.00     0.002 C 
BRANCH  25  26
ATOM     26  C   UNL A   1      31.422  32.294  26.515  1.00  0.00     0.021 C 
BRANCH  26  27
ATOM     27  C   UNL A   1      32.609  32.889  27.253  1.00  0.00     0.116 C 
BRANCH  27  28
ATOM     28  N   UNL A   1      32.357  34.237  27.735  1.00  0.00    -0.352 N 
ATOM     29  C   UNL A   1      32.993  34.917  28.744  1.00  0.00     0.251 C 
ATOM     30  H   UNL A   1      31.636  34.726  27.279  1.00  0.00     0.163 HD
ATOM     31  O   UNL A   1      32.563  36.004  29.130  1.00  0.00    -0.269 OA
BRANCH  29  32
ATOM     32  C   UNL A   1      34.180  34.323  29.392  1.00  0.00     0.039 A 
ATOM     33  C   UNL A   1      34.007  33.552  30.544  1.00  0.00     0.014 A 
ATOM     34  C   UNL A   1      35.459  34.508  28.857  1.00  0.00     0.014 A 
ATOM     35  C   UNL A   1      35.110  32.927  31.127  1.00  0.00     0.010 A 
ATOM     36  C   UNL A   1      36.539  33.809  29.384  1.00  0.00     0.010 A 
ATOM     37  C   UNL A   1      36.381  33.026  30.535  1.00  0.00    -0.014 A 
BRANCH  37  38
ATOM     38  C   UNL A   1      37.546  32.320  31.123  1.00  0.00     0.031 A 
ATOM     39  C   UNL A   1      38.028  32.670  32.504  1.00  0.00     0.074 A 
ATOM     40  C   UNL A   1      38.197  31.393  30.395  1.00  0.00     0.049 A 
ATOM     41  N   UNL A   1      39.011  32.148  33.194  1.00  0.00    -0.248 NA
ATOM     42  C   UNL A   1      37.339  33.774  33.190  1.00  0.00     0.031 C 
ATOM     43  C   UNL A   1      37.874  31.026  29.014  1.00  0.00     0.029 A 
ATOM     44  N   UNL A   1      39.262  30.588  30.711  1.00  0.00    -0.354 N 
ATOM     45  C   UNL A   1      39.062  32.865  34.382  1.00  0.00     0.074 A 
ATOM     46  C   UNL A   1      38.060  33.903  34.291  1.00  0.00     0.031 C 
ATOM     47  C   UNL A   1      38.697  30.044  28.617  1.00  0.00     0.029 A 
ATOM     48  C   UNL A   1      39.624  29.732  29.701  1.00  0.00     0.049 A 
ATOM     49  H   UNL A   1      39.723  30.623  31.581  1.00  0.00     0.167 HD
ATOM     50  C   UNL A   1      39.854  32.659  35.461  1.00  0.00     0.037 A 
ATOM     51  C   UNL A   1      40.588  28.794  29.658  1.00  0.00     0.037 A 
ATOM     52  C   UNL A   1      40.831  31.607  35.551  1.00  0.00     0.049 A 
ATOM     53  C   UNL A   1      41.431  28.557  30.881  1.00  0.00     0.074 A 
ATOM     54  C   UNL A   1      41.628  31.258  36.627  1.00  0.00     0.029 A 
ATOM     55  N   UNL A   1      41.149  30.735  34.519  1.00  0.00    -0.354 N 
ATOM     56  N   UNL A   1      41.403  29.173  32.038  1.00  0.00    -0.248 NA
ATOM     57  C   UNL A   1      42.428  27.481  30.800  1.00  0.00     0.031 C 
ATOM     58  C   UNL A   1      42.469  30.215  36.226  1.00  0.00     0.029 A 
ATOM     59  C   UNL A   1      42.151  29.868  34.923  1.00  0.00     0.049 A 
ATOM     60  H   UNL A   1      40.724  30.734  33.630  1.00  0.00     0.167 HD
ATOM     61  C   UNL A   1      42.354  28.546  32.831  1.00  0.00     0.074 A 
ATOM     62  C   UNL A   1      42.932  27.488  32.027  1.00  0.00     0.031 C 
ATOM     63  C   UNL A   1      42.713  28.819  34.109  1.00  0.00     0.037 A 
BRANCH  50  64
ATOM     64  C   UNL A   1      39.694  33.593  36.629  1.00  0.00     0.064 A 
ATOM     65  C   UNL A   1      38.860  33.283  37.715  1.00  0.00     0.173 A 
ATOM     66  C   UNL A   1      40.399  34.805  36.671  1.00  0.00     0.173 A 
ATOM     67  F   UNL A   1      38.154  32.142  37.722  1.00  0.00    -0.203 F 
ATOM     68  C   UNL A   1      38.707  34.170  38.779  1.00  0.00     0.198 A 
ATOM     69  C   UNL A   1      40.272  35.672  37.753  1.00  0.00     0.198 A 
ATOM     70  F   UNL A   1      41.215  35.149  35.664  1.00  0.00    -0.203 F 
ATOM     71  F   UNL A   1      37.857  33.880  39.774  1.00  0.00    -0.200 F 
ATOM     72  C   UNL A   1      39.418  35.359  38.801  1.00  0.00     0.200 A 
ATOM     73  F   UNL A   1      40.971  36.815  37.779  1.00  0.00    -0.200 F 
ATOM     74  F   UNL A   1      39.274  36.209  39.827  1.00  0.00    -0.200 F 
ENDBRANCH  50  64
BRANCH  51  75
ATOM     75  C   UNL A   1      40.771  27.981  28.426  1.00  0.00     0.064 A 
ATOM     76  C   UNL A   1      41.560  28.444  27.364  1.00  0.00     0.173 A 
ATOM     77  C   UNL A   1      40.179  26.717  28.296  1.00  0.00     0.173 A 
ATOM     78  F   UNL A   1      42.135  29.654  27.434  1.00  0.00    -0.203 F 
ATOM     79  C   UNL A   1      41.737  27.680  26.212  1.00  0.00     0.198 A 
ATOM     80  C   UNL A   1      40.381  25.941  27.156  1.00  0.00     0.198 A 
ATOM     81  F   UNL A   1      39.422  26.224  29.287  1.00  0.00    -0.203 F 
ATOM     82  F   UNL A   1      42.465  28.163  25.196  1.00  0.00    -0.200 F 
ATOM     83  C   UNL A   1      41.154  26.426  26.112  1.00  0.00     0.200 A 
ATOM     84  F   UNL A   1      39.831  24.722  27.072  1.00  0.00    -0.200 F 
ATOM     85  F   UNL A   1      41.334  25.687  25.008  1.00  0.00    -0.200 F 
ENDBRANCH  51  75
BRANCH  63  86
ATOM     86  C   UNL A   1      43.756  27.936  34.734  1.00  0.00     0.064 A 
ATOM     87  C   UNL A   1      45.117  28.278  34.725  1.00  0.00     0.173 A 
ATOM     88  C   UNL A   1      43.382  26.752  35.386  1.00  0.00     0.173 A 
ATOM     89  F   UNL A   1      45.528  29.394  34.104  1.00  0.00    -0.203 F 
ATOM     90  C   UNL A   1      46.066  27.451  35.318  1.00  0.00     0.198 A 
ATOM     91  C   UNL A   1      44.329  25.944  36.009  1.00  0.00     0.198 A 
ATOM     92  F   UNL A   1      42.093  26.383  35.433  1.00  0.00    -0.203 F 
ATOM     93  F   UNL A   1      47.366  27.771  35.251  1.00  0.00    -0.200 F 
ATOM     94  C   UNL A   1      45.671  26.290  35.966  1.00  0.00     0.200 A 
ATOM     95  F   UNL A   1      43.944  24.832  36.648  1.00  0.00    -0.200 F 
ATOM     96  F   UNL A   1      46.587  25.499  36.543  1.00  0.00    -0.200 F 
ENDBRANCH  63  86
ENDBRANCH  37  38
ENDBRANCH  29  32
ENDBRANCH  27  28
ENDBRANCH  26  27
ENDBRANCH  25  26
ENDBRANCH   1  25
TORSDOF 16
ENDMDL
