MODEL 1
REMARK VINA RESULT:     -10.7      0.000      0.000
REMARK SMILES CC[C@](C)(NC(=O)NC[C@@H](C)[NH+](C)C)C(=O)NCCCCCCNC(=O)c1ccc(-c2c3nc(c(-c4c(F)c(F)c(F)c(F)c4F)c4ccc([nH]4)c(-c4c(F)c(F)c(F)c(F)c4F)c4nc(c(-c5c(F)c(F)c(F)c(F)c5F)c5ccc2[nH]5)C=C4)C=C3)cc1
REMARK SMILES IDX 19 1 18 2 17 3 15 4 16 5 3 7 4 8 2 9 1 10 5 11 6 12 7 14
REMARK SMILES IDX 8 15 9 17 10 18 11 19 12 20 13 21 14 22 20 24 21 25 22 26
REMARK SMILES IDX 23 27 24 28 25 29 26 31 27 32 28 33 89 34 29 35 88 36 30 37
REMARK SMILES IDX 31 38 32 39 82 40 33 41 87 42 81 43 83 44 34 45 86 46 80 47
REMARK SMILES IDX 79 48 35 50 67 51 47 52 66 53 48 54 51 55 65 56 84 57 49 58
REMARK SMILES IDX 50 59 64 61 85 62 52 63 36 64 37 65 45 66 38 67 39 68 43 69
REMARK SMILES IDX 46 70 40 71 41 72 44 73 42 74 68 75 69 76 77 77 70 78 71 79
REMARK SMILES IDX 75 80 78 81 72 82 73 83 76 84 74 85 53 86 54 87 62 88 55 89
REMARK SMILES IDX 56 90 60 91 63 92 57 93 58 94 61 95 59 96
REMARK H PARENT 17 6 5 13 8 16 12 23 24 30 83 49 51 60
REMARK Flexibility Score: inf
ROOT
ATOM      1  C   UNL A   1      36.666  23.445  25.914  1.00  0.00     0.021 C 
ENDROOT
BRANCH   1   2
ATOM      2  C   UNL A   1      35.627  24.117  25.004  1.00  0.00     0.116 C 
BRANCH   2   3
ATOM      3  N   UNL A   1      34.909  23.331  24.009  1.00  0.00    -0.354 N 
ATOM      4  C   UNL A   1      33.575  23.099  23.782  1.00  0.00     0.245 C 
ATOM      5  O   UNL A   1      33.246  22.811  22.625  1.00  0.00    -0.272 OA
ATOM      6  H   UNL A   1      35.501  22.874  23.369  1.00  0.00     0.163 HD
BRANCH   4   7
ATOM      7  C   UNL A   1      32.494  23.347  24.861  1.00  0.00     0.117 C 
ATOM      8  C   UNL A   1      31.163  22.607  24.626  1.00  0.00     0.045 C 
BRANCH   7   9
ATOM      9  C   UNL A   1      32.202  24.887  24.811  1.00  0.00     0.035 C 
ATOM     10  C   UNL A   1      30.943  25.285  24.036  1.00  0.00     0.007 C 
ENDBRANCH   7   9
BRANCH   7  11
ATOM     11  N   UNL A   1      33.008  22.956  26.185  1.00  0.00    -0.324 N 
ATOM     12  C   UNL A   1      33.291  21.792  26.781  1.00  0.00     0.315 C 
ATOM     13  H   UNL A   1      33.183  23.732  26.766  1.00  0.00     0.166 HD
ATOM     14  O   UNL A   1      33.497  21.837  28.000  1.00  0.00    -0.249 OA
ATOM     15  N   UNL A   1      33.431  20.601  26.194  1.00  0.00    -0.332 N 
ATOM     16  H   UNL A   1      33.747  19.927  26.839  1.00  0.00     0.165 HD
BRANCH  15  17
ATOM     17  C   UNL A   1      33.253  20.002  24.863  1.00  0.00     0.182 C 
BRANCH  17  18
ATOM     18  C   UNL A   1      33.580  18.476  24.777  1.00  0.00     0.200 C 
ATOM     19  C   UNL A   1      32.727  17.653  25.752  1.00  0.00     0.077 C 
BRANCH  18  20
ATOM     20  N   UNL A   1      33.577  17.961  23.395  1.00  0.00    -0.336 N 
ATOM     21  C   UNL A   1      34.028  16.578  23.269  1.00  0.00     0.332 C 
ATOM     22  C   UNL A   1      32.353  18.188  22.645  1.00  0.00     0.332 C 
ATOM     23  H   UNL A   1      34.284  18.546  22.950  1.00  0.00     0.347 HD
ENDBRANCH  18  20
ENDBRANCH  17  18
ENDBRANCH  15  17
ENDBRANCH   7  11
ENDBRANCH   4   7
ENDBRANCH   2   3
ENDBRANCH   1   2
BRANCH   1  24
ATOM     24  C   UNL A   1      37.667  22.447  25.333  1.00  0.00     0.002 C 
BRANCH  24  25
ATOM     25  C   UNL A   1      37.105  21.078  24.963  1.00  0.00     0.002 C 
BRANCH  25  26
ATOM     26  C   UNL A   1      38.135  19.952  25.005  1.00  0.00     0.021 C 
BRANCH  26  27
ATOM     27  C   UNL A   1      39.354  20.248  25.869  1.00  0.00     0.116 C 
BRANCH  27  28
ATOM     28  N   UNL A   1      40.307  19.149  25.907  1.00  0.00    -0.352 N 
ATOM     29  C   UNL A   1      41.668  19.215  26.101  1.00  0.00     0.251 C 
ATOM     30  H   UNL A   1      39.931  18.248  25.780  1.00  0.00     0.163 HD
ATOM     31  O   UNL A   1      42.374  18.229  25.980  1.00  0.00    -0.269 OA
BRANCH  29  32
ATOM     32  C   UNL A   1      42.264  20.529  26.420  1.00  0.00     0.039 A 
ATOM     33  C   UNL A   1      42.660  21.361  25.373  1.00  0.00     0.014 A 
ATOM     34  C   UNL A   1      42.358  20.957  27.748  1.00  0.00     0.014 A 
ATOM     35  C   UNL A   1      43.087  22.658  25.657  1.00  0.00     0.010 A 
ATOM     36  C   UNL A   1      42.708  22.273  28.022  1.00  0.00     0.010 A 
ATOM     37  C   UNL A   1      43.078  23.137  26.979  1.00  0.00    -0.014 A 
BRANCH  37  38
ATOM     38  C   UNL A   1      43.435  24.546  27.275  1.00  0.00     0.031 A 
ATOM     39  C   UNL A   1      44.818  25.056  26.988  1.00  0.00     0.074 A 
ATOM     40  C   UNL A   1      42.521  25.353  27.847  1.00  0.00     0.049 A 
ATOM     41  N   UNL A   1      45.306  26.261  27.150  1.00  0.00    -0.248 NA
ATOM     42  C   UNL A   1      45.793  24.079  26.478  1.00  0.00     0.031 C 
ATOM     43  C   UNL A   1      41.169  24.951  28.242  1.00  0.00     0.029 A 
ATOM     44  N   UNL A   1      42.586  26.679  28.191  1.00  0.00    -0.354 N 
ATOM     45  C   UNL A   1      46.640  26.182  26.773  1.00  0.00     0.074 A 
ATOM     46  C   UNL A   1      46.902  24.800  26.435  1.00  0.00     0.031 C 
ATOM     47  C   UNL A   1      40.518  26.019  28.728  1.00  0.00     0.029 A 
ATOM     48  C   UNL A   1      41.413  27.171  28.707  1.00  0.00     0.049 A 
ATOM     49  H   UNL A   1      43.397  27.226  28.078  1.00  0.00     0.167 HD
ATOM     50  C   UNL A   1      47.554  27.177  26.689  1.00  0.00     0.037 A 
ATOM     51  C   UNL A   1      41.093  28.417  29.106  1.00  0.00     0.037 A 
ATOM     52  C   UNL A   1      47.278  28.554  27.006  1.00  0.00     0.049 A 
ATOM     53  C   UNL A   1      42.122  29.507  28.991  1.00  0.00     0.074 A 
ATOM     54  C   UNL A   1      48.108  29.653  26.876  1.00  0.00     0.029 A 
ATOM     55  N   UNL A   1      46.078  29.018  27.528  1.00  0.00    -0.354 N 
ATOM     56  N   UNL A   1      43.350  29.443  28.535  1.00  0.00    -0.248 NA
ATOM     57  C   UNL A   1      41.717  30.846  29.438  1.00  0.00     0.031 C 
ATOM     58  C   UNL A   1      47.429  30.774  27.371  1.00  0.00     0.029 A 
ATOM     59  C   UNL A   1      46.157  30.383  27.756  1.00  0.00     0.049 A 
ATOM     60  H   UNL A   1      45.288  28.459  27.709  1.00  0.00     0.167 HD
ATOM     61  C   UNL A   1      43.856  30.733  28.619  1.00  0.00     0.074 A 
ATOM     62  C   UNL A   1      42.791  31.563  29.146  1.00  0.00     0.031 C 
ATOM     63  C   UNL A   1      45.090  31.190  28.292  1.00  0.00     0.037 A 
BRANCH  50  64
ATOM     64  C   UNL A   1      48.940  26.807  26.241  1.00  0.00     0.064 A 
ATOM     65  C   UNL A   1      49.898  26.310  27.139  1.00  0.00     0.173 A 
ATOM     66  C   UNL A   1      49.309  26.934  24.894  1.00  0.00     0.173 A 
ATOM     67  F   UNL A   1      49.602  26.179  28.441  1.00  0.00    -0.203 F 
ATOM     68  C   UNL A   1      51.186  25.994  26.711  1.00  0.00     0.198 A 
ATOM     69  C   UNL A   1      50.587  26.585  24.464  1.00  0.00     0.198 A 
ATOM     70  F   UNL A   1      48.431  27.399  23.992  1.00  0.00    -0.203 F 
ATOM     71  F   UNL A   1      52.101  25.580  27.598  1.00  0.00    -0.200 F 
ATOM     72  C   UNL A   1      51.528  26.126  25.374  1.00  0.00     0.200 A 
ATOM     73  F   UNL A   1      50.912  26.701  23.169  1.00  0.00    -0.200 F 
ATOM     74  F   UNL A   1      52.766  25.819  24.964  1.00  0.00    -0.200 F 
ENDBRANCH  50  64
BRANCH  51  75
ATOM     75  C   UNL A   1      39.721  28.710  29.598  1.00  0.00     0.064 A 
ATOM     76  C   UNL A   1      39.394  28.538  30.951  1.00  0.00     0.173 A 
ATOM     77  C   UNL A   1      38.716  29.169  28.736  1.00  0.00     0.173 A 
ATOM     78  F   UNL A   1      40.317  28.083  31.811  1.00  0.00    -0.203 F 
ATOM     79  C   UNL A   1      38.108  28.797  31.418  1.00  0.00     0.198 A 
ATOM     80  C   UNL A   1      37.437  29.454  29.211  1.00  0.00     0.198 A 
ATOM     81  F   UNL A   1      38.980  29.355  27.435  1.00  0.00    -0.203 F 
ATOM     82  F   UNL A   1      37.811  28.584  32.708  1.00  0.00    -0.200 F 
ATOM     83  C   UNL A   1      37.132  29.261  30.550  1.00  0.00     0.200 A 
ATOM     84  F   UNL A   1      36.501  29.917  28.371  1.00  0.00    -0.200 F 
ATOM     85  F   UNL A   1      35.897  29.516  31.001  1.00  0.00    -0.200 F 
ENDBRANCH  51  75
BRANCH  63  86
ATOM     86  C   UNL A   1      45.344  32.659  28.483  1.00  0.00     0.064 A 
ATOM     87  C   UNL A   1      45.027  33.596  27.488  1.00  0.00     0.173 A 
ATOM     88  C   UNL A   1      45.901  33.136  29.679  1.00  0.00     0.173 A 
ATOM     89  F   UNL A   1      44.507  33.189  26.320  1.00  0.00    -0.203 F 
ATOM     90  C   UNL A   1      45.295  34.951  27.668  1.00  0.00     0.198 A 
ATOM     91  C   UNL A   1      46.135  34.495  29.869  1.00  0.00     0.198 A 
ATOM     92  F   UNL A   1      46.216  32.284  30.667  1.00  0.00    -0.203 F 
ATOM     93  F   UNL A   1      45.042  35.817  26.678  1.00  0.00    -0.200 F 
ATOM     94  C   UNL A   1      45.842  35.399  28.860  1.00  0.00     0.200 A 
ATOM     95  F   UNL A   1      46.651  34.929  31.027  1.00  0.00    -0.200 F 
ATOM     96  F   UNL A   1      46.100  36.703  29.031  1.00  0.00    -0.200 F 
ENDBRANCH  63  86
ENDBRANCH  37  38
ENDBRANCH  29  32
ENDBRANCH  27  28
ENDBRANCH  26  27
ENDBRANCH  25  26
ENDBRANCH  24  25
ENDBRANCH   1  24
TORSDOF 18
ENDMDL
MODEL 2
REMARK VINA RESULT:     -10.6      5.451     10.921
REMARK SMILES CC[C@](C)(NC(=O)NC[C@@H](C)[NH+](C)C)C(=O)NCCCCCCNC(=O)c1ccc(-c2c3nc(c(-c4c(F)c(F)c(F)c(F)c4F)c4ccc([nH]4)c(-c4c(F)c(F)c(F)c(F)c4F)c4nc(c(-c5c(F)c(F)c(F)c(F)c5F)c5ccc2[nH]5)C=C4)C=C3)cc1
REMARK SMILES IDX 19 1 18 2 17 3 15 4 16 5 3 7 4 8 2 9 1 10 5 11 6 12 7 14
REMARK SMILES IDX 8 15 9 17 10 18 11 19 12 20 13 21 14 22 20 24 21 25 22 26
REMARK SMILES IDX 23 27 24 28 25 29 26 31 27 32 28 33 89 34 29 35 88 36 30 37
REMARK SMILES IDX 31 38 32 39 82 40 33 41 87 42 81 43 83 44 34 45 86 46 80 47
REMARK SMILES IDX 79 48 35 50 67 51 47 52 66 53 48 54 51 55 65 56 84 57 49 58
REMARK SMILES IDX 50 59 64 61 85 62 52 63 36 64 37 65 45 66 38 67 39 68 43 69
REMARK SMILES IDX 46 70 40 71 41 72 44 73 42 74 68 75 69 76 77 77 70 78 71 79
REMARK SMILES IDX 75 80 78 81 72 82 73 83 76 84 74 85 53 86 54 87 62 88 55 89
REMARK SMILES IDX 56 90 60 91 63 92 57 93 58 94 61 95 59 96
REMARK H PARENT 17 6 5 13 8 16 12 23 24 30 83 49 51 60
REMARK Flexibility Score: inf
ROOT
ATOM      1  C   UNL A   1      38.538  34.575  31.243  1.00  0.00     0.021 C 
ENDROOT
BRANCH   1   2
ATOM      2  C   UNL A   1      39.686  33.939  32.040  1.00  0.00     0.116 C 
BRANCH   2   3
ATOM      3  N   UNL A   1      39.794  34.165  33.475  1.00  0.00    -0.354 N 
ATOM      4  C   UNL A   1      39.228  33.551  34.566  1.00  0.00     0.245 C 
ATOM      5  O   UNL A   1      39.851  33.622  35.632  1.00  0.00    -0.272 OA
ATOM      6  H   UNL A   1      40.395  34.907  33.712  1.00  0.00     0.163 HD
BRANCH   4   7
ATOM      7  C   UNL A   1      37.965  32.665  34.457  1.00  0.00     0.117 C 
ATOM      8  C   UNL A   1      37.990  31.640  33.307  1.00  0.00     0.045 C 
BRANCH   7   9
ATOM      9  C   UNL A   1      36.783  33.660  34.189  1.00  0.00     0.035 C 
ATOM     10  C   UNL A   1      35.584  33.060  33.448  1.00  0.00     0.007 C 
ENDBRANCH   7   9
BRANCH   7  11
ATOM     11  N   UNL A   1      37.755  31.934  35.719  1.00  0.00    -0.324 N 
ATOM     12  C   UNL A   1      38.283  30.836  36.272  1.00  0.00     0.315 C 
ATOM     13  H   UNL A   1      37.065  32.350  36.286  1.00  0.00     0.166 HD
ATOM     14  O   UNL A   1      37.694  30.384  37.261  1.00  0.00    -0.249 OA
ATOM     15  N   UNL A   1      39.407  30.213  35.907  1.00  0.00    -0.332 N 
ATOM     16  H   UNL A   1      39.631  29.496  36.544  1.00  0.00     0.165 HD
BRANCH  15  17
ATOM     17  C   UNL A   1      40.406  30.286  34.832  1.00  0.00     0.182 C 
BRANCH  17  18
ATOM     18  C   UNL A   1      41.475  29.145  34.846  1.00  0.00     0.200 C 
ATOM     19  C   UNL A   1      41.561  28.459  36.217  1.00  0.00     0.077 C 
BRANCH  18  20
ATOM     20  N   UNL A   1      41.337  28.209  33.714  1.00  0.00    -0.336 N 
ATOM     21  C   UNL A   1      40.210  28.496  32.832  1.00  0.00     0.332 C 
ATOM     22  C   UNL A   1      42.552  27.961  32.956  1.00  0.00     0.332 C 
ATOM     23  H   UNL A   1      41.127  27.332  34.190  1.00  0.00     0.347 HD
ENDBRANCH  18  20
ENDBRANCH  17  18
ENDBRANCH  15  17
ENDBRANCH   7  11
ENDBRANCH   4   7
ENDBRANCH   2   3
ENDBRANCH   1   2
BRANCH   1  24
ATOM     24  C   UNL A   1      38.491  34.439  29.721  1.00  0.00     0.002 C 
BRANCH  24  25
ATOM     25  C   UNL A   1      37.749  33.220  29.183  1.00  0.00     0.002 C 
BRANCH  25  26
ATOM     26  C   UNL A   1      36.240  33.416  29.061  1.00  0.00     0.021 C 
BRANCH  26  27
ATOM     27  C   UNL A   1      35.411  32.391  29.823  1.00  0.00     0.116 C 
BRANCH  27  28
ATOM     28  N   UNL A   1      34.529  31.616  28.963  1.00  0.00    -0.352 N 
ATOM     29  C   UNL A   1      34.840  30.509  28.207  1.00  0.00     0.251 C 
ATOM     30  H   UNL A   1      33.593  31.922  28.917  1.00  0.00     0.163 HD
ATOM     31  O   UNL A   1      34.038  30.029  27.424  1.00  0.00    -0.269 OA
BRANCH  29  32
ATOM     32  C   UNL A   1      36.197  29.936  28.335  1.00  0.00     0.039 A 
ATOM     33  C   UNL A   1      37.092  30.081  27.275  1.00  0.00     0.014 A 
ATOM     34  C   UNL A   1      36.594  29.328  29.529  1.00  0.00     0.014 A 
ATOM     35  C   UNL A   1      38.416  29.674  27.441  1.00  0.00     0.010 A 
ATOM     36  C   UNL A   1      37.931  28.996  29.719  1.00  0.00     0.010 A 
ATOM     37  C   UNL A   1      38.854  29.165  28.676  1.00  0.00    -0.014 A 
BRANCH  37  38
ATOM     38  C   UNL A   1      40.282  28.825  28.888  1.00  0.00     0.031 A 
ATOM     39  C   UNL A   1      41.197  29.786  29.590  1.00  0.00     0.074 A 
ATOM     40  C   UNL A   1      40.763  27.663  28.404  1.00  0.00     0.049 A 
ATOM     41  N   UNL A   1      42.464  29.652  29.894  1.00  0.00    -0.248 NA
ATOM     42  C   UNL A   1      40.623  31.084  29.978  1.00  0.00     0.031 C 
ATOM     43  C   UNL A   1      39.990  26.681  27.640  1.00  0.00     0.029 A 
ATOM     44  N   UNL A   1      42.014  27.107  28.487  1.00  0.00    -0.354 N 
ATOM     45  C   UNL A   1      42.837  30.846  30.496  1.00  0.00     0.074 A 
ATOM     46  C   UNL A   1      41.683  31.717  30.458  1.00  0.00     0.031 C 
ATOM     47  C   UNL A   1      40.770  25.624  27.368  1.00  0.00     0.029 A 
ATOM     48  C   UNL A   1      42.102  25.864  27.910  1.00  0.00     0.049 A 
ATOM     49  H   UNL A   1      42.776  27.557  28.921  1.00  0.00     0.167 HD
ATOM     50  C   UNL A   1      44.026  31.174  31.055  1.00  0.00     0.037 A 
ATOM     51  C   UNL A   1      43.141  25.011  27.839  1.00  0.00     0.037 A 
ATOM     52  C   UNL A   1      45.163  30.293  31.108  1.00  0.00     0.049 A 
ATOM     53  C   UNL A   1      44.447  25.394  28.479  1.00  0.00     0.074 A 
ATOM     54  C   UNL A   1      46.385  30.496  31.724  1.00  0.00     0.029 A 
ATOM     55  N   UNL A   1      45.219  29.041  30.512  1.00  0.00    -0.354 N 
ATOM     56  N   UNL A   1      44.759  26.484  29.137  1.00  0.00    -0.248 NA
ATOM     57  C   UNL A   1      45.543  24.422  28.372  1.00  0.00     0.031 C 
ATOM     58  C   UNL A   1      47.200  29.390  31.453  1.00  0.00     0.029 A 
ATOM     59  C   UNL A   1      46.466  28.473  30.717  1.00  0.00     0.049 A 
ATOM     60  H   UNL A   1      44.480  28.618  30.016  1.00  0.00     0.167 HD
ATOM     61  C   UNL A   1      46.077  26.321  29.542  1.00  0.00     0.074 A 
ATOM     62  C   UNL A   1      46.496  25.015  29.077  1.00  0.00     0.031 C 
ATOM     63  C   UNL A   1      46.870  27.176  30.235  1.00  0.00     0.037 A 
BRANCH  50  64
ATOM     64  C   UNL A   1      44.154  32.549  31.649  1.00  0.00     0.064 A 
ATOM     65  C   UNL A   1      44.678  33.624  30.915  1.00  0.00     0.173 A 
ATOM     66  C   UNL A   1      43.733  32.798  32.963  1.00  0.00     0.173 A 
ATOM     67  F   UNL A   1      45.107  33.440  29.657  1.00  0.00    -0.203 F 
ATOM     68  C   UNL A   1      44.812  34.887  31.488  1.00  0.00     0.198 A 
ATOM     69  C   UNL A   1      43.837  34.070  33.522  1.00  0.00     0.198 A 
ATOM     70  F   UNL A   1      43.219  31.808  33.709  1.00  0.00    -0.203 F 
ATOM     71  F   UNL A   1      45.372  35.882  30.787  1.00  0.00    -0.200 F 
ATOM     72  C   UNL A   1      44.386  35.110  32.788  1.00  0.00     0.200 A 
ATOM     73  F   UNL A   1      43.412  34.286  34.774  1.00  0.00    -0.200 F 
ATOM     74  F   UNL A   1      44.513  36.326  33.337  1.00  0.00    -0.200 F 
ENDBRANCH  50  64
BRANCH  51  75
ATOM     75  C   UNL A   1      42.971  23.687  27.184  1.00  0.00     0.064 A 
ATOM     76  C   UNL A   1      42.349  22.628  27.862  1.00  0.00     0.173 A 
ATOM     77  C   UNL A   1      43.417  23.453  25.877  1.00  0.00     0.173 A 
ATOM     78  F   UNL A   1      41.922  22.798  29.123  1.00  0.00    -0.203 F 
ATOM     79  C   UNL A   1      42.197  21.380  27.263  1.00  0.00     0.198 A 
ATOM     80  C   UNL A   1      43.239  22.212  25.268  1.00  0.00     0.198 A 
ATOM     81  F   UNL A   1      44.012  24.434  25.184  1.00  0.00    -0.203 F 
ATOM     82  F   UNL A   1      41.638  20.373  27.949  1.00  0.00    -0.200 F 
ATOM     83  C   UNL A   1      42.636  21.174  25.964  1.00  0.00     0.200 A 
ATOM     84  F   UNL A   1      43.651  22.021  24.008  1.00  0.00    -0.200 F 
ATOM     85  F   UNL A   1      42.484  19.976  25.385  1.00  0.00    -0.200 F 
ENDBRANCH  51  75
BRANCH  63  86
ATOM     86  C   UNL A   1      48.266  26.711  30.542  1.00  0.00     0.064 A 
ATOM     87  C   UNL A   1      49.349  27.041  29.713  1.00  0.00     0.173 A 
ATOM     88  C   UNL A   1      48.524  25.937  31.683  1.00  0.00     0.173 A 
ATOM     89  F   UNL A   1      49.152  27.767  28.602  1.00  0.00    -0.203 F 
ATOM     90  C   UNL A   1      50.632  26.580  29.995  1.00  0.00     0.198 A 
ATOM     91  C   UNL A   1      49.814  25.507  31.980  1.00  0.00     0.198 A 
ATOM     92  F   UNL A   1      47.525  25.600  32.513  1.00  0.00    -0.203 F 
ATOM     93  F   UNL A   1      51.639  26.855  29.155  1.00  0.00    -0.200 F 
ATOM     94  C   UNL A   1      50.864  25.819  31.130  1.00  0.00     0.200 A 
ATOM     95  F   UNL A   1      50.039  24.783  33.085  1.00  0.00    -0.200 F 
ATOM     96  F   UNL A   1      52.100  25.375  31.399  1.00  0.00    -0.200 F 
ENDBRANCH  63  86
ENDBRANCH  37  38
ENDBRANCH  29  32
ENDBRANCH  27  28
ENDBRANCH  26  27
ENDBRANCH  25  26
ENDBRANCH  24  25
ENDBRANCH   1  24
TORSDOF 18
ENDMDL
MODEL 3
REMARK VINA RESULT:     -10.5      5.520     10.903
REMARK SMILES CC[C@](C)(NC(=O)NC[C@@H](C)[NH+](C)C)C(=O)NCCCCCCNC(=O)c1ccc(-c2c3nc(c(-c4c(F)c(F)c(F)c(F)c4F)c4ccc([nH]4)c(-c4c(F)c(F)c(F)c(F)c4F)c4nc(c(-c5c(F)c(F)c(F)c(F)c5F)c5ccc2[nH]5)C=C4)C=C3)cc1
REMARK SMILES IDX 19 1 18 2 17 3 15 4 16 5 3 7 4 8 2 9 1 10 5 11 6 12 7 14
REMARK SMILES IDX 8 15 9 17 10 18 11 19 12 20 13 21 14 22 20 24 21 25 22 26
REMARK SMILES IDX 23 27 24 28 25 29 26 31 27 32 28 33 89 34 29 35 88 36 30 37
REMARK SMILES IDX 31 38 32 39 82 40 33 41 87 42 81 43 83 44 34 45 86 46 80 47
REMARK SMILES IDX 79 48 35 50 67 51 47 52 66 53 48 54 51 55 65 56 84 57 49 58
REMARK SMILES IDX 50 59 64 61 85 62 52 63 36 64 37 65 45 66 38 67 39 68 43 69
REMARK SMILES IDX 46 70 40 71 41 72 44 73 42 74 68 75 69 76 77 77 70 78 71 79
REMARK SMILES IDX 75 80 78 81 72 82 73 83 76 84 74 85 53 86 54 87 62 88 55 89
REMARK SMILES IDX 56 90 60 91 63 92 57 93 58 94 61 95 59 96
REMARK H PARENT 17 6 5 13 8 16 12 23 24 30 83 49 51 60
REMARK Flexibility Score: inf
ROOT
ATOM      1  C   UNL A   1      31.575  27.701  27.437  1.00  0.00     0.021 C 
ENDROOT
BRANCH   1   2
ATOM      2  C   UNL A   1      31.906  26.813  26.229  1.00  0.00     0.116 C 
BRANCH   2   3
ATOM      3  N   UNL A   1      30.933  26.638  25.160  1.00  0.00    -0.354 N 
ATOM      4  C   UNL A   1      31.025  26.687  23.790  1.00  0.00     0.245 C 
ATOM      5  O   UNL A   1      30.187  26.041  23.150  1.00  0.00    -0.272 OA
ATOM      6  H   UNL A   1      30.024  26.444  25.485  1.00  0.00     0.163 HD
BRANCH   4   7
ATOM      7  C   UNL A   1      32.208  27.369  23.062  1.00  0.00     0.117 C 
ATOM      8  C   UNL A   1      33.568  27.241  23.775  1.00  0.00     0.045 C 
BRANCH   7   9
ATOM      9  C   UNL A   1      31.837  28.891  23.002  1.00  0.00     0.035 C 
ATOM     10  C   UNL A   1      30.339  29.200  23.082  1.00  0.00     0.007 C 
ENDBRANCH   7   9
BRANCH   7  11
ATOM     11  N   UNL A   1      32.349  26.812  21.705  1.00  0.00    -0.324 N 
ATOM     12  C   UNL A   1      32.848  25.680  21.196  1.00  0.00     0.315 C 
ATOM     13  H   UNL A   1      31.992  27.414  21.012  1.00  0.00     0.166 HD
ATOM     14  O   UNL A   1      33.002  25.652  19.969  1.00  0.00    -0.249 OA
ATOM     15  N   UNL A   1      33.143  24.561  21.863  1.00  0.00    -0.332 N 
ATOM     16  H   UNL A   1      33.393  23.839  21.241  1.00  0.00     0.165 HD
BRANCH  15  17
ATOM     17  C   UNL A   1      33.203  24.092  23.255  1.00  0.00     0.182 C 
BRANCH  17  18
ATOM     18  C   UNL A   1      34.025  22.781  23.474  1.00  0.00     0.200 C 
ATOM     19  C   UNL A   1      35.536  23.048  23.490  1.00  0.00     0.077 C 
BRANCH  18  20
ATOM     20  N   UNL A   1      33.545  21.982  24.619  1.00  0.00    -0.336 N 
ATOM     21  C   UNL A   1      33.458  22.723  25.873  1.00  0.00     0.332 C 
ATOM     22  C   UNL A   1      32.340  21.206  24.378  1.00  0.00     0.332 C 
ATOM     23  H   UNL A   1      34.294  21.299  24.728  1.00  0.00     0.347 HD
ENDBRANCH  18  20
ENDBRANCH  17  18
ENDBRANCH  15  17
ENDBRANCH   7  11
ENDBRANCH   4   7
ENDBRANCH   2   3
ENDBRANCH   1   2
BRANCH   1  24
ATOM     24  C   UNL A   1      31.140  29.152  27.228  1.00  0.00     0.002 C 
BRANCH  24  25
ATOM     25  C   UNL A   1      32.222  30.110  26.744  1.00  0.00     0.002 C 
BRANCH  25  26
ATOM     26  C   UNL A   1      31.832  31.584  26.834  1.00  0.00     0.021 C 
BRANCH  26  27
ATOM     27  C   UNL A   1      32.993  32.523  27.135  1.00  0.00     0.116 C 
BRANCH  27  28
ATOM     28  N   UNL A   1      32.561  33.859  27.519  1.00  0.00    -0.352 N 
ATOM     29  C   UNL A   1      33.058  34.652  28.527  1.00  0.00     0.251 C 
ATOM     30  H   UNL A   1      31.823  34.242  26.991  1.00  0.00     0.163 HD
ATOM     31  O   UNL A   1      32.520  35.703  28.832  1.00  0.00    -0.269 OA
BRANCH  29  32
ATOM     32  C   UNL A   1      34.246  34.177  29.268  1.00  0.00     0.039 A 
ATOM     33  C   UNL A   1      34.062  33.337  30.367  1.00  0.00     0.014 A 
ATOM     34  C   UNL A   1      35.530  34.503  28.824  1.00  0.00     0.014 A 
ATOM     35  C   UNL A   1      35.176  32.766  30.983  1.00  0.00     0.010 A 
ATOM     36  C   UNL A   1      36.632  33.872  29.389  1.00  0.00     0.010 A 
ATOM     37  C   UNL A   1      36.466  32.998  30.474  1.00  0.00    -0.014 A 
BRANCH  37  38
ATOM     38  C   UNL A   1      37.644  32.315  31.063  1.00  0.00     0.031 A 
ATOM     39  C   UNL A   1      38.129  32.682  32.436  1.00  0.00     0.074 A 
ATOM     40  C   UNL A   1      38.303  31.392  30.336  1.00  0.00     0.049 A 
ATOM     41  N   UNL A   1      39.119  32.174  33.126  1.00  0.00    -0.248 NA
ATOM     42  C   UNL A   1      37.430  33.785  33.113  1.00  0.00     0.031 C 
ATOM     43  C   UNL A   1      37.972  31.004  28.963  1.00  0.00     0.029 A 
ATOM     44  N   UNL A   1      39.384  30.608  30.650  1.00  0.00    -0.354 N 
ATOM     45  C   UNL A   1      39.166  32.901  34.309  1.00  0.00     0.074 A 
ATOM     46  C   UNL A   1      38.148  33.924  34.217  1.00  0.00     0.031 C 
ATOM     47  C   UNL A   1      38.800  30.023  28.572  1.00  0.00     0.029 A 
ATOM     48  C   UNL A   1      39.737  29.734  29.652  1.00  0.00     0.049 A 
ATOM     49  H   UNL A   1      39.860  30.667  31.510  1.00  0.00     0.167 HD
ATOM     50  C   UNL A   1      39.966  32.712  35.384  1.00  0.00     0.037 A 
ATOM     51  C   UNL A   1      40.702  28.795  29.619  1.00  0.00     0.037 A 
ATOM     52  C   UNL A   1      40.963  31.677  35.477  1.00  0.00     0.049 A 
ATOM     53  C   UNL A   1      41.569  28.597  30.832  1.00  0.00     0.074 A 
ATOM     54  C   UNL A   1      41.768  31.346  36.552  1.00  0.00     0.029 A 
ATOM     55  N   UNL A   1      41.295  30.809  34.446  1.00  0.00    -0.354 N 
ATOM     56  N   UNL A   1      41.537  29.220  31.985  1.00  0.00    -0.248 NA
ATOM     57  C   UNL A   1      42.602  27.557  30.740  1.00  0.00     0.031 C 
ATOM     58  C   UNL A   1      42.627  30.314  36.153  1.00  0.00     0.029 A 
ATOM     59  C   UNL A   1      42.318  29.964  34.849  1.00  0.00     0.049 A 
ATOM     60  H   UNL A   1      40.868  30.795  33.559  1.00  0.00     0.167 HD
ATOM     61  C   UNL A   1      42.526  28.635  32.763  1.00  0.00     0.074 A 
ATOM     62  C   UNL A   1      43.123  27.589  31.957  1.00  0.00     0.031 C 
ATOM     63  C   UNL A   1      42.908  28.936  34.029  1.00  0.00     0.037 A 
BRANCH  50  64
ATOM     64  C   UNL A   1      39.797  33.651  36.545  1.00  0.00     0.064 A 
ATOM     65  C   UNL A   1      38.985  33.328  37.644  1.00  0.00     0.173 A 
ATOM     66  C   UNL A   1      40.466  34.883  36.567  1.00  0.00     0.173 A 
ATOM     67  F   UNL A   1      38.312  32.167  37.670  1.00  0.00    -0.203 F 
ATOM     68  C   UNL A   1      38.819  34.220  38.701  1.00  0.00     0.198 A 
ATOM     69  C   UNL A   1      40.325  35.758  37.641  1.00  0.00     0.198 A 
ATOM     70  F   UNL A   1      41.259  35.242  35.545  1.00  0.00    -0.203 F 
ATOM     71  F   UNL A   1      37.992  33.914  39.710  1.00  0.00    -0.200 F 
ATOM     72  C   UNL A   1      39.494  35.431  38.702  1.00  0.00     0.200 A 
ATOM     73  F   UNL A   1      40.988  36.923  37.646  1.00  0.00    -0.200 F 
ATOM     74  F   UNL A   1      39.335  36.287  39.721  1.00  0.00    -0.200 F 
ENDBRANCH  50  64
BRANCH  51  75
ATOM     75  C   UNL A   1      40.860  27.935  28.418  1.00  0.00     0.064 A 
ATOM     76  C   UNL A   1      41.662  28.346  27.344  1.00  0.00     0.173 A 
ATOM     77  C   UNL A   1      40.224  26.690  28.318  1.00  0.00     0.173 A 
ATOM     78  F   UNL A   1      42.277  29.538  27.384  1.00  0.00    -0.203 F 
ATOM     79  C   UNL A   1      41.806  27.553  26.207  1.00  0.00     0.198 A 
ATOM     80  C   UNL A   1      40.391  25.885  27.193  1.00  0.00     0.198 A 
ATOM     81  F   UNL A   1      39.451  26.249  29.321  1.00  0.00    -0.203 F 
ATOM     82  F   UNL A   1      42.544  27.990  25.177  1.00  0.00    -0.200 F 
ATOM     83  C   UNL A   1      41.176  26.320  26.135  1.00  0.00     0.200 A 
ATOM     84  F   UNL A   1      39.792  24.688  27.133  1.00  0.00    -0.200 F 
ATOM     85  F   UNL A   1      41.319  25.555  25.046  1.00  0.00    -0.200 F 
ENDBRANCH  51  75
BRANCH  63  86
ATOM     86  C   UNL A   1      44.015  28.110  34.620  1.00  0.00     0.064 A 
ATOM     87  C   UNL A   1      43.771  26.848  35.183  1.00  0.00     0.173 A 
ATOM     88  C   UNL A   1      45.337  28.580  34.614  1.00  0.00     0.173 A 
ATOM     89  F   UNL A   1      42.522  26.359  35.228  1.00  0.00    -0.203 F 
ATOM     90  C   UNL A   1      44.802  26.106  35.753  1.00  0.00     0.198 A 
ATOM     91  C   UNL A   1      46.371  27.821  35.154  1.00  0.00     0.198 A 
ATOM     92  F   UNL A   1      45.627  29.777  34.081  1.00  0.00    -0.203 F 
ATOM     93  F   UNL A   1      44.534  24.933  36.341  1.00  0.00    -0.200 F 
ATOM     94  C   UNL A   1      46.101  26.590  35.733  1.00  0.00     0.200 A 
ATOM     95  F   UNL A   1      47.628  28.283  35.120  1.00  0.00    -0.200 F 
ATOM     96  F   UNL A   1      47.093  25.875  36.282  1.00  0.00    -0.200 F 
ENDBRANCH  63  86
ENDBRANCH  37  38
ENDBRANCH  29  32
ENDBRANCH  27  28
ENDBRANCH  26  27
ENDBRANCH  25  26
ENDBRANCH  24  25
ENDBRANCH   1  24
TORSDOF 18
ENDMDL
