MODEL 1
REMARK VINA RESULT:     -12.3      0.000      0.000
REMARK SMILES COc1c(C(=O)NCCCCCCNC(=O)c2ccc(-c3c4nc(c(-c5c(F)c(F)c(F)c(F)c5F)c5ccc([nH]5)c(-c5c(F)c(F)c(F)c(F)c5F)c5nc(c(-c6c(F)c(F)c(F)c(F)c6F)c6ccc3[nH]6)C=C5)C=C4)cc2)cccc1-c1cc(C)ccc1C
REMARK SMILES IDX 11 1 10 2 9 3 8 4 7 5 5 6 6 7 4 9 3 10 83 11 80 12 82 13
REMARK SMILES IDX 81 14 2 15 1 16 84 17 85 18 90 19 86 20 89 21 91 22 87 23
REMARK SMILES IDX 88 24 12 25 13 26 14 27 15 28 16 30 17 31 18 32 79 33 19 34
REMARK SMILES IDX 78 35 20 36 21 37 22 38 72 39 23 40 77 41 71 42 73 43 24 44
REMARK SMILES IDX 76 45 70 46 69 47 25 49 57 50 37 51 56 52 38 53 41 54 55 55
REMARK SMILES IDX 74 56 39 57 40 58 54 60 75 61 42 62 26 63 27 64 35 65 28 66
REMARK SMILES IDX 29 67 33 68 36 69 30 70 31 71 34 72 32 73 58 74 59 75 67 76
REMARK SMILES IDX 60 77 61 78 65 79 68 80 62 81 63 82 66 83 64 84 43 85 44 86
REMARK SMILES IDX 52 87 45 88 46 89 50 90 53 91 47 92 48 93 51 94 49 95
REMARK H PARENT 7 8 14 29 73 48 41 59
REMARK Flexibility Score: inf
ROOT
ATOM      1  C   UNL A   1      36.462  20.671  25.009  1.00  0.00     0.002 C 
ENDROOT
BRANCH   1   2
ATOM      2  C   UNL A   1      35.109  19.950  25.043  1.00  0.00     0.002 C 
BRANCH   2   3
ATOM      3  C   UNL A   1      33.921  20.623  24.359  1.00  0.00     0.021 C 
BRANCH   3   4
ATOM      4  C   UNL A   1      32.683  20.861  25.203  1.00  0.00     0.116 C 
BRANCH   4   5
ATOM      5  N   UNL A   1      32.844  21.122  26.601  1.00  0.00    -0.352 N 
ATOM      6  C   UNL A   1      32.982  22.355  27.207  1.00  0.00     0.255 C 
ATOM      7  O   UNL A   1      32.944  22.383  28.440  1.00  0.00    -0.269 OA
ATOM      8  H   UNL A   1      32.859  20.338  27.196  1.00  0.00     0.163 HD
BRANCH   6   9
ATOM      9  C   UNL A   1      33.299  23.629  26.469  1.00  0.00     0.082 A 
ATOM     10  C   UNL A   1      32.465  24.757  26.260  1.00  0.00     0.139 A 
ATOM     11  C   UNL A   1      32.962  25.890  25.547  1.00  0.00     0.025 A 
ATOM     12  C   UNL A   1      34.620  23.664  25.972  1.00  0.00     0.018 A 
ATOM     13  C   UNL A   1      34.285  25.863  25.064  1.00  0.00     0.012 A 
ATOM     14  C   UNL A   1      35.111  24.766  25.278  1.00  0.00     0.002 A 
BRANCH  10  15
ATOM     15  O   UNL A   1      31.226  24.787  26.863  1.00  0.00    -0.495 OA
ATOM     16  C   UNL A   1      30.198  24.029  26.207  1.00  0.00     0.278 C 
ENDBRANCH  10  15
BRANCH  11  17
ATOM     17  C   UNL A   1      32.146  27.089  25.244  1.00  0.00    -0.011 A 
ATOM     18  C   UNL A   1      32.328  28.230  26.058  1.00  0.00     0.012 A 
ATOM     19  C   UNL A   1      31.280  27.186  24.133  1.00  0.00    -0.043 A 
ATOM     20  C   UNL A   1      31.746  29.464  25.745  1.00  0.00    -0.050 A 
ATOM     21  C   UNL A   1      30.715  28.434  23.814  1.00  0.00     0.004 A 
ATOM     22  C   UNL A   1      31.037  26.041  23.185  1.00  0.00     0.045 C 
ATOM     23  C   UNL A   1      32.002  30.654  26.622  1.00  0.00     0.044 C 
ATOM     24  C   UNL A   1      30.953  29.562  24.603  1.00  0.00     0.004 A 
ENDBRANCH  11  17
ENDBRANCH   6   9
ENDBRANCH   4   5
ENDBRANCH   3   4
ENDBRANCH   2   3
ENDBRANCH   1   2
BRANCH   1  25
ATOM     25  C   UNL A   1      37.730  19.821  24.889  1.00  0.00     0.021 C 
BRANCH  25  26
ATOM     26  C   UNL A   1      38.943  20.270  25.696  1.00  0.00     0.116 C 
BRANCH  26  27
ATOM     27  N   UNL A   1      39.965  19.245  25.812  1.00  0.00    -0.352 N 
ATOM     28  C   UNL A   1      41.296  19.355  26.133  1.00  0.00     0.251 C 
ATOM     29  H   UNL A   1      39.655  18.328  25.632  1.00  0.00     0.163 HD
ATOM     30  O   UNL A   1      42.024  18.370  26.065  1.00  0.00    -0.269 OA
BRANCH  28  31
ATOM     31  C   UNL A   1      41.871  20.659  26.535  1.00  0.00     0.039 A 
ATOM     32  C   UNL A   1      42.260  21.554  25.534  1.00  0.00     0.014 A 
ATOM     33  C   UNL A   1      42.053  20.996  27.879  1.00  0.00     0.014 A 
ATOM     34  C   UNL A   1      42.773  22.808  25.878  1.00  0.00     0.010 A 
ATOM     35  C   UNL A   1      42.500  22.271  28.222  1.00  0.00     0.010 A 
ATOM     36  C   UNL A   1      42.865  23.191  27.225  1.00  0.00    -0.014 A 
BRANCH  36  37
ATOM     37  C   UNL A   1      43.340  24.547  27.612  1.00  0.00     0.031 A 
ATOM     38  C   UNL A   1      42.350  25.617  27.986  1.00  0.00     0.074 A 
ATOM     39  C   UNL A   1      44.656  24.833  27.563  1.00  0.00     0.049 A 
ATOM     40  N   UNL A   1      42.559  26.881  28.256  1.00  0.00    -0.248 NA
ATOM     41  C   UNL A   1      40.933  25.221  28.040  1.00  0.00     0.031 C 
ATOM     42  C   UNL A   1      45.714  23.894  27.184  1.00  0.00     0.029 A 
ATOM     43  N   UNL A   1      45.331  26.004  27.817  1.00  0.00    -0.354 N 
ATOM     44  C   UNL A   1      41.305  27.432  28.489  1.00  0.00     0.074 A 
ATOM     45  C   UNL A   1      40.336  26.377  28.289  1.00  0.00     0.031 C 
ATOM     46  C   UNL A   1      46.900  24.520  27.241  1.00  0.00     0.029 A 
ATOM     47  C   UNL A   1      46.688  25.914  27.618  1.00  0.00     0.049 A 
ATOM     48  H   UNL A   1      44.884  26.829  28.114  1.00  0.00     0.167 HD
ATOM     49  C   UNL A   1      40.995  28.699  28.853  1.00  0.00     0.037 A 
ATOM     50  C   UNL A   1      47.649  26.854  27.710  1.00  0.00     0.037 A 
ATOM     51  C   UNL A   1      41.964  29.737  29.088  1.00  0.00     0.049 A 
ATOM     52  C   UNL A   1      47.267  28.258  28.107  1.00  0.00     0.074 A 
ATOM     53  C   UNL A   1      41.751  31.030  29.531  1.00  0.00     0.029 A 
ATOM     54  N   UNL A   1      43.332  29.599  28.900  1.00  0.00    -0.354 N 
ATOM     55  N   UNL A   1      46.085  28.744  28.396  1.00  0.00    -0.248 NA
ATOM     56  C   UNL A   1      48.357  29.241  28.194  1.00  0.00     0.031 C 
ATOM     57  C   UNL A   1      42.980  31.693  29.557  1.00  0.00     0.029 A 
ATOM     58  C   UNL A   1      43.968  30.795  29.191  1.00  0.00     0.049 A 
ATOM     59  H   UNL A   1      43.782  28.775  28.603  1.00  0.00     0.167 HD
ATOM     60  C   UNL A   1      46.295  30.074  28.738  1.00  0.00     0.074 A 
ATOM     61  C   UNL A   1      47.717  30.315  28.632  1.00  0.00     0.031 C 
ATOM     62  C   UNL A   1      45.389  31.012  29.107  1.00  0.00     0.037 A 
BRANCH  49  63
ATOM     63  C   UNL A   1      39.545  29.051  29.025  1.00  0.00     0.064 A 
ATOM     64  C   UNL A   1      38.753  29.462  27.945  1.00  0.00     0.173 A 
ATOM     65  C   UNL A   1      38.923  28.891  30.273  1.00  0.00     0.173 A 
ATOM     66  F   UNL A   1      39.301  29.639  26.733  1.00  0.00    -0.203 F 
ATOM     67  C   UNL A   1      37.392  29.711  28.108  1.00  0.00     0.198 A 
ATOM     68  C   UNL A   1      37.557  29.112  30.426  1.00  0.00     0.198 A 
ATOM     69  F   UNL A   1      39.635  28.493  31.339  1.00  0.00    -0.203 F 
ATOM     70  F   UNL A   1      36.660  30.133  27.068  1.00  0.00    -0.200 F 
ATOM     71  C   UNL A   1      36.793  29.525  29.345  1.00  0.00     0.200 A 
ATOM     72  F   UNL A   1      36.978  28.916  31.619  1.00  0.00    -0.200 F 
ATOM     73  F   UNL A   1      35.480  29.745  29.496  1.00  0.00    -0.200 F 
ENDBRANCH  49  63
BRANCH  50  74
ATOM     74  C   UNL A   1      49.070  26.513  27.423  1.00  0.00     0.064 A 
ATOM     75  C   UNL A   1      49.939  26.117  28.450  1.00  0.00     0.173 A 
ATOM     76  C   UNL A   1      49.601  26.628  26.130  1.00  0.00     0.173 A 
ATOM     77  F   UNL A   1      49.484  26.014  29.708  1.00  0.00    -0.203 F 
ATOM     78  C   UNL A   1      51.290  25.889  28.203  1.00  0.00     0.198 A 
ATOM     79  C   UNL A   1      50.946  26.365  25.878  1.00  0.00     0.198 A 
ATOM     80  F   UNL A   1      48.815  26.999  25.109  1.00  0.00    -0.203 F 
ATOM     81  F   UNL A   1      52.112  25.583  29.217  1.00  0.00    -0.200 F 
ATOM     82  C   UNL A   1      51.793  26.010  26.917  1.00  0.00     0.200 A 
ATOM     83  F   UNL A   1      51.424  26.469  24.630  1.00  0.00    -0.200 F 
ATOM     84  F   UNL A   1      53.095  25.800  26.682  1.00  0.00    -0.200 F 
ENDBRANCH  50  74
BRANCH  62  85
ATOM     85  C   UNL A   1      45.908  32.370  29.483  1.00  0.00     0.064 A 
ATOM     86  C   UNL A   1      46.012  33.408  28.546  1.00  0.00     0.173 A 
ATOM     87  C   UNL A   1      46.259  32.648  30.813  1.00  0.00     0.173 A 
ATOM     88  F   UNL A   1      45.702  33.190  27.259  1.00  0.00    -0.203 F 
ATOM     89  C   UNL A   1      46.471  34.667  28.922  1.00  0.00     0.198 A 
ATOM     90  C   UNL A   1      46.685  33.918  31.192  1.00  0.00     0.198 A 
ATOM     91  F   UNL A   1      46.170  31.692  31.751  1.00  0.00    -0.203 F 
ATOM     92  F   UNL A   1      46.608  35.632  28.001  1.00  0.00    -0.200 F 
ATOM     93  C   UNL A   1      46.798  34.923  30.245  1.00  0.00     0.200 A 
ATOM     94  F   UNL A   1      46.984  34.167  32.475  1.00  0.00    -0.200 F 
ATOM     95  F   UNL A   1      47.228  36.140  30.607  1.00  0.00    -0.200 F 
ENDBRANCH  62  85
ENDBRANCH  36  37
ENDBRANCH  28  31
ENDBRANCH  26  27
ENDBRANCH  25  26
ENDBRANCH   1  25
TORSDOF 15
ENDMDL
MODEL 2
REMARK VINA RESULT:     -12.3      5.543     10.844
REMARK SMILES COc1c(C(=O)NCCCCCCNC(=O)c2ccc(-c3c4nc(c(-c5c(F)c(F)c(F)c(F)c5F)c5ccc([nH]5)c(-c5c(F)c(F)c(F)c(F)c5F)c5nc(c(-c6c(F)c(F)c(F)c(F)c6F)c6ccc3[nH]6)C=C5)C=C4)cc2)cccc1-c1cc(C)ccc1C
REMARK SMILES IDX 11 1 10 2 9 3 8 4 7 5 5 6 6 7 4 9 3 10 83 11 80 12 82 13
REMARK SMILES IDX 81 14 2 15 1 16 84 17 85 18 90 19 86 20 89 21 91 22 87 23
REMARK SMILES IDX 88 24 12 25 13 26 14 27 15 28 16 30 17 31 18 32 79 33 19 34
REMARK SMILES IDX 78 35 20 36 21 37 22 38 72 39 23 40 77 41 71 42 73 43 24 44
REMARK SMILES IDX 76 45 70 46 69 47 25 49 57 50 37 51 56 52 38 53 41 54 55 55
REMARK SMILES IDX 74 56 39 57 40 58 54 60 75 61 42 62 26 63 27 64 35 65 28 66
REMARK SMILES IDX 29 67 33 68 36 69 30 70 31 71 34 72 32 73 58 74 59 75 67 76
REMARK SMILES IDX 60 77 61 78 65 79 68 80 62 81 63 82 66 83 64 84 43 85 44 86
REMARK SMILES IDX 52 87 45 88 46 89 50 90 53 91 47 92 48 93 51 94 49 95
REMARK H PARENT 7 8 14 29 73 48 41 59
REMARK Flexibility Score: inf
ROOT
ATOM      1  C   UNL A   1      31.375  30.709  26.420  1.00  0.00     0.002 C 
ENDROOT
BRANCH   1   2
ATOM      2  C   UNL A   1      31.767  30.087  25.075  1.00  0.00     0.002 C 
BRANCH   2   3
ATOM      3  C   UNL A   1      30.648  29.620  24.147  1.00  0.00     0.021 C 
BRANCH   3   4
ATOM      4  C   UNL A   1      31.039  28.709  22.999  1.00  0.00     0.116 C 
BRANCH   4   5
ATOM      5  N   UNL A   1      32.307  28.907  22.365  1.00  0.00    -0.352 N 
ATOM      6  C   UNL A   1      33.429  28.111  22.482  1.00  0.00     0.255 C 
ATOM      7  O   UNL A   1      34.373  28.356  21.727  1.00  0.00    -0.269 OA
ATOM      8  H   UNL A   1      32.388  29.696  21.782  1.00  0.00     0.163 HD
BRANCH   6   9
ATOM      9  C   UNL A   1      33.613  27.061  23.546  1.00  0.00     0.082 A 
ATOM     10  C   UNL A   1      33.767  25.660  23.384  1.00  0.00     0.139 A 
ATOM     11  C   UNL A   1      33.956  24.826  24.527  1.00  0.00     0.025 A 
ATOM     12  C   UNL A   1      33.668  27.600  24.849  1.00  0.00     0.018 A 
ATOM     13  C   UNL A   1      33.990  25.419  25.804  1.00  0.00     0.012 A 
ATOM     14  C   UNL A   1      33.853  26.793  25.967  1.00  0.00     0.002 A 
BRANCH  10  15
ATOM     15  O   UNL A   1      33.857  25.146  22.107  1.00  0.00    -0.495 OA
ATOM     16  C   UNL A   1      32.616  25.035  21.394  1.00  0.00     0.278 C 
ENDBRANCH  10  15
BRANCH  11  17
ATOM     17  C   UNL A   1      34.078  23.352  24.452  1.00  0.00    -0.011 A 
ATOM     18  C   UNL A   1      35.370  22.792  24.576  1.00  0.00     0.012 A 
ATOM     19  C   UNL A   1      32.972  22.478  24.369  1.00  0.00    -0.043 A 
ATOM     20  C   UNL A   1      35.572  21.413  24.703  1.00  0.00    -0.050 A 
ATOM     21  C   UNL A   1      33.181  21.095  24.518  1.00  0.00     0.004 A 
ATOM     22  C   UNL A   1      31.551  22.967  24.264  1.00  0.00     0.045 C 
ATOM     23  C   UNL A   1      36.962  20.874  24.871  1.00  0.00     0.044 C 
ATOM     24  C   UNL A   1      34.463  20.569  24.694  1.00  0.00     0.004 A 
ENDBRANCH  11  17
ENDBRANCH   6   9
ENDBRANCH   4   5
ENDBRANCH   3   4
ENDBRANCH   2   3
ENDBRANCH   1   2
BRANCH   1  25
ATOM     25  C   UNL A   1      31.385  32.235  26.540  1.00  0.00     0.021 C 
BRANCH  25  26
ATOM     26  C   UNL A   1      32.583  32.866  27.242  1.00  0.00     0.116 C 
BRANCH  26  27
ATOM     27  N   UNL A   1      32.349  34.239  27.651  1.00  0.00    -0.352 N 
ATOM     28  C   UNL A   1      32.982  34.998  28.605  1.00  0.00     0.251 C 
ATOM     29  H   UNL A   1      31.623  34.697  27.170  1.00  0.00     0.163 HD
ATOM     30  O   UNL A   1      32.554  36.114  28.880  1.00  0.00    -0.269 OA
BRANCH  28  31
ATOM     31  C   UNL A   1      34.164  34.473  29.326  1.00  0.00     0.039 A 
ATOM     32  C   UNL A   1      33.971  33.869  30.572  1.00  0.00     0.014 A 
ATOM     33  C   UNL A   1      35.454  34.592  28.804  1.00  0.00     0.014 A 
ATOM     34  C   UNL A   1      35.059  33.330  31.265  1.00  0.00     0.010 A 
ATOM     35  C   UNL A   1      36.529  33.995  29.461  1.00  0.00     0.010 A 
ATOM     36  C   UNL A   1      36.343  33.357  30.699  1.00  0.00    -0.014 A 
BRANCH  36  37
ATOM     37  C   UNL A   1      37.504  32.727  31.384  1.00  0.00     0.031 A 
ATOM     38  C   UNL A   1      38.203  31.550  30.759  1.00  0.00     0.074 A 
ATOM     39  C   UNL A   1      37.885  33.171  32.598  1.00  0.00     0.049 A 
ATOM     40  N   UNL A   1      39.165  30.805  31.243  1.00  0.00    -0.248 NA
ATOM     41  C   UNL A   1      37.744  31.139  29.422  1.00  0.00     0.031 C 
ATOM     42  C   UNL A   1      37.268  34.281  33.326  1.00  0.00     0.029 A 
ATOM     43  N   UNL A   1      38.875  32.732  33.445  1.00  0.00    -0.354 N 
ATOM     44  C   UNL A   1      39.409  29.830  30.284  1.00  0.00     0.074 A 
ATOM     45  C   UNL A   1      38.470  30.051  29.208  1.00  0.00     0.031 C 
ATOM     46  C   UNL A   1      37.898  34.443  34.501  1.00  0.00     0.029 A 
ATOM     47  C   UNL A   1      38.934  33.424  34.631  1.00  0.00     0.049 A 
ATOM     48  H   UNL A   1      39.484  31.991  33.223  1.00  0.00     0.167 HD
ATOM     49  C   UNL A   1      40.345  28.851  30.296  1.00  0.00     0.037 A 
ATOM     50  C   UNL A   1      39.723  33.243  35.709  1.00  0.00     0.037 A 
ATOM     51  C   UNL A   1      41.305  28.658  31.351  1.00  0.00     0.049 A 
ATOM     52  C   UNL A   1      40.746  32.137  35.694  1.00  0.00     0.074 A 
ATOM     53  C   UNL A   1      42.339  27.741  31.417  1.00  0.00     0.029 A 
ATOM     54  N   UNL A   1      41.348  29.396  32.525  1.00  0.00    -0.354 N 
ATOM     55  N   UNL A   1      41.015  31.270  34.748  1.00  0.00    -0.248 NA
ATOM     56  C   UNL A   1      41.580  31.988  36.896  1.00  0.00     0.031 C 
ATOM     57  C   UNL A   1      42.973  27.884  32.654  1.00  0.00     0.029 A 
ATOM     58  C   UNL A   1      42.374  28.932  33.333  1.00  0.00     0.049 A 
ATOM     59  H   UNL A   1      40.741  30.137  32.750  1.00  0.00     0.167 HD
ATOM     60  C   UNL A   1      42.072  30.504  35.223  1.00  0.00     0.074 A 
ATOM     61  C   UNL A   1      42.403  31.015  36.536  1.00  0.00     0.031 C 
ATOM     62  C   UNL A   1      42.711  29.470  34.625  1.00  0.00     0.037 A 
BRANCH  49  63
ATOM     63  C   UNL A   1      40.392  27.903  29.133  1.00  0.00     0.064 A 
ATOM     64  C   UNL A   1      39.615  26.737  29.102  1.00  0.00     0.173 A 
ATOM     65  C   UNL A   1      41.158  28.211  27.999  1.00  0.00     0.173 A 
ATOM     66  F   UNL A   1      38.871  26.390  30.164  1.00  0.00    -0.203 F 
ATOM     67  C   UNL A   1      39.613  25.906  27.983  1.00  0.00     0.198 A 
ATOM     68  C   UNL A   1      41.131  27.396  26.870  1.00  0.00     0.198 A 
ATOM     69  F   UNL A   1      41.915  29.320  27.974  1.00  0.00    -0.203 F 
ATOM     70  F   UNL A   1      38.886  24.780  27.987  1.00  0.00    -0.200 F 
ATOM     71  C   UNL A   1      40.361  26.243  26.864  1.00  0.00     0.200 A 
ATOM     72  F   UNL A   1      41.842  27.731  25.785  1.00  0.00    -0.200 F 
ATOM     73  F   UNL A   1      40.341  25.455  25.781  1.00  0.00    -0.200 F 
ENDBRANCH  49  63
BRANCH  50  74
ATOM     74  C   UNL A   1      39.584  34.124  36.902  1.00  0.00     0.064 A 
ATOM     75  C   UNL A   1      40.281  35.338  36.988  1.00  0.00     0.173 A 
ATOM     76  C   UNL A   1      38.799  33.746  38.001  1.00  0.00     0.173 A 
ATOM     77  F   UNL A   1      41.063  35.733  35.973  1.00  0.00    -0.203 F 
ATOM     78  C   UNL A   1      40.229  36.119  38.140  1.00  0.00     0.198 A 
ATOM     79  C   UNL A   1      38.720  34.547  39.139  1.00  0.00     0.198 A 
ATOM     80  F   UNL A   1      38.108  32.597  37.972  1.00  0.00    -0.203 F 
ATOM     81  F   UNL A   1      40.963  37.238  38.221  1.00  0.00    -0.200 F 
ATOM     82  C   UNL A   1      39.447  35.725  39.215  1.00  0.00     0.200 A 
ATOM     83  F   UNL A   1      37.951  34.167  40.170  1.00  0.00    -0.200 F 
ATOM     84  F   UNL A   1      39.406  36.471  40.326  1.00  0.00    -0.200 F 
ENDBRANCH  50  74
BRANCH  62  85
ATOM     85  C   UNL A   1      43.872  28.855  35.353  1.00  0.00     0.064 A 
ATOM     86  C   UNL A   1      45.190  29.286  35.140  1.00  0.00     0.173 A 
ATOM     87  C   UNL A   1      43.655  27.855  36.313  1.00  0.00     0.173 A 
ATOM     88  F   UNL A   1      45.453  30.229  34.223  1.00  0.00    -0.203 F 
ATOM     89  C   UNL A   1      46.249  28.720  35.845  1.00  0.00     0.198 A 
ATOM     90  C   UNL A   1      44.712  27.316  37.040  1.00  0.00     0.198 A 
ATOM     91  F   UNL A   1      42.412  27.414  36.560  1.00  0.00    -0.203 F 
ATOM     92  F   UNL A   1      47.506  29.112  35.592  1.00  0.00    -0.200 F 
ATOM     93  C   UNL A   1      46.008  27.743  36.799  1.00  0.00     0.200 A 
ATOM     94  F   UNL A   1      44.474  26.385  37.974  1.00  0.00    -0.200 F 
ATOM     95  F   UNL A   1      47.029  27.209  37.485  1.00  0.00    -0.200 F 
ENDBRANCH  62  85
ENDBRANCH  36  37
ENDBRANCH  28  31
ENDBRANCH  26  27
ENDBRANCH  25  26
ENDBRANCH   1  25
TORSDOF 15
ENDMDL
MODEL 3
REMARK VINA RESULT:     -12.1      5.387     10.788
REMARK SMILES COc1c(C(=O)NCCCCCCNC(=O)c2ccc(-c3c4nc(c(-c5c(F)c(F)c(F)c(F)c5F)c5ccc([nH]5)c(-c5c(F)c(F)c(F)c(F)c5F)c5nc(c(-c6c(F)c(F)c(F)c(F)c6F)c6ccc3[nH]6)C=C5)C=C4)cc2)cccc1-c1cc(C)ccc1C
REMARK SMILES IDX 11 1 10 2 9 3 8 4 7 5 5 6 6 7 4 9 3 10 83 11 80 12 82 13
REMARK SMILES IDX 81 14 2 15 1 16 84 17 85 18 90 19 86 20 89 21 91 22 87 23
REMARK SMILES IDX 88 24 12 25 13 26 14 27 15 28 16 30 17 31 18 32 79 33 19 34
REMARK SMILES IDX 78 35 20 36 21 37 22 38 72 39 23 40 77 41 71 42 73 43 24 44
REMARK SMILES IDX 76 45 70 46 69 47 25 49 57 50 37 51 56 52 38 53 41 54 55 55
REMARK SMILES IDX 74 56 39 57 40 58 54 60 75 61 42 62 26 63 27 64 35 65 28 66
REMARK SMILES IDX 29 67 33 68 36 69 30 70 31 71 34 72 32 73 58 74 59 75 67 76
REMARK SMILES IDX 60 77 61 78 65 79 68 80 62 81 63 82 66 83 64 84 43 85 44 86
REMARK SMILES IDX 52 87 45 88 46 89 50 90 53 91 47 92 48 93 51 94 49 95
REMARK H PARENT 7 8 14 29 73 48 41 59
REMARK Flexibility Score: inf
ROOT
ATOM      1  C   UNL A   1      31.539  30.676  26.114  1.00  0.00     0.002 C 
ENDROOT
BRANCH   1   2
ATOM      2  C   UNL A   1      32.379  29.670  26.912  1.00  0.00     0.002 C 
BRANCH   2   3
ATOM      3  C   UNL A   1      31.797  28.279  27.149  1.00  0.00     0.021 C 
BRANCH   3   4
ATOM      4  C   UNL A   1      31.804  27.319  25.975  1.00  0.00     0.116 C 
BRANCH   4   5
ATOM      5  N   UNL A   1      30.609  27.172  25.200  1.00  0.00    -0.352 N 
ATOM      6  C   UNL A   1      30.317  26.162  24.305  1.00  0.00     0.255 C 
ATOM      7  O   UNL A   1      29.167  26.122  23.859  1.00  0.00    -0.269 OA
ATOM      8  H   UNL A   1      29.922  27.867  25.316  1.00  0.00     0.163 HD
BRANCH   6   9
ATOM      9  C   UNL A   1      31.336  25.199  23.754  1.00  0.00     0.082 A 
ATOM     10  C   UNL A   1      31.727  23.939  24.273  1.00  0.00     0.139 A 
ATOM     11  C   UNL A   1      32.703  23.155  23.585  1.00  0.00     0.025 A 
ATOM     12  C   UNL A   1      31.918  25.643  22.547  1.00  0.00     0.018 A 
ATOM     13  C   UNL A   1      33.258  23.656  22.391  1.00  0.00     0.012 A 
ATOM     14  C   UNL A   1      32.868  24.884  21.872  1.00  0.00     0.002 A 
BRANCH  10  15
ATOM     15  O   UNL A   1      31.060  23.437  25.370  1.00  0.00    -0.495 OA
ATOM     16  C   UNL A   1      31.664  23.713  26.643  1.00  0.00     0.278 C 
ENDBRANCH  10  15
BRANCH  11  17
ATOM     17  C   UNL A   1      33.202  21.852  24.080  1.00  0.00    -0.011 A 
ATOM     18  C   UNL A   1      32.530  20.685  23.651  1.00  0.00     0.012 A 
ATOM     19  C   UNL A   1      34.367  21.707  24.867  1.00  0.00    -0.043 A 
ATOM     20  C   UNL A   1      33.030  19.403  23.910  1.00  0.00    -0.050 A 
ATOM     21  C   UNL A   1      34.874  20.417  25.105  1.00  0.00     0.004 A 
ATOM     22  C   UNL A   1      35.175  22.882  25.352  1.00  0.00     0.045 C 
ATOM     23  C   UNL A   1      32.298  18.198  23.399  1.00  0.00     0.044 C 
ATOM     24  C   UNL A   1      34.221  19.279  24.625  1.00  0.00     0.004 A 
ENDBRANCH  11  17
ENDBRANCH   6   9
ENDBRANCH   4   5
ENDBRANCH   3   4
ENDBRANCH   2   3
ENDBRANCH   1   2
BRANCH   1  25
ATOM     25  C   UNL A   1      31.368  32.086  26.684  1.00  0.00     0.021 C 
BRANCH  25  26
ATOM     26  C   UNL A   1      32.624  32.784  27.193  1.00  0.00     0.116 C 
BRANCH  26  27
ATOM     27  N   UNL A   1      32.385  34.148  27.628  1.00  0.00    -0.352 N 
ATOM     28  C   UNL A   1      33.017  34.892  28.594  1.00  0.00     0.251 C 
ATOM     29  H   UNL A   1      31.656  34.612  27.156  1.00  0.00     0.163 HD
ATOM     30  O   UNL A   1      32.585  36.001  28.891  1.00  0.00    -0.269 OA
BRANCH  28  31
ATOM     31  C   UNL A   1      34.202  34.359  29.304  1.00  0.00     0.039 A 
ATOM     32  C   UNL A   1      34.009  33.686  30.514  1.00  0.00     0.014 A 
ATOM     33  C   UNL A   1      35.496  34.536  28.806  1.00  0.00     0.014 A 
ATOM     34  C   UNL A   1      35.102  33.139  31.192  1.00  0.00     0.010 A 
ATOM     35  C   UNL A   1      36.577  33.932  29.445  1.00  0.00     0.010 A 
ATOM     36  C   UNL A   1      36.391  33.226  30.646  1.00  0.00    -0.014 A 
BRANCH  36  37
ATOM     37  C   UNL A   1      37.559  32.589  31.314  1.00  0.00     0.031 A 
ATOM     38  C   UNL A   1      38.275  31.443  30.652  1.00  0.00     0.074 A 
ATOM     39  C   UNL A   1      37.931  32.998  32.543  1.00  0.00     0.049 A 
ATOM     40  N   UNL A   1      39.246  30.695  31.115  1.00  0.00    -0.248 NA
ATOM     41  C   UNL A   1      37.825  31.070  29.301  1.00  0.00     0.031 C 
ATOM     42  C   UNL A   1      37.297  34.076  33.305  1.00  0.00     0.029 A 
ATOM     43  N   UNL A   1      38.925  32.545  33.377  1.00  0.00    -0.354 N 
ATOM     44  C   UNL A   1      39.505  29.756  30.125  1.00  0.00     0.074 A 
ATOM     45  C   UNL A   1      38.565  29.999  29.053  1.00  0.00     0.031 C 
ATOM     46  C   UNL A   1      37.923  34.207  34.486  1.00  0.00     0.029 A 
ATOM     47  C   UNL A   1      38.972  33.198  34.586  1.00  0.00     0.049 A 
ATOM     48  H   UNL A   1      39.545  31.820  33.133  1.00  0.00     0.167 HD
ATOM     49  C   UNL A   1      40.454  28.789  30.107  1.00  0.00     0.037 A 
ATOM     50  C   UNL A   1      39.761  32.993  35.660  1.00  0.00     0.037 A 
ATOM     51  C   UNL A   1      41.414  28.574  31.158  1.00  0.00     0.049 A 
ATOM     52  C   UNL A   1      40.799  31.901  35.611  1.00  0.00     0.074 A 
ATOM     53  C   UNL A   1      42.460  27.669  31.197  1.00  0.00     0.029 A 
ATOM     54  N   UNL A   1      41.445  29.274  32.355  1.00  0.00    -0.354 N 
ATOM     55  N   UNL A   1      41.081  31.069  34.638  1.00  0.00    -0.248 NA
ATOM     56  C   UNL A   1      41.632  31.724  36.809  1.00  0.00     0.031 C 
ATOM     57  C   UNL A   1      43.089  27.780  32.440  1.00  0.00     0.029 A 
ATOM     58  C   UNL A   1      42.475  28.798  33.150  1.00  0.00     0.049 A 
ATOM     59  H   UNL A   1      40.827  29.999  32.603  1.00  0.00     0.167 HD
ATOM     60  C   UNL A   1      42.147  30.302  35.091  1.00  0.00     0.074 A 
ATOM     61  C   UNL A   1      42.469  30.774  36.420  1.00  0.00     0.031 C 
ATOM     62  C   UNL A   1      42.801  29.297  34.461  1.00  0.00     0.037 A 
BRANCH  49  63
ATOM     63  C   UNL A   1      40.516  27.880  28.914  1.00  0.00     0.064 A 
ATOM     64  C   UNL A   1      39.743  26.713  28.836  1.00  0.00     0.173 A 
ATOM     65  C   UNL A   1      41.294  28.228  27.799  1.00  0.00     0.173 A 
ATOM     66  F   UNL A   1      38.989  26.330  29.877  1.00  0.00    -0.203 F 
ATOM     67  C   UNL A   1      39.755  25.921  27.690  1.00  0.00     0.198 A 
ATOM     68  C   UNL A   1      41.281  27.450  26.644  1.00  0.00     0.198 A 
ATOM     69  F   UNL A   1      42.047  29.339  27.819  1.00  0.00    -0.203 F 
ATOM     70  F   UNL A   1      39.033  24.793  27.649  1.00  0.00    -0.200 F 
ATOM     71  C   UNL A   1      40.515  26.296  26.591  1.00  0.00     0.200 A 
ATOM     72  F   UNL A   1      42.003  27.824  25.578  1.00  0.00    -0.200 F 
ATOM     73  F   UNL A   1      40.509  25.544  25.482  1.00  0.00    -0.200 F 
ENDBRANCH  49  63
BRANCH  50  74
ATOM     74  C   UNL A   1      39.608  33.832  36.880  1.00  0.00     0.064 A 
ATOM     75  C   UNL A   1      38.810  33.407  37.952  1.00  0.00     0.173 A 
ATOM     76  C   UNL A   1      40.210  35.095  36.979  1.00  0.00     0.173 A 
ATOM     77  F   UNL A   1      38.194  32.217  37.897  1.00  0.00    -0.203 F 
ATOM     78  C   UNL A   1      38.587  34.228  39.055  1.00  0.00     0.198 A 
ATOM     79  C   UNL A   1      40.015  35.900  38.099  1.00  0.00     0.198 A 
ATOM     80  F   UNL A   1      40.987  35.549  35.985  1.00  0.00    -0.203 F 
ATOM     81  F   UNL A   1      37.760  33.826  40.031  1.00  0.00    -0.200 F 
ATOM     82  C   UNL A   1      39.192  35.474  39.130  1.00  0.00     0.200 A 
ATOM     83  F   UNL A   1      40.614  37.097  38.172  1.00  0.00    -0.200 F 
ATOM     84  F   UNL A   1      38.969  36.267  40.186  1.00  0.00    -0.200 F 
ENDBRANCH  50  74
BRANCH  62  85
ATOM     85  C   UNL A   1      43.969  28.674  35.171  1.00  0.00     0.064 A 
ATOM     86  C   UNL A   1      43.812  27.581  36.037  1.00  0.00     0.173 A 
ATOM     87  C   UNL A   1      45.269  29.149  34.942  1.00  0.00     0.173 A 
ATOM     88  F   UNL A   1      42.589  27.099  36.300  1.00  0.00    -0.203 F 
ATOM     89  C   UNL A   1      44.913  27.004  36.664  1.00  0.00     0.198 A 
ATOM     90  C   UNL A   1      46.370  28.547  35.544  1.00  0.00     0.198 A 
ATOM     91  F   UNL A   1      45.475  30.188  34.117  1.00  0.00    -0.203 F 
ATOM     92  F   UNL A   1      44.735  25.991  37.524  1.00  0.00    -0.200 F 
ATOM     93  C   UNL A   1      46.190  27.481  36.410  1.00  0.00     0.200 A 
ATOM     94  F   UNL A   1      47.605  29.000  35.284  1.00  0.00    -0.200 F 
ATOM     95  F   UNL A   1      47.248  26.914  37.006  1.00  0.00    -0.200 F 
ENDBRANCH  62  85
ENDBRANCH  36  37
ENDBRANCH  28  31
ENDBRANCH  26  27
ENDBRANCH  25  26
ENDBRANCH   1  25
TORSDOF 15
ENDMDL
