MODEL 1
REMARK VINA RESULT:     -14.2      0.000      0.000
REMARK SMILES COC(=O)c1ccc([C@H]2CC(=O)Nc3c(C(=O)NCCCCCCNC(=O)c4ccc(-c5c6nc(c(-c7c(F)c(F)c(F)c(F)c7F)c7ccc([nH]7)c(-c7c(F)c(F)c(F)c(F)c7F)c7nc(c(-c8c(F)c(F)c(F)c(F)c8F)c8ccc5[nH]8)C=C7)C=C6)cc4)cn(-c4ccccc4)c32)cc1
REMARK SMILES IDX 21 1 20 2 19 3 18 4 16 5 17 6 15 8 9 9 10 10 99 11 11 12
REMARK SMILES IDX 14 13 92 14 12 15 13 16 91 17 8 19 5 20 6 21 101 22 7 23
REMARK SMILES IDX 100 24 3 25 4 26 2 27 1 28 93 29 94 30 98 31 95 32 97 33
REMARK SMILES IDX 96 34 22 35 23 36 24 37 25 38 26 39 27 41 28 42 29 43 90 44
REMARK SMILES IDX 30 45 89 46 31 47 32 48 33 49 83 50 34 51 88 52 82 53 84 54
REMARK SMILES IDX 35 55 87 56 81 57 80 58 36 60 68 61 48 62 67 63 49 64 52 65
REMARK SMILES IDX 66 66 85 67 50 68 51 69 65 71 86 72 53 73 37 74 38 75 46 76
REMARK SMILES IDX 39 77 40 78 44 79 47 80 41 81 42 82 45 83 43 84 69 85 70 86
REMARK SMILES IDX 78 87 71 88 72 89 76 90 79 91 73 92 74 93 77 94 75 95 54 96
REMARK SMILES IDX 55 97 63 98 56 99 57 100 61 101 64 102 58 103 59 104 62 105
REMARK SMILES IDX 60 106
REMARK H PARENT 18 7 13 18 25 40 84 59 52 70
REMARK Flexibility Score: inf
ROOT
ATOM      1  C   UNL A   1      35.134  20.944  25.067  1.00  0.00     0.002 C 
ENDROOT
BRANCH   1   2
ATOM      2  C   UNL A   1      34.420  19.593  25.000  1.00  0.00     0.021 C 
BRANCH   2   3
ATOM      3  C   UNL A   1      32.892  19.727  24.950  1.00  0.00     0.116 C 
BRANCH   3   4
ATOM      4  N   UNL A   1      32.464  19.962  23.600  1.00  0.00    -0.352 N 
ATOM      5  C   UNL A   1      32.067  21.079  22.926  1.00  0.00     0.254 C 
ATOM      6  O   UNL A   1      31.781  20.889  21.740  1.00  0.00    -0.269 OA
ATOM      7  H   UNL A   1      32.454  19.148  23.046  1.00  0.00     0.163 HD
BRANCH   5   8
ATOM      8  C   UNL A   1      32.002  22.432  23.496  1.00  0.00     0.081 A 
ATOM      9  C   UNL A   1      31.083  25.523  25.412  1.00  0.00     0.078 C 
ATOM     10  C   UNL A   1      29.995  24.956  26.334  1.00  0.00     0.115 C 
ATOM     11  C   UNL A   1      31.688  24.452  24.535  1.00  0.00     0.055 A 
ATOM     12  C   UNL A   1      30.045  23.476  26.584  1.00  0.00     0.225 C 
ATOM     13  C   UNL A   1      31.371  23.108  24.589  1.00  0.00     0.076 A 
ATOM     14  N   UNL A   1      32.591  24.637  23.504  1.00  0.00    -0.317 N 
ATOM     15  O   UNL A   1      29.525  22.967  27.578  1.00  0.00    -0.275 OA
ATOM     16  N   UNL A   1      30.552  22.679  25.603  1.00  0.00    -0.324 N 
ATOM     17  C   UNL A   1      32.689  23.445  22.832  1.00  0.00     0.107 A 
ATOM     18  H   UNL A   1      30.313  21.724  25.623  1.00  0.00     0.170 HD
BRANCH   9  19
ATOM     19  C   UNL A   1      30.457  26.713  24.678  1.00  0.00    -0.038 A 
ATOM     20  C   UNL A   1      29.422  28.935  23.282  1.00  0.00     0.060 A 
ATOM     21  C   UNL A   1      30.512  29.090  24.144  1.00  0.00     0.016 A 
ATOM     22  C   UNL A   1      28.814  27.683  23.165  1.00  0.00     0.016 A 
ATOM     23  C   UNL A   1      31.032  27.987  24.826  1.00  0.00     0.005 A 
ATOM     24  C   UNL A   1      29.302  26.597  23.890  1.00  0.00     0.005 A 
BRANCH  20  25
ATOM     25  C   UNL A   1      28.957  30.104  22.498  1.00  0.00     0.337 C 
ATOM     26  O   UNL A   1      29.230  30.278  21.314  1.00  0.00    -0.246 OA
BRANCH  25  27
ATOM     27  O   UNL A   1      28.206  30.921  23.270  1.00  0.00    -0.465 OA
ATOM     28  C   UNL A   1      28.538  32.304  23.167  1.00  0.00     0.282 C 
ENDBRANCH  25  27
ENDBRANCH  20  25
ENDBRANCH   9  19
BRANCH  14  29
ATOM     29  C   UNL A   1      33.187  25.849  23.079  1.00  0.00     0.045 A 
ATOM     30  C   UNL A   1      33.995  26.581  23.952  1.00  0.00     0.026 A 
ATOM     31  C   UNL A   1      32.845  26.365  21.822  1.00  0.00     0.026 A 
ATOM     32  C   UNL A   1      34.403  27.866  23.594  1.00  0.00     0.002 A 
ATOM     33  C   UNL A   1      33.228  27.664  21.489  1.00  0.00     0.002 A 
ATOM     34  C   UNL A   1      33.996  28.416  22.379  1.00  0.00     0.000 A 
ENDBRANCH  14  29
ENDBRANCH   5   8
ENDBRANCH   3   4
ENDBRANCH   2   3
ENDBRANCH   1   2
BRANCH   1  35
ATOM     35  C   UNL A   1      36.645  20.854  25.343  1.00  0.00     0.002 C 
BRANCH  35  36
ATOM     36  C   UNL A   1      37.512  21.967  24.729  1.00  0.00     0.021 C 
BRANCH  36  37
ATOM     37  C   UNL A   1      38.159  22.856  25.776  1.00  0.00     0.116 C 
BRANCH  37  38
ATOM     38  N   UNL A   1      39.186  22.134  26.535  1.00  0.00    -0.352 N 
ATOM     39  C   UNL A   1      40.315  22.619  27.163  1.00  0.00     0.251 C 
ATOM     40  H   UNL A   1      39.050  21.163  26.607  1.00  0.00     0.163 HD
ATOM     41  O   UNL A   1      41.243  21.876  27.459  1.00  0.00    -0.269 OA
BRANCH  39  42
ATOM     42  C   UNL A   1      40.381  24.051  27.478  1.00  0.00     0.039 A 
ATOM     43  C   UNL A   1      39.318  24.920  27.218  1.00  0.00     0.014 A 
ATOM     44  C   UNL A   1      41.541  24.510  28.089  1.00  0.00     0.014 A 
ATOM     45  C   UNL A   1      39.423  26.240  27.645  1.00  0.00     0.010 A 
ATOM     46  C   UNL A   1      41.536  25.718  28.720  1.00  0.00     0.010 A 
ATOM     47  C   UNL A   1      40.536  26.624  28.412  1.00  0.00    -0.014 A 
BRANCH  47  48
ATOM     48  C   UNL A   1      40.659  27.959  28.973  1.00  0.00     0.031 A 
ATOM     49  C   UNL A   1      41.714  28.789  28.340  1.00  0.00     0.074 A 
ATOM     50  C   UNL A   1      39.758  28.464  29.845  1.00  0.00     0.049 A 
ATOM     51  N   UNL A   1      42.810  29.205  28.878  1.00  0.00    -0.248 NA
ATOM     52  C   UNL A   1      41.614  29.064  26.897  1.00  0.00     0.031 C 
ATOM     53  C   UNL A   1      38.495  27.879  30.316  1.00  0.00     0.029 A 
ATOM     54  N   UNL A   1      39.747  29.687  30.439  1.00  0.00    -0.354 N 
ATOM     55  C   UNL A   1      43.454  29.961  27.903  1.00  0.00     0.074 A 
ATOM     56  C   UNL A   1      42.768  29.692  26.666  1.00  0.00     0.031 C 
ATOM     57  C   UNL A   1      37.745  28.828  30.919  1.00  0.00     0.029 A 
ATOM     58  C   UNL A   1      38.543  30.030  31.043  1.00  0.00     0.049 A 
ATOM     59  H   UNL A   1      40.531  30.283  30.440  1.00  0.00     0.167 HD
ATOM     60  C   UNL A   1      44.343  30.929  28.254  1.00  0.00     0.037 A 
ATOM     61  C   UNL A   1      38.230  31.234  31.585  1.00  0.00     0.037 A 
ATOM     62  C   UNL A   1      44.777  30.756  29.620  1.00  0.00     0.049 A 
ATOM     63  C   UNL A   1      39.513  31.935  31.849  1.00  0.00     0.074 A 
ATOM     64  C   UNL A   1      45.438  29.755  30.306  1.00  0.00     0.029 A 
ATOM     65  N   UNL A   1      44.180  31.531  30.585  1.00  0.00    -0.354 N 
ATOM     66  N   UNL A   1      40.380  31.539  32.740  1.00  0.00    -0.248 NA
ATOM     67  C   UNL A   1      40.045  32.776  30.787  1.00  0.00     0.031 C 
ATOM     68  C   UNL A   1      44.795  29.693  31.578  1.00  0.00     0.029 A 
ATOM     69  C   UNL A   1      43.839  30.708  31.627  1.00  0.00     0.049 A 
ATOM     70  H   UNL A   1      44.027  32.503  30.537  1.00  0.00     0.167 HD
ATOM     71  C   UNL A   1      41.614  31.705  32.128  1.00  0.00     0.074 A 
ATOM     72  C   UNL A   1      41.348  32.537  30.955  1.00  0.00     0.031 C 
ATOM     73  C   UNL A   1      42.677  30.915  32.460  1.00  0.00     0.037 A 
BRANCH  60  74
ATOM     74  C   UNL A   1      44.523  32.235  27.518  1.00  0.00     0.064 A 
ATOM     75  C   UNL A   1      45.693  32.429  26.754  1.00  0.00     0.173 A 
ATOM     76  C   UNL A   1      43.769  33.399  27.777  1.00  0.00     0.173 A 
ATOM     77  F   UNL A   1      46.492  31.394  26.453  1.00  0.00    -0.203 F 
ATOM     78  C   UNL A   1      46.122  33.701  26.368  1.00  0.00     0.198 A 
ATOM     79  C   UNL A   1      44.172  34.662  27.344  1.00  0.00     0.198 A 
ATOM     80  F   UNL A   1      42.679  33.391  28.551  1.00  0.00    -0.203 F 
ATOM     81  F   UNL A   1      47.308  33.848  25.766  1.00  0.00    -0.200 F 
ATOM     82  C   UNL A   1      45.365  34.817  26.672  1.00  0.00     0.200 A 
ATOM     83  F   UNL A   1      43.433  35.733  27.663  1.00  0.00    -0.200 F 
ATOM     84  F   UNL A   1      45.807  36.044  26.366  1.00  0.00    -0.200 F 
ENDBRANCH  60  74
BRANCH  61  85
ATOM     85  C   UNL A   1      36.927  31.938  31.567  1.00  0.00     0.064 A 
ATOM     86  C   UNL A   1      36.255  32.248  32.761  1.00  0.00     0.173 A 
ATOM     87  C   UNL A   1      36.459  32.580  30.403  1.00  0.00     0.173 A 
ATOM     88  F   UNL A   1      36.665  31.715  33.921  1.00  0.00    -0.203 F 
ATOM     89  C   UNL A   1      35.199  33.166  32.793  1.00  0.00     0.198 A 
ATOM     90  C   UNL A   1      35.404  33.492  30.436  1.00  0.00     0.198 A 
ATOM     91  F   UNL A   1      37.081  32.407  29.227  1.00  0.00    -0.203 F 
ATOM     92  F   UNL A   1      34.624  33.484  33.962  1.00  0.00    -0.200 F 
ATOM     93  C   UNL A   1      34.783  33.797  31.633  1.00  0.00     0.200 A 
ATOM     94  F   UNL A   1      35.037  34.124  29.311  1.00  0.00    -0.200 F 
ATOM     95  F   UNL A   1      33.817  34.726  31.673  1.00  0.00    -0.200 F 
ENDBRANCH  61  85
BRANCH  73  96
ATOM     96  C   UNL A   1      42.543  30.031  33.671  1.00  0.00     0.064 A 
ATOM     97  C   UNL A   1      42.744  30.462  34.995  1.00  0.00     0.173 A 
ATOM     98  C   UNL A   1      42.051  28.733  33.489  1.00  0.00     0.173 A 
ATOM     99  F   UNL A   1      43.120  31.718  35.263  1.00  0.00    -0.203 F 
ATOM    100  C   UNL A   1      42.504  29.617  36.078  1.00  0.00     0.198 A 
ATOM    101  C   UNL A   1      41.776  27.903  34.573  1.00  0.00     0.198 A 
ATOM    102  F   UNL A   1      41.786  28.283  32.253  1.00  0.00    -0.203 F 
ATOM    103  F   UNL A   1      42.716  30.051  37.331  1.00  0.00    -0.200 F 
ATOM    104  C   UNL A   1      42.014  28.341  35.866  1.00  0.00     0.200 A 
ATOM    105  F   UNL A   1      41.256  26.686  34.364  1.00  0.00    -0.200 F 
ATOM    106  F   UNL A   1      41.744  27.540  36.907  1.00  0.00    -0.200 F 
ENDBRANCH  73  96
ENDBRANCH  47  48
ENDBRANCH  39  42
ENDBRANCH  37  38
ENDBRANCH  36  37
ENDBRANCH  35  36
ENDBRANCH   1  35
TORSDOF 17
ENDMDL
MODEL 2
REMARK VINA RESULT:     -13.6      0.777      2.040
REMARK SMILES COC(=O)c1ccc([C@H]2CC(=O)Nc3c(C(=O)NCCCCCCNC(=O)c4ccc(-c5c6nc(c(-c7c(F)c(F)c(F)c(F)c7F)c7ccc([nH]7)c(-c7c(F)c(F)c(F)c(F)c7F)c7nc(c(-c8c(F)c(F)c(F)c(F)c8F)c8ccc5[nH]8)C=C7)C=C6)cc4)cn(-c4ccccc4)c32)cc1
REMARK SMILES IDX 21 1 20 2 19 3 18 4 16 5 17 6 15 8 9 9 10 10 99 11 11 12
REMARK SMILES IDX 14 13 92 14 12 15 13 16 91 17 8 19 5 20 6 21 101 22 7 23
REMARK SMILES IDX 100 24 3 25 4 26 2 27 1 28 93 29 94 30 98 31 95 32 97 33
REMARK SMILES IDX 96 34 22 35 23 36 24 37 25 38 26 39 27 41 28 42 29 43 90 44
REMARK SMILES IDX 30 45 89 46 31 47 32 48 33 49 83 50 34 51 88 52 82 53 84 54
REMARK SMILES IDX 35 55 87 56 81 57 80 58 36 60 68 61 48 62 67 63 49 64 52 65
REMARK SMILES IDX 66 66 85 67 50 68 51 69 65 71 86 72 53 73 37 74 38 75 46 76
REMARK SMILES IDX 39 77 40 78 44 79 47 80 41 81 42 82 45 83 43 84 69 85 70 86
REMARK SMILES IDX 78 87 71 88 72 89 76 90 79 91 73 92 74 93 77 94 75 95 54 96
REMARK SMILES IDX 55 97 63 98 56 99 57 100 61 101 64 102 58 103 59 104 62 105
REMARK SMILES IDX 60 106
REMARK H PARENT 18 7 13 18 25 40 84 59 52 70
REMARK Flexibility Score: inf
ROOT
ATOM      1  C   UNL A   1      36.367  20.197  24.909  1.00  0.00     0.002 C 
ENDROOT
BRANCH   1   2
ATOM      2  C   UNL A   1      35.091  19.356  24.981  1.00  0.00     0.021 C 
BRANCH   2   3
ATOM      3  C   UNL A   1      33.827  20.204  25.175  1.00  0.00     0.116 C 
BRANCH   3   4
ATOM      4  N   UNL A   1      33.063  20.231  23.960  1.00  0.00    -0.352 N 
ATOM      5  C   UNL A   1      32.325  21.197  23.340  1.00  0.00     0.254 C 
ATOM      6  O   UNL A   1      31.813  20.846  22.273  1.00  0.00    -0.269 OA
ATOM      7  H   UNL A   1      33.073  19.376  23.473  1.00  0.00     0.163 HD
BRANCH   5   8
ATOM      8  C   UNL A   1      32.150  22.571  23.830  1.00  0.00     0.081 A 
ATOM      9  C   UNL A   1      30.929  25.704  25.494  1.00  0.00     0.078 C 
ATOM     10  C   UNL A   1      29.791  25.129  26.349  1.00  0.00     0.115 C 
ATOM     11  C   UNL A   1      31.656  24.621  24.730  1.00  0.00     0.055 A 
ATOM     12  C   UNL A   1      29.885  23.667  26.680  1.00  0.00     0.225 C 
ATOM     13  C   UNL A   1      31.396  23.268  24.828  1.00  0.00     0.076 A 
ATOM     14  N   UNL A   1      32.637  24.800  23.771  1.00  0.00    -0.317 N 
ATOM     15  O   UNL A   1      29.304  23.183  27.652  1.00  0.00    -0.275 OA
ATOM     16  N   UNL A   1      30.511  22.849  25.790  1.00  0.00    -0.324 N 
ATOM     17  C   UNL A   1      32.846  23.584  23.174  1.00  0.00     0.107 A 
ATOM     18  H   UNL A   1      30.315  21.885  25.840  1.00  0.00     0.170 HD
BRANCH   9  19
ATOM     19  C   UNL A   1      30.317  26.824  24.647  1.00  0.00    -0.038 A 
ATOM     20  C   UNL A   1      29.074  28.858  23.140  1.00  0.00     0.060 A 
ATOM     21  C   UNL A   1      28.565  27.556  23.121  1.00  0.00     0.016 A 
ATOM     22  C   UNL A   1      30.238  29.129  23.863  1.00  0.00     0.016 A 
ATOM     23  C   UNL A   1      29.174  26.552  23.877  1.00  0.00     0.005 A 
ATOM     24  C   UNL A   1      30.874  28.110  24.573  1.00  0.00     0.005 A 
BRANCH  20  25
ATOM     25  C   UNL A   1      28.349  29.922  22.406  1.00  0.00     0.337 C 
ATOM     26  O   UNL A   1      28.280  29.974  21.180  1.00  0.00    -0.246 OA
BRANCH  25  27
ATOM     27  O   UNL A   1      27.790  30.797  23.271  1.00  0.00    -0.465 OA
ATOM     28  C   UNL A   1      28.645  31.870  23.663  1.00  0.00     0.282 C 
ENDBRANCH  25  27
ENDBRANCH  20  25
ENDBRANCH   9  19
BRANCH  14  29
ATOM     29  C   UNL A   1      33.212  26.018  23.335  1.00  0.00     0.045 A 
ATOM     30  C   UNL A   1      33.942  26.811  24.223  1.00  0.00     0.026 A 
ATOM     31  C   UNL A   1      32.925  26.476  22.041  1.00  0.00     0.026 A 
ATOM     32  C   UNL A   1      34.324  28.096  23.840  1.00  0.00     0.002 A 
ATOM     33  C   UNL A   1      33.280  27.776  21.682  1.00  0.00     0.002 A 
ATOM     34  C   UNL A   1      33.968  28.587  22.584  1.00  0.00     0.000 A 
ENDBRANCH  14  29
ENDBRANCH   5   8
ENDBRANCH   3   4
ENDBRANCH   2   3
ENDBRANCH   1   2
BRANCH   1  35
ATOM     35  C   UNL A   1      36.140  21.669  24.526  1.00  0.00     0.002 C 
BRANCH  35  36
ATOM     36  C   UNL A   1      36.424  22.705  25.627  1.00  0.00     0.021 C 
BRANCH  36  37
ATOM     37  C   UNL A   1      37.654  23.548  25.342  1.00  0.00     0.116 C 
BRANCH  37  38
ATOM     38  N   UNL A   1      38.890  22.820  25.651  1.00  0.00    -0.352 N 
ATOM     39  C   UNL A   1      40.078  23.290  26.170  1.00  0.00     0.251 C 
ATOM     40  H   UNL A   1      38.868  21.855  25.459  1.00  0.00     0.163 HD
ATOM     41  O   UNL A   1      41.116  22.649  26.057  1.00  0.00    -0.269 OA
BRANCH  39  42
ATOM     42  C   UNL A   1      40.074  24.579  26.873  1.00  0.00     0.039 A 
ATOM     43  C   UNL A   1      39.649  24.702  28.199  1.00  0.00     0.014 A 
ATOM     44  C   UNL A   1      40.551  25.681  26.175  1.00  0.00     0.014 A 
ATOM     45  C   UNL A   1      39.778  25.939  28.823  1.00  0.00     0.010 A 
ATOM     46  C   UNL A   1      40.904  26.807  26.856  1.00  0.00     0.010 A 
ATOM     47  C   UNL A   1      40.425  26.984  28.141  1.00  0.00    -0.014 A 
BRANCH  47  48
ATOM     48  C   UNL A   1      40.680  28.269  28.771  1.00  0.00     0.031 A 
ATOM     49  C   UNL A   1      41.915  28.942  28.298  1.00  0.00     0.074 A 
ATOM     50  C   UNL A   1      39.769  28.885  29.557  1.00  0.00     0.049 A 
ATOM     51  N   UNL A   1      42.990  29.169  28.974  1.00  0.00    -0.248 NA
ATOM     52  C   UNL A   1      42.030  29.267  26.867  1.00  0.00     0.031 C 
ATOM     53  C   UNL A   1      38.385  28.490  29.856  1.00  0.00     0.029 A 
ATOM     54  N   UNL A   1      39.873  30.078  30.199  1.00  0.00    -0.354 N 
ATOM     55  C   UNL A   1      43.852  29.841  28.113  1.00  0.00     0.074 A 
ATOM     56  C   UNL A   1      43.285  29.714  26.796  1.00  0.00     0.031 C 
ATOM     57  C   UNL A   1      37.721  29.527  30.411  1.00  0.00     0.029 A 
ATOM     58  C   UNL A   1      38.671  30.588  30.678  1.00  0.00     0.049 A 
ATOM     59  H   UNL A   1      40.731  30.545  30.315  1.00  0.00     0.167 HD
ATOM     60  C   UNL A   1      44.829  30.650  28.605  1.00  0.00     0.037 A 
ATOM     61  C   UNL A   1      38.481  31.811  31.233  1.00  0.00     0.037 A 
ATOM     62  C   UNL A   1      45.067  30.377  30.002  1.00  0.00     0.049 A 
ATOM     63  C   UNL A   1      39.815  32.298  31.672  1.00  0.00     0.074 A 
ATOM     64  C   UNL A   1      45.483  29.267  30.713  1.00  0.00     0.029 A 
ATOM     65  N   UNL A   1      44.484  31.209  30.926  1.00  0.00    -0.354 N 
ATOM     66  N   UNL A   1      40.500  31.749  32.636  1.00  0.00    -0.248 NA
ATOM     67  C   UNL A   1      40.589  33.074  30.715  1.00  0.00     0.031 C 
ATOM     68  C   UNL A   1      44.692  29.272  31.901  1.00  0.00     0.029 A 
ATOM     69  C   UNL A   1      43.901  30.421  31.885  1.00  0.00     0.049 A 
ATOM     70  H   UNL A   1      44.486  32.193  30.904  1.00  0.00     0.167 HD
ATOM     71  C   UNL A   1      41.809  31.738  32.176  1.00  0.00     0.074 A 
ATOM     72  C   UNL A   1      41.812  32.632  31.018  1.00  0.00     0.031 C 
ATOM     73  C   UNL A   1      42.693  30.784  32.591  1.00  0.00     0.037 A 
BRANCH  60  74
ATOM     74  C   UNL A   1      45.290  31.931  27.952  1.00  0.00     0.064 A 
ATOM     75  C   UNL A   1      44.328  32.907  27.617  1.00  0.00     0.173 A 
ATOM     76  C   UNL A   1      46.561  32.108  27.366  1.00  0.00     0.173 A 
ATOM     77  F   UNL A   1      43.082  32.837  28.110  1.00  0.00    -0.203 F 
ATOM     78  C   UNL A   1      44.593  33.919  26.691  1.00  0.00     0.198 A 
ATOM     79  C   UNL A   1      46.838  33.151  26.483  1.00  0.00     0.198 A 
ATOM     80  F   UNL A   1      47.553  31.226  27.525  1.00  0.00    -0.203 F 
ATOM     81  F   UNL A   1      43.608  34.736  26.300  1.00  0.00    -0.200 F 
ATOM     82  C   UNL A   1      45.846  34.033  26.117  1.00  0.00     0.200 A 
ATOM     83  F   UNL A   1      48.054  33.234  25.926  1.00  0.00    -0.200 F 
ATOM     84  F   UNL A   1      46.083  34.957  25.178  1.00  0.00    -0.200 F 
ENDBRANCH  60  74
BRANCH  61  85
ATOM     85  C   UNL A   1      37.310  32.709  31.099  1.00  0.00     0.064 A 
ATOM     86  C   UNL A   1      36.991  33.304  29.867  1.00  0.00     0.173 A 
ATOM     87  C   UNL A   1      36.317  32.766  32.097  1.00  0.00     0.173 A 
ATOM     88  F   UNL A   1      37.864  33.255  28.850  1.00  0.00    -0.203 F 
ATOM     89  C   UNL A   1      35.742  33.894  29.638  1.00  0.00     0.198 A 
ATOM     90  C   UNL A   1      35.073  33.358  31.868  1.00  0.00     0.198 A 
ATOM     91  F   UNL A   1      36.497  32.163  33.280  1.00  0.00    -0.203 F 
ATOM     92  F   UNL A   1      35.451  34.395  28.429  1.00  0.00    -0.200 F 
ATOM     93  C   UNL A   1      34.781  33.908  30.634  1.00  0.00     0.200 A 
ATOM     94  F   UNL A   1      34.138  33.331  32.828  1.00  0.00    -0.200 F 
ATOM     95  F   UNL A   1      33.562  34.413  30.395  1.00  0.00    -0.200 F 
ENDBRANCH  61  85
BRANCH  73  96
ATOM     96  C   UNL A   1      42.285  29.900  33.738  1.00  0.00     0.064 A 
ATOM     97  C   UNL A   1      41.733  28.614  33.591  1.00  0.00     0.173 A 
ATOM     98  C   UNL A   1      42.601  30.314  35.037  1.00  0.00     0.173 A 
ATOM     99  F   UNL A   1      41.491  28.101  32.378  1.00  0.00    -0.203 F 
ATOM    100  C   UNL A   1      41.472  27.805  34.696  1.00  0.00     0.198 A 
ATOM    101  C   UNL A   1      42.374  29.491  36.137  1.00  0.00     0.198 A 
ATOM    102  F   UNL A   1      43.181  31.508  35.237  1.00  0.00    -0.203 F 
ATOM    103  F   UNL A   1      40.933  26.587  34.527  1.00  0.00    -0.200 F 
ATOM    104  C   UNL A   1      41.799  28.242  35.967  1.00  0.00     0.200 A 
ATOM    105  F   UNL A   1      42.738  29.899  37.360  1.00  0.00    -0.200 F 
ATOM    106  F   UNL A   1      41.586  27.450  37.029  1.00  0.00    -0.200 F 
ENDBRANCH  73  96
ENDBRANCH  47  48
ENDBRANCH  39  42
ENDBRANCH  37  38
ENDBRANCH  36  37
ENDBRANCH  35  36
ENDBRANCH   1  35
TORSDOF 17
ENDMDL
MODEL 3
REMARK VINA RESULT:     -13.3      2.924      8.827
REMARK SMILES COC(=O)c1ccc([C@H]2CC(=O)Nc3c(C(=O)NCCCCCCNC(=O)c4ccc(-c5c6nc(c(-c7c(F)c(F)c(F)c(F)c7F)c7ccc([nH]7)c(-c7c(F)c(F)c(F)c(F)c7F)c7nc(c(-c8c(F)c(F)c(F)c(F)c8F)c8ccc5[nH]8)C=C7)C=C6)cc4)cn(-c4ccccc4)c32)cc1
REMARK SMILES IDX 21 1 20 2 19 3 18 4 16 5 17 6 15 8 9 9 10 10 99 11 11 12
REMARK SMILES IDX 14 13 92 14 12 15 13 16 91 17 8 19 5 20 6 21 101 22 7 23
REMARK SMILES IDX 100 24 3 25 4 26 2 27 1 28 93 29 94 30 98 31 95 32 97 33
REMARK SMILES IDX 96 34 22 35 23 36 24 37 25 38 26 39 27 41 28 42 29 43 90 44
REMARK SMILES IDX 30 45 89 46 31 47 32 48 33 49 83 50 34 51 88 52 82 53 84 54
REMARK SMILES IDX 35 55 87 56 81 57 80 58 36 60 68 61 48 62 67 63 49 64 52 65
REMARK SMILES IDX 66 66 85 67 50 68 51 69 65 71 86 72 53 73 37 74 38 75 46 76
REMARK SMILES IDX 39 77 40 78 44 79 47 80 41 81 42 82 45 83 43 84 69 85 70 86
REMARK SMILES IDX 78 87 71 88 72 89 76 90 79 91 73 92 74 93 77 94 75 95 54 96
REMARK SMILES IDX 55 97 63 98 56 99 57 100 61 101 64 102 58 103 59 104 62 105
REMARK SMILES IDX 60 106
REMARK H PARENT 18 7 13 18 25 40 84 59 52 70
REMARK Flexibility Score: inf
ROOT
ATOM      1  C   UNL A   1      35.647  31.308  27.743  1.00  0.00     0.002 C 
ENDROOT
BRANCH   1   2
ATOM      2  C   UNL A   1      34.338  30.809  27.129  1.00  0.00     0.021 C 
BRANCH   2   3
ATOM      3  C   UNL A   1      34.239  29.278  27.097  1.00  0.00     0.116 C 
BRANCH   3   4
ATOM      4  N   UNL A   1      33.003  28.854  27.692  1.00  0.00    -0.352 N 
ATOM      5  C   UNL A   1      32.137  27.835  27.423  1.00  0.00     0.254 C 
ATOM      6  O   UNL A   1      31.163  27.775  28.181  1.00  0.00    -0.269 OA
ATOM      7  H   UNL A   1      32.722  29.414  28.451  1.00  0.00     0.163 HD
BRANCH   5   8
ATOM      8  C   UNL A   1      32.312  26.835  26.361  1.00  0.00     0.081 A 
ATOM      9  C   UNL A   1      31.806  24.275  23.666  1.00  0.00     0.078 C 
ATOM     10  C   UNL A   1      30.283  24.360  23.496  1.00  0.00     0.115 C 
ATOM     11  C   UNL A   1      32.311  25.268  24.687  1.00  0.00     0.055 A 
ATOM     12  C   UNL A   1      29.638  25.643  23.936  1.00  0.00     0.225 C 
ATOM     13  C   UNL A   1      31.529  26.198  25.346  1.00  0.00     0.076 A 
ATOM     14  N   UNL A   1      33.600  25.369  25.178  1.00  0.00    -0.317 N 
ATOM     15  O   UNL A   1      28.544  26.003  23.499  1.00  0.00    -0.275 OA
ATOM     16  N   UNL A   1      30.222  26.337  24.952  1.00  0.00    -0.324 N 
ATOM     17  C   UNL A   1      33.562  26.232  26.243  1.00  0.00     0.107 A 
ATOM     18  H   UNL A   1      29.665  26.986  25.439  1.00  0.00     0.170 HD
BRANCH   9  19
ATOM     19  C   UNL A   1      32.134  22.805  23.944  1.00  0.00    -0.038 A 
ATOM     20  C   UNL A   1      32.639  20.095  24.540  1.00  0.00     0.060 A 
ATOM     21  C   UNL A   1      32.523  21.033  25.571  1.00  0.00     0.016 A 
ATOM     22  C   UNL A   1      32.563  20.522  23.212  1.00  0.00     0.016 A 
ATOM     23  C   UNL A   1      32.260  22.373  25.275  1.00  0.00     0.005 A 
ATOM     24  C   UNL A   1      32.357  21.870  22.921  1.00  0.00     0.005 A 
BRANCH  20  25
ATOM     25  C   UNL A   1      32.819  18.666  24.889  1.00  0.00     0.337 C 
ATOM     26  O   UNL A   1      32.154  18.088  25.746  1.00  0.00    -0.246 OA
BRANCH  25  27
ATOM     27  O   UNL A   1      33.798  18.115  24.138  1.00  0.00    -0.465 OA
ATOM     28  C   UNL A   1      33.450  16.874  23.528  1.00  0.00     0.282 C 
ENDBRANCH  25  27
ENDBRANCH  20  25
ENDBRANCH   9  19
BRANCH  14  29
ATOM     29  C   UNL A   1      34.735  24.611  24.800  1.00  0.00     0.045 A 
ATOM     30  C   UNL A   1      34.957  24.296  23.457  1.00  0.00     0.026 A 
ATOM     31  C   UNL A   1      35.551  24.071  25.803  1.00  0.00     0.026 A 
ATOM     32  C   UNL A   1      35.955  23.382  23.123  1.00  0.00     0.002 A 
ATOM     33  C   UNL A   1      36.523  23.131  25.461  1.00  0.00     0.002 A 
ATOM     34  C   UNL A   1      36.715  22.779  24.125  1.00  0.00     0.000 A 
ENDBRANCH  14  29
ENDBRANCH   5   8
ENDBRANCH   3   4
ENDBRANCH   2   3
ENDBRANCH   1   2
BRANCH   1  35
ATOM     35  C   UNL A   1      35.693  32.824  28.005  1.00  0.00     0.002 C 
BRANCH  35  36
ATOM     36  C   UNL A   1      34.398  33.455  28.544  1.00  0.00     0.021 C 
BRANCH  36  37
ATOM     37  C   UNL A   1      34.577  34.904  28.961  1.00  0.00     0.116 C 
BRANCH  37  38
ATOM     38  N   UNL A   1      34.017  35.154  30.293  1.00  0.00    -0.352 N 
ATOM     39  C   UNL A   1      34.192  34.447  31.465  1.00  0.00     0.251 C 
ATOM     40  H   UNL A   1      33.431  35.941  30.361  1.00  0.00     0.163 HD
ATOM     41  O   UNL A   1      33.409  34.568  32.400  1.00  0.00    -0.269 OA
BRANCH  39  42
ATOM     42  C   UNL A   1      35.346  33.546  31.575  1.00  0.00     0.039 A 
ATOM     43  C   UNL A   1      35.202  32.158  31.639  1.00  0.00     0.014 A 
ATOM     44  C   UNL A   1      36.606  34.132  31.574  1.00  0.00     0.014 A 
ATOM     45  C   UNL A   1      36.351  31.373  31.634  1.00  0.00     0.010 A 
ATOM     46  C   UNL A   1      37.703  33.364  31.319  1.00  0.00     0.010 A 
ATOM     47  C   UNL A   1      37.601  31.991  31.458  1.00  0.00    -0.014 A 
BRANCH  47  48
ATOM     48  C   UNL A   1      38.829  31.223  31.345  1.00  0.00     0.031 A 
ATOM     49  C   UNL A   1      39.482  30.927  32.644  1.00  0.00     0.074 A 
ATOM     50  C   UNL A   1      39.224  30.655  30.183  1.00  0.00     0.049 A 
ATOM     51  N   UNL A   1      40.612  31.378  33.073  1.00  0.00    -0.248 NA
ATOM     52  C   UNL A   1      38.725  30.160  33.647  1.00  0.00     0.031 C 
ATOM     53  C   UNL A   1      38.520  30.595  28.895  1.00  0.00     0.029 A 
ATOM     54  N   UNL A   1      40.336  29.913  29.938  1.00  0.00    -0.354 N 
ATOM     55  C   UNL A   1      40.806  30.801  34.324  1.00  0.00     0.074 A 
ATOM     56  C   UNL A   1      39.547  30.213  34.697  1.00  0.00     0.031 C 
ATOM     57  C   UNL A   1      39.100  29.672  28.096  1.00  0.00     0.029 A 
ATOM     58  C   UNL A   1      40.317  29.214  28.736  1.00  0.00     0.049 A 
ATOM     59  H   UNL A   1      41.095  29.872  30.563  1.00  0.00     0.167 HD
ATOM     60  C   UNL A   1      42.062  30.652  34.828  1.00  0.00     0.037 A 
ATOM     61  C   UNL A   1      41.236  28.307  28.319  1.00  0.00     0.037 A 
ATOM     62  C   UNL A   1      43.001  31.491  34.124  1.00  0.00     0.049 A 
ATOM     63  C   UNL A   1      42.468  28.544  29.114  1.00  0.00     0.074 A 
ATOM     64  C   UNL A   1      43.127  32.854  33.933  1.00  0.00     0.029 A 
ATOM     65  N   UNL A   1      43.770  30.910  33.145  1.00  0.00    -0.354 N 
ATOM     66  N   UNL A   1      43.196  29.622  29.010  1.00  0.00    -0.248 NA
ATOM     67  C   UNL A   1      42.607  27.811  30.363  1.00  0.00     0.031 C 
ATOM     68  C   UNL A   1      43.543  33.000  32.576  1.00  0.00     0.029 A 
ATOM     69  C   UNL A   1      43.725  31.724  32.042  1.00  0.00     0.049 A 
ATOM     70  H   UNL A   1      44.266  30.062  33.222  1.00  0.00     0.167 HD
ATOM     71  C   UNL A   1      43.540  29.941  30.316  1.00  0.00     0.074 A 
ATOM     72  C   UNL A   1      43.209  28.750  31.098  1.00  0.00     0.031 C 
ATOM     73  C   UNL A   1      43.782  31.233  30.685  1.00  0.00     0.037 A 
BRANCH  60  74
ATOM     74  C   UNL A   1      42.511  29.486  35.676  1.00  0.00     0.064 A 
ATOM     75  C   UNL A   1      43.378  29.729  36.761  1.00  0.00     0.173 A 
ATOM     76  C   UNL A   1      42.389  28.134  35.290  1.00  0.00     0.173 A 
ATOM     77  F   UNL A   1      43.578  30.978  37.210  1.00  0.00    -0.203 F 
ATOM     78  C   UNL A   1      44.135  28.711  37.346  1.00  0.00     0.198 A 
ATOM     79  C   UNL A   1      43.106  27.112  35.911  1.00  0.00     0.198 A 
ATOM     80  F   UNL A   1      41.667  27.753  34.231  1.00  0.00    -0.203 F 
ATOM     81  F   UNL A   1      45.046  29.013  38.280  1.00  0.00    -0.200 F 
ATOM     82  C   UNL A   1      44.005  27.405  36.913  1.00  0.00     0.200 A 
ATOM     83  F   UNL A   1      42.978  25.855  35.466  1.00  0.00    -0.200 F 
ATOM     84  F   UNL A   1      44.779  26.438  37.422  1.00  0.00    -0.200 F 
ENDBRANCH  60  74
BRANCH  61  85
ATOM     85  C   UNL A   1      41.012  27.062  27.548  1.00  0.00     0.064 A 
ATOM     86  C   UNL A   1      41.866  26.701  26.492  1.00  0.00     0.173 A 
ATOM     87  C   UNL A   1      40.140  26.060  28.016  1.00  0.00     0.173 A 
ATOM     88  F   UNL A   1      42.758  27.583  26.017  1.00  0.00    -0.203 F 
ATOM     89  C   UNL A   1      41.868  25.407  25.959  1.00  0.00     0.198 A 
ATOM     90  C   UNL A   1      40.140  24.771  27.481  1.00  0.00     0.198 A 
ATOM     91  F   UNL A   1      39.339  26.284  29.068  1.00  0.00    -0.203 F 
ATOM     92  F   UNL A   1      42.742  25.082  24.995  1.00  0.00    -0.200 F 
ATOM     93  C   UNL A   1      41.014  24.440  26.462  1.00  0.00     0.200 A 
ATOM     94  F   UNL A   1      39.335  23.834  28.003  1.00  0.00    -0.200 F 
ATOM     95  F   UNL A   1      41.061  23.183  25.998  1.00  0.00    -0.200 F 
ENDBRANCH  61  85
BRANCH  73  96
ATOM     96  C   UNL A   1      43.904  32.263  29.595  1.00  0.00     0.064 A 
ATOM     97  C   UNL A   1      42.893  33.180  29.253  1.00  0.00     0.173 A 
ATOM     98  C   UNL A   1      45.148  32.421  28.971  1.00  0.00     0.173 A 
ATOM     99  F   UNL A   1      41.706  33.161  29.871  1.00  0.00    -0.203 F 
ATOM    100  C   UNL A   1      43.108  34.177  28.301  1.00  0.00     0.198 A 
ATOM    101  C   UNL A   1      45.372  33.440  28.049  1.00  0.00     0.198 A 
ATOM    102  F   UNL A   1      46.168  31.613  29.296  1.00  0.00    -0.203 F 
ATOM    103  F   UNL A   1      42.122  35.031  27.986  1.00  0.00    -0.200 F 
ATOM    104  C   UNL A   1      44.350  34.310  27.706  1.00  0.00     0.200 A 
ATOM    105  F   UNL A   1      46.590  33.595  27.512  1.00  0.00    -0.200 F 
ATOM    106  F   UNL A   1      44.572  35.292  26.820  1.00  0.00    -0.200 F 
ENDBRANCH  73  96
ENDBRANCH  47  48
ENDBRANCH  39  42
ENDBRANCH  37  38
ENDBRANCH  36  37
ENDBRANCH  35  36
ENDBRANCH   1  35
TORSDOF 17
ENDMDL
