MODEL 1
REMARK VINA RESULT:     -13.2      0.000      0.000
REMARK SMILES C[C@@H]1OCC[C@@H]1c1nnc(-c2cccc(C(=O)NCCCCCCNC(=O)c3ccc(-c4c5nc(c(-c6c(F)c(F)c(F)c(F)c6F)c6ccc([nH]6)c(-c6c(F)c(F)c(F)c(F)c6F)c6nc(c(-c7c(F)c(F)c(F)c(F)c7F)c7ccc4[nH]7)C=C6)C=C5)cc3)c2)o1
REMARK SMILES IDX 21 1 20 2 19 3 18 4 16 5 17 6 15 8 11 9 12 10 91 11 13 12
REMARK SMILES IDX 14 13 10 14 7 15 8 16 92 17 9 18 6 19 1 20 2 21 3 22 4 23
REMARK SMILES IDX 5 24 22 25 23 26 24 27 25 28 26 29 27 31 28 32 29 33 90 34
REMARK SMILES IDX 30 35 89 36 31 37 32 38 33 39 83 40 34 41 88 42 82 43 84 44
REMARK SMILES IDX 35 45 87 46 81 47 80 48 36 50 68 51 48 52 67 53 49 54 52 55
REMARK SMILES IDX 66 56 85 57 50 58 51 59 65 61 86 62 53 63 37 64 38 65 46 66
REMARK SMILES IDX 39 67 40 68 44 69 47 70 41 71 42 72 45 73 43 74 69 75 70 76
REMARK SMILES IDX 78 77 71 78 72 79 76 80 79 81 73 82 74 83 77 84 75 85 54 86
REMARK SMILES IDX 55 87 63 88 56 89 57 90 61 91 64 92 58 93 59 94 62 95 60 96
REMARK H PARENT 18 7 25 30 84 49 52 60
REMARK Flexibility Score: inf
ROOT
ATOM      1  C   UNL A   1      30.804  26.391  25.802  1.00  0.00     0.002 C 
ENDROOT
BRANCH   1   2
ATOM      2  C   UNL A   1      30.640  26.986  24.404  1.00  0.00     0.021 C 
BRANCH   2   3
ATOM      3  C   UNL A   1      30.614  26.012  23.232  1.00  0.00     0.116 C 
BRANCH   3   4
ATOM      4  N   UNL A   1      31.663  26.212  22.251  1.00  0.00    -0.352 N 
ATOM      5  C   UNL A   1      32.955  25.736  22.189  1.00  0.00     0.251 C 
ATOM      6  O   UNL A   1      33.651  26.057  21.227  1.00  0.00    -0.269 OA
ATOM      7  H   UNL A   1      31.408  26.791  21.497  1.00  0.00     0.163 HD
BRANCH   5   8
ATOM      8  C   UNL A   1      33.557  24.912  23.274  1.00  0.00     0.040 A 
ATOM      9  C   UNL A   1      33.728  22.856  24.556  1.00  0.00     0.040 A 
ATOM     10  C   UNL A   1      34.441  23.541  25.548  1.00  0.00     0.014 A 
ATOM     11  C   UNL A   1      33.376  23.530  23.379  1.00  0.00     0.027 A 
ATOM     12  C   UNL A   1      34.765  24.888  25.381  1.00  0.00     0.002 A 
ATOM     13  C   UNL A   1      34.299  25.577  24.261  1.00  0.00     0.014 A 
BRANCH   9  14
ATOM     14  C   UNL A   1      33.208  21.524  24.820  1.00  0.00     0.247 A 
ATOM     15  C   UNL A   1      33.212  19.398  24.837  1.00  0.00     0.222 A 
ATOM     16  N   UNL A   1      31.967  19.773  25.050  1.00  0.00    -0.112 NA
ATOM     17  O   UNL A   1      34.066  20.462  24.689  1.00  0.00    -0.420 OA
ATOM     18  N   UNL A   1      31.967  21.149  25.050  1.00  0.00    -0.108 NA
BRANCH  15  19
ATOM     19  C   UNL A   1      33.766  18.029  24.851  1.00  0.00     0.109 C 
ATOM     20  C   UNL A   1      32.908  17.448  22.455  1.00  0.00     0.039 C 
ATOM     21  C   UNL A   1      33.999  17.325  23.517  1.00  0.00     0.127 C 
ATOM     22  O   UNL A   1      34.084  15.918  23.847  1.00  0.00    -0.378 OA
ATOM     23  C   UNL A   1      33.545  15.716  25.163  1.00  0.00     0.161 C 
ATOM     24  C   UNL A   1      32.902  17.021  25.583  1.00  0.00     0.044 C 
ENDBRANCH  15  19
ENDBRANCH   9  14
ENDBRANCH   5   8
ENDBRANCH   3   4
ENDBRANCH   2   3
ENDBRANCH   1   2
BRANCH   1  25
ATOM     25  C   UNL A   1      31.900  26.989  26.687  1.00  0.00     0.002 C 
BRANCH  25  26
ATOM     26  C   UNL A   1      31.778  28.477  27.016  1.00  0.00     0.021 C 
BRANCH  26  27
ATOM     27  C   UNL A   1      32.823  29.389  26.383  1.00  0.00     0.116 C 
BRANCH  27  28
ATOM     28  N   UNL A   1      32.538  30.803  26.568  1.00  0.00    -0.352 N 
ATOM     29  C   UNL A   1      33.253  31.746  27.270  1.00  0.00     0.251 C 
ATOM     30  H   UNL A   1      31.720  31.130  26.130  1.00  0.00     0.163 HD
ATOM     31  O   UNL A   1      32.812  32.875  27.427  1.00  0.00    -0.269 OA
BRANCH  29  32
ATOM     32  C   UNL A   1      34.556  31.376  27.866  1.00  0.00     0.039 A 
ATOM     33  C   UNL A   1      35.545  32.355  27.999  1.00  0.00     0.014 A 
ATOM     34  C   UNL A   1      34.789  30.073  28.314  1.00  0.00     0.014 A 
ATOM     35  C   UNL A   1      36.741  32.048  28.652  1.00  0.00     0.010 A 
ATOM     36  C   UNL A   1      35.953  29.786  29.019  1.00  0.00     0.010 A 
ATOM     37  C   UNL A   1      36.937  30.772  29.202  1.00  0.00    -0.014 A 
BRANCH  37  38
ATOM     38  C   UNL A   1      38.160  30.423  29.970  1.00  0.00     0.031 A 
ATOM     39  C   UNL A   1      39.145  29.447  29.391  1.00  0.00     0.074 A 
ATOM     40  C   UNL A   1      38.330  30.894  31.221  1.00  0.00     0.049 A 
ATOM     41  N   UNL A   1      40.163  28.857  29.962  1.00  0.00    -0.248 NA
ATOM     42  C   UNL A   1      38.933  29.060  27.988  1.00  0.00     0.031 C 
ATOM     43  C   UNL A   1      37.437  31.832  31.902  1.00  0.00     0.029 A 
ATOM     44  N   UNL A   1      39.301  30.624  32.153  1.00  0.00    -0.354 N 
ATOM     45  C   UNL A   1      40.695  28.011  28.999  1.00  0.00     0.074 A 
ATOM     46  C   UNL A   1      39.864  28.133  27.821  1.00  0.00     0.031 C 
ATOM     47  C   UNL A   1      37.903  32.062  33.140  1.00  0.00     0.029 A 
ATOM     48  C   UNL A   1      39.098  31.253  33.358  1.00  0.00     0.049 A 
ATOM     49  H   UNL A   1      40.071  30.036  31.976  1.00  0.00     0.167 HD
ATOM     50  C   UNL A   1      41.786  27.213  29.087  1.00  0.00     0.037 A 
ATOM     51  C   UNL A   1      39.783  31.166  34.515  1.00  0.00     0.037 A 
ATOM     52  C   UNL A   1      42.625  27.118  30.253  1.00  0.00     0.049 A 
ATOM     53  C   UNL A   1      40.983  30.258  34.592  1.00  0.00     0.074 A 
ATOM     54  C   UNL A   1      43.774  26.368  30.429  1.00  0.00     0.029 A 
ATOM     55  N   UNL A   1      42.405  27.800  31.440  1.00  0.00    -0.354 N 
ATOM     56  N   UNL A   1      41.494  29.483  33.669  1.00  0.00    -0.248 NA
ATOM     57  C   UNL A   1      41.699  30.211  35.877  1.00  0.00     0.031 C 
ATOM     58  C   UNL A   1      44.229  26.567  31.736  1.00  0.00     0.029 A 
ATOM     59  C   UNL A   1      43.391  27.478  32.357  1.00  0.00     0.049 A 
ATOM     60  H   UNL A   1      41.659  28.421  31.605  1.00  0.00     0.167 HD
ATOM     61  C   UNL A   1      42.611  28.890  34.241  1.00  0.00     0.074 A 
ATOM     62  C   UNL A   1      42.703  29.391  35.597  1.00  0.00     0.031 C 
ATOM     63  C   UNL A   1      43.485  28.013  33.691  1.00  0.00     0.037 A 
BRANCH  50  64
ATOM     64  C   UNL A   1      42.135  26.378  27.891  1.00  0.00     0.064 A 
ATOM     65  C   UNL A   1      43.116  26.781  26.973  1.00  0.00     0.173 A 
ATOM     66  C   UNL A   1      41.508  25.141  27.680  1.00  0.00     0.173 A 
ATOM     67  F   UNL A   1      43.736  27.962  27.123  1.00  0.00    -0.203 F 
ATOM     68  C   UNL A   1      43.436  25.991  25.872  1.00  0.00     0.198 A 
ATOM     69  C   UNL A   1      41.853  24.338  26.594  1.00  0.00     0.198 A 
ATOM     70  F   UNL A   1      40.567  24.704  28.531  1.00  0.00    -0.203 F 
ATOM     71  F   UNL A   1      44.341  26.420  24.982  1.00  0.00    -0.200 F 
ATOM     72  C   UNL A   1      42.809  24.768  25.688  1.00  0.00     0.200 A 
ATOM     73  F   UNL A   1      41.256  23.150  26.426  1.00  0.00    -0.200 F 
ATOM     74  F   UNL A   1      43.124  24.005  24.633  1.00  0.00    -0.200 F 
ENDBRANCH  50  64
BRANCH  51  75
ATOM     75  C   UNL A   1      39.361  31.968  35.692  1.00  0.00     0.064 A 
ATOM     76  C   UNL A   1      38.403  31.475  36.587  1.00  0.00     0.173 A 
ATOM     77  C   UNL A   1      39.896  33.240  35.941  1.00  0.00     0.173 A 
ATOM     78  F   UNL A   1      37.842  30.275  36.375  1.00  0.00    -0.203 F 
ATOM     79  C   UNL A   1      37.981  32.232  37.680  1.00  0.00     0.198 A 
ATOM     80  C   UNL A   1      39.496  33.983  37.050  1.00  0.00     0.198 A 
ATOM     81  F   UNL A   1      40.811  33.758  35.108  1.00  0.00    -0.203 F 
ATOM     82  F   UNL A   1      37.029  31.757  38.492  1.00  0.00    -0.200 F 
ATOM     83  C   UNL A   1      38.533  33.482  37.913  1.00  0.00     0.200 A 
ATOM     84  F   UNL A   1      40.034  35.189  37.277  1.00  0.00    -0.200 F 
ATOM     85  F   UNL A   1      38.129  34.208  38.964  1.00  0.00    -0.200 F 
ENDBRANCH  51  75
BRANCH  63  86
ATOM     86  C   UNL A   1      44.657  27.583  34.521  1.00  0.00     0.064 A 
ATOM     87  C   UNL A   1      44.620  26.422  35.306  1.00  0.00     0.173 A 
ATOM     88  C   UNL A   1      45.862  28.300  34.459  1.00  0.00     0.173 A 
ATOM     89  F   UNL A   1      43.487  25.713  35.408  1.00  0.00    -0.203 F 
ATOM     90  C   UNL A   1      45.747  25.999  36.005  1.00  0.00     0.198 A 
ATOM     91  C   UNL A   1      46.993  27.860  35.138  1.00  0.00     0.198 A 
ATOM     92  F   UNL A   1      45.949  29.414  33.716  1.00  0.00    -0.203 F 
ATOM     93  F   UNL A   1      45.684  24.901  36.772  1.00  0.00    -0.200 F 
ATOM     94  C   UNL A   1      46.934  26.711  35.913  1.00  0.00     0.200 A 
ATOM     95  F   UNL A   1      48.143  28.541  35.036  1.00  0.00    -0.200 F 
ATOM     96  F   UNL A   1      48.023  26.290  36.571  1.00  0.00    -0.200 F 
ENDBRANCH  63  86
ENDBRANCH  37  38
ENDBRANCH  29  32
ENDBRANCH  27  28
ENDBRANCH  26  27
ENDBRANCH  25  26
ENDBRANCH   1  25
TORSDOF 15
ENDMDL
MODEL 2
REMARK VINA RESULT:     -13.2      3.785      9.367
REMARK SMILES C[C@@H]1OCC[C@@H]1c1nnc(-c2cccc(C(=O)NCCCCCCNC(=O)c3ccc(-c4c5nc(c(-c6c(F)c(F)c(F)c(F)c6F)c6ccc([nH]6)c(-c6c(F)c(F)c(F)c(F)c6F)c6nc(c(-c7c(F)c(F)c(F)c(F)c7F)c7ccc4[nH]7)C=C6)C=C5)cc3)c2)o1
REMARK SMILES IDX 21 1 20 2 19 3 18 4 16 5 17 6 15 8 11 9 12 10 91 11 13 12
REMARK SMILES IDX 14 13 10 14 7 15 8 16 92 17 9 18 6 19 1 20 2 21 3 22 4 23
REMARK SMILES IDX 5 24 22 25 23 26 24 27 25 28 26 29 27 31 28 32 29 33 90 34
REMARK SMILES IDX 30 35 89 36 31 37 32 38 33 39 83 40 34 41 88 42 82 43 84 44
REMARK SMILES IDX 35 45 87 46 81 47 80 48 36 50 68 51 48 52 67 53 49 54 52 55
REMARK SMILES IDX 66 56 85 57 50 58 51 59 65 61 86 62 53 63 37 64 38 65 46 66
REMARK SMILES IDX 39 67 40 68 44 69 47 70 41 71 42 72 45 73 43 74 69 75 70 76
REMARK SMILES IDX 78 77 71 78 72 79 76 80 79 81 73 82 74 83 77 84 75 85 54 86
REMARK SMILES IDX 55 87 63 88 56 89 57 90 61 91 64 92 58 93 59 94 62 95 60 96
REMARK H PARENT 18 7 25 30 84 49 52 60
REMARK Flexibility Score: inf
ROOT
ATOM      1  C   UNL A   1      34.438  32.182  27.833  1.00  0.00     0.002 C 
ENDROOT
BRANCH   1   2
ATOM      2  C   UNL A   1      35.386  31.007  28.074  1.00  0.00     0.021 C 
BRANCH   2   3
ATOM      3  C   UNL A   1      35.019  29.675  27.431  1.00  0.00     0.116 C 
BRANCH   3   4
ATOM      4  N   UNL A   1      33.829  29.046  27.973  1.00  0.00    -0.352 N 
ATOM      5  C   UNL A   1      32.873  28.248  27.384  1.00  0.00     0.251 C 
ATOM      6  O   UNL A   1      31.949  27.831  28.082  1.00  0.00    -0.269 OA
ATOM      7  H   UNL A   1      33.679  29.220  28.930  1.00  0.00     0.163 HD
BRANCH   5   8
ATOM      8  C   UNL A   1      32.877  27.936  25.927  1.00  0.00     0.040 A 
ATOM      9  C   UNL A   1      31.942  28.134  23.694  1.00  0.00     0.040 A 
ATOM     10  C   UNL A   1      32.699  27.027  23.287  1.00  0.00     0.014 A 
ATOM     11  C   UNL A   1      32.114  28.638  24.991  1.00  0.00     0.027 A 
ATOM     12  C   UNL A   1      33.586  26.414  24.173  1.00  0.00     0.002 A 
ATOM     13  C   UNL A   1      33.651  26.850  25.497  1.00  0.00     0.014 A 
BRANCH   9  14
ATOM     14  C   UNL A   1      30.871  28.636  22.849  1.00  0.00     0.247 A 
ATOM     15  C   UNL A   1      29.587  30.098  21.993  1.00  0.00     0.222 A 
ATOM     16  N   UNL A   1      29.032  28.926  21.757  1.00  0.00    -0.112 NA
ATOM     17  O   UNL A   1      30.771  29.993  22.678  1.00  0.00    -0.420 OA
ATOM     18  N   UNL A   1      29.870  27.980  22.301  1.00  0.00    -0.108 NA
BRANCH  15  19
ATOM     19  C   UNL A   1      29.144  31.426  21.523  1.00  0.00     0.109 C 
ATOM     20  C   UNL A   1      27.556  31.831  23.555  1.00  0.00     0.039 C 
ATOM     21  C   UNL A   1      28.548  32.395  22.540  1.00  0.00     0.127 C 
ATOM     22  O   UNL A   1      27.812  33.360  21.751  1.00  0.00    -0.378 OA
ATOM     23  C   UNL A   1      27.609  32.824  20.433  1.00  0.00     0.161 C 
ATOM     24  C   UNL A   1      28.053  31.377  20.472  1.00  0.00     0.044 C 
ENDBRANCH  15  19
ENDBRANCH   9  14
ENDBRANCH   5   8
ENDBRANCH   3   4
ENDBRANCH   2   3
ENDBRANCH   1   2
BRANCH   1  25
ATOM     25  C   UNL A   1      34.351  33.241  28.935  1.00  0.00     0.002 C 
BRANCH  25  26
ATOM     26  C   UNL A   1      33.217  34.260  28.817  1.00  0.00     0.021 C 
BRANCH  26  27
ATOM     27  C   UNL A   1      33.539  35.674  29.288  1.00  0.00     0.116 C 
BRANCH  27  28
ATOM     28  N   UNL A   1      32.636  36.152  30.322  1.00  0.00    -0.352 N 
ATOM     29  C   UNL A   1      32.657  35.898  31.675  1.00  0.00     0.251 C 
ATOM     30  H   UNL A   1      31.910  36.740  30.012  1.00  0.00     0.163 HD
ATOM     31  O   UNL A   1      31.750  36.285  32.397  1.00  0.00    -0.269 OA
BRANCH  29  32
ATOM     32  C   UNL A   1      33.776  35.121  32.252  1.00  0.00     0.039 A 
ATOM     33  C   UNL A   1      33.552  33.798  32.645  1.00  0.00     0.014 A 
ATOM     34  C   UNL A   1      35.045  35.689  32.382  1.00  0.00     0.014 A 
ATOM     35  C   UNL A   1      34.620  33.018  33.096  1.00  0.00     0.010 A 
ATOM     36  C   UNL A   1      36.118  34.894  32.770  1.00  0.00     0.010 A 
ATOM     37  C   UNL A   1      35.919  33.549  33.124  1.00  0.00    -0.014 A 
BRANCH  37  38
ATOM     38  C   UNL A   1      37.096  32.736  33.524  1.00  0.00     0.031 A 
ATOM     39  C   UNL A   1      37.798  33.036  34.818  1.00  0.00     0.074 A 
ATOM     40  C   UNL A   1      37.595  31.811  32.682  1.00  0.00     0.049 A 
ATOM     41  N   UNL A   1      38.945  32.591  35.263  1.00  0.00    -0.248 NA
ATOM     42  C   UNL A   1      37.132  33.991  35.716  1.00  0.00     0.031 C 
ATOM     43  C   UNL A   1      37.016  31.440  31.390  1.00  0.00     0.029 A 
ATOM     44  N   UNL A   1      38.721  31.031  32.777  1.00  0.00    -0.354 N 
ATOM     45  C   UNL A   1      39.150  33.231  36.477  1.00  0.00     0.074 A 
ATOM     46  C   UNL A   1      38.030  34.125  36.681  1.00  0.00     0.031 C 
ATOM     47  C   UNL A   1      37.788  30.504  30.815  1.00  0.00     0.029 A 
ATOM     48  C   UNL A   1      38.940  30.243  31.673  1.00  0.00     0.049 A 
ATOM     49  H   UNL A   1      39.315  31.035  33.562  1.00  0.00     0.167 HD
ATOM     50  C   UNL A   1      40.174  33.078  37.350  1.00  0.00     0.037 A 
ATOM     51  C   UNL A   1      39.967  29.422  31.376  1.00  0.00     0.037 A 
ATOM     52  C   UNL A   1      41.271  32.165  37.155  1.00  0.00     0.049 A 
ATOM     53  C   UNL A   1      41.103  29.282  32.354  1.00  0.00     0.074 A 
ATOM     54  C   UNL A   1      42.338  31.908  37.997  1.00  0.00     0.029 A 
ATOM     55  N   UNL A   1      41.436  31.358  36.040  1.00  0.00    -0.354 N 
ATOM     56  N   UNL A   1      41.275  29.870  33.511  1.00  0.00    -0.248 NA
ATOM     57  C   UNL A   1      42.191  28.364  31.982  1.00  0.00     0.031 C 
ATOM     58  C   UNL A   1      43.169  30.973  37.374  1.00  0.00     0.029 A 
ATOM     59  C   UNL A   1      42.595  30.611  36.167  1.00  0.00     0.049 A 
ATOM     60  H   UNL A   1      40.820  31.322  35.272  1.00  0.00     0.167 HD
ATOM     61  C   UNL A   1      42.462  29.366  34.025  1.00  0.00     0.074 A 
ATOM     62  C   UNL A   1      42.974  28.426  33.051  1.00  0.00     0.031 C 
ATOM     63  C   UNL A   1      43.071  29.654  35.201  1.00  0.00     0.037 A 
BRANCH  50  64
ATOM     64  C   UNL A   1      40.160  33.914  38.594  1.00  0.00     0.064 A 
ATOM     65  C   UNL A   1      40.842  35.138  38.667  1.00  0.00     0.173 A 
ATOM     66  C   UNL A   1      39.424  33.506  39.717  1.00  0.00     0.173 A 
ATOM     67  F   UNL A   1      41.570  35.567  37.625  1.00  0.00    -0.203 F 
ATOM     68  C   UNL A   1      40.812  35.908  39.826  1.00  0.00     0.198 A 
ATOM     69  C   UNL A   1      39.370  34.294  40.865  1.00  0.00     0.198 A 
ATOM     70  F   UNL A   1      38.748  32.347  39.700  1.00  0.00    -0.203 F 
ATOM     71  F   UNL A   1      41.511  37.049  39.889  1.00  0.00    -0.200 F 
ATOM     72  C   UNL A   1      40.070  35.489  40.921  1.00  0.00     0.200 A 
ATOM     73  F   UNL A   1      38.642  33.894  41.917  1.00  0.00    -0.200 F 
ATOM     74  F   UNL A   1      40.036  36.236  42.033  1.00  0.00    -0.200 F 
ENDBRANCH  50  64
BRANCH  51  75
ATOM     75  C   UNL A   1      39.965  28.660  30.101  1.00  0.00     0.064 A 
ATOM     76  C   UNL A   1      39.369  27.394  30.025  1.00  0.00     0.173 A 
ATOM     77  C   UNL A   1      40.563  29.171  28.940  1.00  0.00     0.173 A 
ATOM     78  F   UNL A   1      38.808  26.851  31.116  1.00  0.00    -0.203 F 
ATOM     79  C   UNL A   1      39.385  26.660  28.840  1.00  0.00     0.198 A 
ATOM     80  C   UNL A   1      40.553  28.449  27.749  1.00  0.00     0.198 A 
ATOM     81  F   UNL A   1      41.154  30.375  28.965  1.00  0.00    -0.203 F 
ATOM     82  F   UNL A   1      38.851  25.432  28.808  1.00  0.00    -0.200 F 
ATOM     83  C   UNL A   1      39.972  27.191  27.701  1.00  0.00     0.200 A 
ATOM     84  F   UNL A   1      41.116  28.967  26.648  1.00  0.00    -0.200 F 
ATOM     85  F   UNL A   1      39.986  26.486  26.562  1.00  0.00    -0.200 F 
ENDBRANCH  51  75
BRANCH  63  86
ATOM     86  C   UNL A   1      44.322  28.903  35.540  1.00  0.00     0.064 A 
ATOM     87  C   UNL A   1      44.287  27.683  36.231  1.00  0.00     0.173 A 
ATOM     88  C   UNL A   1      45.566  29.371  35.090  1.00  0.00     0.173 A 
ATOM     89  F   UNL A   1      43.123  27.202  36.692  1.00  0.00    -0.203 F 
ATOM     90  C   UNL A   1      45.456  26.963  36.464  1.00  0.00     0.198 A 
ATOM     91  C   UNL A   1      46.728  28.636  35.303  1.00  0.00     0.198 A 
ATOM     92  F   UNL A   1      45.650  30.530  34.420  1.00  0.00    -0.203 F 
ATOM     93  F   UNL A   1      45.404  25.812  37.149  1.00  0.00    -0.200 F 
ATOM     94  C   UNL A   1      46.672  27.433  35.992  1.00  0.00     0.200 A 
ATOM     95  F   UNL A   1      47.900  29.086  34.834  1.00  0.00    -0.200 F 
ATOM     96  F   UNL A   1      47.792  26.728  36.201  1.00  0.00    -0.200 F 
ENDBRANCH  63  86
ENDBRANCH  37  38
ENDBRANCH  29  32
ENDBRANCH  27  28
ENDBRANCH  26  27
ENDBRANCH  25  26
ENDBRANCH   1  25
TORSDOF 15
ENDMDL
MODEL 3
REMARK VINA RESULT:     -13.1      2.876      7.677
REMARK SMILES C[C@@H]1OCC[C@@H]1c1nnc(-c2cccc(C(=O)NCCCCCCNC(=O)c3ccc(-c4c5nc(c(-c6c(F)c(F)c(F)c(F)c6F)c6ccc([nH]6)c(-c6c(F)c(F)c(F)c(F)c6F)c6nc(c(-c7c(F)c(F)c(F)c(F)c7F)c7ccc4[nH]7)C=C6)C=C5)cc3)c2)o1
REMARK SMILES IDX 21 1 20 2 19 3 18 4 16 5 17 6 15 8 11 9 12 10 91 11 13 12
REMARK SMILES IDX 14 13 10 14 7 15 8 16 92 17 9 18 6 19 1 20 2 21 3 22 4 23
REMARK SMILES IDX 5 24 22 25 23 26 24 27 25 28 26 29 27 31 28 32 29 33 90 34
REMARK SMILES IDX 30 35 89 36 31 37 32 38 33 39 83 40 34 41 88 42 82 43 84 44
REMARK SMILES IDX 35 45 87 46 81 47 80 48 36 50 68 51 48 52 67 53 49 54 52 55
REMARK SMILES IDX 66 56 85 57 50 58 51 59 65 61 86 62 53 63 37 64 38 65 46 66
REMARK SMILES IDX 39 67 40 68 44 69 47 70 41 71 42 72 45 73 43 74 69 75 70 76
REMARK SMILES IDX 78 77 71 78 72 79 76 80 79 81 73 82 74 83 77 84 75 85 54 86
REMARK SMILES IDX 55 87 63 88 56 89 57 90 61 91 64 92 58 93 59 94 62 95 60 96
REMARK H PARENT 18 7 25 30 84 49 52 60
REMARK Flexibility Score: inf
ROOT
ATOM      1  C   UNL A   1      30.796  26.683  25.488  1.00  0.00     0.002 C 
ENDROOT
BRANCH   1   2
ATOM      2  C   UNL A   1      30.057  26.697  24.150  1.00  0.00     0.021 C 
BRANCH   2   3
ATOM      3  C   UNL A   1      30.486  25.669  23.109  1.00  0.00     0.116 C 
BRANCH   3   4
ATOM      4  N   UNL A   1      31.600  26.077  22.275  1.00  0.00    -0.352 N 
ATOM      5  C   UNL A   1      32.947  25.792  22.352  1.00  0.00     0.251 C 
ATOM      6  O   UNL A   1      33.694  26.269  21.498  1.00  0.00    -0.269 OA
ATOM      7  H   UNL A   1      31.351  26.659  21.522  1.00  0.00     0.163 HD
BRANCH   5   8
ATOM      8  C   UNL A   1      33.534  24.996  23.465  1.00  0.00     0.040 A 
ATOM      9  C   UNL A   1      33.727  22.954  24.767  1.00  0.00     0.040 A 
ATOM     10  C   UNL A   1      34.377  23.670  25.781  1.00  0.00     0.014 A 
ATOM     11  C   UNL A   1      33.398  23.610  23.572  1.00  0.00     0.027 A 
ATOM     12  C   UNL A   1      34.661  25.026  25.617  1.00  0.00     0.002 A 
ATOM     13  C   UNL A   1      34.214  25.692  24.475  1.00  0.00     0.014 A 
BRANCH   9  14
ATOM     14  C   UNL A   1      33.244  21.607  25.019  1.00  0.00     0.247 A 
ATOM     15  C   UNL A   1      33.192  19.489  24.841  1.00  0.00     0.222 A 
ATOM     16  N   UNL A   1      32.039  19.850  25.367  1.00  0.00    -0.112 NA
ATOM     17  O   UNL A   1      34.019  20.557  24.600  1.00  0.00    -0.420 OA
ATOM     18  N   UNL A   1      32.078  21.219  25.493  1.00  0.00    -0.108 NA
BRANCH  15  19
ATOM     19  C   UNL A   1      33.696  18.122  24.603  1.00  0.00     0.109 C 
ATOM     20  C   UNL A   1      32.463  17.855  22.317  1.00  0.00     0.039 C 
ATOM     21  C   UNL A   1      33.699  17.586  23.173  1.00  0.00     0.127 C 
ATOM     22  O   UNL A   1      33.787  16.148  23.313  1.00  0.00    -0.378 OA
ATOM     23  C   UNL A   1      33.450  15.791  24.663  1.00  0.00     0.161 C 
ATOM     24  C   UNL A   1      32.922  17.042  25.332  1.00  0.00     0.044 C 
ENDBRANCH  15  19
ENDBRANCH   9  14
ENDBRANCH   5   8
ENDBRANCH   3   4
ENDBRANCH   2   3
ENDBRANCH   1   2
BRANCH   1  25
ATOM     25  C   UNL A   1      31.662  27.902  25.815  1.00  0.00     0.002 C 
BRANCH  25  26
ATOM     26  C   UNL A   1      32.400  27.878  27.154  1.00  0.00     0.021 C 
BRANCH  26  27
ATOM     27  C   UNL A   1      33.769  28.547  27.174  1.00  0.00     0.116 C 
BRANCH  27  28
ATOM     28  N   UNL A   1      33.719  29.946  27.566  1.00  0.00    -0.352 N 
ATOM     29  C   UNL A   1      34.673  30.700  28.210  1.00  0.00     0.251 C 
ATOM     30  H   UNL A   1      32.886  30.419  27.339  1.00  0.00     0.163 HD
ATOM     31  O   UNL A   1      34.427  31.840  28.575  1.00  0.00    -0.269 OA
BRANCH  29  32
ATOM     32  C   UNL A   1      36.000  30.109  28.489  1.00  0.00     0.039 A 
ATOM     33  C   UNL A   1      36.998  30.186  27.512  1.00  0.00     0.014 A 
ATOM     34  C   UNL A   1      36.265  29.502  29.719  1.00  0.00     0.014 A 
ATOM     35  C   UNL A   1      38.285  29.725  27.798  1.00  0.00     0.010 A 
ATOM     36  C   UNL A   1      37.562  29.102  30.025  1.00  0.00     0.010 A 
ATOM     37  C   UNL A   1      38.586  29.216  29.070  1.00  0.00    -0.014 A 
BRANCH  37  38
ATOM     38  C   UNL A   1      39.958  28.784  29.444  1.00  0.00     0.031 A 
ATOM     39  C   UNL A   1      40.838  29.713  30.231  1.00  0.00     0.074 A 
ATOM     40  C   UNL A   1      40.445  27.615  28.986  1.00  0.00     0.049 A 
ATOM     41  N   UNL A   1      42.117  29.624  30.491  1.00  0.00    -0.248 NA
ATOM     42  C   UNL A   1      40.197  30.922  30.770  1.00  0.00     0.031 C 
ATOM     43  C   UNL A   1      39.698  26.635  28.197  1.00  0.00     0.029 A 
ATOM     44  N   UNL A   1      41.699  27.065  29.097  1.00  0.00    -0.354 N 
ATOM     45  C   UNL A   1      42.438  30.773  31.198  1.00  0.00     0.074 A 
ATOM     46  C   UNL A   1      41.230  31.565  31.292  1.00  0.00     0.031 C 
ATOM     47  C   UNL A   1      40.504  25.603  27.899  1.00  0.00     0.029 A 
ATOM     48  C   UNL A   1      41.837  25.870  28.432  1.00  0.00     0.049 A 
ATOM     49  H   UNL A   1      42.429  27.485  29.605  1.00  0.00     0.167 HD
ATOM     50  C   UNL A   1      43.630  31.131  31.732  1.00  0.00     0.037 A 
ATOM     51  C   UNL A   1      42.921  25.091  28.251  1.00  0.00     0.037 A 
ATOM     52  C   UNL A   1      44.821  30.325  31.660  1.00  0.00     0.049 A 
ATOM     53  C   UNL A   1      44.240  25.519  28.840  1.00  0.00     0.074 A 
ATOM     54  C   UNL A   1      46.069  30.581  32.201  1.00  0.00     0.029 A 
ATOM     55  N   UNL A   1      44.908  29.105  31.009  1.00  0.00    -0.354 N 
ATOM     56  N   UNL A   1      44.527  26.595  29.530  1.00  0.00    -0.248 NA
ATOM     57  C   UNL A   1      45.387  24.625  28.620  1.00  0.00     0.031 C 
ATOM     58  C   UNL A   1      46.922  29.532  31.845  1.00  0.00     0.029 A 
ATOM     59  C   UNL A   1      46.193  28.601  31.124  1.00  0.00     0.049 A 
ATOM     60  H   UNL A   1      44.167  28.662  30.535  1.00  0.00     0.167 HD
ATOM     61  C   UNL A   1      45.870  26.489  29.864  1.00  0.00     0.074 A 
ATOM     62  C   UNL A   1      46.346  25.245  29.295  1.00  0.00     0.031 C 
ATOM     63  C   UNL A   1      46.639  27.344  30.580  1.00  0.00     0.037 A 
BRANCH  50  64
ATOM     64  C   UNL A   1      43.708  32.451  32.441  1.00  0.00     0.064 A 
ATOM     65  C   UNL A   1      43.477  32.561  33.820  1.00  0.00     0.173 A 
ATOM     66  C   UNL A   1      44.054  33.615  31.739  1.00  0.00     0.173 A 
ATOM     67  F   UNL A   1      43.131  31.479  34.534  1.00  0.00    -0.203 F 
ATOM     68  C   UNL A   1      43.561  33.792  34.465  1.00  0.00     0.198 A 
ATOM     69  C   UNL A   1      44.168  34.840  32.393  1.00  0.00     0.198 A 
ATOM     70  F   UNL A   1      44.291  33.566  30.419  1.00  0.00    -0.203 F 
ATOM     71  F   UNL A   1      43.288  33.880  35.774  1.00  0.00    -0.200 F 
ATOM     72  C   UNL A   1      43.914  34.928  33.752  1.00  0.00     0.200 A 
ATOM     73  F   UNL A   1      44.522  35.935  31.705  1.00  0.00    -0.200 F 
ATOM     74  F   UNL A   1      44.003  36.110  34.377  1.00  0.00    -0.200 F 
ENDBRANCH  50  64
BRANCH  51  75
ATOM     75  C   UNL A   1      42.807  23.821  27.489  1.00  0.00     0.064 A 
ATOM     76  C   UNL A   1      43.184  23.759  26.141  1.00  0.00     0.173 A 
ATOM     77  C   UNL A   1      42.313  22.652  28.085  1.00  0.00     0.173 A 
ATOM     78  F   UNL A   1      43.637  24.859  25.521  1.00  0.00    -0.203 F 
ATOM     79  C   UNL A   1      43.056  22.579  25.411  1.00  0.00     0.198 A 
ATOM     80  C   UNL A   1      42.212  21.465  27.362  1.00  0.00     0.198 A 
ATOM     81  F   UNL A   1      41.930  22.664  29.370  1.00  0.00    -0.203 F 
ATOM     82  F   UNL A   1      43.378  22.560  24.111  1.00  0.00    -0.200 F 
ATOM     83  C   UNL A   1      42.576  21.431  26.024  1.00  0.00     0.200 A 
ATOM     84  F   UNL A   1      41.754  20.356  27.957  1.00  0.00    -0.200 F 
ATOM     85  F   UNL A   1      42.454  20.296  25.322  1.00  0.00    -0.200 F 
ENDBRANCH  51  75
BRANCH  63  86
ATOM     86  C   UNL A   1      48.058  26.943  30.854  1.00  0.00     0.064 A 
ATOM     87  C   UNL A   1      48.388  26.055  31.887  1.00  0.00     0.173 A 
ATOM     88  C   UNL A   1      49.088  27.390  30.013  1.00  0.00     0.173 A 
ATOM     89  F   UNL A   1      47.439  25.611  32.724  1.00  0.00    -0.203 F 
ATOM     90  C   UNL A   1      49.702  25.634  32.072  1.00  0.00     0.198 A 
ATOM     91  C   UNL A   1      50.396  26.948  30.186  1.00  0.00     0.198 A 
ATOM     92  F   UNL A   1      48.821  28.237  29.007  1.00  0.00    -0.203 F 
ATOM     93  F   UNL A   1      50.002  24.805  33.081  1.00  0.00    -0.200 F 
ATOM     94  C   UNL A   1      50.702  26.072  31.216  1.00  0.00     0.200 A 
ATOM     95  F   UNL A   1      51.358  27.361  29.349  1.00  0.00    -0.200 F 
ATOM     96  F   UNL A   1      51.963  25.649  31.384  1.00  0.00    -0.200 F 
ENDBRANCH  63  86
ENDBRANCH  37  38
ENDBRANCH  29  32
ENDBRANCH  27  28
ENDBRANCH  26  27
ENDBRANCH  25  26
ENDBRANCH   1  25
TORSDOF 15
ENDMDL
