MODEL 1
REMARK VINA RESULT:     -11.2      0.000      0.000
REMARK SMILES CC[NH2+][C@]1(C(=O)NCCCCCCNC(=O)c2ccc(-c3c4nc(c(-c5c(F)c(F)c(F)c(F)c5F)c5ccc([nH]5)c(-c5c(F)c(F)c(F)c(F)c5F)c5nc(c(-c6c(F)c(F)c(F)c(F)c6F)c6ccc3[nH]6)C=C5)C=C4)cc2)CC[C@@H]([N@H+]2C[C@@H](C)O[C@@H](C)C2)C1
REMARK SMILES IDX 10 1 9 2 8 3 7 4 5 5 6 6 4 8 80 9 91 10 81 11 82 12 3 13
REMARK SMILES IDX 2 16 1 17 83 18 84 19 90 20 85 22 88 23 86 24 87 25 89 26
REMARK SMILES IDX 11 27 12 28 13 29 14 30 15 31 16 33 17 34 18 35 79 36 19 37
REMARK SMILES IDX 78 38 20 39 21 40 22 41 72 42 23 43 77 44 71 45 73 46 24 47
REMARK SMILES IDX 76 48 70 49 69 50 25 52 57 53 37 54 56 55 38 56 41 57 55 58
REMARK SMILES IDX 74 59 39 60 40 61 54 63 75 64 42 65 26 66 27 67 35 68 28 69
REMARK SMILES IDX 29 70 33 71 36 72 30 73 31 74 34 75 32 76 58 77 59 78 67 79
REMARK SMILES IDX 60 80 61 81 65 82 68 83 62 84 63 85 66 86 64 87 43 88 44 89
REMARK SMILES IDX 52 90 45 91 46 92 50 93 53 94 47 95 48 96 51 97 49 98
REMARK H PARENT 7 7 3 14 3 15 83 21 14 32 73 51 41 62
REMARK Flexibility Score: inf
ROOT
ATOM      1  C   UNL A   1      34.353  32.103  28.859  1.00  0.00     0.002 C 
ENDROOT
BRANCH   1   2
ATOM      2  C   UNL A   1      34.631  31.016  27.813  1.00  0.00     0.021 C 
BRANCH   2   3
ATOM      3  C   UNL A   1      33.421  30.616  26.955  1.00  0.00     0.116 C 
BRANCH   3   4
ATOM      4  N   UNL A   1      32.623  29.596  27.624  1.00  0.00    -0.351 N 
ATOM      5  C   UNL A   1      32.092  28.397  27.256  1.00  0.00     0.281 C 
ATOM      6  O   UNL A   1      31.277  27.925  28.064  1.00  0.00    -0.268 OA
ATOM      7  H   UNL A   1      32.422  29.827  28.561  1.00  0.00     0.163 HD
BRANCH   5   8
ATOM      8  C   UNL A   1      32.513  27.558  25.995  1.00  0.00     0.181 C 
ATOM      9  C   UNL A   1      34.028  27.243  26.094  1.00  0.00     0.085 C 
ATOM     10  C   UNL A   1      31.928  26.143  25.925  1.00  0.00     0.144 C 
ATOM     11  C   UNL A   1      34.267  26.013  25.233  1.00  0.00     0.072 C 
ATOM     12  C   UNL A   1      32.978  25.186  25.336  1.00  0.00     0.191 C 
BRANCH   8  13
ATOM     13  N   UNL A   1      32.126  28.276  24.747  1.00  0.00    -0.334 N 
ATOM     14  H   UNL A   1      32.583  29.189  24.749  1.00  0.00     0.347 HD
ATOM     15  H   UNL A   1      32.420  27.684  23.970  1.00  0.00     0.347 HD
BRANCH  13  16
ATOM     16  C   UNL A   1      30.684  28.487  24.586  1.00  0.00     0.257 C 
ATOM     17  C   UNL A   1      30.414  29.334  23.349  1.00  0.00     0.071 C 
ENDBRANCH  13  16
ENDBRANCH   8  13
BRANCH  12  18
ATOM     18  N   UNL A   1      33.130  23.856  25.955  1.00  0.00    -0.328 N 
ATOM     19  C   UNL A   1      32.373  22.736  25.390  1.00  0.00     0.294 C 
ATOM     20  C   UNL A   1      34.523  23.440  26.158  1.00  0.00     0.294 C 
ATOM     21  H   UNL A   1      32.688  24.052  26.853  1.00  0.00     0.348 HD
ATOM     22  C   UNL A   1      33.011  21.978  24.201  1.00  0.00     0.170 C 
ATOM     23  C   UNL A   1      35.186  22.624  25.014  1.00  0.00     0.170 C 
ATOM     24  C   UNL A   1      32.139  22.117  22.954  1.00  0.00     0.045 C 
ATOM     25  O   UNL A   1      34.338  22.417  23.875  1.00  0.00    -0.364 OA
ATOM     26  C   UNL A   1      36.454  23.329  24.534  1.00  0.00     0.045 C 
ENDBRANCH  12  18
ENDBRANCH   5   8
ENDBRANCH   3   4
ENDBRANCH   2   3
ENDBRANCH   1   2
BRANCH   1  27
ATOM     27  C   UNL A   1      34.312  33.534  28.309  1.00  0.00     0.002 C 
BRANCH  27  28
ATOM     28  C   UNL A   1      33.074  34.359  28.681  1.00  0.00     0.021 C 
BRANCH  28  29
ATOM     29  C   UNL A   1      33.354  35.798  29.114  1.00  0.00     0.116 C 
BRANCH  29  30
ATOM     30  N   UNL A   1      32.529  36.198  30.246  1.00  0.00    -0.352 N 
ATOM     31  C   UNL A   1      32.589  35.792  31.554  1.00  0.00     0.251 C 
ATOM     32  H   UNL A   1      31.827  36.857  30.043  1.00  0.00     0.163 HD
ATOM     33  O   UNL A   1      31.670  36.060  32.332  1.00  0.00    -0.269 OA
BRANCH  31  34
ATOM     34  C   UNL A   1      33.751  35.024  32.042  1.00  0.00     0.039 A 
ATOM     35  C   UNL A   1      33.543  33.833  32.743  1.00  0.00     0.014 A 
ATOM     36  C   UNL A   1      35.050  35.495  31.830  1.00  0.00     0.014 A 
ATOM     37  C   UNL A   1      34.639  33.083  33.180  1.00  0.00     0.010 A 
ATOM     38  C   UNL A   1      36.141  34.715  32.205  1.00  0.00     0.010 A 
ATOM     39  C   UNL A   1      35.946  33.504  32.889  1.00  0.00    -0.014 A 
BRANCH  39  40
ATOM     40  C   UNL A   1      37.132  32.712  33.305  1.00  0.00     0.031 A 
ATOM     41  C   UNL A   1      37.831  33.037  34.597  1.00  0.00     0.074 A 
ATOM     42  C   UNL A   1      37.629  31.762  32.490  1.00  0.00     0.049 A 
ATOM     43  N   UNL A   1      38.953  32.564  35.078  1.00  0.00    -0.248 NA
ATOM     44  C   UNL A   1      37.195  34.055  35.449  1.00  0.00     0.031 C 
ATOM     45  C   UNL A   1      37.064  31.377  31.197  1.00  0.00     0.029 A 
ATOM     46  N   UNL A   1      38.738  30.962  32.620  1.00  0.00    -0.354 N 
ATOM     47  C   UNL A   1      39.163  33.236  36.275  1.00  0.00     0.074 A 
ATOM     48  C   UNL A   1      38.085  34.190  36.421  1.00  0.00     0.031 C 
ATOM     49  C   UNL A   1      37.825  30.413  30.654  1.00  0.00     0.029 A 
ATOM     50  C   UNL A   1      38.954  30.142  31.539  1.00  0.00     0.049 A 
ATOM     51  H   UNL A   1      39.323  30.975  33.411  1.00  0.00     0.167 HD
ATOM     52  C   UNL A   1      40.153  33.058  37.182  1.00  0.00     0.037 A 
ATOM     53  C   UNL A   1      39.961  29.283  31.282  1.00  0.00     0.037 A 
ATOM     54  C   UNL A   1      41.213  32.094  37.042  1.00  0.00     0.049 A 
ATOM     55  C   UNL A   1      41.059  29.114  32.298  1.00  0.00     0.074 A 
ATOM     56  C   UNL A   1      42.243  31.808  37.922  1.00  0.00     0.029 A 
ATOM     57  N   UNL A   1      41.377  31.256  35.948  1.00  0.00    -0.354 N 
ATOM     58  N   UNL A   1      41.222  29.719  33.450  1.00  0.00    -0.248 NA
ATOM     59  C   UNL A   1      42.111  28.136  31.984  1.00  0.00     0.031 C 
ATOM     60  C   UNL A   1      43.055  30.830  37.340  1.00  0.00     0.029 A 
ATOM     61  C   UNL A   1      42.500  30.464  36.125  1.00  0.00     0.049 A 
ATOM     62  H   UNL A   1      40.783  31.229  35.164  1.00  0.00     0.167 HD
ATOM     63  C   UNL A   1      42.368  29.172  34.011  1.00  0.00     0.074 A 
ATOM     64  C   UNL A   1      42.857  28.180  33.078  1.00  0.00     0.031 C 
ATOM     65  C   UNL A   1      42.960  29.464  35.195  1.00  0.00     0.037 A 
BRANCH  52  66
ATOM     66  C   UNL A   1      40.134  33.922  38.410  1.00  0.00     0.064 A 
ATOM     67  C   UNL A   1      39.361  33.586  39.534  1.00  0.00     0.173 A 
ATOM     68  C   UNL A   1      40.924  35.080  38.483  1.00  0.00     0.173 A 
ATOM     69  F   UNL A   1      38.581  32.496  39.514  1.00  0.00    -0.203 F 
ATOM     70  C   UNL A   1      39.356  34.393  40.668  1.00  0.00     0.198 A 
ATOM     71  C   UNL A   1      40.941  35.866  39.632  1.00  0.00     0.198 A 
ATOM     72  F   UNL A   1      41.688  35.444  37.442  1.00  0.00    -0.203 F 
ATOM     73  F   UNL A   1      38.568  34.080  41.706  1.00  0.00    -0.200 F 
ATOM     74  C   UNL A   1      40.150  35.527  40.720  1.00  0.00     0.200 A 
ATOM     75  F   UNL A   1      41.722  36.954  39.685  1.00  0.00    -0.200 F 
ATOM     76  F   UNL A   1      40.150  36.299  41.816  1.00  0.00    -0.200 F 
ENDBRANCH  52  66
BRANCH  53  77
ATOM     77  C   UNL A   1      39.973  28.510  30.011  1.00  0.00     0.064 A 
ATOM     78  C   UNL A   1      39.381  27.241  29.932  1.00  0.00     0.173 A 
ATOM     79  C   UNL A   1      40.586  29.015  28.856  1.00  0.00     0.173 A 
ATOM     80  F   UNL A   1      38.800  26.705  31.016  1.00  0.00    -0.203 F 
ATOM     81  C   UNL A   1      39.425  26.498  28.755  1.00  0.00     0.198 A 
ATOM     82  C   UNL A   1      40.601  28.284  27.670  1.00  0.00     0.198 A 
ATOM     83  F   UNL A   1      41.161  30.227  28.874  1.00  0.00    -0.203 F 
ATOM     84  F   UNL A   1      38.897  25.266  28.723  1.00  0.00    -0.200 F 
ATOM     85  C   UNL A   1      40.029  27.022  27.622  1.00  0.00     0.200 A 
ATOM     86  F   UNL A   1      41.173  28.802  26.573  1.00  0.00    -0.200 F 
ATOM     87  F   UNL A   1      40.070  26.307  26.489  1.00  0.00    -0.200 F 
ENDBRANCH  53  77
BRANCH  65  88
ATOM     88  C   UNL A   1      44.171  28.665  35.581  1.00  0.00     0.064 A 
ATOM     89  C   UNL A   1      45.469  29.086  35.261  1.00  0.00     0.173 A 
ATOM     90  C   UNL A   1      44.029  27.491  36.338  1.00  0.00     0.173 A 
ATOM     91  F   UNL A   1      45.658  30.194  34.527  1.00  0.00    -0.203 F 
ATOM     92  C   UNL A   1      46.580  28.350  35.666  1.00  0.00     0.198 A 
ATOM     93  C   UNL A   1      45.142  26.776  36.768  1.00  0.00     0.198 A 
ATOM     94  F   UNL A   1      42.808  27.049  36.678  1.00  0.00    -0.203 F 
ATOM     95  F   UNL A   1      47.811  28.749  35.312  1.00  0.00    -0.200 F 
ATOM     96  C   UNL A   1      46.416  27.203  36.427  1.00  0.00     0.200 A 
ATOM     97  F   UNL A   1      44.982  25.676  37.517  1.00  0.00    -0.200 F 
ATOM     98  F   UNL A   1      47.487  26.504  36.828  1.00  0.00    -0.200 F 
ENDBRANCH  65  88
ENDBRANCH  39  40
ENDBRANCH  31  34
ENDBRANCH  29  30
ENDBRANCH  28  29
ENDBRANCH  27  28
ENDBRANCH   1  27
TORSDOF 16
ENDMDL
MODEL 2
REMARK VINA RESULT:     -11.2      1.813      7.613
REMARK SMILES CC[NH2+][C@]1(C(=O)NCCCCCCNC(=O)c2ccc(-c3c4nc(c(-c5c(F)c(F)c(F)c(F)c5F)c5ccc([nH]5)c(-c5c(F)c(F)c(F)c(F)c5F)c5nc(c(-c6c(F)c(F)c(F)c(F)c6F)c6ccc3[nH]6)C=C5)C=C4)cc2)CC[C@@H]([N@H+]2C[C@@H](C)O[C@@H](C)C2)C1
REMARK SMILES IDX 10 1 9 2 8 3 7 4 5 5 6 6 4 8 80 9 91 10 81 11 82 12 3 13
REMARK SMILES IDX 2 16 1 17 83 18 84 19 90 20 85 22 88 23 86 24 87 25 89 26
REMARK SMILES IDX 11 27 12 28 13 29 14 30 15 31 16 33 17 34 18 35 79 36 19 37
REMARK SMILES IDX 78 38 20 39 21 40 22 41 72 42 23 43 77 44 71 45 73 46 24 47
REMARK SMILES IDX 76 48 70 49 69 50 25 52 57 53 37 54 56 55 38 56 41 57 55 58
REMARK SMILES IDX 74 59 39 60 40 61 54 63 75 64 42 65 26 66 27 67 35 68 28 69
REMARK SMILES IDX 29 70 33 71 36 72 30 73 31 74 34 75 32 76 58 77 59 78 67 79
REMARK SMILES IDX 60 80 61 81 65 82 68 83 62 84 63 85 66 86 64 87 43 88 44 89
REMARK SMILES IDX 52 90 45 91 46 92 50 93 53 94 47 95 48 96 51 97 49 98
REMARK H PARENT 7 7 3 14 3 15 83 21 14 32 73 51 41 62
REMARK Flexibility Score: inf
ROOT
ATOM      1  C   UNL A   1      32.637  29.506  26.271  1.00  0.00     0.002 C 
ENDROOT
BRANCH   1   2
ATOM      2  C   UNL A   1      33.468  28.783  25.204  1.00  0.00     0.021 C 
BRANCH   2   3
ATOM      3  C   UNL A   1      33.122  29.147  23.753  1.00  0.00     0.116 C 
BRANCH   3   4
ATOM      4  N   UNL A   1      33.551  28.097  22.837  1.00  0.00    -0.351 N 
ATOM      5  C   UNL A   1      33.132  26.829  22.565  1.00  0.00     0.281 C 
ATOM      6  O   UNL A   1      33.913  26.170  21.860  1.00  0.00    -0.268 OA
ATOM      7  H   UNL A   1      34.323  28.366  22.287  1.00  0.00     0.163 HD
BRANCH   5   8
ATOM      8  C   UNL A   1      31.740  26.221  22.965  1.00  0.00     0.181 C 
ATOM      9  C   UNL A   1      31.679  24.754  22.467  1.00  0.00     0.085 C 
ATOM     10  C   UNL A   1      31.520  26.025  24.469  1.00  0.00     0.144 C 
ATOM     11  C   UNL A   1      30.640  24.052  23.327  1.00  0.00     0.072 C 
ATOM     12  C   UNL A   1      30.726  24.728  24.703  1.00  0.00     0.191 C 
BRANCH   8  13
ATOM     13  N   UNL A   1      30.635  27.080  22.449  1.00  0.00    -0.334 N 
ATOM     14  H   UNL A   1      31.040  27.778  21.824  1.00  0.00     0.347 HD
ATOM     15  H   UNL A   1      29.979  26.456  21.980  1.00  0.00     0.347 HD
BRANCH  13  16
ATOM     16  C   UNL A   1      29.872  27.783  23.486  1.00  0.00     0.257 C 
ATOM     17  C   UNL A   1      28.985  28.846  22.852  1.00  0.00     0.071 C 
ENDBRANCH  13  16
ENDBRANCH   8  13
BRANCH  12  18
ATOM     18  N   UNL A   1      31.142  23.849  25.813  1.00  0.00    -0.328 N 
ATOM     19  C   UNL A   1      31.219  22.407  25.564  1.00  0.00     0.294 C 
ATOM     20  C   UNL A   1      32.363  24.283  26.502  1.00  0.00     0.294 C 
ATOM     21  H   UNL A   1      30.333  23.974  26.419  1.00  0.00     0.348 HD
ATOM     22  C   UNL A   1      32.538  21.859  24.969  1.00  0.00     0.170 C 
ATOM     23  C   UNL A   1      33.708  23.711  25.976  1.00  0.00     0.170 C 
ATOM     24  C   UNL A   1      32.285  21.243  23.594  1.00  0.00     0.045 C 
ATOM     25  O   UNL A   1      33.572  22.847  24.838  1.00  0.00    -0.364 OA
ATOM     26  C   UNL A   1      34.648  24.852  25.589  1.00  0.00     0.045 C 
ENDBRANCH  12  18
ENDBRANCH   5   8
ENDBRANCH   3   4
ENDBRANCH   2   3
ENDBRANCH   1   2
BRANCH   1  27
ATOM     27  C   UNL A   1      31.566  30.457  25.722  1.00  0.00     0.002 C 
BRANCH  27  28
ATOM     28  C   UNL A   1      31.341  31.746  26.522  1.00  0.00     0.021 C 
BRANCH  28  29
ATOM     29  C   UNL A   1      32.605  32.396  27.083  1.00  0.00     0.116 C 
BRANCH  29  30
ATOM     30  N   UNL A   1      32.393  33.794  27.432  1.00  0.00    -0.352 N 
ATOM     31  C   UNL A   1      32.987  34.548  28.410  1.00  0.00     0.251 C 
ATOM     32  H   UNL A   1      31.726  34.268  26.884  1.00  0.00     0.163 HD
ATOM     33  O   UNL A   1      32.524  35.650  28.715  1.00  0.00    -0.269 OA
BRANCH  31  34
ATOM     34  C   UNL A   1      34.181  34.043  29.115  1.00  0.00     0.039 A 
ATOM     35  C   UNL A   1      34.025  33.165  30.192  1.00  0.00     0.014 A 
ATOM     36  C   UNL A   1      35.458  34.460  28.730  1.00  0.00     0.014 A 
ATOM     37  C   UNL A   1      35.153  32.658  30.844  1.00  0.00     0.010 A 
ATOM     38  C   UNL A   1      36.582  33.902  29.335  1.00  0.00     0.010 A 
ATOM     39  C   UNL A   1      36.440  33.000  30.402  1.00  0.00    -0.014 A 
BRANCH  39  40
ATOM     40  C   UNL A   1      37.659  32.450  31.048  1.00  0.00     0.031 A 
ATOM     41  C   UNL A   1      38.432  31.351  30.372  1.00  0.00     0.074 A 
ATOM     42  C   UNL A   1      38.024  32.876  32.273  1.00  0.00     0.049 A 
ATOM     43  N   UNL A   1      39.436  30.642  30.821  1.00  0.00    -0.248 NA
ATOM     44  C   UNL A   1      37.993  30.978  29.017  1.00  0.00     0.031 C 
ATOM     45  C   UNL A   1      37.339  33.911  33.047  1.00  0.00     0.029 A 
ATOM     46  N   UNL A   1      39.051  32.473  33.091  1.00  0.00    -0.354 N 
ATOM     47  C   UNL A   1      39.737  29.733  29.814  1.00  0.00     0.074 A 
ATOM     48  C   UNL A   1      38.775  29.941  28.754  1.00  0.00     0.031 C 
ATOM     49  C   UNL A   1      37.966  34.066  34.225  1.00  0.00     0.029 A 
ATOM     50  C   UNL A   1      39.069  33.113  34.307  1.00  0.00     0.049 A 
ATOM     51  H   UNL A   1      39.711  31.791  32.832  1.00  0.00     0.167 HD
ATOM     52  C   UNL A   1      40.740  28.824  29.768  1.00  0.00     0.037 A 
ATOM     53  C   UNL A   1      39.872  32.936  35.375  1.00  0.00     0.037 A 
ATOM     54  C   UNL A   1      41.708  28.635  30.817  1.00  0.00     0.049 A 
ATOM     55  C   UNL A   1      40.970  31.908  35.306  1.00  0.00     0.074 A 
ATOM     56  C   UNL A   1      42.785  27.767  30.851  1.00  0.00     0.029 A 
ATOM     57  N   UNL A   1      41.713  29.329  32.019  1.00  0.00    -0.354 N 
ATOM     58  N   UNL A   1      41.276  31.088  34.330  1.00  0.00    -0.248 NA
ATOM     59  C   UNL A   1      41.839  31.784  36.484  1.00  0.00     0.031 C 
ATOM     60  C   UNL A   1      43.416  27.903  32.092  1.00  0.00     0.029 A 
ATOM     61  C   UNL A   1      42.768  28.896  32.807  1.00  0.00     0.049 A 
ATOM     62  H   UNL A   1      41.064  30.023  32.273  1.00  0.00     0.167 HD
ATOM     63  C   UNL A   1      42.392  30.381  34.759  1.00  0.00     0.074 A 
ATOM     64  C   UNL A   1      42.713  30.873  36.082  1.00  0.00     0.031 C 
ATOM     65  C   UNL A   1      43.087  29.413  34.114  1.00  0.00     0.037 A 
BRANCH  52  66
ATOM     66  C   UNL A   1      40.845  27.967  28.540  1.00  0.00     0.064 A 
ATOM     67  C   UNL A   1      41.606  28.364  27.429  1.00  0.00     0.173 A 
ATOM     68  C   UNL A   1      40.207  26.717  28.483  1.00  0.00     0.173 A 
ATOM     69  F   UNL A   1      42.227  29.552  27.426  1.00  0.00    -0.203 F 
ATOM     70  C   UNL A   1      41.698  27.557  26.297  1.00  0.00     0.198 A 
ATOM     71  C   UNL A   1      40.330  25.899  27.362  1.00  0.00     0.198 A 
ATOM     72  F   UNL A   1      39.473  26.285  29.519  1.00  0.00    -0.203 F 
ATOM     73  F   UNL A   1      42.387  27.983  25.229  1.00  0.00    -0.200 F 
ATOM     74  C   UNL A   1      41.067  26.324  26.267  1.00  0.00     0.200 A 
ATOM     75  F   UNL A   1      39.731  24.701  27.342  1.00  0.00    -0.200 F 
ATOM     76  F   UNL A   1      41.163  25.546  25.180  1.00  0.00    -0.200 F 
ENDBRANCH  52  66
BRANCH  53  77
ATOM     77  C   UNL A   1      39.673  33.758  36.599  1.00  0.00     0.064 A 
ATOM     78  C   UNL A   1      38.875  33.297  37.656  1.00  0.00     0.173 A 
ATOM     79  C   UNL A   1      40.264  35.023  36.733  1.00  0.00     0.173 A 
ATOM     80  F   UNL A   1      38.271  32.102  37.567  1.00  0.00    -0.203 F 
ATOM     81  C   UNL A   1      38.655  34.080  38.787  1.00  0.00     0.198 A 
ATOM     82  C   UNL A   1      40.069  35.791  37.878  1.00  0.00     0.198 A 
ATOM     83  F   UNL A   1      41.042  35.508  35.754  1.00  0.00    -0.203 F 
ATOM     84  F   UNL A   1      37.845  33.638  39.758  1.00  0.00    -0.200 F 
ATOM     85  C   UNL A   1      39.257  35.325  38.900  1.00  0.00     0.200 A 
ATOM     86  F   UNL A   1      40.666  36.987  37.990  1.00  0.00    -0.200 F 
ATOM     87  F   UNL A   1      39.046  36.077  39.989  1.00  0.00    -0.200 F 
ENDBRANCH  53  77
BRANCH  65  88
ATOM     88  C   UNL A   1      44.301  28.857  34.800  1.00  0.00     0.064 A 
ATOM     89  C   UNL A   1      45.565  29.449  34.666  1.00  0.00     0.173 A 
ATOM     90  C   UNL A   1      44.182  27.749  35.654  1.00  0.00     0.173 A 
ATOM     91  F   UNL A   1      45.734  30.502  33.852  1.00  0.00    -0.203 F 
ATOM     92  C   UNL A   1      46.669  28.941  35.346  1.00  0.00     0.198 A 
ATOM     93  C   UNL A   1      45.282  27.263  36.356  1.00  0.00     0.198 A 
ATOM     94  F   UNL A   1      42.993  27.150  35.823  1.00  0.00    -0.203 F 
ATOM     95  F   UNL A   1      47.876  29.498  35.170  1.00  0.00    -0.200 F 
ATOM     96  C   UNL A   1      46.524  27.856  36.197  1.00  0.00     0.200 A 
ATOM     97  F   UNL A   1      45.136  26.224  37.190  1.00  0.00    -0.200 F 
ATOM     98  F   UNL A   1      47.585  27.377  36.861  1.00  0.00    -0.200 F 
ENDBRANCH  65  88
ENDBRANCH  39  40
ENDBRANCH  31  34
ENDBRANCH  29  30
ENDBRANCH  28  29
ENDBRANCH  27  28
ENDBRANCH   1  27
TORSDOF 16
ENDMDL
MODEL 3
REMARK VINA RESULT:     -11.2      6.547     12.401
REMARK SMILES CC[NH2+][C@]1(C(=O)NCCCCCCNC(=O)c2ccc(-c3c4nc(c(-c5c(F)c(F)c(F)c(F)c5F)c5ccc([nH]5)c(-c5c(F)c(F)c(F)c(F)c5F)c5nc(c(-c6c(F)c(F)c(F)c(F)c6F)c6ccc3[nH]6)C=C5)C=C4)cc2)CC[C@@H]([N@H+]2C[C@@H](C)O[C@@H](C)C2)C1
REMARK SMILES IDX 10 1 9 2 8 3 7 4 5 5 6 6 4 8 80 9 91 10 81 11 82 12 3 13
REMARK SMILES IDX 2 16 1 17 83 18 84 19 90 20 85 22 88 23 86 24 87 25 89 26
REMARK SMILES IDX 11 27 12 28 13 29 14 30 15 31 16 33 17 34 18 35 79 36 19 37
REMARK SMILES IDX 78 38 20 39 21 40 22 41 72 42 23 43 77 44 71 45 73 46 24 47
REMARK SMILES IDX 76 48 70 49 69 50 25 52 57 53 37 54 56 55 38 56 41 57 55 58
REMARK SMILES IDX 74 59 39 60 40 61 54 63 75 64 42 65 26 66 27 67 35 68 28 69
REMARK SMILES IDX 29 70 33 71 36 72 30 73 31 74 34 75 32 76 58 77 59 78 67 79
REMARK SMILES IDX 60 80 61 81 65 82 68 83 62 84 63 85 66 86 64 87 43 88 44 89
REMARK SMILES IDX 52 90 45 91 46 92 50 93 53 94 47 95 48 96 51 97 49 98
REMARK H PARENT 7 7 3 14 3 15 83 21 14 32 73 51 41 62
REMARK Flexibility Score: inf
ROOT
ATOM      1  C   UNL A   1      40.004  21.627  26.902  1.00  0.00     0.002 C 
ENDROOT
BRANCH   1   2
ATOM      2  C   UNL A   1      39.051  22.540  26.122  1.00  0.00     0.021 C 
BRANCH   2   3
ATOM      3  C   UNL A   1      37.796  21.848  25.567  1.00  0.00     0.116 C 
BRANCH   3   4
ATOM      4  N   UNL A   1      37.465  22.359  24.242  1.00  0.00    -0.351 N 
ATOM      5  C   UNL A   1      36.327  22.812  23.645  1.00  0.00     0.281 C 
ATOM      6  O   UNL A   1      36.413  22.953  22.415  1.00  0.00    -0.268 OA
ATOM      7  H   UNL A   1      38.243  22.381  23.639  1.00  0.00     0.163 HD
BRANCH   5   8
ATOM      8  C   UNL A   1      35.019  23.260  24.391  1.00  0.00     0.181 C 
ATOM      9  C   UNL A   1      35.394  24.329  25.450  1.00  0.00     0.085 C 
ATOM     10  C   UNL A   1      34.014  24.042  23.536  1.00  0.00     0.144 C 
ATOM     11  C   UNL A   1      34.128  25.124  25.724  1.00  0.00     0.072 C 
ATOM     12  C   UNL A   1      33.360  25.138  24.394  1.00  0.00     0.191 C 
BRANCH   8  13
ATOM     13  N   UNL A   1      34.315  22.073  24.954  1.00  0.00    -0.334 N 
ATOM     14  H   UNL A   1      35.017  21.381  25.216  1.00  0.00     0.347 HD
ATOM     15  H   UNL A   1      33.769  22.410  25.746  1.00  0.00     0.347 HD
BRANCH  13  16
ATOM     16  C   UNL A   1      33.365  21.434  24.037  1.00  0.00     0.257 C 
ATOM     17  C   UNL A   1      32.690  20.252  24.722  1.00  0.00     0.071 C 
ENDBRANCH  13  16
ENDBRANCH   8  13
BRANCH  12  18
ATOM     18  N   UNL A   1      33.167  26.470  23.791  1.00  0.00    -0.328 N 
ATOM     19  C   UNL A   1      31.910  26.739  23.088  1.00  0.00     0.294 C 
ATOM     20  C   UNL A   1      33.462  27.590  24.693  1.00  0.00     0.294 C 
ATOM     21  H   UNL A   1      33.875  26.412  23.060  1.00  0.00     0.348 HD
ATOM     22  C   UNL A   1      30.713  27.229  23.939  1.00  0.00     0.170 C 
ATOM     23  C   UNL A   1      32.276  28.153  25.523  1.00  0.00     0.170 C 
ATOM     24  C   UNL A   1      29.569  26.218  23.877  1.00  0.00     0.045 C 
ATOM     25  O   UNL A   1      31.036  27.462  25.318  1.00  0.00    -0.364 OA
ATOM     26  C   UNL A   1      32.605  28.095  27.015  1.00  0.00     0.045 C 
ENDBRANCH  12  18
ENDBRANCH   5   8
ENDBRANCH   3   4
ENDBRANCH   2   3
ENDBRANCH   1   2
BRANCH   1  27
ATOM     27  C   UNL A   1      41.258  21.192  26.133  1.00  0.00     0.002 C 
BRANCH  27  28
ATOM     28  C   UNL A   1      41.390  19.688  25.862  1.00  0.00     0.021 C 
BRANCH  28  29
ATOM     29  C   UNL A   1      42.646  19.030  26.429  1.00  0.00     0.116 C 
BRANCH  29  30
ATOM     30  N   UNL A   1      43.572  18.622  25.380  1.00  0.00    -0.352 N 
ATOM     31  C   UNL A   1      44.384  19.392  24.588  1.00  0.00     0.251 C 
ATOM     32  H   UNL A   1      43.622  17.653  25.217  1.00  0.00     0.163 HD
ATOM     33  O   UNL A   1      44.932  18.902  23.597  1.00  0.00    -0.269 OA
BRANCH  31  34
ATOM     34  C   UNL A   1      44.603  20.816  24.909  1.00  0.00     0.039 A 
ATOM     35  C   UNL A   1      44.249  21.793  23.975  1.00  0.00     0.014 A 
ATOM     36  C   UNL A   1      45.184  21.185  26.124  1.00  0.00     0.014 A 
ATOM     37  C   UNL A   1      44.425  23.145  24.284  1.00  0.00     0.010 A 
ATOM     38  C   UNL A   1      45.296  22.532  26.459  1.00  0.00     0.010 A 
ATOM     39  C   UNL A   1      44.922  23.526  25.540  1.00  0.00    -0.014 A 
BRANCH  39  40
ATOM     40  C   UNL A   1      45.085  24.954  25.916  1.00  0.00     0.031 A 
ATOM     41  C   UNL A   1      46.440  25.600  25.822  1.00  0.00     0.074 A 
ATOM     42  C   UNL A   1      44.042  25.643  26.415  1.00  0.00     0.049 A 
ATOM     43  N   UNL A   1      46.826  26.784  26.225  1.00  0.00    -0.248 NA
ATOM     44  C   UNL A   1      47.513  24.792  25.222  1.00  0.00     0.031 C 
ATOM     45  C   UNL A   1      42.687  25.119  26.588  1.00  0.00     0.029 A 
ATOM     46  N   UNL A   1      43.965  26.929  26.892  1.00  0.00    -0.354 N 
ATOM     47  C   UNL A   1      48.184  26.855  25.942  1.00  0.00     0.074 A 
ATOM     48  C   UNL A   1      48.568  25.576  25.386  1.00  0.00     0.031 C 
ATOM     49  C   UNL A   1      41.911  26.075  27.127  1.00  0.00     0.029 A 
ATOM     50  C   UNL A   1      42.723  27.262  27.377  1.00  0.00     0.049 A 
ATOM     51  H   UNL A   1      44.726  27.552  26.887  1.00  0.00     0.167 HD
ATOM     52  C   UNL A   1      49.030  27.900  26.108  1.00  0.00     0.037 A 
ATOM     53  C   UNL A   1      42.293  28.391  27.975  1.00  0.00     0.037 A 
ATOM     54  C   UNL A   1      48.638  29.179  26.642  1.00  0.00     0.049 A 
ATOM     55  C   UNL A   1      43.255  29.534  28.163  1.00  0.00     0.074 A 
ATOM     56  C   UNL A   1      49.409  30.314  26.817  1.00  0.00     0.029 A 
ATOM     57  N   UNL A   1      47.361  29.488  27.090  1.00  0.00    -0.354 N 
ATOM     58  N   UNL A   1      44.526  29.608  27.847  1.00  0.00    -0.248 NA
ATOM     59  C   UNL A   1      42.724  30.755  28.786  1.00  0.00     0.031 C 
ATOM     60  C   UNL A   1      48.611  31.297  27.410  1.00  0.00     0.029 A 
ATOM     61  C   UNL A   1      47.328  30.794  27.553  1.00  0.00     0.049 A 
ATOM     62  H   UNL A   1      46.594  28.872  27.079  1.00  0.00     0.167 HD
ATOM     63  C   UNL A   1      44.933  30.888  28.196  1.00  0.00     0.074 A 
ATOM     64  C   UNL A   1      43.775  31.561  28.742  1.00  0.00     0.031 C 
ATOM     65  C   UNL A   1      46.159  31.456  28.073  1.00  0.00     0.037 A 
BRANCH  52  66
ATOM     66  C   UNL A   1      50.462  27.707  25.703  1.00  0.00     0.064 A 
ATOM     67  C   UNL A   1      51.452  27.364  26.638  1.00  0.00     0.173 A 
ATOM     68  C   UNL A   1      50.848  27.830  24.359  1.00  0.00     0.173 A 
ATOM     69  F   UNL A   1      51.139  27.244  27.937  1.00  0.00    -0.203 F 
ATOM     70  C   UNL A   1      52.776  27.184  26.249  1.00  0.00     0.198 A 
ATOM     71  C   UNL A   1      52.168  27.616  23.969  1.00  0.00     0.198 A 
ATOM     72  F   UNL A   1      49.943  28.149  23.421  1.00  0.00    -0.203 F 
ATOM     73  F   UNL A   1      53.711  26.910  27.169  1.00  0.00    -0.200 F 
ATOM     74  C   UNL A   1      53.132  27.302  24.915  1.00  0.00     0.200 A 
ATOM     75  F   UNL A   1      52.507  27.716  22.676  1.00  0.00    -0.200 F 
ATOM     76  F   UNL A   1      54.406  27.121  24.541  1.00  0.00    -0.200 F 
ENDBRANCH  52  66
BRANCH  53  77
ATOM     77  C   UNL A   1      40.882  28.501  28.431  1.00  0.00     0.064 A 
ATOM     78  C   UNL A   1      39.879  28.966  27.569  1.00  0.00     0.173 A 
ATOM     79  C   UNL A   1      40.509  28.156  29.738  1.00  0.00     0.173 A 
ATOM     80  F   UNL A   1      40.188  29.329  26.314  1.00  0.00    -0.203 F 
ATOM     81  C   UNL A   1      38.563  29.107  28.004  1.00  0.00     0.198 A 
ATOM     82  C   UNL A   1      39.186  28.267  30.162  1.00  0.00     0.198 A 
ATOM     83  F   UNL A   1      41.427  27.699  30.601  1.00  0.00    -0.203 F 
ATOM     84  F   UNL A   1      37.634  29.604  27.175  1.00  0.00    -0.200 F 
ATOM     85  C   UNL A   1      38.216  28.752  29.299  1.00  0.00     0.200 A 
ATOM     86  F   UNL A   1      38.853  27.908  31.410  1.00  0.00    -0.200 F 
ATOM     87  F   UNL A   1      36.949  28.886  29.717  1.00  0.00    -0.200 F 
ENDBRANCH  53  77
BRANCH  65  88
ATOM     88  C   UNL A   1      46.302  32.893  28.482  1.00  0.00     0.064 A 
ATOM     89  C   UNL A   1      46.085  33.945  27.580  1.00  0.00     0.173 A 
ATOM     90  C   UNL A   1      46.600  33.221  29.814  1.00  0.00     0.173 A 
ATOM     91  F   UNL A   1      45.811  33.685  26.293  1.00  0.00    -0.203 F 
ATOM     92  C   UNL A   1      46.183  35.272  27.992  1.00  0.00     0.198 A 
ATOM     93  C   UNL A   1      46.665  34.547  30.229  1.00  0.00     0.198 A 
ATOM     94  F   UNL A   1      46.808  32.251  30.718  1.00  0.00    -0.203 F 
ATOM     95  F   UNL A   1      46.012  36.261  27.104  1.00  0.00    -0.200 F 
ATOM     96  C   UNL A   1      46.462  35.571  29.317  1.00  0.00     0.200 A 
ATOM     97  F   UNL A   1      46.920  34.834  31.513  1.00  0.00    -0.200 F 
ATOM     98  F   UNL A   1      46.540  36.848  29.715  1.00  0.00    -0.200 F 
ENDBRANCH  65  88
ENDBRANCH  39  40
ENDBRANCH  31  34
ENDBRANCH  29  30
ENDBRANCH  28  29
ENDBRANCH  27  28
ENDBRANCH   1  27
TORSDOF 16
ENDMDL
