MODEL 1
REMARK VINA RESULT:     -12.0      0.000      0.000
REMARK SMILES C[C@@H]1CCCCN1S(=O)(=O)c1ccc(CCC(=O)NCCCCCCNC(=O)c2ccc(-c3c4nc(c(-c5c(F)c(F)c(F)c(F)c5F)c5ccc([nH]5)c(-c5c(F)c(F)c(F)c(F)c5F)c5nc(c(-c6c(F)c(F)c(F)c(F)c6F)c6ccc3[nH]6)C=C5)C=C4)cc2)cc1
REMARK SMILES IDX 21 1 20 2 19 3 17 4 18 5 16 7 15 8 14 9 11 10 12 11 93 12
REMARK SMILES IDX 13 13 92 14 8 15 9 16 10 17 7 18 1 19 2 20 3 21 4 22 6 23
REMARK SMILES IDX 5 24 22 25 23 26 24 27 25 28 26 29 27 30 28 32 29 33 30 34
REMARK SMILES IDX 91 35 31 36 90 37 32 38 33 39 34 40 84 41 35 42 89 43 83 44
REMARK SMILES IDX 85 45 36 46 88 47 82 48 81 49 37 51 69 52 49 53 68 54 50 55
REMARK SMILES IDX 53 56 67 57 86 58 51 59 52 60 66 62 87 63 54 64 38 65 39 66
REMARK SMILES IDX 47 67 40 68 41 69 45 70 48 71 42 72 43 73 46 74 44 75 70 76
REMARK SMILES IDX 71 77 79 78 72 79 73 80 77 81 80 82 74 83 75 84 78 85 76 86
REMARK SMILES IDX 55 87 56 88 64 89 57 90 58 91 62 92 65 93 59 94 60 95 63 96
REMARK SMILES IDX 61 97
REMARK H PARENT 19 6 26 31 85 50 53 61
REMARK Flexibility Score: inf
ROOT
ATOM      1  C   UNL A   1      33.938  27.294  23.797  1.00  0.00     0.021 C 
ENDROOT
BRANCH   1   2
ATOM      2  C   UNL A   1      33.110  27.318  22.509  1.00  0.00     0.116 C 
BRANCH   2   3
ATOM      3  N   UNL A   1      32.314  28.533  22.425  1.00  0.00    -0.356 N 
ATOM      4  C   UNL A   1      30.966  28.711  22.340  1.00  0.00     0.220 C 
ATOM      5  O   UNL A   1      30.541  29.848  22.123  1.00  0.00    -0.275 OA
ATOM      6  H   UNL A   1      32.837  29.367  22.429  1.00  0.00     0.163 HD
BRANCH   4   7
ATOM      7  C   UNL A   1      30.000  27.557  22.534  1.00  0.00     0.105 C 
BRANCH   7   8
ATOM      8  C   UNL A   1      29.658  27.312  24.010  1.00  0.00     0.045 C 
BRANCH   8   9
ATOM      9  C   UNL A   1      29.966  25.896  24.442  1.00  0.00    -0.047 A 
ATOM     10  C   UNL A   1      30.987  23.449  25.335  1.00  0.00     0.082 A 
ATOM     11  C   UNL A   1      30.923  23.719  23.963  1.00  0.00     0.022 A 
ATOM     12  C   UNL A   1      30.443  24.354  26.250  1.00  0.00     0.022 A 
ATOM     13  C   UNL A   1      30.417  24.946  23.520  1.00  0.00     0.005 A 
ATOM     14  C   UNL A   1      29.906  25.559  25.801  1.00  0.00     0.005 A 
BRANCH  10  15
ATOM     15  S   UNL A   1      32.152  22.236  25.917  1.00  0.00     0.243 S 
ATOM     16  O   UNL A   1      31.748  20.948  25.392  1.00  0.00    -0.207 OA
ATOM     17  O   UNL A   1      32.247  22.402  27.356  1.00  0.00    -0.207 OA
BRANCH  15  18
ATOM     18  N   UNL A   1      33.678  22.616  25.281  1.00  0.00    -0.195 NA
ATOM     19  C   UNL A   1      34.636  20.275  25.014  1.00  0.00     0.026 C 
ATOM     20  C   UNL A   1      34.401  21.652  24.392  1.00  0.00     0.070 C 
ATOM     21  C   UNL A   1      35.770  22.244  23.970  1.00  0.00     0.020 C 
ATOM     22  C   UNL A   1      35.880  23.744  24.207  1.00  0.00     0.003 C 
ATOM     23  C   UNL A   1      34.572  23.204  26.311  1.00  0.00     0.103 C 
ATOM     24  C   UNL A   1      35.651  24.069  25.676  1.00  0.00     0.017 C 
ENDBRANCH  15  18
ENDBRANCH  10  15
ENDBRANCH   8   9
ENDBRANCH   7   8
ENDBRANCH   4   7
ENDBRANCH   2   3
ENDBRANCH   1   2
BRANCH   1  25
ATOM     25  C   UNL A   1      33.301  26.566  24.985  1.00  0.00     0.002 C 
BRANCH  25  26
ATOM     26  C   UNL A   1      33.124  27.396  26.265  1.00  0.00     0.002 C 
BRANCH  26  27
ATOM     27  C   UNL A   1      32.254  28.657  26.158  1.00  0.00     0.021 C 
BRANCH  27  28
ATOM     28  C   UNL A   1      32.905  29.879  25.505  1.00  0.00     0.116 C 
BRANCH  28  29
ATOM     29  N   UNL A   1      32.558  31.129  26.163  1.00  0.00    -0.352 N 
ATOM     30  C   UNL A   1      33.164  31.806  27.194  1.00  0.00     0.251 C 
ATOM     31  H   UNL A   1      31.751  31.566  25.808  1.00  0.00     0.163 HD
ATOM     32  O   UNL A   1      32.619  32.812  27.648  1.00  0.00    -0.269 OA
BRANCH  30  33
ATOM     33  C   UNL A   1      34.441  31.352  27.805  1.00  0.00     0.039 A 
ATOM     34  C   UNL A   1      35.477  32.285  27.944  1.00  0.00     0.014 A 
ATOM     35  C   UNL A   1      34.676  30.028  28.174  1.00  0.00     0.014 A 
ATOM     36  C   UNL A   1      36.704  31.911  28.512  1.00  0.00     0.010 A 
ATOM     37  C   UNL A   1      35.887  29.671  28.788  1.00  0.00     0.010 A 
ATOM     38  C   UNL A   1      36.913  30.605  28.984  1.00  0.00    -0.014 A 
BRANCH  38  39
ATOM     39  C   UNL A   1      38.157  30.255  29.737  1.00  0.00     0.031 A 
ATOM     40  C   UNL A   1      38.413  30.720  31.150  1.00  0.00     0.074 A 
ATOM     41  C   UNL A   1      39.118  29.539  29.116  1.00  0.00     0.049 A 
ATOM     42  N   UNL A   1      39.406  30.413  31.953  1.00  0.00    -0.248 NA
ATOM     43  C   UNL A   1      37.461  31.680  31.727  1.00  0.00     0.031 C 
ATOM     44  C   UNL A   1      39.089  29.128  27.711  1.00  0.00     0.029 A 
ATOM     45  N   UNL A   1      40.299  29.015  29.587  1.00  0.00    -0.354 N 
ATOM     46  C   UNL A   1      39.202  31.142  33.118  1.00  0.00     0.074 A 
ATOM     47  C   UNL A   1      38.026  31.956  32.895  1.00  0.00     0.031 C 
ATOM     48  C   UNL A   1      40.162  28.367  27.452  1.00  0.00     0.029 A 
ATOM     49  C   UNL A   1      40.965  28.243  28.665  1.00  0.00     0.049 A 
ATOM     50  H   UNL A   1      40.636  29.178  30.498  1.00  0.00     0.167 HD
ATOM     51  C   UNL A   1      39.905  31.113  34.279  1.00  0.00     0.037 A 
ATOM     52  C   UNL A   1      42.076  27.491  28.785  1.00  0.00     0.037 A 
ATOM     53  C   UNL A   1      41.052  30.274  34.530  1.00  0.00     0.049 A 
ATOM     54  C   UNL A   1      42.778  27.394  30.110  1.00  0.00     0.074 A 
ATOM     55  C   UNL A   1      41.763  30.111  35.708  1.00  0.00     0.029 A 
ATOM     56  N   UNL A   1      41.655  29.455  33.589  1.00  0.00    -0.354 N 
ATOM     57  N   UNL A   1      42.496  27.988  31.243  1.00  0.00    -0.248 NA
ATOM     58  C   UNL A   1      43.943  26.499  30.176  1.00  0.00     0.031 C 
ATOM     59  C   UNL A   1      42.814  29.218  35.473  1.00  0.00     0.029 A 
ATOM     60  C   UNL A   1      42.734  28.792  34.159  1.00  0.00     0.049 A 
ATOM     61  H   UNL A   1      41.362  29.357  32.655  1.00  0.00     0.167 HD
ATOM     62  C   UNL A   1      43.427  27.519  32.159  1.00  0.00     0.074 A 
ATOM     63  C   UNL A   1      44.270  26.574  31.458  1.00  0.00     0.031 C 
ATOM     64  C   UNL A   1      43.569  27.847  33.467  1.00  0.00     0.037 A 
BRANCH  51  65
ATOM     65  C   UNL A   1      39.435  31.992  35.403  1.00  0.00     0.064 A 
ATOM     66  C   UNL A   1      38.508  31.531  36.352  1.00  0.00     0.173 A 
ATOM     67  C   UNL A   1      39.972  33.276  35.585  1.00  0.00     0.173 A 
ATOM     68  F   UNL A   1      37.963  30.311  36.223  1.00  0.00    -0.203 F 
ATOM     69  C   UNL A   1      38.120  32.329  37.424  1.00  0.00     0.198 A 
ATOM     70  C   UNL A   1      39.602  34.060  36.676  1.00  0.00     0.198 A 
ATOM     71  F   UNL A   1      40.872  33.762  34.717  1.00  0.00    -0.203 F 
ATOM     72  F   UNL A   1      37.205  31.879  38.294  1.00  0.00    -0.200 F 
ATOM     73  C   UNL A   1      38.673  33.589  37.590  1.00  0.00     0.200 A 
ATOM     74  F   UNL A   1      40.151  35.272  36.845  1.00  0.00    -0.200 F 
ATOM     75  F   UNL A   1      38.308  34.350  38.631  1.00  0.00    -0.200 F 
ENDBRANCH  51  65
BRANCH  52  76
ATOM     76  C   UNL A   1      42.551  26.689  27.628  1.00  0.00     0.064 A 
ATOM     77  C   UNL A   1      42.044  25.403  27.395  1.00  0.00     0.173 A 
ATOM     78  C   UNL A   1      43.525  27.179  26.748  1.00  0.00     0.173 A 
ATOM     79  F   UNL A   1      41.126  24.885  28.226  1.00  0.00    -0.203 F 
ATOM     80  C   UNL A   1      42.512  24.625  26.340  1.00  0.00     0.198 A 
ATOM     81  C   UNL A   1      43.973  26.410  25.677  1.00  0.00     0.198 A 
ATOM     82  F   UNL A   1      44.036  28.406  26.928  1.00  0.00    -0.203 F 
ATOM     83  F   UNL A   1      42.047  23.380  26.170  1.00  0.00    -0.200 F 
ATOM     84  C   UNL A   1      43.474  25.132  25.479  1.00  0.00     0.200 A 
ATOM     85  F   UNL A   1      44.895  26.905  24.840  1.00  0.00    -0.200 F 
ATOM     86  F   UNL A   1      43.927  24.382  24.465  1.00  0.00    -0.200 F 
ENDBRANCH  52  76
BRANCH  64  87
ATOM     87  C   UNL A   1      44.658  27.155  34.234  1.00  0.00     0.064 A 
ATOM     88  C   UNL A   1      45.948  27.700  34.336  1.00  0.00     0.173 A 
ATOM     89  C   UNL A   1      44.411  25.932  34.876  1.00  0.00     0.173 A 
ATOM     90  F   UNL A   1      46.241  28.859  33.728  1.00  0.00    -0.203 F 
ATOM     91  C   UNL A   1      46.958  27.026  35.019  1.00  0.00     0.198 A 
ATOM     92  C   UNL A   1      45.415  25.276  35.582  1.00  0.00     0.198 A 
ATOM     93  F   UNL A   1      43.194  25.371  34.815  1.00  0.00    -0.203 F 
ATOM     94  F   UNL A   1      48.197  27.537  35.054  1.00  0.00    -0.200 F 
ATOM     95  C   UNL A   1      46.691  25.818  35.645  1.00  0.00     0.200 A 
ATOM     96  F   UNL A   1      45.153  24.113  36.194  1.00  0.00    -0.200 F 
ATOM     97  F   UNL A   1      47.665  25.169  36.297  1.00  0.00    -0.200 F 
ENDBRANCH  64  87
ENDBRANCH  38  39
ENDBRANCH  30  33
ENDBRANCH  28  29
ENDBRANCH  27  28
ENDBRANCH  26  27
ENDBRANCH  25  26
ENDBRANCH   1  25
TORSDOF 17
ENDMDL
MODEL 2
REMARK VINA RESULT:     -11.8      0.846      1.999
REMARK SMILES C[C@@H]1CCCCN1S(=O)(=O)c1ccc(CCC(=O)NCCCCCCNC(=O)c2ccc(-c3c4nc(c(-c5c(F)c(F)c(F)c(F)c5F)c5ccc([nH]5)c(-c5c(F)c(F)c(F)c(F)c5F)c5nc(c(-c6c(F)c(F)c(F)c(F)c6F)c6ccc3[nH]6)C=C5)C=C4)cc2)cc1
REMARK SMILES IDX 21 1 20 2 19 3 17 4 18 5 16 7 15 8 14 9 11 10 12 11 93 12
REMARK SMILES IDX 13 13 92 14 8 15 9 16 10 17 7 18 1 19 2 20 3 21 4 22 6 23
REMARK SMILES IDX 5 24 22 25 23 26 24 27 25 28 26 29 27 30 28 32 29 33 30 34
REMARK SMILES IDX 91 35 31 36 90 37 32 38 33 39 34 40 84 41 35 42 89 43 83 44
REMARK SMILES IDX 85 45 36 46 88 47 82 48 81 49 37 51 69 52 49 53 68 54 50 55
REMARK SMILES IDX 53 56 67 57 86 58 51 59 52 60 66 62 87 63 54 64 38 65 39 66
REMARK SMILES IDX 47 67 40 68 41 69 45 70 48 71 42 72 43 73 46 74 44 75 70 76
REMARK SMILES IDX 71 77 79 78 72 79 73 80 77 81 80 82 74 83 75 84 78 85 76 86
REMARK SMILES IDX 55 87 56 88 64 89 57 90 58 91 62 92 65 93 59 94 60 95 63 96
REMARK SMILES IDX 61 97
REMARK H PARENT 19 6 26 31 85 50 53 61
REMARK Flexibility Score: inf
ROOT
ATOM      1  C   UNL A   1      33.023  26.185  21.688  1.00  0.00     0.021 C 
ENDROOT
BRANCH   1   2
ATOM      2  C   UNL A   1      31.496  26.196  21.581  1.00  0.00     0.116 C 
BRANCH   2   3
ATOM      3  N   UNL A   1      30.945  27.430  22.121  1.00  0.00    -0.356 N 
ATOM      4  C   UNL A   1      29.990  27.638  23.071  1.00  0.00     0.220 C 
ATOM      5  O   UNL A   1      29.585  28.790  23.245  1.00  0.00    -0.275 OA
ATOM      6  H   UNL A   1      31.324  28.252  21.735  1.00  0.00     0.163 HD
BRANCH   4   7
ATOM      7  C   UNL A   1      29.453  26.501  23.918  1.00  0.00     0.105 C 
BRANCH   7   8
ATOM      8  C   UNL A   1      30.280  26.265  25.189  1.00  0.00     0.045 C 
BRANCH   8   9
ATOM      9  C   UNL A   1      30.737  24.830  25.318  1.00  0.00    -0.047 A 
ATOM     10  C   UNL A   1      32.024  22.348  25.430  1.00  0.00     0.082 A 
ATOM     11  C   UNL A   1      31.306  22.710  24.284  1.00  0.00     0.022 A 
ATOM     12  C   UNL A   1      32.008  23.177  26.554  1.00  0.00     0.022 A 
ATOM     13  C   UNL A   1      30.667  23.953  24.229  1.00  0.00     0.005 A 
ATOM     14  C   UNL A   1      31.340  24.399  26.507  1.00  0.00     0.005 A 
BRANCH  10  15
ATOM     15  S   UNL A   1      33.305  21.121  25.287  1.00  0.00     0.243 S 
ATOM     16  O   UNL A   1      33.122  20.435  24.025  1.00  0.00    -0.207 OA
ATOM     17  O   UNL A   1      33.278  20.342  26.512  1.00  0.00    -0.207 OA
BRANCH  15  18
ATOM     18  N   UNL A   1      34.802  21.917  25.249  1.00  0.00    -0.195 NA
ATOM     19  C   UNL A   1      34.591  23.139  23.028  1.00  0.00     0.026 C 
ATOM     20  C   UNL A   1      34.966  23.209  24.508  1.00  0.00     0.070 C 
ATOM     21  C   UNL A   1      36.430  23.705  24.624  1.00  0.00     0.020 C 
ATOM     22  C   UNL A   1      37.214  23.022  25.737  1.00  0.00     0.003 C 
ATOM     23  C   UNL A   1      35.919  20.976  24.983  1.00  0.00     0.103 C 
ATOM     24  C   UNL A   1      37.236  21.515  25.524  1.00  0.00     0.017 C 
ENDBRANCH  15  18
ENDBRANCH  10  15
ENDBRANCH   8   9
ENDBRANCH   7   8
ENDBRANCH   4   7
ENDBRANCH   2   3
ENDBRANCH   1   2
BRANCH   1  25
ATOM     25  C   UNL A   1      33.627  27.145  22.718  1.00  0.00     0.002 C 
BRANCH  25  26
ATOM     26  C   UNL A   1      33.654  26.643  24.169  1.00  0.00     0.002 C 
BRANCH  26  27
ATOM     27  C   UNL A   1      33.444  27.694  25.269  1.00  0.00     0.021 C 
BRANCH  27  28
ATOM     28  C   UNL A   1      33.956  29.105  24.969  1.00  0.00     0.116 C 
BRANCH  28  29
ATOM     29  N   UNL A   1      33.167  30.146  25.609  1.00  0.00    -0.352 N 
ATOM     30  C   UNL A   1      33.371  30.850  26.771  1.00  0.00     0.251 C 
ATOM     31  H   UNL A   1      32.345  30.389  25.125  1.00  0.00     0.163 HD
ATOM     32  O   UNL A   1      32.499  31.625  27.160  1.00  0.00    -0.269 OA
BRANCH  30  33
ATOM     33  C   UNL A   1      34.598  30.688  27.597  1.00  0.00     0.039 A 
ATOM     34  C   UNL A   1      34.720  29.535  28.382  1.00  0.00     0.014 A 
ATOM     35  C   UNL A   1      35.589  31.665  27.680  1.00  0.00     0.014 A 
ATOM     36  C   UNL A   1      35.854  29.331  29.181  1.00  0.00     0.010 A 
ATOM     37  C   UNL A   1      36.745  31.433  28.442  1.00  0.00     0.010 A 
ATOM     38  C   UNL A   1      36.908  30.260  29.190  1.00  0.00    -0.014 A 
BRANCH  38  39
ATOM     39  C   UNL A   1      38.183  29.961  29.911  1.00  0.00     0.031 A 
ATOM     40  C   UNL A   1      38.472  30.472  31.302  1.00  0.00     0.074 A 
ATOM     41  C   UNL A   1      39.141  29.248  29.280  1.00  0.00     0.049 A 
ATOM     42  N   UNL A   1      39.497  30.211  32.081  1.00  0.00    -0.248 NA
ATOM     43  C   UNL A   1      37.516  31.426  31.882  1.00  0.00     0.031 C 
ATOM     44  C   UNL A   1      39.077  28.797  27.889  1.00  0.00     0.029 A 
ATOM     45  N   UNL A   1      40.348  28.766  29.728  1.00  0.00    -0.354 N 
ATOM     46  C   UNL A   1      39.313  30.968  33.231  1.00  0.00     0.074 A 
ATOM     47  C   UNL A   1      38.111  31.748  33.024  1.00  0.00     0.031 C 
ATOM     48  C   UNL A   1      40.160  28.053  27.617  1.00  0.00     0.029 A 
ATOM     49  C   UNL A   1      41.003  27.983  28.807  1.00  0.00     0.049 A 
ATOM     50  H   UNL A   1      40.709  28.962  30.622  1.00  0.00     0.167 HD
ATOM     51  C   UNL A   1      40.053  30.989  34.369  1.00  0.00     0.037 A 
ATOM     52  C   UNL A   1      42.134  27.261  28.912  1.00  0.00     0.037 A 
ATOM     53  C   UNL A   1      41.227  30.184  34.606  1.00  0.00     0.049 A 
ATOM     54  C   UNL A   1      42.880  27.218  30.216  1.00  0.00     0.074 A 
ATOM     55  C   UNL A   1      41.978  30.071  35.765  1.00  0.00     0.029 A 
ATOM     56  N   UNL A   1      41.819  29.351  33.670  1.00  0.00    -0.354 N 
ATOM     57  N   UNL A   1      42.621  27.838  31.340  1.00  0.00    -0.248 NA
ATOM     58  C   UNL A   1      44.068  26.352  30.269  1.00  0.00     0.031 C 
ATOM     59  C   UNL A   1      43.042  29.196  35.521  1.00  0.00     0.029 A 
ATOM     60  C   UNL A   1      42.930  28.731  34.223  1.00  0.00     0.049 A 
ATOM     61  H   UNL A   1      41.499  29.220  32.749  1.00  0.00     0.167 HD
ATOM     62  C   UNL A   1      43.590  27.417  32.239  1.00  0.00     0.074 A 
ATOM     63  C   UNL A   1      44.433  26.472  31.537  1.00  0.00     0.031 C 
ATOM     64  C   UNL A   1      43.766  27.786  33.531  1.00  0.00     0.037 A 
BRANCH  51  65
ATOM     65  C   UNL A   1      39.598  31.888  35.483  1.00  0.00     0.064 A 
ATOM     66  C   UNL A   1      40.055  33.212  35.587  1.00  0.00     0.173 A 
ATOM     67  C   UNL A   1      38.635  31.455  36.409  1.00  0.00     0.173 A 
ATOM     68  F   UNL A   1      40.976  33.675  34.727  1.00  0.00    -0.203 F 
ATOM     69  C   UNL A   1      39.586  34.058  36.587  1.00  0.00     0.198 A 
ATOM     70  C   UNL A   1      38.147  32.314  37.391  1.00  0.00     0.198 A 
ATOM     71  F   UNL A   1      38.152  30.205  36.348  1.00  0.00    -0.203 F 
ATOM     72  F   UNL A   1      40.068  35.305  36.687  1.00  0.00    -0.200 F 
ATOM     73  C   UNL A   1      38.627  33.612  37.483  1.00  0.00     0.200 A 
ATOM     74  F   UNL A   1      37.207  31.888  38.246  1.00  0.00    -0.200 F 
ATOM     75  F   UNL A   1      38.167  34.433  38.437  1.00  0.00    -0.200 F 
ENDBRANCH  51  65
BRANCH  52  76
ATOM     76  C   UNL A   1      42.592  26.437  27.763  1.00  0.00     0.064 A 
ATOM     77  C   UNL A   1      42.092  25.140  27.571  1.00  0.00     0.173 A 
ATOM     78  C   UNL A   1      43.541  26.916  26.851  1.00  0.00     0.173 A 
ATOM     79  F   UNL A   1      41.198  24.634  28.434  1.00  0.00    -0.203 F 
ATOM     80  C   UNL A   1      42.544  24.343  26.523  1.00  0.00     0.198 A 
ATOM     81  C   UNL A   1      43.974  26.126  25.788  1.00  0.00     0.198 A 
ATOM     82  F   UNL A   1      44.044  28.151  26.991  1.00  0.00    -0.203 F 
ATOM     83  F   UNL A   1      42.089  23.090  26.392  1.00  0.00    -0.200 F 
ATOM     84  C   UNL A   1      43.482  24.839  25.630  1.00  0.00     0.200 A 
ATOM     85  F   UNL A   1      44.872  26.610  24.919  1.00  0.00    -0.200 F 
ATOM     86  F   UNL A   1      43.920  24.070  24.623  1.00  0.00    -0.200 F 
ENDBRANCH  52  76
BRANCH  64  87
ATOM     87  C   UNL A   1      44.895  27.141  34.282  1.00  0.00     0.064 A 
ATOM     88  C   UNL A   1      44.720  25.941  34.988  1.00  0.00     0.173 A 
ATOM     89  C   UNL A   1      46.169  27.730  34.296  1.00  0.00     0.173 A 
ATOM     90  F   UNL A   1      43.518  25.346  35.020  1.00  0.00    -0.203 F 
ATOM     91  C   UNL A   1      45.767  25.376  35.711  1.00  0.00     0.198 A 
ATOM     92  C   UNL A   1      47.221  27.147  34.997  1.00  0.00     0.198 A 
ATOM     93  F   UNL A   1      46.392  28.874  33.632  1.00  0.00    -0.203 F 
ATOM     94  F   UNL A   1      45.561  24.261  36.427  1.00  0.00    -0.200 F 
ATOM     95  C   UNL A   1      47.017  25.976  35.713  1.00  0.00     0.200 A 
ATOM     96  F   UNL A   1      48.431  27.723  34.989  1.00  0.00    -0.200 F 
ATOM     97  F   UNL A   1      48.022  25.433  36.414  1.00  0.00    -0.200 F 
ENDBRANCH  64  87
ENDBRANCH  38  39
ENDBRANCH  30  33
ENDBRANCH  28  29
ENDBRANCH  27  28
ENDBRANCH  26  27
ENDBRANCH  25  26
ENDBRANCH   1  25
TORSDOF 17
ENDMDL
MODEL 3
REMARK VINA RESULT:     -11.7      4.065      9.583
REMARK SMILES C[C@@H]1CCCCN1S(=O)(=O)c1ccc(CCC(=O)NCCCCCCNC(=O)c2ccc(-c3c4nc(c(-c5c(F)c(F)c(F)c(F)c5F)c5ccc([nH]5)c(-c5c(F)c(F)c(F)c(F)c5F)c5nc(c(-c6c(F)c(F)c(F)c(F)c6F)c6ccc3[nH]6)C=C5)C=C4)cc2)cc1
REMARK SMILES IDX 21 1 20 2 19 3 17 4 18 5 16 7 15 8 14 9 11 10 12 11 93 12
REMARK SMILES IDX 13 13 92 14 8 15 9 16 10 17 7 18 1 19 2 20 3 21 4 22 6 23
REMARK SMILES IDX 5 24 22 25 23 26 24 27 25 28 26 29 27 30 28 32 29 33 30 34
REMARK SMILES IDX 91 35 31 36 90 37 32 38 33 39 34 40 84 41 35 42 89 43 83 44
REMARK SMILES IDX 85 45 36 46 88 47 82 48 81 49 37 51 69 52 49 53 68 54 50 55
REMARK SMILES IDX 53 56 67 57 86 58 51 59 52 60 66 62 87 63 54 64 38 65 39 66
REMARK SMILES IDX 47 67 40 68 41 69 45 70 48 71 42 72 43 73 46 74 44 75 70 76
REMARK SMILES IDX 71 77 79 78 72 79 73 80 77 81 80 82 74 83 75 84 78 85 76 86
REMARK SMILES IDX 55 87 56 88 64 89 57 90 58 91 62 92 65 93 59 94 60 95 63 96
REMARK SMILES IDX 61 97
REMARK H PARENT 19 6 26 31 85 50 53 61
REMARK Flexibility Score: inf
ROOT
ATOM      1  C   UNL A   1      31.836  23.528  26.866  1.00  0.00     0.021 C 
ENDROOT
BRANCH   1   2
ATOM      2  C   UNL A   1      31.066  22.909  25.697  1.00  0.00     0.116 C 
BRANCH   2   3
ATOM      3  N   UNL A   1      31.351  21.487  25.580  1.00  0.00    -0.356 N 
ATOM      4  C   UNL A   1      32.204  20.814  24.758  1.00  0.00     0.220 C 
ATOM      5  O   UNL A   1      32.151  19.582  24.748  1.00  0.00    -0.275 OA
ATOM      6  H   UNL A   1      30.841  20.914  26.198  1.00  0.00     0.163 HD
BRANCH   4   7
ATOM      7  C   UNL A   1      33.216  21.544  23.897  1.00  0.00     0.105 C 
BRANCH   7   8
ATOM      8  C   UNL A   1      32.570  22.284  22.718  1.00  0.00     0.045 C 
BRANCH   8   9
ATOM      9  C   UNL A   1      32.985  23.736  22.655  1.00  0.00    -0.047 A 
ATOM     10  C   UNL A   1      33.359  26.504  22.821  1.00  0.00     0.082 A 
ATOM     11  C   UNL A   1      32.722  25.952  21.704  1.00  0.00     0.022 A 
ATOM     12  C   UNL A   1      33.904  25.666  23.797  1.00  0.00     0.022 A 
ATOM     13  C   UNL A   1      32.531  24.568  21.626  1.00  0.00     0.005 A 
ATOM     14  C   UNL A   1      33.743  24.286  23.697  1.00  0.00     0.005 A 
BRANCH  10  15
ATOM     15  S   UNL A   1      33.058  28.210  23.224  1.00  0.00     0.243 S 
ATOM     16  O   UNL A   1      31.977  28.680  22.383  1.00  0.00    -0.207 OA
ATOM     17  O   UNL A   1      34.339  28.891  23.156  1.00  0.00    -0.207 OA
BRANCH  15  18
ATOM     18  N   UNL A   1      32.550  28.292  24.841  1.00  0.00    -0.195 NA
ATOM     19  C   UNL A   1      30.441  26.877  24.709  1.00  0.00     0.026 C 
ATOM     20  C   UNL A   1      31.742  27.187  25.449  1.00  0.00     0.070 C 
ATOM     21  C   UNL A   1      31.404  27.526  26.923  1.00  0.00     0.020 C 
ATOM     22  C   UNL A   1      32.264  28.642  27.500  1.00  0.00     0.003 C 
ATOM     23  C   UNL A   1      32.007  29.632  25.180  1.00  0.00     0.103 C 
ATOM     24  C   UNL A   1      32.115  29.911  26.672  1.00  0.00     0.017 C 
ENDBRANCH  15  18
ENDBRANCH  10  15
ENDBRANCH   8   9
ENDBRANCH   7   8
ENDBRANCH   4   7
ENDBRANCH   2   3
ENDBRANCH   1   2
BRANCH   1  25
ATOM     25  C   UNL A   1      32.881  22.626  27.529  1.00  0.00     0.002 C 
BRANCH  25  26
ATOM     26  C   UNL A   1      34.348  22.959  27.222  1.00  0.00     0.002 C 
BRANCH  26  27
ATOM     27  C   UNL A   1      35.224  21.812  26.697  1.00  0.00     0.021 C 
BRANCH  27  28
ATOM     28  C   UNL A   1      36.363  22.203  25.752  1.00  0.00     0.116 C 
BRANCH  28  29
ATOM     29  N   UNL A   1      37.463  21.251  25.760  1.00  0.00    -0.352 N 
ATOM     30  C   UNL A   1      38.796  21.413  26.051  1.00  0.00     0.251 C 
ATOM     31  H   UNL A   1      37.208  20.333  25.514  1.00  0.00     0.163 HD
ATOM     32  O   UNL A   1      39.561  20.462  25.890  1.00  0.00    -0.269 OA
BRANCH  30  33
ATOM     33  C   UNL A   1      39.358  22.705  26.525  1.00  0.00     0.039 A 
ATOM     34  C   UNL A   1      40.388  22.671  27.474  1.00  0.00     0.014 A 
ATOM     35  C   UNL A   1      38.855  23.943  26.125  1.00  0.00     0.014 A 
ATOM     36  C   UNL A   1      40.954  23.860  27.958  1.00  0.00     0.010 A 
ATOM     37  C   UNL A   1      39.458  25.128  26.575  1.00  0.00     0.010 A 
ATOM     38  C   UNL A   1      40.526  25.109  27.481  1.00  0.00    -0.014 A 
BRANCH  38  39
ATOM     39  C   UNL A   1      41.242  26.362  27.874  1.00  0.00     0.031 A 
ATOM     40  C   UNL A   1      42.665  26.652  27.461  1.00  0.00     0.074 A 
ATOM     41  C   UNL A   1      40.616  27.251  28.674  1.00  0.00     0.049 A 
ATOM     42  N   UNL A   1      43.376  27.740  27.653  1.00  0.00    -0.248 NA
ATOM     43  C   UNL A   1      43.402  25.577  26.782  1.00  0.00     0.031 C 
ATOM     44  C   UNL A   1      39.294  27.061  29.273  1.00  0.00     0.029 A 
ATOM     45  N   UNL A   1      40.998  28.498  29.110  1.00  0.00    -0.354 N 
ATOM     46  C   UNL A   1      44.635  27.479  27.128  1.00  0.00     0.074 A 
ATOM     47  C   UNL A   1      44.613  26.107  26.665  1.00  0.00     0.031 C 
ATOM     48  C   UNL A   1      38.949  28.171  29.942  1.00  0.00     0.029 A 
ATOM     49  C   UNL A   1      40.027  29.149  29.833  1.00  0.00     0.049 A 
ATOM     50  H   UNL A   1      41.883  28.887  28.923  1.00  0.00     0.167 HD
ATOM     51  C   UNL A   1      45.701  28.311  27.008  1.00  0.00     0.037 A 
ATOM     52  C   UNL A   1      39.988  30.401  30.326  1.00  0.00     0.037 A 
ATOM     53  C   UNL A   1      45.721  29.692  27.424  1.00  0.00     0.049 A 
ATOM     54  C   UNL A   1      41.140  31.338  30.090  1.00  0.00     0.074 A 
ATOM     55  C   UNL A   1      46.725  30.632  27.251  1.00  0.00     0.029 A 
ATOM     56  N   UNL A   1      44.691  30.334  28.093  1.00  0.00    -0.354 N 
ATOM     57  N   UNL A   1      42.274  31.117  29.475  1.00  0.00    -0.248 NA
ATOM     58  C   UNL A   1      40.992  32.709  30.601  1.00  0.00     0.031 C 
ATOM     59  C   UNL A   1      46.316  31.833  27.842  1.00  0.00     0.029 A 
ATOM     60  C   UNL A   1      45.040  31.654  28.346  1.00  0.00     0.049 A 
ATOM     61  H   UNL A   1      43.839  29.916  28.349  1.00  0.00     0.167 HD
ATOM     62  C   UNL A   1      42.960  32.323  29.498  1.00  0.00     0.074 A 
ATOM     63  C   UNL A   1      42.107  33.280  30.170  1.00  0.00     0.031 C 
ATOM     64  C   UNL A   1      44.191  32.609  29.008  1.00  0.00     0.037 A 
BRANCH  51  65
ATOM     65  C   UNL A   1      46.942  27.768  26.360  1.00  0.00     0.064 A 
ATOM     66  C   UNL A   1      47.988  27.226  27.124  1.00  0.00     0.173 A 
ATOM     67  C   UNL A   1      47.058  27.711  24.962  1.00  0.00     0.173 A 
ATOM     68  F   UNL A   1      47.928  27.256  28.464  1.00  0.00    -0.203 F 
ATOM     69  C   UNL A   1      49.111  26.673  26.515  1.00  0.00     0.198 A 
ATOM     70  C   UNL A   1      48.170  27.131  24.356  1.00  0.00     0.198 A 
ATOM     71  F   UNL A   1      46.081  28.201  24.182  1.00  0.00    -0.203 F 
ATOM     72  F   UNL A   1      50.113  26.197  27.269  1.00  0.00    -0.200 F 
ATOM     73  C   UNL A   1      49.198  26.617  25.133  1.00  0.00     0.200 A 
ATOM     74  F   UNL A   1      48.244  27.061  23.019  1.00  0.00    -0.200 F 
ATOM     75  F   UNL A   1      50.273  26.071  24.549  1.00  0.00    -0.200 F 
ENDBRANCH  51  65
BRANCH  52  76
ATOM     76  C   UNL A   1      38.768  30.882  31.024  1.00  0.00     0.064 A 
ATOM     77  C   UNL A   1      37.703  31.436  30.299  1.00  0.00     0.173 A 
ATOM     78  C   UNL A   1      38.646  30.812  32.418  1.00  0.00     0.173 A 
ATOM     79  F   UNL A   1      37.786  31.542  28.964  1.00  0.00    -0.203 F 
ATOM     80  C   UNL A   1      36.572  31.928  30.945  1.00  0.00     0.198 A 
ATOM     81  C   UNL A   1      37.503  31.281  33.061  1.00  0.00     0.198 A 
ATOM     82  F   UNL A   1      39.637  30.286  33.153  1.00  0.00    -0.203 F 
ATOM     83  F   UNL A   1      35.591  32.499  30.233  1.00  0.00    -0.200 F 
ATOM     84  C   UNL A   1      36.472  31.846  32.326  1.00  0.00     0.200 A 
ATOM     85  F   UNL A   1      37.403  31.192  34.394  1.00  0.00    -0.200 F 
ATOM     86  F   UNL A   1      35.384  32.322  32.948  1.00  0.00    -0.200 F 
ENDBRANCH  52  76
BRANCH  64  87
ATOM     87  C   UNL A   1      44.677  34.022  29.151  1.00  0.00     0.064 A 
ATOM     88  C   UNL A   1      44.442  34.986  28.157  1.00  0.00     0.173 A 
ATOM     89  C   UNL A   1      45.387  34.419  30.294  1.00  0.00     0.173 A 
ATOM     90  F   UNL A   1      43.782  34.654  27.038  1.00  0.00    -0.203 F 
ATOM     91  C   UNL A   1      44.932  36.283  28.288  1.00  0.00     0.198 A 
ATOM     92  C   UNL A   1      45.850  35.725  30.434  1.00  0.00     0.198 A 
ATOM     93  F   UNL A   1      45.633  33.539  31.276  1.00  0.00    -0.203 F 
ATOM     94  F   UNL A   1      44.746  37.170  27.300  1.00  0.00    -0.200 F 
ATOM     95  C   UNL A   1      45.632  36.653  29.426  1.00  0.00     0.200 A 
ATOM     96  F   UNL A   1      46.518  36.083  31.539  1.00  0.00    -0.200 F 
ATOM     97  F   UNL A   1      46.108  37.900  29.547  1.00  0.00    -0.200 F 
ENDBRANCH  64  87
ENDBRANCH  38  39
ENDBRANCH  30  33
ENDBRANCH  28  29
ENDBRANCH  27  28
ENDBRANCH  26  27
ENDBRANCH  25  26
ENDBRANCH   1  25
TORSDOF 17
ENDMDL
