MODEL 1
REMARK VINA RESULT:     -10.7      0.000      0.000
REMARK SMILES Cc1cc(S(=O)(=O)N[C@H](CO)C(C)C)sc1C(=O)NCCCCCCNC(=O)c1ccc(-c2c3nc(c(-c4c(F)c(F)c(F)c(F)c4F)c4ccc([nH]4)c(-c4c(F)c(F)c(F)c(F)c4F)c4nc(c(-c5c(F)c(F)c(F)c(F)c5F)c5ccc2[nH]5)C=C4)C=C3)cc1
REMARK SMILES IDX 21 1 20 2 19 3 17 4 18 5 16 7 1 8 2 9 3 10 4 11 15 12 5 13
REMARK SMILES IDX 6 14 7 15 8 16 9 18 12 19 13 20 14 21 10 22 11 23 22 25
REMARK SMILES IDX 23 26 24 27 25 28 26 29 27 30 28 32 29 33 30 34 91 35 31 36
REMARK SMILES IDX 90 37 32 38 33 39 34 40 84 41 35 42 89 43 83 44 85 45 36 46
REMARK SMILES IDX 88 47 82 48 81 49 37 51 69 52 49 53 68 54 50 55 53 56 67 57
REMARK SMILES IDX 86 58 51 59 52 60 66 62 87 63 54 64 38 65 39 66 47 67 40 68
REMARK SMILES IDX 41 69 45 70 48 71 42 72 43 73 46 74 44 75 70 76 71 77 79 78
REMARK SMILES IDX 72 79 73 80 77 81 80 82 74 83 75 84 78 85 76 86 55 87 56 88
REMARK SMILES IDX 64 89 57 90 58 91 62 92 65 93 59 94 60 95 63 96 61 97
REMARK H PARENT 19 6 8 17 11 24 26 31 85 50 53 61
REMARK Flexibility Score: inf
ROOT
ATOM      1  C   UNL A   1      33.741  31.842  27.628  1.00  0.00     0.021 C 
ENDROOT
BRANCH   1   2
ATOM      2  C   UNL A   1      34.041  30.363  27.364  1.00  0.00     0.116 C 
BRANCH   2   3
ATOM      3  N   UNL A   1      32.880  29.557  27.626  1.00  0.00    -0.351 N 
ATOM      4  C   UNL A   1      32.148  28.687  26.870  1.00  0.00     0.261 C 
ATOM      5  O   UNL A   1      31.418  27.969  27.566  1.00  0.00    -0.268 OA
ATOM      6  H   UNL A   1      32.541  29.651  28.544  1.00  0.00     0.163 HD
BRANCH   4   7
ATOM      7  C   UNL A   1      32.143  28.602  25.408  1.00  0.00     0.096 A 
ATOM      8  C   UNL A   1      30.296  30.085  24.251  1.00  0.00     0.046 C 
ATOM      9  C   UNL A   1      31.367  29.053  24.334  1.00  0.00    -0.026 A 
ATOM     10  C   UNL A   1      31.568  28.195  23.180  1.00  0.00     0.038 A 
ATOM     11  C   UNL A   1      32.466  27.179  23.410  1.00  0.00     0.135 A 
ATOM     12  S   UNL A   1      33.391  27.545  24.784  1.00  0.00    -0.117 S 
BRANCH  11  13
ATOM     13  S   UNL A   1      32.849  25.672  22.572  1.00  0.00     0.250 S 
ATOM     14  O   UNL A   1      31.614  25.255  21.943  1.00  0.00    -0.206 OA
ATOM     15  O   UNL A   1      34.028  25.958  21.787  1.00  0.00    -0.206 OA
BRANCH  13  16
ATOM     16  N   UNL A   1      33.291  24.511  23.708  1.00  0.00    -0.205 NA
ATOM     17  H   UNL A   1      32.443  24.290  24.230  1.00  0.00     0.141 HD
BRANCH  16  18
ATOM     18  C   UNL A   1      33.897  23.192  23.324  1.00  0.00     0.098 C 
BRANCH  18  19
ATOM     19  C   UNL A   1      35.215  22.866  24.061  1.00  0.00     0.003 C 
ATOM     20  C   UNL A   1      35.214  21.463  24.685  1.00  0.00     0.009 C 
ATOM     21  C   UNL A   1      36.428  22.953  23.126  1.00  0.00     0.009 C 
ENDBRANCH  18  19
BRANCH  18  22
ATOM     22  C   UNL A   1      32.831  22.079  23.405  1.00  0.00     0.176 C 
BRANCH  22  23
ATOM     23  O   UNL A   1      31.785  22.316  22.461  1.00  0.00    -0.395 OA
ATOM     24  H   UNL A   1      31.975  23.127  21.963  1.00  0.00     0.210 HD
ENDBRANCH  22  23
ENDBRANCH  18  22
ENDBRANCH  16  18
ENDBRANCH  13  16
ENDBRANCH  11  13
ENDBRANCH   4   7
ENDBRANCH   2   3
ENDBRANCH   1   2
BRANCH   1  25
ATOM     25  C   UNL A   1      34.404  32.391  28.898  1.00  0.00     0.002 C 
BRANCH  25  26
ATOM     26  C   UNL A   1      34.542  33.918  28.947  1.00  0.00     0.002 C 
BRANCH  26  27
ATOM     27  C   UNL A   1      33.224  34.697  28.929  1.00  0.00     0.021 C 
BRANCH  27  28
ATOM     28  C   UNL A   1      33.330  36.142  29.409  1.00  0.00     0.116 C 
BRANCH  28  29
ATOM     29  N   UNL A   1      32.503  36.383  30.580  1.00  0.00    -0.352 N 
ATOM     30  C   UNL A   1      32.598  35.860  31.844  1.00  0.00     0.251 C 
ATOM     31  H   UNL A   1      31.764  37.020  30.445  1.00  0.00     0.163 HD
ATOM     32  O   UNL A   1      31.675  36.011  32.640  1.00  0.00    -0.269 OA
BRANCH  30  33
ATOM     33  C   UNL A   1      33.802  35.108  32.255  1.00  0.00     0.039 A 
ATOM     34  C   UNL A   1      33.650  33.808  32.748  1.00  0.00     0.014 A 
ATOM     35  C   UNL A   1      35.070  35.696  32.206  1.00  0.00     0.014 A 
ATOM     36  C   UNL A   1      34.774  33.080  33.146  1.00  0.00     0.010 A 
ATOM     37  C   UNL A   1      36.195  34.950  32.550  1.00  0.00     0.010 A 
ATOM     38  C   UNL A   1      36.056  33.639  33.030  1.00  0.00    -0.014 A 
BRANCH  38  39
ATOM     39  C   UNL A   1      37.265  32.873  33.420  1.00  0.00     0.031 A 
ATOM     40  C   UNL A   1      37.954  33.165  34.722  1.00  0.00     0.074 A 
ATOM     41  C   UNL A   1      37.779  31.964  32.572  1.00  0.00     0.049 A 
ATOM     42  N   UNL A   1      39.066  32.667  35.202  1.00  0.00    -0.248 NA
ATOM     43  C   UNL A   1      37.322  34.171  35.590  1.00  0.00     0.031 C 
ATOM     44  C   UNL A   1      37.225  31.621  31.261  1.00  0.00     0.029 A 
ATOM     45  N   UNL A   1      38.894  31.170  32.680  1.00  0.00    -0.354 N 
ATOM     46  C   UNL A   1      39.276  33.313  36.413  1.00  0.00     0.074 A 
ATOM     47  C   UNL A   1      38.199  34.265  36.578  1.00  0.00     0.031 C 
ATOM     48  C   UNL A   1      37.993  30.677  30.694  1.00  0.00     0.029 A 
ATOM     49  C   UNL A   1      39.109  30.372  31.585  1.00  0.00     0.049 A 
ATOM     50  H   UNL A   1      39.484  31.175  33.469  1.00  0.00     0.167 HD
ATOM     51  C   UNL A   1      40.270  33.116  37.312  1.00  0.00     0.037 A 
ATOM     52  C   UNL A   1      40.097  29.495  31.328  1.00  0.00     0.037 A 
ATOM     53  C   UNL A   1      41.319  32.143  37.164  1.00  0.00     0.049 A 
ATOM     54  C   UNL A   1      41.178  29.281  32.352  1.00  0.00     0.074 A 
ATOM     55  C   UNL A   1      42.332  31.820  38.050  1.00  0.00     0.029 A 
ATOM     56  N   UNL A   1      41.487  31.331  36.051  1.00  0.00    -0.354 N 
ATOM     57  N   UNL A   1      41.336  29.857  33.517  1.00  0.00    -0.248 NA
ATOM     58  C   UNL A   1      42.214  28.292  32.023  1.00  0.00     0.031 C 
ATOM     59  C   UNL A   1      43.132  30.834  37.461  1.00  0.00     0.029 A 
ATOM     60  C   UNL A   1      42.597  30.518  36.222  1.00  0.00     0.049 A 
ATOM     61  H   UNL A   1      40.905  31.332  35.257  1.00  0.00     0.167 HD
ATOM     62  C   UNL A   1      42.474  29.288  34.072  1.00  0.00     0.074 A 
ATOM     63  C   UNL A   1      42.960  28.311  33.119  1.00  0.00     0.031 C 
ATOM     64  C   UNL A   1      43.063  29.550  35.264  1.00  0.00     0.037 A 
BRANCH  51  65
ATOM     65  C   UNL A   1      40.265  33.972  38.543  1.00  0.00     0.064 A 
ATOM     66  C   UNL A   1      39.505  33.630  39.672  1.00  0.00     0.173 A 
ATOM     67  C   UNL A   1      41.050  35.133  38.605  1.00  0.00     0.173 A 
ATOM     68  F   UNL A   1      38.728  32.538  39.656  1.00  0.00    -0.203 F 
ATOM     69  C   UNL A   1      39.509  34.435  40.808  1.00  0.00     0.198 A 
ATOM     70  C   UNL A   1      41.071  35.923  39.753  1.00  0.00     0.198 A 
ATOM     71  F   UNL A   1      41.797  35.501  37.555  1.00  0.00    -0.203 F 
ATOM     72  F   UNL A   1      38.738  34.114  41.857  1.00  0.00    -0.200 F 
ATOM     73  C   UNL A   1      40.295  35.577  40.850  1.00  0.00     0.200 A 
ATOM     74  F   UNL A   1      41.837  37.020  39.796  1.00  0.00    -0.200 F 
ATOM     75  F   UNL A   1      40.299  36.350  41.945  1.00  0.00    -0.200 F 
ENDBRANCH  51  65
BRANCH  52  76
ATOM     76  C   UNL A   1      40.091  28.731  30.055  1.00  0.00     0.064 A 
ATOM     77  C   UNL A   1      39.458  27.484  29.974  1.00  0.00     0.173 A 
ATOM     78  C   UNL A   1      40.701  29.235  28.898  1.00  0.00     0.173 A 
ATOM     79  F   UNL A   1      38.880  26.954  31.062  1.00  0.00    -0.203 F 
ATOM     80  C   UNL A   1      39.446  26.761  28.784  1.00  0.00     0.198 A 
ATOM     81  C   UNL A   1      40.669  28.521  27.703  1.00  0.00     0.198 A 
ATOM     82  F   UNL A   1      41.314  30.427  28.926  1.00  0.00    -0.203 F 
ATOM     83  F   UNL A   1      38.863  25.555  28.740  1.00  0.00    -0.200 F 
ATOM     84  C   UNL A   1      40.046  27.283  27.647  1.00  0.00     0.200 A 
ATOM     85  F   UNL A   1      41.240  29.033  26.604  1.00  0.00    -0.200 F 
ATOM     86  F   UNL A   1      40.028  26.590  26.501  1.00  0.00    -0.200 F 
ENDBRANCH  52  76
BRANCH  64  87
ATOM     87  C   UNL A   1      44.282  28.753  35.614  1.00  0.00     0.064 A 
ATOM     88  C   UNL A   1      45.569  29.203  35.283  1.00  0.00     0.173 A 
ATOM     89  C   UNL A   1      44.165  27.548  36.322  1.00  0.00     0.173 A 
ATOM     90  F   UNL A   1      45.729  30.342  34.594  1.00  0.00    -0.203 F 
ATOM     91  C   UNL A   1      46.695  28.463  35.632  1.00  0.00     0.198 A 
ATOM     92  C   UNL A   1      45.294  26.822  36.688  1.00  0.00     0.198 A 
ATOM     93  F   UNL A   1      42.956  27.080  36.663  1.00  0.00    -0.203 F 
ATOM     94  F   UNL A   1      47.913  28.890  35.273  1.00  0.00    -0.200 F 
ATOM     95  C   UNL A   1      46.557  27.277  36.339  1.00  0.00     0.200 A 
ATOM     96  F   UNL A   1      45.161  25.681  37.378  1.00  0.00    -0.200 F 
ATOM     97  F   UNL A   1      47.643  26.568  36.678  1.00  0.00    -0.200 F 
ENDBRANCH  64  87
ENDBRANCH  38  39
ENDBRANCH  30  33
ENDBRANCH  28  29
ENDBRANCH  27  28
ENDBRANCH  26  27
ENDBRANCH  25  26
ENDBRANCH   1  25
TORSDOF 19
ENDMDL
MODEL 2
REMARK VINA RESULT:     -10.7      1.840      7.706
REMARK SMILES Cc1cc(S(=O)(=O)N[C@H](CO)C(C)C)sc1C(=O)NCCCCCCNC(=O)c1ccc(-c2c3nc(c(-c4c(F)c(F)c(F)c(F)c4F)c4ccc([nH]4)c(-c4c(F)c(F)c(F)c(F)c4F)c4nc(c(-c5c(F)c(F)c(F)c(F)c5F)c5ccc2[nH]5)C=C4)C=C3)cc1
REMARK SMILES IDX 21 1 20 2 19 3 17 4 18 5 16 7 1 8 2 9 3 10 4 11 15 12 5 13
REMARK SMILES IDX 6 14 7 15 8 16 9 18 12 19 13 20 14 21 10 22 11 23 22 25
REMARK SMILES IDX 23 26 24 27 25 28 26 29 27 30 28 32 29 33 30 34 91 35 31 36
REMARK SMILES IDX 90 37 32 38 33 39 34 40 84 41 35 42 89 43 83 44 85 45 36 46
REMARK SMILES IDX 88 47 82 48 81 49 37 51 69 52 49 53 68 54 50 55 53 56 67 57
REMARK SMILES IDX 86 58 51 59 52 60 66 62 87 63 54 64 38 65 39 66 47 67 40 68
REMARK SMILES IDX 41 69 45 70 48 71 42 72 43 73 46 74 44 75 70 76 71 77 79 78
REMARK SMILES IDX 72 79 73 80 77 81 80 82 74 83 75 84 78 85 76 86 55 87 56 88
REMARK SMILES IDX 64 89 57 90 58 91 62 92 65 93 59 94 60 95 63 96 61 97
REMARK H PARENT 19 6 8 17 11 24 26 31 85 50 53 61
REMARK Flexibility Score: inf
ROOT
ATOM      1  C   UNL A   1      32.777  28.841  25.637  1.00  0.00     0.021 C 
ENDROOT
BRANCH   1   2
ATOM      2  C   UNL A   1      33.426  28.750  24.252  1.00  0.00     0.116 C 
BRANCH   2   3
ATOM      3  N   UNL A   1      32.499  29.157  23.231  1.00  0.00    -0.351 N 
ATOM      4  C   UNL A   1      31.417  28.561  22.651  1.00  0.00     0.261 C 
ATOM      5  O   UNL A   1      30.712  29.375  22.039  1.00  0.00    -0.268 OA
ATOM      6  H   UNL A   1      32.684  30.055  22.875  1.00  0.00     0.163 HD
BRANCH   4   7
ATOM      7  C   UNL A   1      31.100  27.131  22.670  1.00  0.00     0.096 A 
ATOM      8  C   UNL A   1      28.925  26.530  24.033  1.00  0.00     0.046 C 
ATOM      9  C   UNL A   1      30.187  26.267  23.285  1.00  0.00    -0.026 A 
ATOM     10  C   UNL A   1      30.724  24.918  23.319  1.00  0.00     0.038 A 
ATOM     11  C   UNL A   1      31.965  24.814  22.736  1.00  0.00     0.135 A 
ATOM     12  S   UNL A   1      32.242  26.170  21.755  1.00  0.00    -0.117 S 
BRANCH  11  13
ATOM     13  S   UNL A   1      33.236  23.587  22.775  1.00  0.00     0.250 S 
ATOM     14  O   UNL A   1      32.811  22.563  21.846  1.00  0.00    -0.206 OA
ATOM     15  O   UNL A   1      34.472  24.309  22.578  1.00  0.00    -0.206 OA
BRANCH  13  16
ATOM     16  N   UNL A   1      33.303  22.918  24.318  1.00  0.00    -0.205 NA
ATOM     17  H   UNL A   1      34.126  22.316  24.329  1.00  0.00     0.141 HD
BRANCH  16  18
ATOM     18  C   UNL A   1      33.387  23.757  25.560  1.00  0.00     0.098 C 
BRANCH  18  19
ATOM     19  C   UNL A   1      32.366  23.367  26.653  1.00  0.00     0.003 C 
ATOM     20  C   UNL A   1      31.179  22.567  26.097  1.00  0.00     0.009 C 
ATOM     21  C   UNL A   1      33.010  22.526  27.762  1.00  0.00     0.009 C 
ENDBRANCH  18  19
BRANCH  18  22
ATOM     22  C   UNL A   1      34.848  23.828  26.051  1.00  0.00     0.176 C 
BRANCH  22  23
ATOM     23  O   UNL A   1      35.734  23.281  25.072  1.00  0.00    -0.395 OA
ATOM     24  H   UNL A   1      35.698  22.312  25.109  1.00  0.00     0.210 HD
ENDBRANCH  22  23
ENDBRANCH  18  22
ENDBRANCH  16  18
ENDBRANCH  13  16
ENDBRANCH  11  13
ENDBRANCH   4   7
ENDBRANCH   2   3
ENDBRANCH   1   2
BRANCH   1  25
ATOM     25  C   UNL A   1      32.707  30.269  26.195  1.00  0.00     0.002 C 
BRANCH  25  26
ATOM     26  C   UNL A   1      31.330  30.937  26.089  1.00  0.00     0.002 C 
BRANCH  26  27
ATOM     27  C   UNL A   1      31.286  32.416  26.484  1.00  0.00     0.021 C 
BRANCH  27  28
ATOM     28  C   UNL A   1      32.539  32.924  27.193  1.00  0.00     0.116 C 
BRANCH  28  29
ATOM     29  N   UNL A   1      32.387  34.300  27.636  1.00  0.00    -0.352 N 
ATOM     30  C   UNL A   1      33.007  34.965  28.663  1.00  0.00     0.251 C 
ATOM     31  H   UNL A   1      31.742  34.837  27.121  1.00  0.00     0.163 HD
ATOM     32  O   UNL A   1      32.587  36.059  29.028  1.00  0.00    -0.269 OA
BRANCH  30  33
ATOM     33  C   UNL A   1      34.178  34.369  29.341  1.00  0.00     0.039 A 
ATOM     34  C   UNL A   1      33.974  33.603  30.493  1.00  0.00     0.014 A 
ATOM     35  C   UNL A   1      35.476  34.605  28.877  1.00  0.00     0.014 A 
ATOM     36  C   UNL A   1      35.065  33.034  31.153  1.00  0.00     0.010 A 
ATOM     37  C   UNL A   1      36.559  33.991  29.502  1.00  0.00     0.010 A 
ATOM     38  C   UNL A   1      36.364  33.207  30.650  1.00  0.00    -0.014 A 
BRANCH  38  39
ATOM     39  C   UNL A   1      37.535  32.588  31.318  1.00  0.00     0.031 A 
ATOM     40  C   UNL A   1      38.265  31.453  30.657  1.00  0.00     0.074 A 
ATOM     41  C   UNL A   1      37.897  33.001  32.546  1.00  0.00     0.049 A 
ATOM     42  N   UNL A   1      39.253  30.726  31.114  1.00  0.00    -0.248 NA
ATOM     43  C   UNL A   1      37.805  31.068  29.314  1.00  0.00     0.031 C 
ATOM     44  C   UNL A   1      37.241  34.065  33.307  1.00  0.00     0.029 A 
ATOM     45  N   UNL A   1      38.899  32.565  33.377  1.00  0.00    -0.354 N 
ATOM     46  C   UNL A   1      39.518  29.787  30.126  1.00  0.00     0.074 A 
ATOM     47  C   UNL A   1      38.563  30.011  29.062  1.00  0.00     0.031 C 
ATOM     48  C   UNL A   1      37.866  34.209  34.487  1.00  0.00     0.029 A 
ATOM     49  C   UNL A   1      38.945  33.229  34.577  1.00  0.00     0.049 A 
ATOM     50  H   UNL A   1      39.524  31.844  33.134  1.00  0.00     0.167 HD
ATOM     51  C   UNL A   1      40.481  28.835  30.103  1.00  0.00     0.037 A 
ATOM     52  C   UNL A   1      39.763  33.062  35.632  1.00  0.00     0.037 A 
ATOM     53  C   UNL A   1      41.453  28.639  31.145  1.00  0.00     0.049 A 
ATOM     54  C   UNL A   1      40.837  32.011  35.573  1.00  0.00     0.074 A 
ATOM     55  C   UNL A   1      42.512  27.747  31.185  1.00  0.00     0.029 A 
ATOM     56  N   UNL A   1      41.486  29.350  32.335  1.00  0.00    -0.354 N 
ATOM     57  N   UNL A   1      41.113  31.166  34.612  1.00  0.00    -0.248 NA
ATOM     58  C   UNL A   1      41.714  31.895  36.747  1.00  0.00     0.031 C 
ATOM     59  C   UNL A   1      43.167  27.898  32.412  1.00  0.00     0.029 A 
ATOM     60  C   UNL A   1      42.537  28.907  33.123  1.00  0.00     0.049 A 
ATOM     61  H   UNL A   1      40.855  30.065  32.585  1.00  0.00     0.167 HD
ATOM     62  C   UNL A   1      42.207  30.433  35.051  1.00  0.00     0.074 A 
ATOM     63  C   UNL A   1      42.552  30.942  36.363  1.00  0.00     0.031 C 
ATOM     64  C   UNL A   1      42.867  29.429  34.424  1.00  0.00     0.037 A 
BRANCH  51  65
ATOM     65  C   UNL A   1      40.533  27.935  28.905  1.00  0.00     0.064 A 
ATOM     66  C   UNL A   1      39.795  26.743  28.850  1.00  0.00     0.173 A 
ATOM     67  C   UNL A   1      41.308  28.281  27.788  1.00  0.00     0.173 A 
ATOM     68  F   UNL A   1      39.050  26.363  29.898  1.00  0.00    -0.203 F 
ATOM     69  C   UNL A   1      39.854  25.916  27.733  1.00  0.00     0.198 A 
ATOM     70  C   UNL A   1      41.344  27.463  26.661  1.00  0.00     0.198 A 
ATOM     71  F   UNL A   1      42.029  29.412  27.789  1.00  0.00    -0.203 F 
ATOM     72  F   UNL A   1      39.178  24.758  27.721  1.00  0.00    -0.200 F 
ATOM     73  C   UNL A   1      40.623  26.278  26.637  1.00  0.00     0.200 A 
ATOM     74  F   UNL A   1      42.081  27.819  25.600  1.00  0.00    -0.200 F 
ATOM     75  F   UNL A   1      40.678  25.482  25.561  1.00  0.00    -0.200 F 
ENDBRANCH  51  65
BRANCH  52  76
ATOM     76  C   UNL A   1      39.614  33.934  36.824  1.00  0.00     0.064 A 
ATOM     77  C   UNL A   1      40.251  35.181  36.880  1.00  0.00     0.173 A 
ATOM     78  C   UNL A   1      38.828  33.549  37.919  1.00  0.00     0.173 A 
ATOM     79  F   UNL A   1      41.030  35.581  35.865  1.00  0.00    -0.203 F 
ATOM     80  C   UNL A   1      40.115  36.006  37.993  1.00  0.00     0.198 A 
ATOM     81  C   UNL A   1      38.676  34.384  39.022  1.00  0.00     0.198 A 
ATOM     82  F   UNL A   1      38.196  32.366  37.908  1.00  0.00    -0.203 F 
ATOM     83  F   UNL A   1      40.761  37.180  38.037  1.00  0.00    -0.200 F 
ATOM     84  C   UNL A   1      39.324  35.611  39.061  1.00  0.00     0.200 A 
ATOM     85  F   UNL A   1      37.901  34.003  40.046  1.00  0.00    -0.200 F 
ATOM     86  F   UNL A   1      39.189  36.408  40.129  1.00  0.00    -0.200 F 
ENDBRANCH  52  76
BRANCH  64  87
ATOM     87  C   UNL A   1      44.041  28.832  35.138  1.00  0.00     0.064 A 
ATOM     88  C   UNL A   1      43.897  27.717  35.977  1.00  0.00     0.173 A 
ATOM     89  C   UNL A   1      45.328  29.356  34.950  1.00  0.00     0.173 A 
ATOM     90  F   UNL A   1      42.683  27.192  36.197  1.00  0.00    -0.203 F 
ATOM     91  C   UNL A   1      45.000  27.160  36.617  1.00  0.00     0.198 A 
ATOM     92  C   UNL A   1      46.431  28.782  35.575  1.00  0.00     0.198 A 
ATOM     93  F   UNL A   1      45.515  30.419  34.154  1.00  0.00    -0.203 F 
ATOM     94  F   UNL A   1      44.836  26.119  37.445  1.00  0.00    -0.200 F 
ATOM     95  C   UNL A   1      46.266  27.689  36.412  1.00  0.00     0.200 A 
ATOM     96  F   UNL A   1      47.655  29.289  35.369  1.00  0.00    -0.200 F 
ATOM     97  F   UNL A   1      47.327  27.148  37.027  1.00  0.00    -0.200 F 
ENDBRANCH  64  87
ENDBRANCH  38  39
ENDBRANCH  30  33
ENDBRANCH  28  29
ENDBRANCH  27  28
ENDBRANCH  26  27
ENDBRANCH  25  26
ENDBRANCH   1  25
TORSDOF 19
ENDMDL
MODEL 3
REMARK VINA RESULT:     -10.1      5.855     10.762
REMARK SMILES Cc1cc(S(=O)(=O)N[C@H](CO)C(C)C)sc1C(=O)NCCCCCCNC(=O)c1ccc(-c2c3nc(c(-c4c(F)c(F)c(F)c(F)c4F)c4ccc([nH]4)c(-c4c(F)c(F)c(F)c(F)c4F)c4nc(c(-c5c(F)c(F)c(F)c(F)c5F)c5ccc2[nH]5)C=C4)C=C3)cc1
REMARK SMILES IDX 21 1 20 2 19 3 17 4 18 5 16 7 1 8 2 9 3 10 4 11 15 12 5 13
REMARK SMILES IDX 6 14 7 15 8 16 9 18 12 19 13 20 14 21 10 22 11 23 22 25
REMARK SMILES IDX 23 26 24 27 25 28 26 29 27 30 28 32 29 33 30 34 91 35 31 36
REMARK SMILES IDX 90 37 32 38 33 39 34 40 84 41 35 42 89 43 83 44 85 45 36 46
REMARK SMILES IDX 88 47 82 48 81 49 37 51 69 52 49 53 68 54 50 55 53 56 67 57
REMARK SMILES IDX 86 58 51 59 52 60 66 62 87 63 54 64 38 65 39 66 47 67 40 68
REMARK SMILES IDX 41 69 45 70 48 71 42 72 43 73 46 74 44 75 70 76 71 77 79 78
REMARK SMILES IDX 72 79 73 80 77 81 80 82 74 83 75 84 78 85 76 86 55 87 56 88
REMARK SMILES IDX 64 89 57 90 58 91 62 92 65 93 59 94 60 95 63 96 61 97
REMARK H PARENT 19 6 8 17 11 24 26 31 85 50 53 61
REMARK Flexibility Score: inf
ROOT
ATOM      1  C   UNL A   1      36.208  21.927  25.867  1.00  0.00     0.021 C 
ENDROOT
BRANCH   1   2
ATOM      2  C   UNL A   1      35.459  21.113  24.808  1.00  0.00     0.116 C 
BRANCH   2   3
ATOM      3  N   UNL A   1      34.413  20.334  25.414  1.00  0.00    -0.351 N 
ATOM      4  C   UNL A   1      33.056  20.310  25.274  1.00  0.00     0.261 C 
ATOM      5  O   UNL A   1      32.559  19.279  25.748  1.00  0.00    -0.268 OA
ATOM      6  H   UNL A   1      34.746  19.680  26.069  1.00  0.00     0.163 HD
BRANCH   4   7
ATOM      7  C   UNL A   1      32.225  21.366  24.691  1.00  0.00     0.096 A 
ATOM      8  C   UNL A   1      32.048  21.266  22.063  1.00  0.00     0.046 C 
ATOM      9  C   UNL A   1      31.879  21.849  23.423  1.00  0.00    -0.026 A 
ATOM     10  C   UNL A   1      31.459  23.236  23.517  1.00  0.00     0.038 A 
ATOM     11  C   UNL A   1      31.484  23.724  24.802  1.00  0.00     0.135 A 
ATOM     12  S   UNL A   1      31.531  22.429  25.896  1.00  0.00    -0.117 S 
BRANCH  11  13
ATOM     13  S   UNL A   1      31.436  25.349  25.494  1.00  0.00     0.250 S 
ATOM     14  O   UNL A   1      30.291  25.993  24.888  1.00  0.00    -0.206 OA
ATOM     15  O   UNL A   1      31.518  25.159  26.924  1.00  0.00    -0.206 OA
BRANCH  13  16
ATOM     16  N   UNL A   1      32.826  26.181  25.034  1.00  0.00    -0.205 NA
ATOM     17  H   UNL A   1      33.351  25.544  24.435  1.00  0.00     0.141 HD
BRANCH  16  18
ATOM     18  C   UNL A   1      32.780  27.492  24.306  1.00  0.00     0.098 C 
BRANCH  18  19
ATOM     19  C   UNL A   1      33.378  28.675  25.099  1.00  0.00     0.003 C 
ATOM     20  C   UNL A   1      32.338  29.757  25.423  1.00  0.00     0.009 C 
ATOM     21  C   UNL A   1      33.996  28.219  26.426  1.00  0.00     0.009 C 
ENDBRANCH  18  19
BRANCH  18  22
ATOM     22  C   UNL A   1      33.354  27.325  22.883  1.00  0.00     0.176 C 
BRANCH  22  23
ATOM     23  O   UNL A   1      33.077  28.480  22.090  1.00  0.00    -0.395 OA
ATOM     24  H   UNL A   1      33.875  29.028  22.026  1.00  0.00     0.210 HD
ENDBRANCH  22  23
ENDBRANCH  18  22
ENDBRANCH  16  18
ENDBRANCH  13  16
ENDBRANCH  11  13
ENDBRANCH   4   7
ENDBRANCH   2   3
ENDBRANCH   1   2
BRANCH   1  25
ATOM     25  C   UNL A   1      37.415  22.698  25.316  1.00  0.00     0.002 C 
BRANCH  25  26
ATOM     26  C   UNL A   1      38.783  22.144  25.736  1.00  0.00     0.002 C 
BRANCH  26  27
ATOM     27  C   UNL A   1      39.062  20.697  25.318  1.00  0.00     0.021 C 
BRANCH  27  28
ATOM     28  C   UNL A   1      39.560  19.794  26.443  1.00  0.00     0.116 C 
BRANCH  28  29
ATOM     29  N   UNL A   1      40.749  19.054  26.054  1.00  0.00    -0.352 N 
ATOM     30  C   UNL A   1      42.042  19.487  25.903  1.00  0.00     0.251 C 
ATOM     31  H   UNL A   1      40.605  18.097  25.873  1.00  0.00     0.163 HD
ATOM     32  O   UNL A   1      42.869  18.766  25.352  1.00  0.00    -0.269 OA
BRANCH  30  33
ATOM     33  C   UNL A   1      42.447  20.821  26.395  1.00  0.00     0.039 A 
ATOM     34  C   UNL A   1      42.797  21.805  25.465  1.00  0.00     0.014 A 
ATOM     35  C   UNL A   1      42.534  21.087  27.765  1.00  0.00     0.014 A 
ATOM     36  C   UNL A   1      43.187  23.071  25.907  1.00  0.00     0.010 A 
ATOM     37  C   UNL A   1      42.868  22.366  28.204  1.00  0.00     0.010 A 
ATOM     38  C   UNL A   1      43.206  23.367  27.279  1.00  0.00    -0.014 A 
BRANCH  38  39
ATOM     39  C   UNL A   1      43.589  24.714  27.769  1.00  0.00     0.031 A 
ATOM     40  C   UNL A   1      42.527  25.724  28.099  1.00  0.00     0.074 A 
ATOM     41  C   UNL A   1      44.889  25.047  27.852  1.00  0.00     0.049 A 
ATOM     42  N   UNL A   1      42.658  26.976  28.459  1.00  0.00    -0.248 NA
ATOM     43  C   UNL A   1      41.131  25.274  27.985  1.00  0.00     0.031 C 
ATOM     44  C   UNL A   1      46.011  24.168  27.520  1.00  0.00     0.029 A 
ATOM     45  N   UNL A   1      45.488  26.224  28.227  1.00  0.00    -0.354 N 
ATOM     46  C   UNL A   1      41.366  27.467  28.592  1.00  0.00     0.074 A 
ATOM     47  C   UNL A   1      40.466  26.391  28.239  1.00  0.00     0.031 C 
ATOM     48  C   UNL A   1      47.161  24.830  27.720  1.00  0.00     0.029 A 
ATOM     49  C   UNL A   1      46.858  26.188  28.164  1.00  0.00     0.049 A 
ATOM     50  H   UNL A   1      44.982  27.019  28.515  1.00  0.00     0.167 HD
ATOM     51  C   UNL A   1      40.968  28.700  28.989  1.00  0.00     0.037 A 
ATOM     52  C   UNL A   1      47.767  27.144  28.430  1.00  0.00     0.037 A 
ATOM     53  C   UNL A   1      41.865  29.757  29.375  1.00  0.00     0.049 A 
ATOM     54  C   UNL A   1      47.300  28.498  28.888  1.00  0.00     0.074 A 
ATOM     55  C   UNL A   1      41.559  31.018  29.857  1.00  0.00     0.029 A 
ATOM     56  N   UNL A   1      43.249  29.673  29.325  1.00  0.00    -0.354 N 
ATOM     57  N   UNL A   1      46.078  28.934  29.063  1.00  0.00    -0.248 NA
ATOM     58  C   UNL A   1      48.341  29.491  29.188  1.00  0.00     0.031 C 
ATOM     59  C   UNL A   1      42.758  31.708  30.070  1.00  0.00     0.029 A 
ATOM     60  C   UNL A   1      43.811  30.866  29.753  1.00  0.00     0.049 A 
ATOM     61  H   UNL A   1      43.757  28.883  29.028  1.00  0.00     0.167 HD
ATOM     62  C   UNL A   1      46.199  30.241  29.514  1.00  0.00     0.074 A 
ATOM     63  C   UNL A   1      47.618  30.524  29.596  1.00  0.00     0.031 C 
ATOM     64  C   UNL A   1      45.224  31.127  29.832  1.00  0.00     0.037 A 
BRANCH  51  65
ATOM     65  C   UNL A   1      39.494  28.969  29.029  1.00  0.00     0.064 A 
ATOM     66  C   UNL A   1      38.757  28.845  30.216  1.00  0.00     0.173 A 
ATOM     67  C   UNL A   1      38.815  29.381  27.872  1.00  0.00     0.173 A 
ATOM     68  F   UNL A   1      39.359  28.441  31.344  1.00  0.00    -0.203 F 
ATOM     69  C   UNL A   1      37.388  29.097  30.238  1.00  0.00     0.198 A 
ATOM     70  C   UNL A   1      37.450  29.657  27.904  1.00  0.00     0.198 A 
ATOM     71  F   UNL A   1      39.475  29.518  26.713  1.00  0.00    -0.203 F 
ATOM     72  F   UNL A   1      36.695  28.927  31.373  1.00  0.00    -0.200 F 
ATOM     73  C   UNL A   1      36.736  29.508  29.085  1.00  0.00     0.200 A 
ATOM     74  F   UNL A   1      36.824  30.062  26.791  1.00  0.00    -0.200 F 
ATOM     75  F   UNL A   1      35.419  29.752  29.107  1.00  0.00    -0.200 F 
ENDBRANCH  51  65
BRANCH  52  76
ATOM     76  C   UNL A   1      49.215  26.841  28.298  1.00  0.00     0.064 A 
ATOM     77  C   UNL A   1      49.968  26.454  29.414  1.00  0.00     0.173 A 
ATOM     78  C   UNL A   1      49.867  26.919  27.060  1.00  0.00     0.173 A 
ATOM     79  F   UNL A   1      49.389  26.387  30.622  1.00  0.00    -0.203 F 
ATOM     80  C   UNL A   1      51.325  26.167  29.299  1.00  0.00     0.198 A 
ATOM     81  C   UNL A   1      51.220  26.610  26.942  1.00  0.00     0.198 A 
ATOM     82  F   UNL A   1      49.186  27.280  25.963  1.00  0.00    -0.203 F 
ATOM     83  F   UNL A   1      52.032  25.831  30.387  1.00  0.00    -0.200 F 
ATOM     84  C   UNL A   1      51.950  26.239  28.063  1.00  0.00     0.200 A 
ATOM     85  F   UNL A   1      51.817  26.670  25.744  1.00  0.00    -0.200 F 
ATOM     86  F   UNL A   1      53.254  25.956  27.951  1.00  0.00    -0.200 F 
ENDBRANCH  52  76
BRANCH  64  87
ATOM     87  C   UNL A   1      45.659  32.475  30.319  1.00  0.00     0.064 A 
ATOM     88  C   UNL A   1      45.807  33.558  29.440  1.00  0.00     0.173 A 
ATOM     89  C   UNL A   1      45.891  32.697  31.685  1.00  0.00     0.173 A 
ATOM     90  F   UNL A   1      45.610  33.390  28.124  1.00  0.00    -0.203 F 
ATOM     91  C   UNL A   1      46.191  34.811  29.909  1.00  0.00     0.198 A 
ATOM     92  C   UNL A   1      46.253  33.956  32.153  1.00  0.00     0.198 A 
ATOM     93  F   UNL A   1      45.758  31.692  32.563  1.00  0.00    -0.203 F 
ATOM     94  F   UNL A   1      46.364  35.823  29.049  1.00  0.00    -0.200 F 
ATOM     95  C   UNL A   1      46.408  35.010  31.265  1.00  0.00     0.200 A 
ATOM     96  F   UNL A   1      46.454  34.149  33.464  1.00  0.00    -0.200 F 
ATOM     97  F   UNL A   1      46.774  36.218  31.716  1.00  0.00    -0.200 F 
ENDBRANCH  64  87
ENDBRANCH  38  39
ENDBRANCH  30  33
ENDBRANCH  28  29
ENDBRANCH  27  28
ENDBRANCH  26  27
ENDBRANCH  25  26
ENDBRANCH   1  25
TORSDOF 19
ENDMDL
