MODEL 1
REMARK VINA RESULT:     -10.8      0.000      0.000
REMARK SMILES C=CC[NH2+][C@H](C(=O)NCCCCCCNC(=O)c1ccc(-c2c3nc(c(-c4c(F)c(F)c(F)c(F)c4F)c4ccc([nH]4)c(-c4c(F)c(F)c(F)c(F)c4F)c4nc(c(-c5c(F)c(F)c(F)c(F)c5F)c5ccc2[nH]5)C=C4)C=C3)cc1)c1cnn(C)c1C
REMARK SMILES IDX 11 1 10 2 9 3 8 4 6 5 7 6 5 8 4 9 3 12 2 13 1 14 81 15 82 16
REMARK SMILES IDX 86 17 83 18 84 19 87 20 85 21 12 22 13 23 14 24 15 25 16 26
REMARK SMILES IDX 17 28 18 29 19 30 80 31 20 32 79 33 21 34 22 35 23 36 73 37
REMARK SMILES IDX 24 38 78 39 72 40 74 41 25 42 77 43 71 44 70 45 26 47 58 48
REMARK SMILES IDX 38 49 57 50 39 51 42 52 56 53 75 54 40 55 41 56 55 58 76 59
REMARK SMILES IDX 43 60 27 61 28 62 36 63 29 64 30 65 34 66 37 67 31 68 32 69
REMARK SMILES IDX 35 70 33 71 59 72 60 73 68 74 61 75 62 76 66 77 69 78 63 79
REMARK SMILES IDX 64 80 67 81 65 82 44 83 45 84 53 85 46 86 47 87 51 88 54 89
REMARK SMILES IDX 48 90 49 91 52 92 50 93
REMARK H PARENT 8 7 4 10 4 11 15 27 74 46 42 57
REMARK Flexibility Score: inf
ROOT
ATOM      1  C   UNL A   1      37.017  21.926  24.322  1.00  0.00     0.002 C 
ENDROOT
BRANCH   1   2
ATOM      2  C   UNL A   1      37.083  23.143  25.254  1.00  0.00     0.021 C 
BRANCH   2   3
ATOM      3  C   UNL A   1      35.742  23.696  25.727  1.00  0.00     0.116 C 
BRANCH   3   4
ATOM      4  N   UNL A   1      35.183  22.989  26.857  1.00  0.00    -0.351 N 
ATOM      5  C   UNL A   1      34.095  22.153  26.905  1.00  0.00     0.283 C 
ATOM      6  O   UNL A   1      33.938  21.536  27.963  1.00  0.00    -0.268 OA
ATOM      7  H   UNL A   1      35.647  23.127  27.714  1.00  0.00     0.163 HD
BRANCH   5   8
ATOM      8  C   UNL A   1      33.085  22.082  25.723  1.00  0.00     0.307 C 
BRANCH   8   9
ATOM      9  N   UNL A   1      32.509  20.750  25.433  1.00  0.00    -0.329 N 
ATOM     10  H   UNL A   1      32.607  20.182  26.274  1.00  0.00     0.347 HD
ATOM     11  H   UNL A   1      31.547  20.933  25.147  1.00  0.00     0.347 HD
BRANCH   9  12
ATOM     12  C   UNL A   1      33.095  20.002  24.328  1.00  0.00     0.289 C 
BRANCH  12  13
ATOM     13  C   UNL A   1      32.136  20.087  23.173  1.00  0.00     0.025 C 
ATOM     14  C   UNL A   1      32.082  21.091  22.287  1.00  0.00     0.010 C 
ENDBRANCH  12  13
ENDBRANCH   9  12
ENDBRANCH   8   9
BRANCH   8  15
ATOM     15  C   UNL A   1      31.994  23.122  25.822  1.00  0.00     0.060 A 
ATOM     16  C   UNL A   1      31.057  23.314  26.865  1.00  0.00     0.145 A 
ATOM     17  C   UNL A   1      31.703  24.159  24.935  1.00  0.00     0.045 A 
ATOM     18  N   UNL A   1      30.231  24.337  26.653  1.00  0.00    -0.181 NA
ATOM     19  N   UNL A   1      30.652  24.849  25.487  1.00  0.00    -0.272 N 
ATOM     20  C   UNL A   1      32.345  24.568  23.659  1.00  0.00     0.067 C 
ATOM     21  C   UNL A   1      29.991  26.037  24.997  1.00  0.00     0.174 C 
ENDBRANCH   8  15
ENDBRANCH   5   8
ENDBRANCH   3   4
ENDBRANCH   2   3
ENDBRANCH   1   2
BRANCH   1  22
ATOM     22  C   UNL A   1      36.852  20.557  24.990  1.00  0.00     0.002 C 
BRANCH  22  23
ATOM     23  C   UNL A   1      38.064  19.628  24.930  1.00  0.00     0.021 C 
BRANCH  23  24
ATOM     24  C   UNL A   1      39.284  20.074  25.725  1.00  0.00     0.116 C 
BRANCH  24  25
ATOM     25  N   UNL A   1      40.306  19.048  25.839  1.00  0.00    -0.352 N 
ATOM     26  C   UNL A   1      41.649  19.178  26.097  1.00  0.00     0.251 C 
ATOM     27  H   UNL A   1      39.989  18.124  25.714  1.00  0.00     0.163 HD
ATOM     28  O   UNL A   1      42.384  18.195  26.042  1.00  0.00    -0.269 OA
BRANCH  26  29
ATOM     29  C   UNL A   1      42.224  20.506  26.409  1.00  0.00     0.039 A 
ATOM     30  C   UNL A   1      42.714  21.288  25.359  1.00  0.00     0.014 A 
ATOM     31  C   UNL A   1      42.281  20.984  27.721  1.00  0.00     0.014 A 
ATOM     32  C   UNL A   1      43.199  22.573  25.618  1.00  0.00     0.010 A 
ATOM     33  C   UNL A   1      42.684  22.295  27.965  1.00  0.00     0.010 A 
ATOM     34  C   UNL A   1      43.154  23.100  26.918  1.00  0.00    -0.014 A 
BRANCH  34  35
ATOM     35  C   UNL A   1      43.606  24.489  27.201  1.00  0.00     0.031 A 
ATOM     36  C   UNL A   1      42.633  25.510  27.722  1.00  0.00     0.074 A 
ATOM     37  C   UNL A   1      44.879  24.844  26.938  1.00  0.00     0.049 A 
ATOM     38  N   UNL A   1      42.820  26.781  27.976  1.00  0.00    -0.248 NA
ATOM     39  C   UNL A   1      41.257  25.048  27.966  1.00  0.00     0.031 C 
ATOM     40  C   UNL A   1      45.909  23.960  26.390  1.00  0.00     0.029 A 
ATOM     41  N   UNL A   1      45.524  26.047  27.093  1.00  0.00    -0.354 N 
ATOM     42  C   UNL A   1      41.589  27.267  28.397  1.00  0.00     0.074 A 
ATOM     43  C   UNL A   1      40.648  26.173  28.304  1.00  0.00     0.031 C 
ATOM     44  C   UNL A   1      47.061  24.640  26.280  1.00  0.00     0.029 A 
ATOM     45  C   UNL A   1      46.844  26.018  26.707  1.00  0.00     0.049 A 
ATOM     46  H   UNL A   1      45.084  26.853  27.444  1.00  0.00     0.167 HD
ATOM     47  C   UNL A   1      41.277  28.506  28.847  1.00  0.00     0.037 A 
ATOM     48  C   UNL A   1      47.770  26.996  26.693  1.00  0.00     0.037 A 
ATOM     49  C   UNL A   1      42.222  29.587  28.957  1.00  0.00     0.049 A 
ATOM     50  C   UNL A   1      47.392  28.372  27.177  1.00  0.00     0.074 A 
ATOM     51  C   UNL A   1      42.018  30.864  29.450  1.00  0.00     0.029 A 
ATOM     52  N   UNL A   1      43.550  29.518  28.562  1.00  0.00    -0.354 N 
ATOM     53  N   UNL A   1      46.241  28.801  27.638  1.00  0.00    -0.248 NA
ATOM     54  C   UNL A   1      48.443  29.398  27.143  1.00  0.00     0.031 C 
ATOM     55  C   UNL A   1      43.207  31.585  29.301  1.00  0.00     0.029 A 
ATOM     56  C   UNL A   1      44.171  30.740  28.775  1.00  0.00     0.049 A 
ATOM     57  H   UNL A   1      43.987  28.721  28.187  1.00  0.00     0.167 HD
ATOM     58  C   UNL A   1      46.440  30.132  27.978  1.00  0.00     0.074 A 
ATOM     59  C   UNL A   1      47.825  30.437  27.687  1.00  0.00     0.031 C 
ATOM     60  C   UNL A   1      45.554  31.024  28.486  1.00  0.00     0.037 A 
BRANCH  47  61
ATOM     61  C   UNL A   1      39.854  28.760  29.256  1.00  0.00     0.064 A 
ATOM     62  C   UNL A   1      38.900  29.245  28.346  1.00  0.00     0.173 A 
ATOM     63  C   UNL A   1      39.426  28.482  30.563  1.00  0.00     0.173 A 
ATOM     64  F   UNL A   1      39.257  29.538  27.087  1.00  0.00    -0.203 F 
ATOM     65  C   UNL A   1      37.584  29.473  28.738  1.00  0.00     0.198 A 
ATOM     66  C   UNL A   1      38.101  28.677  30.943  1.00  0.00     0.198 A 
ATOM     67  F   UNL A   1      40.293  28.010  31.473  1.00  0.00    -0.203 F 
ATOM     68  F   UNL A   1      36.707  29.989  27.867  1.00  0.00    -0.200 F 
ATOM     69  C   UNL A   1      37.184  29.182  30.033  1.00  0.00     0.200 A 
ATOM     70  F   UNL A   1      37.712  28.380  32.190  1.00  0.00    -0.200 F 
ATOM     71  F   UNL A   1      35.915  29.394  30.407  1.00  0.00    -0.200 F 
ENDBRANCH  47  61
BRANCH  48  72
ATOM     72  C   UNL A   1      49.151  26.709  26.224  1.00  0.00     0.064 A 
ATOM     73  C   UNL A   1      49.525  26.942  24.893  1.00  0.00     0.173 A 
ATOM     74  C   UNL A   1      50.122  26.183  27.090  1.00  0.00     0.173 A 
ATOM     75  F   UNL A   1      48.628  27.425  24.021  1.00  0.00    -0.203 F 
ATOM     76  C   UNL A   1      50.807  26.636  24.440  1.00  0.00     0.198 A 
ATOM     77  C   UNL A   1      51.413  25.908  26.643  1.00  0.00     0.198 A 
ATOM     78  F   UNL A   1      49.820  25.945  28.374  1.00  0.00    -0.203 F 
ATOM     79  F   UNL A   1      51.119  26.819  23.149  1.00  0.00    -0.200 F 
ATOM     80  C   UNL A   1      51.752  26.125  25.316  1.00  0.00     0.200 A 
ATOM     81  F   UNL A   1      52.329  25.429  27.497  1.00  0.00    -0.200 F 
ATOM     82  F   UNL A   1      52.984  25.833  24.880  1.00  0.00    -0.200 F 
ENDBRANCH  48  72
BRANCH  60  83
ATOM     83  C   UNL A   1      46.063  32.403  28.798  1.00  0.00     0.064 A 
ATOM     84  C   UNL A   1      46.634  32.718  30.040  1.00  0.00     0.173 A 
ATOM     85  C   UNL A   1      46.014  33.413  27.824  1.00  0.00     0.173 A 
ATOM     86  F   UNL A   1      46.693  31.793  31.011  1.00  0.00    -0.203 F 
ATOM     87  C   UNL A   1      47.109  33.999  30.306  1.00  0.00     0.198 A 
ATOM     88  C   UNL A   1      46.523  34.683  28.081  1.00  0.00     0.198 A 
ATOM     89  F   UNL A   1      45.485  33.164  26.617  1.00  0.00    -0.203 F 
ATOM     90  F   UNL A   1      47.602  34.291  31.518  1.00  0.00    -0.200 F 
ATOM     91  C   UNL A   1      47.061  34.978  29.324  1.00  0.00     0.200 A 
ATOM     92  F   UNL A   1      46.490  35.621  27.125  1.00  0.00    -0.200 F 
ATOM     93  F   UNL A   1      47.528  36.208  29.578  1.00  0.00    -0.200 F 
ENDBRANCH  60  83
ENDBRANCH  34  35
ENDBRANCH  26  29
ENDBRANCH  24  25
ENDBRANCH  23  24
ENDBRANCH  22  23
ENDBRANCH   1  22
TORSDOF 17
ENDMDL
MODEL 2
REMARK VINA RESULT:     -10.8      5.603      9.553
REMARK SMILES C=CC[NH2+][C@H](C(=O)NCCCCCCNC(=O)c1ccc(-c2c3nc(c(-c4c(F)c(F)c(F)c(F)c4F)c4ccc([nH]4)c(-c4c(F)c(F)c(F)c(F)c4F)c4nc(c(-c5c(F)c(F)c(F)c(F)c5F)c5ccc2[nH]5)C=C4)C=C3)cc1)c1cnn(C)c1C
REMARK SMILES IDX 11 1 10 2 9 3 8 4 6 5 7 6 5 8 4 9 3 12 2 13 1 14 81 15 82 16
REMARK SMILES IDX 86 17 83 18 84 19 87 20 85 21 12 22 13 23 14 24 15 25 16 26
REMARK SMILES IDX 17 28 18 29 19 30 80 31 20 32 79 33 21 34 22 35 23 36 73 37
REMARK SMILES IDX 24 38 78 39 72 40 74 41 25 42 77 43 71 44 70 45 26 47 58 48
REMARK SMILES IDX 38 49 57 50 39 51 42 52 56 53 75 54 40 55 41 56 55 58 76 59
REMARK SMILES IDX 43 60 27 61 28 62 36 63 29 64 30 65 34 66 37 67 31 68 32 69
REMARK SMILES IDX 35 70 33 71 59 72 60 73 68 74 61 75 62 76 66 77 69 78 63 79
REMARK SMILES IDX 64 80 67 81 65 82 44 83 45 84 53 85 46 86 47 87 51 88 54 89
REMARK SMILES IDX 48 90 49 91 52 92 50 93
REMARK H PARENT 8 7 4 10 4 11 15 27 74 46 42 57
REMARK Flexibility Score: inf
ROOT
ATOM      1  C   UNL A   1      32.429  30.043  26.221  1.00  0.00     0.002 C 
ENDROOT
BRANCH   1   2
ATOM      2  C   UNL A   1      32.245  28.848  27.166  1.00  0.00     0.021 C 
BRANCH   2   3
ATOM      3  C   UNL A   1      32.181  27.475  26.503  1.00  0.00     0.116 C 
BRANCH   3   4
ATOM      4  N   UNL A   1      30.974  26.737  26.802  1.00  0.00    -0.351 N 
ATOM      5  C   UNL A   1      30.244  25.904  25.990  1.00  0.00     0.283 C 
ATOM      6  O   UNL A   1      29.353  25.256  26.548  1.00  0.00    -0.268 OA
ATOM      7  H   UNL A   1      30.627  26.846  27.716  1.00  0.00     0.163 HD
BRANCH   5   8
ATOM      8  C   UNL A   1      30.479  25.874  24.452  1.00  0.00     0.307 C 
BRANCH   8   9
ATOM      9  N   UNL A   1      30.157  24.603  23.765  1.00  0.00    -0.329 N 
ATOM     10  H   UNL A   1      29.631  24.024  24.419  1.00  0.00     0.347 HD
ATOM     11  H   UNL A   1      29.647  24.878  22.926  1.00  0.00     0.347 HD
BRANCH   9  12
ATOM     12  C   UNL A   1      31.279  23.810  23.280  1.00  0.00     0.289 C 
BRANCH  12  13
ATOM     13  C   UNL A   1      32.479  24.714  23.232  1.00  0.00     0.025 C 
ATOM     14  C   UNL A   1      33.738  24.314  23.009  1.00  0.00     0.010 C 
ENDBRANCH  12  13
ENDBRANCH   9  12
ENDBRANCH   8   9
BRANCH   8  15
ATOM     15  C   UNL A   1      29.839  27.041  23.738  1.00  0.00     0.060 A 
ATOM     16  C   UNL A   1      28.462  27.344  23.613  1.00  0.00     0.145 A 
ATOM     17  C   UNL A   1      30.462  28.109  23.092  1.00  0.00     0.045 A 
ATOM     18  N   UNL A   1      28.226  28.462  22.930  1.00  0.00    -0.181 NA
ATOM     19  N   UNL A   1      29.452  28.923  22.640  1.00  0.00    -0.272 N 
ATOM     20  C   UNL A   1      31.899  28.440  22.906  1.00  0.00     0.067 C 
ATOM     21  C   UNL A   1      29.550  30.185  21.943  1.00  0.00     0.174 C 
ENDBRANCH   8  15
ENDBRANCH   5   8
ENDBRANCH   3   4
ENDBRANCH   2   3
ENDBRANCH   1   2
BRANCH   1  22
ATOM     22  C   UNL A   1      31.192  30.907  25.956  1.00  0.00     0.002 C 
BRANCH  22  23
ATOM     23  C   UNL A   1      31.246  32.340  26.485  1.00  0.00     0.021 C 
BRANCH  23  24
ATOM     24  C   UNL A   1      32.598  32.807  27.007  1.00  0.00     0.116 C 
BRANCH  24  25
ATOM     25  N   UNL A   1      32.557  34.119  27.627  1.00  0.00    -0.352 N 
ATOM     26  C   UNL A   1      33.341  34.636  28.630  1.00  0.00     0.251 C 
ATOM     27  H   UNL A   1      31.866  34.728  27.277  1.00  0.00     0.163 HD
ATOM     28  O   UNL A   1      33.080  35.737  29.109  1.00  0.00    -0.269 OA
BRANCH  26  29
ATOM     29  C   UNL A   1      34.481  33.856  29.163  1.00  0.00     0.039 A 
ATOM     30  C   UNL A   1      35.779  34.285  28.874  1.00  0.00     0.014 A 
ATOM     31  C   UNL A   1      34.280  32.714  29.941  1.00  0.00     0.014 A 
ATOM     32  C   UNL A   1      36.873  33.607  29.420  1.00  0.00     0.010 A 
ATOM     33  C   UNL A   1      35.365  32.092  30.554  1.00  0.00     0.010 A 
ATOM     34  C   UNL A   1      36.673  32.526  30.295  1.00  0.00    -0.014 A 
BRANCH  34  35
ATOM     35  C   UNL A   1      37.822  31.834  30.936  1.00  0.00     0.031 A 
ATOM     36  C   UNL A   1      38.244  32.203  32.331  1.00  0.00     0.074 A 
ATOM     37  C   UNL A   1      38.518  30.911  30.244  1.00  0.00     0.049 A 
ATOM     38  N   UNL A   1      39.251  31.756  33.040  1.00  0.00    -0.248 NA
ATOM     39  C   UNL A   1      37.445  33.233  33.014  1.00  0.00     0.031 C 
ATOM     40  C   UNL A   1      38.237  30.495  28.868  1.00  0.00     0.029 A 
ATOM     41  N   UNL A   1      39.609  30.157  30.601  1.00  0.00    -0.354 N 
ATOM     42  C   UNL A   1      39.210  32.455  34.239  1.00  0.00     0.074 A 
ATOM     43  C   UNL A   1      38.120  33.401  34.140  1.00  0.00     0.031 C 
ATOM     44  C   UNL A   1      39.113  29.544  28.508  1.00  0.00     0.029 A 
ATOM     45  C   UNL A   1      40.045  29.312  29.607  1.00  0.00     0.049 A 
ATOM     46  H   UNL A   1      40.041  30.218  31.483  1.00  0.00     0.167 HD
ATOM     47  C   UNL A   1      39.991  32.303  35.335  1.00  0.00     0.037 A 
ATOM     48  C   UNL A   1      41.082  28.454  29.585  1.00  0.00     0.037 A 
ATOM     49  C   UNL A   1      41.062  31.347  35.437  1.00  0.00     0.049 A 
ATOM     50  C   UNL A   1      41.951  28.320  30.808  1.00  0.00     0.074 A 
ATOM     51  C   UNL A   1      41.879  31.079  36.521  1.00  0.00     0.029 A 
ATOM     52  N   UNL A   1      41.470  30.505  34.412  1.00  0.00    -0.354 N 
ATOM     53  N   UNL A   1      41.858  28.938  31.961  1.00  0.00    -0.248 NA
ATOM     54  C   UNL A   1      43.065  27.366  30.728  1.00  0.00     0.031 C 
ATOM     55  C   UNL A   1      42.816  30.115  36.135  1.00  0.00     0.029 A 
ATOM     56  C   UNL A   1      42.544  29.735  34.831  1.00  0.00     0.049 A 
ATOM     57  H   UNL A   1      41.057  30.460  33.520  1.00  0.00     0.167 HD
ATOM     58  C   UNL A   1      42.878  28.425  32.751  1.00  0.00     0.074 A 
ATOM     59  C   UNL A   1      43.567  27.434  31.953  1.00  0.00     0.031 C 
ATOM     60  C   UNL A   1      43.215  28.746  34.025  1.00  0.00     0.037 A 
BRANCH  47  61
ATOM     61  C   UNL A   1      39.716  33.193  36.515  1.00  0.00     0.064 A 
ATOM     62  C   UNL A   1      38.804  32.827  37.517  1.00  0.00     0.173 A 
ATOM     63  C   UNL A   1      40.400  34.409  36.665  1.00  0.00     0.173 A 
ATOM     64  F   UNL A   1      38.116  31.680  37.418  1.00  0.00    -0.203 F 
ATOM     65  C   UNL A   1      38.562  33.661  38.606  1.00  0.00     0.198 A 
ATOM     66  C   UNL A   1      40.182  35.224  37.773  1.00  0.00     0.198 A 
ATOM     67  F   UNL A   1      41.288  34.806  35.740  1.00  0.00    -0.203 F 
ATOM     68  F   UNL A   1      37.645  33.316  39.521  1.00  0.00    -0.200 F 
ATOM     69  C   UNL A   1      39.256  34.854  38.737  1.00  0.00     0.200 A 
ATOM     70  F   UNL A   1      40.864  36.369  37.906  1.00  0.00    -0.200 F 
ATOM     71  F   UNL A   1      39.028  35.651  39.789  1.00  0.00    -0.200 F 
ENDBRANCH  47  61
BRANCH  48  72
ATOM     72  C   UNL A   1      41.349  27.637  28.371  1.00  0.00     0.064 A 
ATOM     73  C   UNL A   1      42.247  28.076  27.388  1.00  0.00     0.173 A 
ATOM     74  C   UNL A   1      40.702  26.410  28.160  1.00  0.00     0.173 A 
ATOM     75  F   UNL A   1      42.875  29.252  27.533  1.00  0.00    -0.203 F 
ATOM     76  C   UNL A   1      42.469  27.333  26.230  1.00  0.00     0.198 A 
ATOM     77  C   UNL A   1      40.949  25.652  27.017  1.00  0.00     0.198 A 
ATOM     78  F   UNL A   1      39.837  25.941  29.070  1.00  0.00    -0.203 F 
ATOM     79  F   UNL A   1      43.292  27.804  25.283  1.00  0.00    -0.200 F 
ATOM     80  C   UNL A   1      41.825  26.119  26.048  1.00  0.00     0.200 A 
ATOM     81  F   UNL A   1      40.337  24.471  26.852  1.00  0.00    -0.200 F 
ATOM     82  F   UNL A   1      42.040  25.404  24.935  1.00  0.00    -0.200 F 
ENDBRANCH  48  72
BRANCH  60  83
ATOM     83  C   UNL A   1      44.354  27.991  34.650  1.00  0.00     0.064 A 
ATOM     84  C   UNL A   1      44.156  26.781  35.329  1.00  0.00     0.173 A 
ATOM     85  C   UNL A   1      45.669  28.470  34.533  1.00  0.00     0.173 A 
ATOM     86  F   UNL A   1      42.917  26.287  35.482  1.00  0.00    -0.203 F 
ATOM     87  C   UNL A   1      45.226  26.092  35.893  1.00  0.00     0.198 A 
ATOM     88  C   UNL A   1      46.741  27.760  35.066  1.00  0.00     0.198 A 
ATOM     89  F   UNL A   1      45.917  29.619  33.886  1.00  0.00    -0.203 F 
ATOM     90  F   UNL A   1      45.006  24.964  36.584  1.00  0.00    -0.200 F 
ATOM     91  C   UNL A   1      46.518  26.577  35.754  1.00  0.00     0.200 A 
ATOM     92  F   UNL A   1      47.989  28.223  34.916  1.00  0.00    -0.200 F 
ATOM     93  F   UNL A   1      47.549  25.908  36.289  1.00  0.00    -0.200 F 
ENDBRANCH  60  83
ENDBRANCH  34  35
ENDBRANCH  26  29
ENDBRANCH  24  25
ENDBRANCH  23  24
ENDBRANCH  22  23
ENDBRANCH   1  22
TORSDOF 17
ENDMDL
MODEL 3
REMARK VINA RESULT:     -10.7      5.885     11.153
REMARK SMILES C=CC[NH2+][C@H](C(=O)NCCCCCCNC(=O)c1ccc(-c2c3nc(c(-c4c(F)c(F)c(F)c(F)c4F)c4ccc([nH]4)c(-c4c(F)c(F)c(F)c(F)c4F)c4nc(c(-c5c(F)c(F)c(F)c(F)c5F)c5ccc2[nH]5)C=C4)C=C3)cc1)c1cnn(C)c1C
REMARK SMILES IDX 11 1 10 2 9 3 8 4 6 5 7 6 5 8 4 9 3 12 2 13 1 14 81 15 82 16
REMARK SMILES IDX 86 17 83 18 84 19 87 20 85 21 12 22 13 23 14 24 15 25 16 26
REMARK SMILES IDX 17 28 18 29 19 30 80 31 20 32 79 33 21 34 22 35 23 36 73 37
REMARK SMILES IDX 24 38 78 39 72 40 74 41 25 42 77 43 71 44 70 45 26 47 58 48
REMARK SMILES IDX 38 49 57 50 39 51 42 52 56 53 75 54 40 55 41 56 55 58 76 59
REMARK SMILES IDX 43 60 27 61 28 62 36 63 29 64 30 65 34 66 37 67 31 68 32 69
REMARK SMILES IDX 35 70 33 71 59 72 60 73 68 74 61 75 62 76 66 77 69 78 63 79
REMARK SMILES IDX 64 80 67 81 65 82 44 83 45 84 53 85 46 86 47 87 51 88 54 89
REMARK SMILES IDX 48 90 49 91 52 92 50 93
REMARK H PARENT 8 7 4 10 4 11 15 27 74 46 42 57
REMARK Flexibility Score: inf
ROOT
ATOM      1  C   UNL A   1      32.421  29.842  27.063  1.00  0.00     0.002 C 
ENDROOT
BRANCH   1   2
ATOM      2  C   UNL A   1      33.643  29.141  26.456  1.00  0.00     0.021 C 
BRANCH   2   3
ATOM      3  C   UNL A   1      33.413  27.722  25.945  1.00  0.00     0.116 C 
BRANCH   3   4
ATOM      4  N   UNL A   1      32.257  27.072  26.522  1.00  0.00    -0.351 N 
ATOM      5  C   UNL A   1      31.343  26.240  25.925  1.00  0.00     0.283 C 
ATOM      6  O   UNL A   1      30.552  25.676  26.687  1.00  0.00    -0.268 OA
ATOM      7  H   UNL A   1      32.105  27.250  27.477  1.00  0.00     0.163 HD
BRANCH   5   8
ATOM      8  C   UNL A   1      31.265  26.112  24.376  1.00  0.00     0.307 C 
BRANCH   8   9
ATOM      9  N   UNL A   1      31.023  24.753  23.842  1.00  0.00    -0.329 N 
ATOM     10  H   UNL A   1      30.865  24.134  24.637  1.00  0.00     0.347 HD
ATOM     11  H   UNL A   1      30.229  24.854  23.210  1.00  0.00     0.347 HD
BRANCH   9  12
ATOM     12  C   UNL A   1      32.078  24.163  23.029  1.00  0.00     0.289 C 
BRANCH  12  13
ATOM     13  C   UNL A   1      32.073  22.683  23.293  1.00  0.00     0.025 C 
ATOM     14  C   UNL A   1      32.259  22.113  24.492  1.00  0.00     0.010 C 
ENDBRANCH  12  13
ENDBRANCH   9  12
ENDBRANCH   8   9
BRANCH   8  15
ATOM     15  C   UNL A   1      30.313  27.105  23.753  1.00  0.00     0.060 A 
ATOM     16  C   UNL A   1      28.898  27.081  23.752  1.00  0.00     0.145 A 
ATOM     17  C   UNL A   1      30.613  28.295  23.088  1.00  0.00     0.045 A 
ATOM     18  N   UNL A   1      28.351  28.120  23.125  1.00  0.00    -0.181 NA
ATOM     19  N   UNL A   1      29.407  28.855  22.747  1.00  0.00    -0.272 N 
ATOM     20  C   UNL A   1      31.913  28.951  22.792  1.00  0.00     0.067 C 
ATOM     21  C   UNL A   1      29.149  30.112  22.082  1.00  0.00     0.174 C 
ENDBRANCH   8  15
ENDBRANCH   5   8
ENDBRANCH   3   4
ENDBRANCH   2   3
ENDBRANCH   1   2
BRANCH   1  22
ATOM     22  C   UNL A   1      31.578  30.700  26.114  1.00  0.00     0.002 C 
BRANCH  22  23
ATOM     23  C   UNL A   1      31.395  32.164  26.512  1.00  0.00     0.021 C 
BRANCH  23  24
ATOM     24  C   UNL A   1      32.561  32.803  27.254  1.00  0.00     0.116 C 
BRANCH  24  25
ATOM     25  N   UNL A   1      32.322  34.187  27.625  1.00  0.00    -0.352 N 
ATOM     26  C   UNL A   1      32.949  34.957  28.574  1.00  0.00     0.251 C 
ATOM     27  H   UNL A   1      31.607  34.639  27.121  1.00  0.00     0.163 HD
ATOM     28  O   UNL A   1      32.529  36.084  28.827  1.00  0.00    -0.269 OA
BRANCH  26  29
ATOM     29  C   UNL A   1      34.110  34.424  29.320  1.00  0.00     0.039 A 
ATOM     30  C   UNL A   1      33.882  33.750  30.523  1.00  0.00     0.014 A 
ATOM     31  C   UNL A   1      35.415  34.580  28.845  1.00  0.00     0.014 A 
ATOM     32  C   UNL A   1      34.955  33.178  31.214  1.00  0.00     0.010 A 
ATOM     33  C   UNL A   1      36.470  33.936  29.486  1.00  0.00     0.010 A 
ATOM     34  C   UNL A   1      36.253  33.235  30.682  1.00  0.00    -0.014 A 
BRANCH  34  35
ATOM     35  C   UNL A   1      37.395  32.576  31.369  1.00  0.00     0.031 A 
ATOM     36  C   UNL A   1      38.107  31.423  30.717  1.00  0.00     0.074 A 
ATOM     37  C   UNL A   1      37.758  32.982  32.602  1.00  0.00     0.049 A 
ATOM     38  N   UNL A   1      39.085  30.684  31.178  1.00  0.00    -0.248 NA
ATOM     39  C   UNL A   1      37.639  31.029  29.379  1.00  0.00     0.031 C 
ATOM     40  C   UNL A   1      37.120  34.060  33.360  1.00  0.00     0.029 A 
ATOM     41  N   UNL A   1      38.750  32.531  33.438  1.00  0.00    -0.354 N 
ATOM     42  C   UNL A   1      39.339  29.737  30.194  1.00  0.00     0.074 A 
ATOM     43  C   UNL A   1      38.373  29.953  29.140  1.00  0.00     0.031 C 
ATOM     44  C   UNL A   1      37.753  34.205  34.535  1.00  0.00     0.029 A 
ATOM     45  C   UNL A   1      38.811  33.205  34.635  1.00  0.00     0.049 A 
ATOM     46  H   UNL A   1      39.358  31.794  33.204  1.00  0.00     0.167 HD
ATOM     47  C   UNL A   1      40.308  28.791  30.159  1.00  0.00     0.037 A 
ATOM     48  C   UNL A   1      39.624  33.030  35.694  1.00  0.00     0.037 A 
ATOM     49  C   UNL A   1      41.280  28.593  31.202  1.00  0.00     0.049 A 
ATOM     50  C   UNL A   1      40.679  31.956  35.640  1.00  0.00     0.074 A 
ATOM     51  C   UNL A   1      42.335  27.698  31.239  1.00  0.00     0.029 A 
ATOM     52  N   UNL A   1      41.314  29.299  32.396  1.00  0.00    -0.354 N 
ATOM     53  N   UNL A   1      40.953  31.113  34.674  1.00  0.00    -0.248 NA
ATOM     54  C   UNL A   1      41.539  31.814  36.822  1.00  0.00     0.031 C 
ATOM     55  C   UNL A   1      42.972  27.822  32.478  1.00  0.00     0.029 A 
ATOM     56  C   UNL A   1      42.355  28.839  33.188  1.00  0.00     0.049 A 
ATOM     57  H   UNL A   1      40.691  30.019  32.644  1.00  0.00     0.167 HD
ATOM     58  C   UNL A   1      42.036  30.365  35.118  1.00  0.00     0.074 A 
ATOM     59  C   UNL A   1      42.378  30.864  36.433  1.00  0.00     0.031 C 
ATOM     60  C   UNL A   1      42.688  29.353  34.493  1.00  0.00     0.037 A 
BRANCH  47  61
ATOM     61  C   UNL A   1      40.365  27.897  28.953  1.00  0.00     0.064 A 
ATOM     62  C   UNL A   1      41.145  28.221  27.831  1.00  0.00     0.173 A 
ATOM     63  C   UNL A   1      39.662  26.683  28.931  1.00  0.00     0.173 A 
ATOM     64  F   UNL A   1      41.829  29.374  27.794  1.00  0.00    -0.203 F 
ATOM     65  C   UNL A   1      41.190  27.382  26.721  1.00  0.00     0.198 A 
ATOM     66  C   UNL A   1      39.738  25.829  27.834  1.00  0.00     0.198 A 
ATOM     67  F   UNL A   1      38.907  26.319  29.979  1.00  0.00    -0.203 F 
ATOM     68  F   UNL A   1      41.895  27.740  25.640  1.00  0.00    -0.200 F 
ATOM     69  C   UNL A   1      40.493  26.183  26.727  1.00  0.00     0.200 A 
ATOM     70  F   UNL A   1      39.076  24.663  27.847  1.00  0.00    -0.200 F 
ATOM     71  F   UNL A   1      40.543  25.372  25.661  1.00  0.00    -0.200 F 
ENDBRANCH  47  61
BRANCH  48  72
ATOM     72  C   UNL A   1      39.489  33.904  36.890  1.00  0.00     0.064 A 
ATOM     73  C   UNL A   1      40.120  35.154  36.946  1.00  0.00     0.173 A 
ATOM     74  C   UNL A   1      38.742  33.502  38.008  1.00  0.00     0.173 A 
ATOM     75  F   UNL A   1      40.863  35.576  35.912  1.00  0.00    -0.203 F 
ATOM     76  C   UNL A   1      40.031  35.958  38.081  1.00  0.00     0.198 A 
ATOM     77  C   UNL A   1      38.626  34.320  39.129  1.00  0.00     0.198 A 
ATOM     78  F   UNL A   1      38.114  32.318  38.006  1.00  0.00    -0.203 F 
ATOM     79  F   UNL A   1      40.689  37.124  38.126  1.00  0.00    -0.200 F 
ATOM     80  C   UNL A   1      39.279  35.543  39.169  1.00  0.00     0.200 A 
ATOM     81  F   UNL A   1      37.885  33.923  40.173  1.00  0.00    -0.200 F 
ATOM     82  F   UNL A   1      39.191  36.317  40.260  1.00  0.00    -0.200 F 
ENDBRANCH  48  72
BRANCH  60  83
ATOM     83  C   UNL A   1      43.864  28.745  35.204  1.00  0.00     0.064 A 
ATOM     84  C   UNL A   1      45.161  29.257  35.061  1.00  0.00     0.173 A 
ATOM     85  C   UNL A   1      43.680  27.657  36.072  1.00  0.00     0.173 A 
ATOM     86  F   UNL A   1      45.393  30.287  34.233  1.00  0.00    -0.203 F 
ATOM     87  C   UNL A   1      46.235  28.685  35.736  1.00  0.00     0.198 A 
ATOM     88  C   UNL A   1      44.751  27.111  36.774  1.00  0.00     0.198 A 
ATOM     89  F   UNL A   1      42.458  27.132  36.252  1.00  0.00    -0.203 F 
ATOM     90  F   UNL A   1      47.475  29.158  35.542  1.00  0.00    -0.200 F 
ATOM     91  C   UNL A   1      46.029  27.619  36.598  1.00  0.00     0.200 A 
ATOM     92  F   UNL A   1      44.545  26.091  37.619  1.00  0.00    -0.200 F 
ATOM     93  F   UNL A   1      47.063  27.075  37.255  1.00  0.00    -0.200 F 
ENDBRANCH  60  83
ENDBRANCH  34  35
ENDBRANCH  26  29
ENDBRANCH  24  25
ENDBRANCH  23  24
ENDBRANCH  22  23
ENDBRANCH   1  22
TORSDOF 17
ENDMDL
