MODEL 1
REMARK VINA RESULT:     -12.6      0.000      0.000
REMARK SMILES O=C(C[C@H]1S/C(=[NH+]/N=C/c2cccc(Cl)c2)NC1=O)NCCCCCCNC(=O)c1ccc(-c2c3nc(c(-c4c(F)c(F)c(F)c(F)c4F)c4ccc([nH]4)c(-c4c(F)c(F)c(F)c(F)c4F)c4nc(c(-c5c(F)c(F)c(F)c(F)c5F)c5ccc2[nH]5)C=C4)C=C3)cc1
REMARK SMILES IDX 23 1 22 2 21 3 20 4 1 5 2 6 3 8 4 9 5 10 18 11 6 12 17 13
REMARK SMILES IDX 19 14 7 15 8 18 9 19 10 20 11 21 16 22 12 23 14 24 13 25
REMARK SMILES IDX 15 26 24 27 25 28 26 29 27 30 28 31 29 33 30 34 31 35 92 36
REMARK SMILES IDX 32 37 91 38 33 39 34 40 35 41 85 42 36 43 90 44 84 45 86 46
REMARK SMILES IDX 37 47 89 48 83 49 82 50 38 52 70 53 50 54 69 55 51 56 54 57
REMARK SMILES IDX 68 58 87 59 52 60 53 61 67 63 88 64 55 65 39 66 40 67 48 68
REMARK SMILES IDX 41 69 42 70 46 71 49 72 43 73 44 74 47 75 45 76 71 77 72 78
REMARK SMILES IDX 80 79 73 80 74 81 78 82 81 83 75 84 76 85 79 86 77 87 56 88
REMARK SMILES IDX 57 89 65 90 58 91 59 92 63 93 66 94 60 95 61 96 64 97 62 98
REMARK H PARENT 20 7 17 16 7 17 27 32 86 51 54 62
REMARK Flexibility Score: inf
ROOT
ATOM      1  C   UNL A   1      32.294  29.455  26.957  1.00  0.00     0.002 C 
ENDROOT
BRANCH   1   2
ATOM      2  C   UNL A   1      32.284  27.999  26.464  1.00  0.00     0.021 C 
BRANCH   2   3
ATOM      3  C   UNL A   1      33.653  27.322  26.424  1.00  0.00     0.116 C 
BRANCH   3   4
ATOM      4  N   UNL A   1      33.808  26.543  25.216  1.00  0.00    -0.356 N 
ATOM      5  O   UNL A   1      33.649  24.459  26.173  1.00  0.00    -0.275 OA
ATOM      6  C   UNL A   1      33.767  25.170  25.182  1.00  0.00     0.221 C 
ATOM      7  H   UNL A   1      33.949  27.025  24.368  1.00  0.00     0.163 HD
BRANCH   6   8
ATOM      8  C   UNL A   1      33.932  24.603  23.790  1.00  0.00     0.127 C 
BRANCH   8   9
ATOM      9  C   UNL A   1      32.781  24.830  22.803  1.00  0.00     0.183 C 
ATOM     10  S   UNL A   1      31.069  24.805  23.472  1.00  0.00    -0.020 SA
ATOM     11  C   UNL A   1      32.924  26.227  22.210  1.00  0.00     0.322 C 
ATOM     12  C   UNL A   1      30.851  26.504  23.242  1.00  0.00     0.337 C 
ATOM     13  N   UNL A   1      31.873  27.032  22.536  1.00  0.00    -0.202 N 
ATOM     14  O   UNL A   1      33.892  26.613  21.573  1.00  0.00    -0.246 OA
ATOM     15  N   UNL A   1      29.849  27.167  23.711  1.00  0.00    -0.142 N 
ATOM     16  H   UNL A   1      31.860  27.977  22.263  1.00  0.00     0.316 HD
ATOM     17  H   UNL A   1      29.145  26.772  24.274  1.00  0.00     0.343 HD
BRANCH  15  18
ATOM     18  N   UNL A   1      29.878  28.511  23.327  1.00  0.00    -0.093 NA
ATOM     19  C   UNL A   1      28.733  28.894  22.856  1.00  0.00     0.166 C 
BRANCH  19  20
ATOM     20  C   UNL A   1      28.553  30.255  22.320  1.00  0.00    -0.002 A 
ATOM     21  C   UNL A   1      27.961  30.440  21.065  1.00  0.00     0.010 A 
ATOM     22  C   UNL A   1      28.966  31.353  23.079  1.00  0.00     0.030 A 
ATOM     23  C   UNL A   1      27.783  31.728  20.562  1.00  0.00     0.002 A 
ATOM     24  C   UNL A   1      28.798  32.635  22.558  1.00  0.00     0.041 A 
ATOM     25  C   UNL A   1      28.208  32.828  21.307  1.00  0.00     0.020 A 
ATOM     26  Cl  UNL A   1      29.330  33.999  23.462  1.00  0.00    -0.084 Cl
ENDBRANCH  19  20
ENDBRANCH  15  18
ENDBRANCH   8   9
ENDBRANCH   6   8
ENDBRANCH   3   4
ENDBRANCH   2   3
ENDBRANCH   1   2
BRANCH   1  27
ATOM     27  C   UNL A   1      31.705  30.484  25.988  1.00  0.00     0.002 C 
BRANCH  27  28
ATOM     28  C   UNL A   1      31.385  31.845  26.607  1.00  0.00     0.021 C 
BRANCH  28  29
ATOM     29  C   UNL A   1      32.576  32.562  27.235  1.00  0.00     0.116 C 
BRANCH  29  30
ATOM     30  N   UNL A   1      32.295  33.956  27.543  1.00  0.00    -0.352 N 
ATOM     31  C   UNL A   1      32.895  34.772  28.472  1.00  0.00     0.251 C 
ATOM     32  H   UNL A   1      31.576  34.372  27.012  1.00  0.00     0.163 HD
ATOM     33  O   UNL A   1      32.430  35.881  28.716  1.00  0.00    -0.269 OA
BRANCH  31  34
ATOM     34  C   UNL A   1      34.090  34.293  29.199  1.00  0.00     0.039 A 
ATOM     35  C   UNL A   1      33.922  33.562  30.378  1.00  0.00     0.014 A 
ATOM     36  C   UNL A   1      35.373  34.550  28.709  1.00  0.00     0.014 A 
ATOM     37  C   UNL A   1      35.040  33.031  31.029  1.00  0.00     0.010 A 
ATOM     38  C   UNL A   1      36.477  33.960  29.317  1.00  0.00     0.010 A 
ATOM     39  C   UNL A   1      36.323  33.194  30.483  1.00  0.00    -0.014 A 
BRANCH  39  40
ATOM     40  C   UNL A   1      37.523  32.587  31.117  1.00  0.00     0.031 A 
ATOM     41  C   UNL A   1      38.249  31.467  30.423  1.00  0.00     0.074 A 
ATOM     42  C   UNL A   1      37.909  32.983  32.346  1.00  0.00     0.049 A 
ATOM     43  N   UNL A   1      39.234  30.722  30.857  1.00  0.00    -0.248 NA
ATOM     44  C   UNL A   1      37.788  31.118  29.069  1.00  0.00     0.031 C 
ATOM     45  C   UNL A   1      37.269  34.032  33.139  1.00  0.00     0.029 A 
ATOM     46  N   UNL A   1      38.926  32.533  33.154  1.00  0.00    -0.354 N 
ATOM     47  C   UNL A   1      39.490  29.806  29.845  1.00  0.00     0.074 A 
ATOM     48  C   UNL A   1      38.532  30.058  28.791  1.00  0.00     0.031 C 
ATOM     49  C   UNL A   1      37.911  34.153  34.312  1.00  0.00     0.029 A 
ATOM     50  C   UNL A   1      38.979  33.161  34.375  1.00  0.00     0.049 A 
ATOM     51  H   UNL A   1      39.555  31.826  32.883  1.00  0.00     0.167 HD
ATOM     52  C   UNL A   1      40.451  28.854  29.792  1.00  0.00     0.037 A 
ATOM     53  C   UNL A   1      39.787  32.947  35.432  1.00  0.00     0.037 A 
ATOM     54  C   UNL A   1      41.428  28.631  30.825  1.00  0.00     0.049 A 
ATOM     55  C   UNL A   1      40.841  31.873  35.346  1.00  0.00     0.074 A 
ATOM     56  C   UNL A   1      42.483  27.736  30.833  1.00  0.00     0.029 A 
ATOM     57  N   UNL A   1      41.470  29.310  32.033  1.00  0.00    -0.354 N 
ATOM     58  N   UNL A   1      41.119  31.061  34.355  1.00  0.00    -0.248 NA
ATOM     59  C   UNL A   1      41.700  31.688  36.527  1.00  0.00     0.031 C 
ATOM     60  C   UNL A   1      43.134  27.837  32.066  1.00  0.00     0.029 A 
ATOM     61  C   UNL A   1      42.520  28.838  32.802  1.00  0.00     0.049 A 
ATOM     62  H   UNL A   1      40.846  30.023  32.304  1.00  0.00     0.167 HD
ATOM     63  C   UNL A   1      42.206  30.305  34.773  1.00  0.00     0.074 A 
ATOM     64  C   UNL A   1      42.544  30.758  36.106  1.00  0.00     0.031 C 
ATOM     65  C   UNL A   1      42.865  29.323  34.113  1.00  0.00     0.037 A 
BRANCH  52  66
ATOM     66  C   UNL A   1      40.507  27.975  28.577  1.00  0.00     0.064 A 
ATOM     67  C   UNL A   1      41.243  28.336  27.439  1.00  0.00     0.173 A 
ATOM     68  C   UNL A   1      39.878  26.720  28.581  1.00  0.00     0.173 A 
ATOM     69  F   UNL A   1      41.853  29.530  27.382  1.00  0.00    -0.203 F 
ATOM     70  C   UNL A   1      41.334  27.482  26.344  1.00  0.00     0.198 A 
ATOM     71  C   UNL A   1      39.998  25.855  27.497  1.00  0.00     0.198 A 
ATOM     72  F   UNL A   1      39.167  26.322  29.646  1.00  0.00    -0.203 F 
ATOM     73  F   UNL A   1      42.014  27.864  25.254  1.00  0.00    -0.200 F 
ATOM     74  C   UNL A   1      40.721  26.238  26.378  1.00  0.00     0.200 A 
ATOM     75  F   UNL A   1      39.417  24.647  27.537  1.00  0.00    -0.200 F 
ATOM     76  F   UNL A   1      40.828  25.409  25.330  1.00  0.00    -0.200 F 
ENDBRANCH  52  66
BRANCH  53  77
ATOM     77  C   UNL A   1      39.644  33.762  36.669  1.00  0.00     0.064 A 
ATOM     78  C   UNL A   1      38.756  33.379  37.687  1.00  0.00     0.173 A 
ATOM     79  C   UNL A   1      40.350  34.961  36.841  1.00  0.00     0.173 A 
ATOM     80  F   UNL A   1      38.041  32.252  37.560  1.00  0.00    -0.203 F 
ATOM     81  C   UNL A   1      38.554  34.181  38.808  1.00  0.00     0.198 A 
ATOM     82  C   UNL A   1      40.172  35.746  37.980  1.00  0.00     0.198 A 
ATOM     83  F   UNL A   1      41.215  35.373  35.903  1.00  0.00    -0.203 F 
ATOM     84  F   UNL A   1      37.649  33.823  39.729  1.00  0.00    -0.200 F 
ATOM     85  C   UNL A   1      39.264  35.362  38.954  1.00  0.00     0.200 A 
ATOM     86  F   UNL A   1      40.872  36.880  38.125  1.00  0.00    -0.200 F 
ATOM     87  F   UNL A   1      39.063  36.138  40.028  1.00  0.00    -0.200 F 
ENDBRANCH  53  77
BRANCH  65  88
ATOM     88  C   UNL A   1      44.062  28.714  34.784  1.00  0.00     0.064 A 
ATOM     89  C   UNL A   1      45.344  29.267  34.658  1.00  0.00     0.173 A 
ATOM     90  C   UNL A   1      43.908  27.592  35.613  1.00  0.00     0.173 A 
ATOM     91  F   UNL A   1      45.546  30.331  33.867  1.00  0.00    -0.203 F 
ATOM     92  C   UNL A   1      46.433  28.708  35.322  1.00  0.00     0.198 A 
ATOM     93  C   UNL A   1      44.992  27.055  36.301  1.00  0.00     0.198 A 
ATOM     94  F   UNL A   1      42.702  27.029  35.775  1.00  0.00    -0.203 F 
ATOM     95  F   UNL A   1      47.656  29.226  35.153  1.00  0.00    -0.200 F 
ATOM     96  C   UNL A   1      46.255  27.609  36.150  1.00  0.00     0.200 A 
ATOM     97  F   UNL A   1      44.815  26.004  37.114  1.00  0.00    -0.200 F 
ATOM     98  F   UNL A   1      47.301  27.080  36.799  1.00  0.00    -0.200 F 
ENDBRANCH  65  88
ENDBRANCH  39  40
ENDBRANCH  31  34
ENDBRANCH  29  30
ENDBRANCH  28  29
ENDBRANCH  27  28
ENDBRANCH   1  27
TORSDOF 16
ENDMDL
MODEL 2
REMARK VINA RESULT:     -12.5      0.468      7.287
REMARK SMILES O=C(C[C@H]1S/C(=[NH+]/N=C/c2cccc(Cl)c2)NC1=O)NCCCCCCNC(=O)c1ccc(-c2c3nc(c(-c4c(F)c(F)c(F)c(F)c4F)c4ccc([nH]4)c(-c4c(F)c(F)c(F)c(F)c4F)c4nc(c(-c5c(F)c(F)c(F)c(F)c5F)c5ccc2[nH]5)C=C4)C=C3)cc1
REMARK SMILES IDX 23 1 22 2 21 3 20 4 1 5 2 6 3 8 4 9 5 10 18 11 6 12 17 13
REMARK SMILES IDX 19 14 7 15 8 18 9 19 10 20 11 21 16 22 12 23 14 24 13 25
REMARK SMILES IDX 15 26 24 27 25 28 26 29 27 30 28 31 29 33 30 34 31 35 92 36
REMARK SMILES IDX 32 37 91 38 33 39 34 40 35 41 85 42 36 43 90 44 84 45 86 46
REMARK SMILES IDX 37 47 89 48 83 49 82 50 38 52 70 53 50 54 69 55 51 56 54 57
REMARK SMILES IDX 68 58 87 59 52 60 53 61 67 63 88 64 55 65 39 66 40 67 48 68
REMARK SMILES IDX 41 69 42 70 46 71 49 72 43 73 44 74 47 75 45 76 71 77 72 78
REMARK SMILES IDX 80 79 73 80 74 81 78 82 81 83 75 84 76 85 79 86 77 87 56 88
REMARK SMILES IDX 57 89 65 90 58 91 59 92 63 93 66 94 60 95 61 96 64 97 62 98
REMARK H PARENT 20 7 17 16 7 17 27 32 86 51 54 62
REMARK Flexibility Score: inf
ROOT
ATOM      1  C   UNL A   1      32.215  29.721  26.952  1.00  0.00     0.002 C 
ENDROOT
BRANCH   1   2
ATOM      2  C   UNL A   1      32.250  28.266  26.456  1.00  0.00     0.021 C 
BRANCH   2   3
ATOM      3  C   UNL A   1      33.635  27.620  26.447  1.00  0.00     0.116 C 
BRANCH   3   4
ATOM      4  N   UNL A   1      33.818  26.810  25.264  1.00  0.00    -0.356 N 
ATOM      5  O   UNL A   1      33.888  24.761  26.305  1.00  0.00    -0.275 OA
ATOM      6  C   UNL A   1      33.903  25.438  25.285  1.00  0.00     0.221 C 
ATOM      7  H   UNL A   1      33.883  27.266  24.393  1.00  0.00     0.163 HD
BRANCH   6   8
ATOM      8  C   UNL A   1      34.070  24.831  23.910  1.00  0.00     0.127 C 
BRANCH   8   9
ATOM      9  C   UNL A   1      32.790  24.528  23.121  1.00  0.00     0.183 C 
ATOM     10  S   UNL A   1      31.197  24.566  24.037  1.00  0.00    -0.020 SA
ATOM     11  C   UNL A   1      32.623  25.595  22.046  1.00  0.00     0.322 C 
ATOM     12  C   UNL A   1      30.667  26.009  23.245  1.00  0.00     0.337 C 
ATOM     13  N   UNL A   1      31.496  26.338  22.232  1.00  0.00    -0.202 N 
ATOM     14  O   UNL A   1      33.431  25.814  21.156  1.00  0.00    -0.246 OA
ATOM     15  N   UNL A   1      29.628  26.682  23.606  1.00  0.00    -0.142 N 
ATOM     16  H   UNL A   1      31.290  27.097  21.640  1.00  0.00     0.316 HD
ATOM     17  H   UNL A   1      29.071  26.457  24.386  1.00  0.00     0.343 HD
BRANCH  15  18
ATOM     18  N   UNL A   1      29.382  27.768  22.761  1.00  0.00    -0.093 NA
ATOM     19  C   UNL A   1      29.211  28.863  23.434  1.00  0.00     0.166 C 
BRANCH  19  20
ATOM     20  C   UNL A   1      28.864  30.123  22.751  1.00  0.00    -0.002 A 
ATOM     21  C   UNL A   1      28.219  30.090  21.509  1.00  0.00     0.010 A 
ATOM     22  C   UNL A   1      29.172  31.341  23.359  1.00  0.00     0.030 A 
ATOM     23  C   UNL A   1      27.883  31.281  20.868  1.00  0.00     0.002 A 
ATOM     24  C   UNL A   1      28.845  32.526  22.700  1.00  0.00     0.041 A 
ATOM     25  C   UNL A   1      28.202  32.502  21.462  1.00  0.00     0.020 A 
ATOM     26  Cl  UNL A   1      29.246  34.039  23.417  1.00  0.00    -0.084 Cl
ENDBRANCH  19  20
ENDBRANCH  15  18
ENDBRANCH   8   9
ENDBRANCH   6   8
ENDBRANCH   3   4
ENDBRANCH   2   3
ENDBRANCH   1   2
BRANCH   1  27
ATOM     27  C   UNL A   1      31.558  30.727  26.003  1.00  0.00     0.002 C 
BRANCH  27  28
ATOM     28  C   UNL A   1      31.370  32.130  26.577  1.00  0.00     0.021 C 
BRANCH  28  29
ATOM     29  C   UNL A   1      32.611  32.729  27.232  1.00  0.00     0.116 C 
BRANCH  29  30
ATOM     30  N   UNL A   1      32.422  34.114  27.635  1.00  0.00    -0.352 N 
ATOM     31  C   UNL A   1      33.063  34.819  28.625  1.00  0.00     0.251 C 
ATOM     32  H   UNL A   1      31.741  34.615  27.128  1.00  0.00     0.163 HD
ATOM     33  O   UNL A   1      32.672  35.938  28.943  1.00  0.00    -0.269 OA
BRANCH  31  34
ATOM     34  C   UNL A   1      34.211  34.208  29.329  1.00  0.00     0.039 A 
ATOM     35  C   UNL A   1      33.991  33.531  30.531  1.00  0.00     0.014 A 
ATOM     36  C   UNL A   1      35.500  34.290  28.794  1.00  0.00     0.014 A 
ATOM     37  C   UNL A   1      35.054  32.877  31.162  1.00  0.00     0.010 A 
ATOM     38  C   UNL A   1      36.539  33.577  29.384  1.00  0.00     0.010 A 
ATOM     39  C   UNL A   1      36.329  32.864  30.574  1.00  0.00    -0.014 A 
BRANCH  39  40
ATOM     40  C   UNL A   1      37.463  32.123  31.187  1.00  0.00     0.031 A 
ATOM     41  C   UNL A   1      37.962  32.514  32.550  1.00  0.00     0.074 A 
ATOM     42  C   UNL A   1      38.093  31.158  30.487  1.00  0.00     0.049 A 
ATOM     43  N   UNL A   1      39.010  32.082  33.205  1.00  0.00    -0.248 NA
ATOM     44  C   UNL A   1      37.197  33.551  33.263  1.00  0.00     0.031 C 
ATOM     45  C   UNL A   1      37.729  30.710  29.143  1.00  0.00     0.029 A 
ATOM     46  N   UNL A   1      39.189  30.392  30.805  1.00  0.00    -0.354 N 
ATOM     47  C   UNL A   1      39.043  32.809  34.389  1.00  0.00     0.074 A 
ATOM     48  C   UNL A   1      37.936  33.740  34.346  1.00  0.00     0.031 C 
ATOM     49  C   UNL A   1      38.577  29.744  28.755  1.00  0.00     0.029 A 
ATOM     50  C   UNL A   1      39.573  29.534  29.803  1.00  0.00     0.049 A 
ATOM     51  H   UNL A   1      39.656  30.454  31.669  1.00  0.00     0.167 HD
ATOM     52  C   UNL A   1      39.907  32.696  35.425  1.00  0.00     0.037 A 
ATOM     53  C   UNL A   1      40.618  28.688  29.729  1.00  0.00     0.037 A 
ATOM     54  C   UNL A   1      40.983  31.742  35.482  1.00  0.00     0.049 A 
ATOM     55  C   UNL A   1      41.568  28.592  30.897  1.00  0.00     0.074 A 
ATOM     56  C   UNL A   1      41.869  31.506  36.518  1.00  0.00     0.029 A 
ATOM     57  N   UNL A   1      41.318  30.867  34.460  1.00  0.00    -0.354 N 
ATOM     58  N   UNL A   1      41.547  29.235  32.039  1.00  0.00    -0.248 NA
ATOM     59  C   UNL A   1      42.688  27.646  30.766  1.00  0.00     0.031 C 
ATOM     60  C   UNL A   1      42.772  30.523  36.105  1.00  0.00     0.029 A 
ATOM     61  C   UNL A   1      42.412  30.105  34.833  1.00  0.00     0.049 A 
ATOM     62  H   UNL A   1      40.848  30.798  33.597  1.00  0.00     0.167 HD
ATOM     63  C   UNL A   1      42.616  28.742  32.775  1.00  0.00     0.074 A 
ATOM     64  C   UNL A   1      43.263  27.740  31.955  1.00  0.00     0.031 C 
ATOM     65  C   UNL A   1      43.025  29.087  34.020  1.00  0.00     0.037 A 
BRANCH  52  66
ATOM     66  C   UNL A   1      39.731  33.621  36.593  1.00  0.00     0.064 A 
ATOM     67  C   UNL A   1      40.327  34.890  36.626  1.00  0.00     0.173 A 
ATOM     68  C   UNL A   1      38.891  33.263  37.660  1.00  0.00     0.173 A 
ATOM     69  F   UNL A   1      41.147  35.275  35.636  1.00  0.00    -0.203 F 
ATOM     70  C   UNL A   1      40.104  35.759  37.689  1.00  0.00     0.198 A 
ATOM     71  C   UNL A   1      38.645  34.148  38.707  1.00  0.00     0.198 A 
ATOM     72  F   UNL A   1      38.291  32.064  37.676  1.00  0.00    -0.203 F 
ATOM     73  F   UNL A   1      40.713  36.953  37.716  1.00  0.00    -0.200 F 
ATOM     74  C   UNL A   1      39.255  35.392  38.723  1.00  0.00     0.200 A 
ATOM     75  F   UNL A   1      37.813  33.797  39.697  1.00  0.00    -0.200 F 
ATOM     76  F   UNL A   1      39.026  36.240  39.736  1.00  0.00    -0.200 F 
ENDBRANCH  52  66
BRANCH  53  77
ATOM     77  C   UNL A   1      40.833  27.856  28.515  1.00  0.00     0.064 A 
ATOM     78  C   UNL A   1      41.657  28.303  27.471  1.00  0.00     0.173 A 
ATOM     79  C   UNL A   1      40.186  26.623  28.349  1.00  0.00     0.173 A 
ATOM     80  F   UNL A   1      42.281  29.486  27.572  1.00  0.00    -0.203 F 
ATOM     81  C   UNL A   1      41.795  27.569  26.294  1.00  0.00     0.198 A 
ATOM     82  C   UNL A   1      40.352  25.872  27.185  1.00  0.00     0.198 A 
ATOM     83  F   UNL A   1      39.391  26.145  29.317  1.00  0.00    -0.203 F 
ATOM     84  F   UNL A   1      42.534  28.054  25.288  1.00  0.00    -0.200 F 
ATOM     85  C   UNL A   1      41.144  26.353  26.154  1.00  0.00     0.200 A 
ATOM     86  F   UNL A   1      39.733  24.690  27.060  1.00  0.00    -0.200 F 
ATOM     87  F   UNL A   1      41.270  25.651  25.020  1.00  0.00    -0.200 F 
ENDBRANCH  53  77
BRANCH  65  88
ATOM     88  C   UNL A   1      44.183  28.335  34.606  1.00  0.00     0.064 A 
ATOM     89  C   UNL A   1      44.011  27.129  35.299  1.00  0.00     0.173 A 
ATOM     90  C   UNL A   1      45.493  28.804  34.419  1.00  0.00     0.173 A 
ATOM     91  F   UNL A   1      42.778  26.646  35.517  1.00  0.00    -0.203 F 
ATOM     92  C   UNL A   1      45.105  26.429  35.800  1.00  0.00     0.198 A 
ATOM     93  C   UNL A   1      46.587  28.086  34.893  1.00  0.00     0.198 A 
ATOM     94  F   UNL A   1      45.715  29.949  33.756  1.00  0.00    -0.203 F 
ATOM     95  F   UNL A   1      44.914  25.301  36.497  1.00  0.00    -0.200 F 
ATOM     96  C   UNL A   1      46.392  26.902  35.589  1.00  0.00     0.200 A 
ATOM     97  F   UNL A   1      47.830  28.536  34.672  1.00  0.00    -0.200 F 
ATOM     98  F   UNL A   1      47.445  26.220  36.060  1.00  0.00    -0.200 F 
ENDBRANCH  65  88
ENDBRANCH  39  40
ENDBRANCH  31  34
ENDBRANCH  29  30
ENDBRANCH  28  29
ENDBRANCH  27  28
ENDBRANCH   1  27
TORSDOF 16
ENDMDL
MODEL 3
REMARK VINA RESULT:     -12.4      6.177     11.610
REMARK SMILES O=C(C[C@H]1S/C(=[NH+]/N=C/c2cccc(Cl)c2)NC1=O)NCCCCCCNC(=O)c1ccc(-c2c3nc(c(-c4c(F)c(F)c(F)c(F)c4F)c4ccc([nH]4)c(-c4c(F)c(F)c(F)c(F)c4F)c4nc(c(-c5c(F)c(F)c(F)c(F)c5F)c5ccc2[nH]5)C=C4)C=C3)cc1
REMARK SMILES IDX 23 1 22 2 21 3 20 4 1 5 2 6 3 8 4 9 5 10 18 11 6 12 17 13
REMARK SMILES IDX 19 14 7 15 8 18 9 19 10 20 11 21 16 22 12 23 14 24 13 25
REMARK SMILES IDX 15 26 24 27 25 28 26 29 27 30 28 31 29 33 30 34 31 35 92 36
REMARK SMILES IDX 32 37 91 38 33 39 34 40 35 41 85 42 36 43 90 44 84 45 86 46
REMARK SMILES IDX 37 47 89 48 83 49 82 50 38 52 70 53 50 54 69 55 51 56 54 57
REMARK SMILES IDX 68 58 87 59 52 60 53 61 67 63 88 64 55 65 39 66 40 67 48 68
REMARK SMILES IDX 41 69 42 70 46 71 49 72 43 73 44 74 47 75 45 76 71 77 72 78
REMARK SMILES IDX 80 79 73 80 74 81 78 82 81 83 75 84 76 85 79 86 77 87 56 88
REMARK SMILES IDX 57 89 65 90 58 91 59 92 63 93 66 94 60 95 61 96 64 97 62 98
REMARK H PARENT 20 7 17 16 7 17 27 32 86 51 54 62
REMARK Flexibility Score: inf
ROOT
ATOM      1  C   UNL A   1      36.585  22.295  24.823  1.00  0.00     0.002 C 
ENDROOT
BRANCH   1   2
ATOM      2  C   UNL A   1      35.972  23.224  25.883  1.00  0.00     0.021 C 
BRANCH   2   3
ATOM      3  C   UNL A   1      35.291  24.475  25.330  1.00  0.00     0.116 C 
BRANCH   3   4
ATOM      4  N   UNL A   1      33.942  24.595  25.838  1.00  0.00    -0.356 N 
ATOM      5  O   UNL A   1      33.405  26.580  24.810  1.00  0.00    -0.275 OA
ATOM      6  C   UNL A   1      33.095  25.627  25.515  1.00  0.00     0.221 C 
ATOM      7  H   UNL A   1      33.612  23.896  26.449  1.00  0.00     0.163 HD
BRANCH   6   8
ATOM      8  C   UNL A   1      31.733  25.505  26.161  1.00  0.00     0.127 C 
BRANCH   8   9
ATOM      9  C   UNL A   1      30.771  24.469  25.568  1.00  0.00     0.183 C 
ATOM     10  S   UNL A   1      31.136  23.836  23.881  1.00  0.00    -0.020 SA
ATOM     11  C   UNL A   1      30.805  23.222  26.445  1.00  0.00     0.322 C 
ATOM     12  C   UNL A   1      31.571  22.266  24.461  1.00  0.00     0.337 C 
ATOM     13  N   UNL A   1      31.278  22.135  25.772  1.00  0.00    -0.202 N 
ATOM     14  O   UNL A   1      30.511  23.201  27.630  1.00  0.00    -0.246 OA
ATOM     15  N   UNL A   1      32.123  21.361  23.727  1.00  0.00    -0.142 N 
ATOM     16  H   UNL A   1      31.403  21.274  26.232  1.00  0.00     0.316 HD
ATOM     17  H   UNL A   1      32.383  21.498  22.787  1.00  0.00     0.343 HD
BRANCH  15  18
ATOM     18  N   UNL A   1      32.311  20.161  24.420  1.00  0.00    -0.093 NA
ATOM     19  C   UNL A   1      33.229  19.432  23.866  1.00  0.00     0.166 C 
BRANCH  19  20
ATOM     20  C   UNL A   1      33.542  18.089  24.384  1.00  0.00    -0.002 A 
ATOM     21  C   UNL A   1      34.852  17.598  24.308  1.00  0.00     0.010 A 
ATOM     22  C   UNL A   1      32.529  17.321  24.961  1.00  0.00     0.030 A 
ATOM     23  C   UNL A   1      35.150  16.331  24.806  1.00  0.00     0.002 A 
ATOM     24  C   UNL A   1      32.837  16.048  25.441  1.00  0.00     0.041 A 
ATOM     25  C   UNL A   1      34.139  15.551  25.368  1.00  0.00     0.020 A 
ATOM     26  Cl  UNL A   1      31.596  15.072  26.126  1.00  0.00    -0.084 Cl
ENDBRANCH  19  20
ENDBRANCH  15  18
ENDBRANCH   8   9
ENDBRANCH   6   8
ENDBRANCH   3   4
ENDBRANCH   2   3
ENDBRANCH   1   2
BRANCH   1  27
ATOM     27  C   UNL A   1      36.526  20.799  25.142  1.00  0.00     0.002 C 
BRANCH  27  28
ATOM     28  C   UNL A   1      37.806  20.021  24.836  1.00  0.00     0.021 C 
BRANCH  28  29
ATOM     29  C   UNL A   1      38.986  20.339  25.749  1.00  0.00     0.116 C 
BRANCH  29  30
ATOM     30  N   UNL A   1      39.923  19.232  25.863  1.00  0.00    -0.352 N 
ATOM     31  C   UNL A   1      41.281  19.271  26.070  1.00  0.00     0.251 C 
ATOM     32  H   UNL A   1      39.530  18.333  25.780  1.00  0.00     0.163 HD
ATOM     33  O   UNL A   1      41.952  18.247  25.982  1.00  0.00    -0.269 OA
BRANCH  31  34
ATOM     34  C   UNL A   1      41.937  20.562  26.372  1.00  0.00     0.039 A 
ATOM     35  C   UNL A   1      42.328  21.389  25.317  1.00  0.00     0.014 A 
ATOM     36  C   UNL A   1      42.149  20.961  27.695  1.00  0.00     0.014 A 
ATOM     37  C   UNL A   1      42.871  22.649  25.589  1.00  0.00     0.010 A 
ATOM     38  C   UNL A   1      42.620  22.243  27.962  1.00  0.00     0.010 A 
ATOM     39  C   UNL A   1      42.987  23.100  26.913  1.00  0.00    -0.014 A 
BRANCH  39  40
ATOM     40  C   UNL A   1      43.500  24.459  27.232  1.00  0.00     0.031 A 
ATOM     41  C   UNL A   1      42.555  25.515  27.738  1.00  0.00     0.074 A 
ATOM     42  C   UNL A   1      44.789  24.766  26.989  1.00  0.00     0.049 A 
ATOM     43  N   UNL A   1      42.773  26.787  27.955  1.00  0.00    -0.248 NA
ATOM     44  C   UNL A   1      41.172  25.090  28.011  1.00  0.00     0.031 C 
ATOM     45  C   UNL A   1      45.797  23.844  26.465  1.00  0.00     0.029 A 
ATOM     46  N   UNL A   1      45.470  25.952  27.133  1.00  0.00    -0.354 N 
ATOM     47  C   UNL A   1      41.555  27.315  28.363  1.00  0.00     0.074 A 
ATOM     48  C   UNL A   1      40.590  26.238  28.325  1.00  0.00     0.031 C 
ATOM     49  C   UNL A   1      46.966  24.491  26.342  1.00  0.00     0.029 A 
ATOM     50  C   UNL A   1      46.783  25.886  26.733  1.00  0.00     0.049 A 
ATOM     51  H   UNL A   1      45.055  26.770  27.488  1.00  0.00     0.167 HD
ATOM     52  C   UNL A   1      41.271  28.581  28.753  1.00  0.00     0.037 A 
ATOM     53  C   UNL A   1      47.727  26.846  26.672  1.00  0.00     0.037 A 
ATOM     54  C   UNL A   1      42.241  29.641  28.828  1.00  0.00     0.049 A 
ATOM     55  C   UNL A   1      47.378  28.248  27.106  1.00  0.00     0.074 A 
ATOM     56  C   UNL A   1      42.065  30.938  29.277  1.00  0.00     0.029 A 
ATOM     57  N   UNL A   1      43.569  29.526  28.447  1.00  0.00    -0.354 N 
ATOM     58  N   UNL A   1      46.240  28.717  27.556  1.00  0.00    -0.248 NA
ATOM     59  C   UNL A   1      48.448  29.253  27.025  1.00  0.00     0.031 C 
ATOM     60  C   UNL A   1      43.273  31.623  29.119  1.00  0.00     0.029 A 
ATOM     61  C   UNL A   1      44.217  30.736  28.628  1.00  0.00     0.049 A 
ATOM     62  H   UNL A   1      43.989  28.706  28.098  1.00  0.00     0.167 HD
ATOM     63  C   UNL A   1      46.469  30.054  27.854  1.00  0.00     0.074 A 
ATOM     64  C   UNL A   1      47.856  30.321  27.540  1.00  0.00     0.031 C 
ATOM     65  C   UNL A   1      45.608  30.978  28.344  1.00  0.00     0.037 A 
BRANCH  52  66
ATOM     66  C   UNL A   1      39.857  28.900  29.137  1.00  0.00     0.064 A 
ATOM     67  C   UNL A   1      38.910  29.310  28.187  1.00  0.00     0.173 A 
ATOM     68  C   UNL A   1      39.423  28.718  30.460  1.00  0.00     0.173 A 
ATOM     69  F   UNL A   1      39.276  29.509  26.912  1.00  0.00    -0.203 F 
ATOM     70  C   UNL A   1      37.586  29.543  28.550  1.00  0.00     0.198 A 
ATOM     71  C   UNL A   1      38.092  28.921  30.813  1.00  0.00     0.198 A 
ATOM     72  F   UNL A   1      40.286  28.321  31.406  1.00  0.00    -0.203 F 
ATOM     73  F   UNL A   1      36.707  29.969  27.632  1.00  0.00    -0.200 F 
ATOM     74  C   UNL A   1      37.176  29.338  29.860  1.00  0.00     0.200 A 
ATOM     75  F   UNL A   1      37.694  28.708  32.075  1.00  0.00    -0.200 F 
ATOM     76  F   UNL A   1      35.896  29.543  30.201  1.00  0.00    -0.200 F 
ENDBRANCH  52  66
BRANCH  53  77
ATOM     77  C   UNL A   1      49.097  26.529  26.187  1.00  0.00     0.064 A 
ATOM     78  C   UNL A   1      50.075  26.031  27.062  1.00  0.00     0.173 A 
ATOM     79  C   UNL A   1      49.474  26.759  24.856  1.00  0.00     0.173 A 
ATOM     80  F   UNL A   1      49.771  25.815  28.350  1.00  0.00    -0.203 F 
ATOM     81  C   UNL A   1      51.383  25.814  26.634  1.00  0.00     0.198 A 
ATOM     82  C   UNL A   1      50.774  26.508  24.421  1.00  0.00     0.198 A 
ATOM     83  F   UNL A   1      48.578  27.230  23.976  1.00  0.00    -0.203 F 
ATOM     84  F   UNL A   1      52.312  25.404  27.509  1.00  0.00    -0.200 F 
ATOM     85  C   UNL A   1      51.730  26.050  25.313  1.00  0.00     0.200 A 
ATOM     86  F   UNL A   1      51.102  26.724  23.139  1.00  0.00    -0.200 F 
ATOM     87  F   UNL A   1      52.990  25.848  24.904  1.00  0.00    -0.200 F 
ENDBRANCH  53  77
BRANCH  65  88
ATOM     88  C   UNL A   1      46.148  32.346  28.639  1.00  0.00     0.064 A 
ATOM     89  C   UNL A   1      46.166  33.361  27.672  1.00  0.00     0.173 A 
ATOM     90  C   UNL A   1      46.599  32.661  29.931  1.00  0.00     0.173 A 
ATOM     91  F   UNL A   1      45.759  33.108  26.419  1.00  0.00    -0.203 F 
ATOM     92  C   UNL A   1      46.635  34.635  27.981  1.00  0.00     0.198 A 
ATOM     93  C   UNL A   1      47.036  33.944  30.245  1.00  0.00     0.198 A 
ATOM     94  F   UNL A   1      46.594  31.729  30.895  1.00  0.00    -0.203 F 
ATOM     95  F   UNL A   1      46.685  35.578  27.030  1.00  0.00    -0.200 F 
ATOM     96  C   UNL A   1      47.061  34.929  29.268  1.00  0.00     0.200 A 
ATOM     97  F   UNL A   1      47.431  34.230  31.493  1.00  0.00    -0.200 F 
ATOM     98  F   UNL A   1      47.499  36.159  29.567  1.00  0.00    -0.200 F 
ENDBRANCH  65  88
ENDBRANCH  39  40
ENDBRANCH  31  34
ENDBRANCH  29  30
ENDBRANCH  28  29
ENDBRANCH  27  28
ENDBRANCH   1  27
TORSDOF 16
ENDMDL
