MODEL 1
REMARK VINA RESULT:     -11.6      0.000      0.000
REMARK SMILES COc1ccc(COc2cncc(C(=O)NCCCCCCNC(=O)c3ccc(-c4c5nc(c(-c6c(F)c(F)c(F)c(F)c6F)c6ccc([nH]6)c(-c6c(F)c(F)c(F)c(F)c6F)c6nc(c(-c7c(F)c(F)c(F)c(F)c7F)c7ccc4[nH]7)C=C6)C=C5)cc3)n2)cc1
REMARK SMILES IDX 18 1 17 2 16 3 14 4 15 5 13 7 9 8 10 9 89 10 11 11 12 12
REMARK SMILES IDX 8 13 7 14 6 15 3 16 4 17 91 18 5 19 90 20 2 21 1 22 19 23
REMARK SMILES IDX 20 24 21 25 22 26 23 27 24 28 25 30 26 31 27 32 88 33 28 34
REMARK SMILES IDX 87 35 29 36 30 37 31 38 81 39 32 40 86 41 80 42 82 43 33 44
REMARK SMILES IDX 85 45 79 46 78 47 34 49 66 50 46 51 65 52 47 53 50 54 64 55
REMARK SMILES IDX 83 56 48 57 49 58 63 60 84 61 51 62 35 63 36 64 44 65 37 66
REMARK SMILES IDX 38 67 42 68 45 69 39 70 40 71 43 72 41 73 67 74 68 75 76 76
REMARK SMILES IDX 69 77 70 78 74 79 77 80 71 81 72 82 75 83 73 84 52 85 53 86
REMARK SMILES IDX 61 87 54 88 55 89 59 90 62 91 56 92 57 93 60 94 58 95
REMARK H PARENT 16 6 23 29 82 48 50 59
REMARK Flexibility Score: inf
ROOT
ATOM      1  C   UNL A   1      36.274  22.640  25.882  1.00  0.00     0.021 C 
ENDROOT
BRANCH   1   2
ATOM      2  C   UNL A   1      36.337  24.133  25.564  1.00  0.00     0.116 C 
BRANCH   2   3
ATOM      3  N   UNL A   1      35.096  24.790  25.935  1.00  0.00    -0.351 N 
ATOM      4  C   UNL A   1      33.915  24.972  25.256  1.00  0.00     0.271 C 
ATOM      5  O   UNL A   1      33.048  25.660  25.798  1.00  0.00    -0.267 OA
ATOM      6  H   UNL A   1      35.102  25.176  26.840  1.00  0.00     0.163 HD
BRANCH   4   7
ATOM      7  C   UNL A   1      33.626  24.353  23.933  1.00  0.00     0.150 A 
ATOM      8  C   UNL A   1      32.897  22.592  22.656  1.00  0.00     0.233 A 
ATOM      9  C   UNL A   1      32.879  23.419  21.538  1.00  0.00     0.179 A 
ATOM     10  N   UNL A   1      33.268  23.047  23.865  1.00  0.00    -0.205 NA
ATOM     11  N   UNL A   1      33.287  24.711  21.576  1.00  0.00    -0.257 NA
ATOM     12  C   UNL A   1      33.650  25.160  22.803  1.00  0.00     0.145 A 
BRANCH   8  13
ATOM     13  O   UNL A   1      32.396  21.320  22.662  1.00  0.00    -0.472 OA
BRANCH  13  14
ATOM     14  C   UNL A   1      32.154  20.819  23.984  1.00  0.00     0.267 C 
BRANCH  14  15
ATOM     15  C   UNL A   1      32.676  19.409  24.107  1.00  0.00    -0.010 A 
ATOM     16  C   UNL A   1      33.247  16.676  24.383  1.00  0.00     0.118 A 
ATOM     17  C   UNL A   1      33.165  17.496  25.508  1.00  0.00     0.047 A 
ATOM     18  C   UNL A   1      33.093  17.235  23.113  1.00  0.00     0.047 A 
ATOM     19  C   UNL A   1      32.901  18.857  25.375  1.00  0.00     0.011 A 
ATOM     20  C   UNL A   1      32.815  18.598  22.975  1.00  0.00     0.011 A 
BRANCH  16  21
ATOM     21  O   UNL A   1      33.435  15.351  24.659  1.00  0.00    -0.497 OA
ATOM     22  C   UNL A   1      32.539  14.760  25.590  1.00  0.00     0.278 C 
ENDBRANCH  16  21
ENDBRANCH  14  15
ENDBRANCH  13  14
ENDBRANCH   8  13
ENDBRANCH   4   7
ENDBRANCH   2   3
ENDBRANCH   1   2
BRANCH   1  23
ATOM     23  C   UNL A   1      37.157  21.777  24.974  1.00  0.00     0.002 C 
BRANCH  23  24
ATOM     24  C   UNL A   1      36.836  20.279  24.994  1.00  0.00     0.002 C 
BRANCH  24  25
ATOM     25  C   UNL A   1      38.056  19.354  25.002  1.00  0.00     0.021 C 
BRANCH  25  26
ATOM     26  C   UNL A   1      39.265  19.907  25.748  1.00  0.00     0.116 C 
BRANCH  26  27
ATOM     27  N   UNL A   1      40.302  18.902  25.927  1.00  0.00    -0.352 N 
ATOM     28  C   UNL A   1      41.646  19.069  26.127  1.00  0.00     0.251 C 
ATOM     29  H   UNL A   1      39.993  17.969  25.901  1.00  0.00     0.163 HD
ATOM     30  O   UNL A   1      42.407  18.101  26.066  1.00  0.00    -0.269 OA
BRANCH  28  31
ATOM     31  C   UNL A   1      42.195  20.413  26.398  1.00  0.00     0.039 A 
ATOM     32  C   UNL A   1      42.639  21.191  25.326  1.00  0.00     0.014 A 
ATOM     33  C   UNL A   1      42.285  20.901  27.706  1.00  0.00     0.014 A 
ATOM     34  C   UNL A   1      43.123  22.479  25.559  1.00  0.00     0.010 A 
ATOM     35  C   UNL A   1      42.702  22.209  27.929  1.00  0.00     0.010 A 
ATOM     36  C   UNL A   1      43.130  23.010  26.859  1.00  0.00    -0.014 A 
BRANCH  36  37
ATOM     37  C   UNL A   1      43.582  24.400  27.118  1.00  0.00     0.031 A 
ATOM     38  C   UNL A   1      42.613  25.427  27.631  1.00  0.00     0.074 A 
ATOM     39  C   UNL A   1      44.851  24.749  26.833  1.00  0.00     0.049 A 
ATOM     40  N   UNL A   1      42.801  26.704  27.854  1.00  0.00    -0.248 NA
ATOM     41  C   UNL A   1      41.243  24.966  27.903  1.00  0.00     0.031 C 
ATOM     42  C   UNL A   1      45.873  23.854  26.289  1.00  0.00     0.029 A 
ATOM     43  N   UNL A   1      45.496  25.955  26.951  1.00  0.00    -0.354 N 
ATOM     44  C   UNL A   1      41.574  27.197  28.277  1.00  0.00     0.074 A 
ATOM     45  C   UNL A   1      40.636  26.097  28.231  1.00  0.00     0.031 C 
ATOM     46  C   UNL A   1      47.020  24.535  26.138  1.00  0.00     0.029 A 
ATOM     47  C   UNL A   1      46.805  25.923  26.539  1.00  0.00     0.049 A 
ATOM     48  H   UNL A   1      45.060  26.768  27.298  1.00  0.00     0.167 HD
ATOM     49  C   UNL A   1      41.264  28.450  28.690  1.00  0.00     0.037 A 
ATOM     50  C   UNL A   1      47.727  26.902  26.483  1.00  0.00     0.037 A 
ATOM     51  C   UNL A   1      42.207  29.536  28.759  1.00  0.00     0.049 A 
ATOM     52  C   UNL A   1      47.355  28.286  26.942  1.00  0.00     0.074 A 
ATOM     53  C   UNL A   1      42.006  30.825  29.222  1.00  0.00     0.029 A 
ATOM     54  N   UNL A   1      43.530  29.460  28.349  1.00  0.00    -0.354 N 
ATOM     55  N   UNL A   1      46.210  28.725  27.407  1.00  0.00    -0.248 NA
ATOM     56  C   UNL A   1      48.407  29.311  26.875  1.00  0.00     0.031 C 
ATOM     57  C   UNL A   1      43.195  31.542  29.048  1.00  0.00     0.029 A 
ATOM     58  C   UNL A   1      44.151  30.686  28.526  1.00  0.00     0.049 A 
ATOM     59  H   UNL A   1      43.963  28.654  27.986  1.00  0.00     0.167 HD
ATOM     60  C   UNL A   1      46.410  30.065  27.712  1.00  0.00     0.074 A 
ATOM     61  C   UNL A   1      47.791  30.363  27.395  1.00  0.00     0.031 C 
ATOM     62  C   UNL A   1      45.529  30.966  28.210  1.00  0.00     0.037 A 
BRANCH  49  63
ATOM     63  C   UNL A   1      39.845  28.715  29.103  1.00  0.00     0.064 A 
ATOM     64  C   UNL A   1      38.880  29.152  28.181  1.00  0.00     0.173 A 
ATOM     65  C   UNL A   1      39.433  28.492  30.425  1.00  0.00     0.173 A 
ATOM     66  F   UNL A   1      39.224  29.390  26.907  1.00  0.00    -0.203 F 
ATOM     67  C   UNL A   1      37.566  29.386  28.576  1.00  0.00     0.198 A 
ATOM     68  C   UNL A   1      38.110  28.697  30.809  1.00  0.00     0.198 A 
ATOM     69  F   UNL A   1      40.312  28.068  31.345  1.00  0.00    -0.203 F 
ATOM     70  F   UNL A   1      36.674  29.851  27.690  1.00  0.00    -0.200 F 
ATOM     71  C   UNL A   1      37.179  29.151  29.887  1.00  0.00     0.200 A 
ATOM     72  F   UNL A   1      37.736  28.457  32.074  1.00  0.00    -0.200 F 
ATOM     73  F   UNL A   1      35.912  29.369  30.264  1.00  0.00    -0.200 F 
ENDBRANCH  49  63
BRANCH  50  74
ATOM     74  C   UNL A   1      49.098  26.605  25.993  1.00  0.00     0.064 A 
ATOM     75  C   UNL A   1      50.064  26.057  26.849  1.00  0.00     0.173 A 
ATOM     76  C   UNL A   1      49.472  26.864  24.667  1.00  0.00     0.173 A 
ATOM     77  F   UNL A   1      49.759  25.812  28.132  1.00  0.00    -0.203 F 
ATOM     78  C   UNL A   1      51.358  25.801  26.403  1.00  0.00     0.198 A 
ATOM     79  C   UNL A   1      50.759  26.580  24.214  1.00  0.00     0.198 A 
ATOM     80  F   UNL A   1      48.583  27.383  23.808  1.00  0.00    -0.203 F 
ATOM     81  F   UNL A   1      52.275  25.321  27.253  1.00  0.00    -0.200 F 
ATOM     82  C   UNL A   1      51.704  26.057  25.083  1.00  0.00     0.200 A 
ATOM     83  F   UNL A   1      51.083  26.815  22.935  1.00  0.00    -0.200 F 
ATOM     84  F   UNL A   1      52.947  25.806  24.653  1.00  0.00    -0.200 F 
ENDBRANCH  50  74
BRANCH  62  85
ATOM     85  C   UNL A   1      46.038  32.353  28.473  1.00  0.00     0.064 A 
ATOM     86  C   UNL A   1      45.963  33.362  27.502  1.00  0.00     0.173 A 
ATOM     87  C   UNL A   1      46.574  32.687  29.727  1.00  0.00     0.173 A 
ATOM     88  F   UNL A   1      45.473  33.089  26.282  1.00  0.00    -0.203 F 
ATOM     89  C   UNL A   1      46.428  34.647  27.766  1.00  0.00     0.198 A 
ATOM     90  C   UNL A   1      47.009  33.980  29.999  1.00  0.00     0.198 A 
ATOM     91  F   UNL A   1      46.663  31.760  30.692  1.00  0.00    -0.203 F 
ATOM     92  F   UNL A   1      46.389  35.583  26.808  1.00  0.00    -0.200 F 
ATOM     93  C   UNL A   1      46.943  34.957  29.016  1.00  0.00     0.200 A 
ATOM     94  F   UNL A   1      47.494  34.282  31.211  1.00  0.00    -0.200 F 
ATOM     95  F   UNL A   1      47.383  36.197  29.273  1.00  0.00    -0.200 F 
ENDBRANCH  62  85
ENDBRANCH  36  37
ENDBRANCH  28  31
ENDBRANCH  26  27
ENDBRANCH  25  26
ENDBRANCH  24  25
ENDBRANCH  23  24
ENDBRANCH   1  23
TORSDOF 17
ENDMDL
MODEL 2
REMARK VINA RESULT:     -11.3      1.973      8.096
REMARK SMILES COc1ccc(COc2cncc(C(=O)NCCCCCCNC(=O)c3ccc(-c4c5nc(c(-c6c(F)c(F)c(F)c(F)c6F)c6ccc([nH]6)c(-c6c(F)c(F)c(F)c(F)c6F)c6nc(c(-c7c(F)c(F)c(F)c(F)c7F)c7ccc4[nH]7)C=C6)C=C5)cc3)n2)cc1
REMARK SMILES IDX 18 1 17 2 16 3 14 4 15 5 13 7 9 8 10 9 89 10 11 11 12 12
REMARK SMILES IDX 8 13 7 14 6 15 3 16 4 17 91 18 5 19 90 20 2 21 1 22 19 23
REMARK SMILES IDX 20 24 21 25 22 26 23 27 24 28 25 30 26 31 27 32 88 33 28 34
REMARK SMILES IDX 87 35 29 36 30 37 31 38 81 39 32 40 86 41 80 42 82 43 33 44
REMARK SMILES IDX 85 45 79 46 78 47 34 49 66 50 46 51 65 52 47 53 50 54 64 55
REMARK SMILES IDX 83 56 48 57 49 58 63 60 84 61 51 62 35 63 36 64 44 65 37 66
REMARK SMILES IDX 38 67 42 68 45 69 39 70 40 71 43 72 41 73 67 74 68 75 76 76
REMARK SMILES IDX 69 77 70 78 74 79 77 80 71 81 72 82 75 83 73 84 52 85 53 86
REMARK SMILES IDX 61 87 54 88 55 89 59 90 62 91 56 92 57 93 60 94 58 95
REMARK H PARENT 16 6 23 29 82 48 50 59
REMARK Flexibility Score: inf
ROOT
ATOM      1  C   UNL A   1      37.405  23.223  24.617  1.00  0.00     0.021 C 
ENDROOT
BRANCH   1   2
ATOM      2  C   UNL A   1      35.970  23.712  24.801  1.00  0.00     0.116 C 
BRANCH   2   3
ATOM      3  N   UNL A   1      35.239  23.643  23.547  1.00  0.00    -0.351 N 
ATOM      4  C   UNL A   1      33.939  23.301  23.259  1.00  0.00     0.271 C 
ATOM      5  O   UNL A   1      33.616  23.244  22.071  1.00  0.00    -0.267 OA
ATOM      6  H   UNL A   1      35.775  23.886  22.758  1.00  0.00     0.163 HD
BRANCH   4   7
ATOM      7  C   UNL A   1      32.911  23.038  24.304  1.00  0.00     0.150 A 
ATOM      8  C   UNL A   1      31.359  23.775  25.824  1.00  0.00     0.233 A 
ATOM      9  C   UNL A   1      30.890  22.473  25.965  1.00  0.00     0.179 A 
ATOM     10  N   UNL A   1      32.372  24.074  24.992  1.00  0.00    -0.205 NA
ATOM     11  N   UNL A   1      31.453  21.418  25.329  1.00  0.00    -0.257 NA
ATOM     12  C   UNL A   1      32.468  21.734  24.486  1.00  0.00     0.145 A 
BRANCH   8  13
ATOM     13  O   UNL A   1      30.743  24.864  26.376  1.00  0.00    -0.472 OA
BRANCH  13  14
ATOM     14  C   UNL A   1      31.492  26.075  26.212  1.00  0.00     0.267 C 
BRANCH  14  15
ATOM     15  C   UNL A   1      30.811  26.974  25.211  1.00  0.00    -0.010 A 
ATOM     16  C   UNL A   1      29.796  28.474  23.068  1.00  0.00     0.118 A 
ATOM     17  C   UNL A   1      30.896  28.934  23.792  1.00  0.00     0.047 A 
ATOM     18  C   UNL A   1      29.172  27.284  23.449  1.00  0.00     0.047 A 
ATOM     19  C   UNL A   1      31.391  28.203  24.869  1.00  0.00     0.011 A 
ATOM     20  C   UNL A   1      29.673  26.540  24.521  1.00  0.00     0.011 A 
BRANCH  16  21
ATOM     21  O   UNL A   1      29.461  29.247  21.992  1.00  0.00    -0.497 OA
ATOM     22  C   UNL A   1      28.151  29.797  21.985  1.00  0.00     0.278 C 
ENDBRANCH  16  21
ENDBRANCH  14  15
ENDBRANCH  13  14
ENDBRANCH   8  13
ENDBRANCH   4   7
ENDBRANCH   2   3
ENDBRANCH   1   2
BRANCH   1  23
ATOM     23  C   UNL A   1      37.738  21.965  25.428  1.00  0.00     0.002 C 
BRANCH  23  24
ATOM     24  C   UNL A   1      37.419  20.640  24.728  1.00  0.00     0.002 C 
BRANCH  24  25
ATOM     25  C   UNL A   1      38.440  19.522  24.957  1.00  0.00     0.021 C 
BRANCH  25  26
ATOM     26  C   UNL A   1      39.457  19.809  26.056  1.00  0.00     0.116 C 
BRANCH  26  27
ATOM     27  N   UNL A   1      40.605  18.919  25.983  1.00  0.00    -0.352 N 
ATOM     28  C   UNL A   1      41.940  19.217  26.036  1.00  0.00     0.251 C 
ATOM     29  H   UNL A   1      40.391  17.964  25.882  1.00  0.00     0.163 HD
ATOM     30  O   UNL A   1      42.780  18.357  25.765  1.00  0.00    -0.269 OA
BRANCH  28  31
ATOM     31  C   UNL A   1      42.381  20.579  26.399  1.00  0.00     0.039 A 
ATOM     32  C   UNL A   1      42.767  21.458  25.384  1.00  0.00     0.014 A 
ATOM     33  C   UNL A   1      42.429  20.985  27.737  1.00  0.00     0.014 A 
ATOM     34  C   UNL A   1      43.148  22.762  25.705  1.00  0.00     0.010 A 
ATOM     35  C   UNL A   1      42.742  22.304  28.049  1.00  0.00     0.010 A 
ATOM     36  C   UNL A   1      43.110  23.205  27.037  1.00  0.00    -0.014 A 
BRANCH  36  37
ATOM     37  C   UNL A   1      43.451  24.605  27.390  1.00  0.00     0.031 A 
ATOM     38  C   UNL A   1      44.887  25.045  27.435  1.00  0.00     0.074 A 
ATOM     39  C   UNL A   1      42.470  25.463  27.729  1.00  0.00     0.049 A 
ATOM     40  N   UNL A   1      45.388  26.204  27.785  1.00  0.00    -0.248 NA
ATOM     41  C   UNL A   1      45.897  24.042  27.064  1.00  0.00     0.031 C 
ATOM     42  C   UNL A   1      41.042  25.143  27.768  1.00  0.00     0.029 A 
ATOM     43  N   UNL A   1      42.525  26.779  28.118  1.00  0.00    -0.354 N 
ATOM     44  C   UNL A   1      46.766  26.063  27.689  1.00  0.00     0.074 A 
ATOM     45  C   UNL A   1      47.026  24.695  27.300  1.00  0.00     0.031 C 
ATOM     46  C   UNL A   1      40.356  26.235  28.140  1.00  0.00     0.029 A 
ATOM     47  C   UNL A   1      41.296  27.322  28.401  1.00  0.00     0.049 A 
ATOM     48  H   UNL A   1      43.367  27.285  28.188  1.00  0.00     0.167 HD
ATOM     49  C   UNL A   1      47.727  26.998  27.886  1.00  0.00     0.037 A 
ATOM     50  C   UNL A   1      40.965  28.554  28.831  1.00  0.00     0.037 A 
ATOM     51  C   UNL A   1      47.462  28.366  28.250  1.00  0.00     0.049 A 
ATOM     52  C   UNL A   1      42.051  29.572  29.047  1.00  0.00     0.074 A 
ATOM     53  C   UNL A   1      48.362  29.405  28.411  1.00  0.00     0.029 A 
ATOM     54  N   UNL A   1      46.202  28.883  28.512  1.00  0.00    -0.354 N 
ATOM     55  N   UNL A   1      43.347  29.448  28.886  1.00  0.00    -0.248 NA
ATOM     56  C   UNL A   1      41.629  30.905  29.499  1.00  0.00     0.031 C 
ATOM     57  C   UNL A   1      47.651  30.540  28.817  1.00  0.00     0.029 A 
ATOM     58  C   UNL A   1      46.303  30.222  28.857  1.00  0.00     0.049 A 
ATOM     59  H   UNL A   1      45.360  28.375  28.459  1.00  0.00     0.167 HD
ATOM     60  C   UNL A   1      43.890  30.689  29.189  1.00  0.00     0.074 A 
ATOM     61  C   UNL A   1      42.782  31.558  29.529  1.00  0.00     0.031 C 
ATOM     62  C   UNL A   1      45.189  31.075  29.187  1.00  0.00     0.037 A 
BRANCH  49  63
ATOM     63  C   UNL A   1      49.156  26.574  27.711  1.00  0.00     0.064 A 
ATOM     64  C   UNL A   1      49.744  26.474  26.439  1.00  0.00     0.173 A 
ATOM     65  C   UNL A   1      49.961  26.301  28.827  1.00  0.00     0.173 A 
ATOM     66  F   UNL A   1      49.015  26.715  25.339  1.00  0.00    -0.203 F 
ATOM     67  C   UNL A   1      51.073  26.088  26.293  1.00  0.00     0.198 A 
ATOM     68  C   UNL A   1      51.299  25.945  28.677  1.00  0.00     0.198 A 
ATOM     69  F   UNL A   1      49.452  26.386  30.065  1.00  0.00    -0.203 F 
ATOM     70  F   UNL A   1      51.598  25.952  25.067  1.00  0.00    -0.200 F 
ATOM     71  C   UNL A   1      51.852  25.831  27.410  1.00  0.00     0.200 A 
ATOM     72  F   UNL A   1      52.054  25.709  29.760  1.00  0.00    -0.200 F 
ATOM     73  F   UNL A   1      53.133  25.467  27.268  1.00  0.00    -0.200 F 
ENDBRANCH  49  63
BRANCH  50  74
ATOM     74  C   UNL A   1      39.538  28.900  29.064  1.00  0.00     0.064 A 
ATOM     75  C   UNL A   1      38.957  28.741  30.330  1.00  0.00     0.173 A 
ATOM     76  C   UNL A   1      38.728  29.390  28.030  1.00  0.00     0.173 A 
ATOM     77  F   UNL A   1      39.687  28.255  31.345  1.00  0.00    -0.203 F 
ATOM     78  C   UNL A   1      37.614  29.039  30.547  1.00  0.00     0.198 A 
ATOM     79  C   UNL A   1      37.392  29.715  28.255  1.00  0.00     0.198 A 
ATOM     80  F   UNL A   1      39.238  29.564  26.802  1.00  0.00    -0.203 F 
ATOM     81  F   UNL A   1      37.071  28.833  31.755  1.00  0.00    -0.200 F 
ATOM     82  C   UNL A   1      36.833  29.532  29.511  1.00  0.00     0.200 A 
ATOM     83  F   UNL A   1      36.646  30.205  27.256  1.00  0.00    -0.200 F 
ATOM     84  F   UNL A   1      35.543  29.822  29.721  1.00  0.00    -0.200 F 
ENDBRANCH  50  74
BRANCH  62  85
ATOM     85  C   UNL A   1      45.483  32.505  29.532  1.00  0.00     0.064 A 
ATOM     86  C   UNL A   1      45.521  33.506  28.551  1.00  0.00     0.173 A 
ATOM     87  C   UNL A   1      45.692  32.885  30.867  1.00  0.00     0.173 A 
ATOM     88  F   UNL A   1      45.344  33.192  27.258  1.00  0.00    -0.203 F 
ATOM     89  C   UNL A   1      45.784  34.831  28.889  1.00  0.00     0.198 A 
ATOM     90  C   UNL A   1      45.923  34.215  31.206  1.00  0.00     0.198 A 
ATOM     91  F   UNL A   1      45.660  31.967  31.844  1.00  0.00    -0.203 F 
ATOM     92  F   UNL A   1      45.862  35.764  27.930  1.00  0.00    -0.200 F 
ATOM     93  C   UNL A   1      45.975  35.186  30.217  1.00  0.00     0.200 A 
ATOM     94  F   UNL A   1      46.095  34.558  32.491  1.00  0.00    -0.200 F 
ATOM     95  F   UNL A   1      46.220  36.462  30.543  1.00  0.00    -0.200 F 
ENDBRANCH  62  85
ENDBRANCH  36  37
ENDBRANCH  28  31
ENDBRANCH  26  27
ENDBRANCH  25  26
ENDBRANCH  24  25
ENDBRANCH  23  24
ENDBRANCH   1  23
TORSDOF 17
ENDMDL
MODEL 3
REMARK VINA RESULT:     -11.2      0.751      7.356
REMARK SMILES COc1ccc(COc2cncc(C(=O)NCCCCCCNC(=O)c3ccc(-c4c5nc(c(-c6c(F)c(F)c(F)c(F)c6F)c6ccc([nH]6)c(-c6c(F)c(F)c(F)c(F)c6F)c6nc(c(-c7c(F)c(F)c(F)c(F)c7F)c7ccc4[nH]7)C=C6)C=C5)cc3)n2)cc1
REMARK SMILES IDX 18 1 17 2 16 3 14 4 15 5 13 7 9 8 10 9 89 10 11 11 12 12
REMARK SMILES IDX 8 13 7 14 6 15 3 16 4 17 91 18 5 19 90 20 2 21 1 22 19 23
REMARK SMILES IDX 20 24 21 25 22 26 23 27 24 28 25 30 26 31 27 32 88 33 28 34
REMARK SMILES IDX 87 35 29 36 30 37 31 38 81 39 32 40 86 41 80 42 82 43 33 44
REMARK SMILES IDX 85 45 79 46 78 47 34 49 66 50 46 51 65 52 47 53 50 54 64 55
REMARK SMILES IDX 83 56 48 57 49 58 63 60 84 61 51 62 35 63 36 64 44 65 37 66
REMARK SMILES IDX 38 67 42 68 45 69 39 70 40 71 43 72 41 73 67 74 68 75 76 76
REMARK SMILES IDX 69 77 70 78 74 79 77 80 71 81 72 82 75 83 73 84 52 85 53 86
REMARK SMILES IDX 61 87 54 88 55 89 59 90 62 91 56 92 57 93 60 94 58 95
REMARK H PARENT 16 6 23 29 82 48 50 59
REMARK Flexibility Score: inf
ROOT
ATOM      1  C   UNL A   1      35.904  22.585  25.304  1.00  0.00     0.021 C 
ENDROOT
BRANCH   1   2
ATOM      2  C   UNL A   1      36.284  24.062  25.380  1.00  0.00     0.116 C 
BRANCH   2   3
ATOM      3  N   UNL A   1      35.152  24.863  25.813  1.00  0.00    -0.351 N 
ATOM      4  C   UNL A   1      34.064  25.357  25.134  1.00  0.00     0.271 C 
ATOM      5  O   UNL A   1      33.294  26.094  25.753  1.00  0.00    -0.267 OA
ATOM      6  H   UNL A   1      35.166  25.093  26.770  1.00  0.00     0.163 HD
BRANCH   4   7
ATOM      7  C   UNL A   1      33.759  25.017  23.716  1.00  0.00     0.150 A 
ATOM      8  C   UNL A   1      33.038  23.539  22.117  1.00  0.00     0.233 A 
ATOM      9  C   UNL A   1      32.977  24.578  21.194  1.00  0.00     0.179 A 
ATOM     10  N   UNL A   1      33.427  23.744  23.387  1.00  0.00    -0.205 NA
ATOM     11  N   UNL A   1      33.358  25.844  21.490  1.00  0.00    -0.257 NA
ATOM     12  C   UNL A   1      33.740  26.040  22.777  1.00  0.00     0.145 A 
BRANCH   8  13
ATOM     13  O   UNL A   1      32.564  22.281  21.869  1.00  0.00    -0.472 OA
BRANCH  13  14
ATOM     14  C   UNL A   1      31.966  21.670  23.020  1.00  0.00     0.267 C 
BRANCH  14  15
ATOM     15  C   UNL A   1      32.491  20.267  23.195  1.00  0.00    -0.010 A 
ATOM     16  C   UNL A   1      33.120  17.587  23.736  1.00  0.00     0.118 A 
ATOM     17  C   UNL A   1      33.487  18.592  24.632  1.00  0.00     0.047 A 
ATOM     18  C   UNL A   1      32.481  17.930  22.543  1.00  0.00     0.047 A 
ATOM     19  C   UNL A   1      33.195  19.926  24.358  1.00  0.00     0.011 A 
ATOM     20  C   UNL A   1      32.173  19.266  22.270  1.00  0.00     0.011 A 
BRANCH  16  21
ATOM     21  O   UNL A   1      33.399  16.319  24.161  1.00  0.00    -0.497 OA
ATOM     22  C   UNL A   1      34.409  16.186  25.152  1.00  0.00     0.278 C 
ENDBRANCH  16  21
ENDBRANCH  14  15
ENDBRANCH  13  14
ENDBRANCH   8  13
ENDBRANCH   4   7
ENDBRANCH   2   3
ENDBRANCH   1   2
BRANCH   1  23
ATOM     23  C   UNL A   1      37.001  21.694  24.712  1.00  0.00     0.002 C 
BRANCH  23  24
ATOM     24  C   UNL A   1      36.834  20.195  24.982  1.00  0.00     0.002 C 
BRANCH  24  25
ATOM     25  C   UNL A   1      38.129  19.379  24.942  1.00  0.00     0.021 C 
BRANCH  25  26
ATOM     26  C   UNL A   1      39.281  19.981  25.738  1.00  0.00     0.116 C 
BRANCH  26  27
ATOM     27  N   UNL A   1      40.381  19.043  25.902  1.00  0.00    -0.352 N 
ATOM     28  C   UNL A   1      41.710  19.292  26.111  1.00  0.00     0.251 C 
ATOM     29  H   UNL A   1      40.133  18.092  25.856  1.00  0.00     0.163 HD
ATOM     30  O   UNL A   1      42.533  18.376  26.034  1.00  0.00    -0.269 OA
BRANCH  28  31
ATOM     31  C   UNL A   1      42.170  20.662  26.412  1.00  0.00     0.039 A 
ATOM     32  C   UNL A   1      42.470  21.522  25.353  1.00  0.00     0.014 A 
ATOM     33  C   UNL A   1      42.319  21.096  27.733  1.00  0.00     0.014 A 
ATOM     34  C   UNL A   1      42.866  22.835  25.617  1.00  0.00     0.010 A 
ATOM     35  C   UNL A   1      42.647  22.422  27.994  1.00  0.00     0.010 A 
ATOM     36  C   UNL A   1      42.928  23.304  26.939  1.00  0.00    -0.014 A 
BRANCH  36  37
ATOM     37  C   UNL A   1      43.288  24.713  27.237  1.00  0.00     0.031 A 
ATOM     38  C   UNL A   1      44.691  25.200  27.011  1.00  0.00     0.074 A 
ATOM     39  C   UNL A   1      42.363  25.536  27.768  1.00  0.00     0.049 A 
ATOM     40  N   UNL A   1      45.213  26.372  27.272  1.00  0.00    -0.248 NA
ATOM     41  C   UNL A   1      45.641  24.233  26.440  1.00  0.00     0.031 C 
ATOM     42  C   UNL A   1      40.980  25.168  28.076  1.00  0.00     0.029 A 
ATOM     43  N   UNL A   1      42.451  26.851  28.154  1.00  0.00    -0.354 N 
ATOM     44  C   UNL A   1      46.551  26.278  26.912  1.00  0.00     0.074 A 
ATOM     45  C   UNL A   1      46.774  24.921  26.463  1.00  0.00     0.031 C 
ATOM     46  C   UNL A   1      40.344  26.235  28.585  1.00  0.00     0.029 A 
ATOM     47  C   UNL A   1      41.282  27.351  28.675  1.00  0.00     0.049 A 
ATOM     48  H   UNL A   1      43.274  27.384  28.068  1.00  0.00     0.167 HD
ATOM     49  C   UNL A   1      47.501  27.243  26.932  1.00  0.00     0.037 A 
ATOM     50  C   UNL A   1      41.001  28.569  29.175  1.00  0.00     0.037 A 
ATOM     51  C   UNL A   1      47.268  28.600  27.356  1.00  0.00     0.049 A 
ATOM     52  C   UNL A   1      42.077  29.621  29.190  1.00  0.00     0.074 A 
ATOM     53  C   UNL A   1      48.150  29.667  27.354  1.00  0.00     0.029 A 
ATOM     54  N   UNL A   1      46.066  29.073  27.861  1.00  0.00    -0.354 N 
ATOM     55  N   UNL A   1      43.320  29.541  28.782  1.00  0.00    -0.248 NA
ATOM     56  C   UNL A   1      41.707  30.937  29.731  1.00  0.00     0.031 C 
ATOM     57  C   UNL A   1      47.494  30.775  27.902  1.00  0.00     0.029 A 
ATOM     58  C   UNL A   1      46.190  30.412  28.196  1.00  0.00     0.049 A 
ATOM     59  H   UNL A   1      45.247  28.538  27.964  1.00  0.00     0.167 HD
ATOM     60  C   UNL A   1      43.872  30.798  28.990  1.00  0.00     0.074 A 
ATOM     61  C   UNL A   1      42.823  31.627  29.547  1.00  0.00     0.031 C 
ATOM     62  C   UNL A   1      45.134  31.226  28.744  1.00  0.00     0.037 A 
BRANCH  49  63
ATOM     63  C   UNL A   1      48.883  26.868  26.481  1.00  0.00     0.064 A 
ATOM     64  C   UNL A   1      49.826  26.326  27.369  1.00  0.00     0.173 A 
ATOM     65  C   UNL A   1      49.258  27.014  25.137  1.00  0.00     0.173 A 
ATOM     66  F   UNL A   1      49.520  26.175  28.666  1.00  0.00    -0.203 F 
ATOM     67  C   UNL A   1      51.100  25.975  26.934  1.00  0.00     0.198 A 
ATOM     68  C   UNL A   1      50.524  26.632  24.700  1.00  0.00     0.198 A 
ATOM     69  F   UNL A   1      48.395  27.520  24.244  1.00  0.00    -0.203 F 
ATOM     70  F   UNL A   1      52.000  25.506  27.811  1.00  0.00    -0.200 F 
ATOM     71  C   UNL A   1      51.447  26.120  25.600  1.00  0.00     0.200 A 
ATOM     72  F   UNL A   1      50.853  26.762  23.406  1.00  0.00    -0.200 F 
ATOM     73  F   UNL A   1      52.672  25.775  25.181  1.00  0.00    -0.200 F 
ENDBRANCH  49  63
BRANCH  50  74
ATOM     74  C   UNL A   1      39.636  28.866  29.681  1.00  0.00     0.064 A 
ATOM     75  C   UNL A   1      39.287  28.597  31.012  1.00  0.00     0.173 A 
ATOM     76  C   UNL A   1      38.653  29.420  28.848  1.00  0.00     0.173 A 
ATOM     77  F   UNL A   1      40.188  28.048  31.840  1.00  0.00    -0.203 F 
ATOM     78  C   UNL A   1      38.002  28.849  31.484  1.00  0.00     0.198 A 
ATOM     79  C   UNL A   1      37.375  29.698  29.329  1.00  0.00     0.198 A 
ATOM     80  F   UNL A   1      38.937  29.700  27.568  1.00  0.00    -0.203 F 
ATOM     81  F   UNL A   1      37.682  28.538  32.747  1.00  0.00    -0.200 F 
ATOM     82  C   UNL A   1      37.048  29.405  30.644  1.00  0.00     0.200 A 
ATOM     83  F   UNL A   1      36.462  30.250  28.518  1.00  0.00    -0.200 F 
ATOM     84  F   UNL A   1      35.813  29.651  31.100  1.00  0.00    -0.200 F 
ENDBRANCH  50  74
BRANCH  62  85
ATOM     85  C   UNL A   1      45.444  32.664  29.043  1.00  0.00     0.064 A 
ATOM     86  C   UNL A   1      45.981  33.060  30.276  1.00  0.00     0.173 A 
ATOM     87  C   UNL A   1      45.235  33.653  28.069  1.00  0.00     0.173 A 
ATOM     88  F   UNL A   1      46.184  32.155  31.247  1.00  0.00    -0.203 F 
ATOM     89  C   UNL A   1      46.275  34.396  30.534  1.00  0.00     0.198 A 
ATOM     90  C   UNL A   1      45.559  34.983  28.318  1.00  0.00     0.198 A 
ATOM     91  F   UNL A   1      44.729  33.325  26.871  1.00  0.00    -0.203 F 
ATOM     92  F   UNL A   1      46.743  34.759  31.735  1.00  0.00    -0.200 F 
ATOM     93  C   UNL A   1      46.071  35.355  29.552  1.00  0.00     0.200 A 
ATOM     94  F   UNL A   1      45.374  35.906  27.363  1.00  0.00    -0.200 F 
ATOM     95  F   UNL A   1      46.362  36.640  29.797  1.00  0.00    -0.200 F 
ENDBRANCH  62  85
ENDBRANCH  36  37
ENDBRANCH  28  31
ENDBRANCH  26  27
ENDBRANCH  25  26
ENDBRANCH  24  25
ENDBRANCH  23  24
ENDBRANCH   1  23
TORSDOF 17
ENDMDL
