MODEL 1
REMARK VINA RESULT:     -13.0      0.000      0.000
REMARK SMILES O=C(NCCCCCCNC(=O)[C@H]1CC=CC[C@H]1c1nc2cc(Br)ccc2o1)c1ccc(-c2c3nc(c(-c4c(F)c(F)c(F)c(F)c4F)c4ccc([nH]4)c(-c4c(F)c(F)c(F)c(F)c4F)c4nc(c(-c5c(F)c(F)c(F)c(F)c5F)c5ccc2[nH]5)C=C4)C=C3)cc1
REMARK SMILES IDX 6 1 5 2 4 3 3 4 1 5 2 6 29 8 30 9 91 10 31 11 90 12 32 13
REMARK SMILES IDX 33 14 34 15 84 16 35 17 89 18 83 19 85 20 36 21 88 22 82 23
REMARK SMILES IDX 81 24 37 26 69 27 49 28 68 29 50 30 53 31 67 32 86 33 51 34
REMARK SMILES IDX 52 35 66 37 87 38 54 39 38 40 39 41 47 42 40 43 41 44 45 45
REMARK SMILES IDX 48 46 42 47 43 48 46 49 44 50 70 51 71 52 79 53 72 54 73 55
REMARK SMILES IDX 77 56 80 57 74 58 75 59 78 60 76 61 55 62 56 63 64 64 57 65
REMARK SMILES IDX 58 66 62 67 65 68 59 69 60 70 63 71 61 72 7 73 8 74 9 75
REMARK SMILES IDX 10 76 11 77 12 79 13 80 14 81 18 82 15 83 17 84 16 85 19 86
REMARK SMILES IDX 20 87 28 88 21 89 27 90 22 91 26 92 23 93 25 94 24 95
REMARK H PARENT 3 7 85 25 53 36 10 78
REMARK Flexibility Score: inf
ROOT
ATOM      1  C   UNL A   1      40.794  21.271  27.278  1.00  0.00     0.002 C 
ENDROOT
BRANCH   1   2
ATOM      2  C   UNL A   1      41.933  20.244  27.221  1.00  0.00     0.021 C 
BRANCH   2   3
ATOM      3  C   UNL A   1      42.233  19.715  25.831  1.00  0.00     0.116 C 
BRANCH   3   4
ATOM      4  N   UNL A   1      43.663  19.528  25.544  1.00  0.00    -0.352 N 
ATOM      5  O   UNL A   1      45.628  20.190  24.574  1.00  0.00    -0.269 OA
ATOM      6  C   UNL A   1      44.592  20.488  25.130  1.00  0.00     0.251 C 
ATOM      7  H   UNL A   1      44.011  18.614  25.658  1.00  0.00     0.163 HD
BRANCH   6   8
ATOM      8  C   UNL A   1      44.273  21.898  25.425  1.00  0.00     0.039 A 
ATOM      9  C   UNL A   1      43.387  22.693  24.698  1.00  0.00     0.014 A 
ATOM     10  C   UNL A   1      44.839  22.372  26.590  1.00  0.00     0.014 A 
ATOM     11  C   UNL A   1      43.065  23.947  25.224  1.00  0.00     0.010 A 
ATOM     12  C   UNL A   1      44.153  23.316  27.276  1.00  0.00     0.010 A 
ATOM     13  C   UNL A   1      43.470  24.247  26.536  1.00  0.00    -0.014 A 
BRANCH  13  14
ATOM     14  C   UNL A   1      43.246  25.517  27.207  1.00  0.00     0.031 A 
ATOM     15  C   UNL A   1      44.214  26.573  26.861  1.00  0.00     0.074 A 
ATOM     16  C   UNL A   1      42.148  25.764  27.962  1.00  0.00     0.049 A 
ATOM     17  N   UNL A   1      45.145  27.044  27.617  1.00  0.00    -0.248 NA
ATOM     18  C   UNL A   1      44.252  27.062  25.476  1.00  0.00     0.031 C 
ATOM     19  C   UNL A   1      40.946  24.940  28.189  1.00  0.00     0.029 A 
ATOM     20  N   UNL A   1      41.849  26.890  28.662  1.00  0.00    -0.354 N 
ATOM     21  C   UNL A   1      45.779  28.027  26.872  1.00  0.00     0.074 A 
ATOM     22  C   UNL A   1      45.307  27.879  25.518  1.00  0.00     0.031 C 
ATOM     23  C   UNL A   1      39.974  25.679  28.767  1.00  0.00     0.029 A 
ATOM     24  C   UNL A   1      40.542  26.958  29.133  1.00  0.00     0.049 A 
ATOM     25  H   UNL A   1      42.507  27.604  28.822  1.00  0.00     0.167 HD
ATOM     26  C   UNL A   1      46.467  29.026  27.488  1.00  0.00     0.037 A 
ATOM     27  C   UNL A   1      39.975  28.001  29.786  1.00  0.00     0.037 A 
ATOM     28  C   UNL A   1      46.738  28.702  28.868  1.00  0.00     0.049 A 
ATOM     29  C   UNL A   1      41.091  28.799  30.358  1.00  0.00     0.074 A 
ATOM     30  C   UNL A   1      47.442  27.693  29.497  1.00  0.00     0.029 A 
ATOM     31  N   UNL A   1      45.905  29.225  29.828  1.00  0.00    -0.354 N 
ATOM     32  N   UNL A   1      41.875  28.362  31.305  1.00  0.00    -0.248 NA
ATOM     33  C   UNL A   1      41.636  29.869  29.535  1.00  0.00     0.031 C 
ATOM     34  C   UNL A   1      46.647  27.338  30.628  1.00  0.00     0.029 A 
ATOM     35  C   UNL A   1      45.548  28.198  30.667  1.00  0.00     0.049 A 
ATOM     36  H   UNL A   1      45.617  30.163  29.902  1.00  0.00     0.167 HD
ATOM     37  C   UNL A   1      43.144  28.788  30.939  1.00  0.00     0.074 A 
ATOM     38  C   UNL A   1      42.923  29.769  29.877  1.00  0.00     0.031 C 
ATOM     39  C   UNL A   1      44.261  28.100  31.318  1.00  0.00     0.037 A 
BRANCH  26  40
ATOM     40  C   UNL A   1      46.579  30.422  26.949  1.00  0.00     0.064 A 
ATOM     41  C   UNL A   1      47.835  31.055  26.926  1.00  0.00     0.173 A 
ATOM     42  C   UNL A   1      45.464  31.259  26.726  1.00  0.00     0.173 A 
ATOM     43  F   UNL A   1      48.956  30.354  27.156  1.00  0.00    -0.203 F 
ATOM     44  C   UNL A   1      47.959  32.435  26.754  1.00  0.00     0.198 A 
ATOM     45  C   UNL A   1      45.595  32.626  26.500  1.00  0.00     0.198 A 
ATOM     46  F   UNL A   1      44.207  30.813  26.833  1.00  0.00    -0.203 F 
ATOM     47  F   UNL A   1      49.163  33.013  26.859  1.00  0.00    -0.200 F 
ATOM     48  C   UNL A   1      46.838  33.221  26.545  1.00  0.00     0.200 A 
ATOM     49  F   UNL A   1      44.495  33.373  26.323  1.00  0.00    -0.200 F 
ATOM     50  F   UNL A   1      46.948  34.550  26.439  1.00  0.00    -0.200 F 
ENDBRANCH  26  40
BRANCH  27  51
ATOM     51  C   UNL A   1      38.607  28.545  29.603  1.00  0.00     0.064 A 
ATOM     52  C   UNL A   1      37.803  28.859  30.710  1.00  0.00     0.173 A 
ATOM     53  C   UNL A   1      38.179  29.045  28.356  1.00  0.00     0.173 A 
ATOM     54  F   UNL A   1      38.157  28.451  31.937  1.00  0.00    -0.203 F 
ATOM     55  C   UNL A   1      36.663  29.663  30.585  1.00  0.00     0.198 A 
ATOM     56  C   UNL A   1      37.040  29.843  28.233  1.00  0.00     0.198 A 
ATOM     57  F   UNL A   1      38.908  28.851  27.248  1.00  0.00    -0.203 F 
ATOM     58  F   UNL A   1      35.960  30.000  31.676  1.00  0.00    -0.200 F 
ATOM     59  C   UNL A   1      36.292  30.167  29.350  1.00  0.00     0.200 A 
ATOM     60  F   UNL A   1      36.710  30.349  27.036  1.00  0.00    -0.200 F 
ATOM     61  F   UNL A   1      35.243  30.994  29.239  1.00  0.00    -0.200 F 
ENDBRANCH  27  51
BRANCH  39  62
ATOM     62  C   UNL A   1      44.099  26.996  32.331  1.00  0.00     0.064 A 
ATOM     63  C   UNL A   1      44.043  25.629  32.007  1.00  0.00     0.173 A 
ATOM     64  C   UNL A   1      44.166  27.328  33.691  1.00  0.00     0.173 A 
ATOM     65  F   UNL A   1      44.067  25.221  30.734  1.00  0.00    -0.203 F 
ATOM     66  C   UNL A   1      44.026  24.647  32.997  1.00  0.00     0.198 A 
ATOM     67  C   UNL A   1      44.183  26.345  34.677  1.00  0.00     0.198 A 
ATOM     68  F   UNL A   1      44.273  28.614  34.062  1.00  0.00    -0.203 F 
ATOM     69  F   UNL A   1      43.972  23.349  32.658  1.00  0.00    -0.200 F 
ATOM     70  C   UNL A   1      44.106  25.005  34.331  1.00  0.00     0.200 A 
ATOM     71  F   UNL A   1      44.308  26.696  35.964  1.00  0.00    -0.200 F 
ATOM     72  F   UNL A   1      44.136  24.061  35.283  1.00  0.00    -0.200 F 
ENDBRANCH  39  62
ENDBRANCH  13  14
ENDBRANCH   6   8
ENDBRANCH   3   4
ENDBRANCH   2   3
ENDBRANCH   1   2
BRANCH   1  73
ATOM     73  C   UNL A   1      39.793  21.295  26.111  1.00  0.00     0.002 C 
BRANCH  73  74
ATOM     74  C   UNL A   1      38.769  22.438  26.096  1.00  0.00     0.021 C 
BRANCH  74  75
ATOM     75  C   UNL A   1      37.328  22.007  25.845  1.00  0.00     0.116 C 
BRANCH  75  76
ATOM     76  N   UNL A   1      36.880  22.408  24.527  1.00  0.00    -0.356 N 
ATOM     77  C   UNL A   1      35.725  23.009  24.133  1.00  0.00     0.224 C 
ATOM     78  H   UNL A   1      37.513  22.212  23.799  1.00  0.00     0.163 HD
ATOM     79  O   UNL A   1      35.557  23.153  22.924  1.00  0.00    -0.275 OA
BRANCH  77  80
ATOM     80  C   UNL A   1      34.728  23.477  25.190  1.00  0.00     0.095 C 
ATOM     81  C   UNL A   1      34.798  25.011  25.337  1.00  0.00     0.041 C 
ATOM     82  C   UNL A   1      33.279  23.046  24.884  1.00  0.00     0.092 C 
ATOM     83  C   UNL A   1      34.041  25.754  24.276  1.00  0.00    -0.030 C 
ATOM     84  C   UNL A   1      32.714  23.731  23.623  1.00  0.00     0.041 C 
ATOM     85  C   UNL A   1      33.121  25.173  23.494  1.00  0.00    -0.030 C 
BRANCH  82  86
ATOM     86  C   UNL A   1      33.115  21.558  24.832  1.00  0.00     0.199 A 
ATOM     87  N   UNL A   1      33.291  20.669  25.790  1.00  0.00    -0.213 NA
ATOM     88  O   UNL A   1      32.786  21.021  23.609  1.00  0.00    -0.440 OA
ATOM     89  C   UNL A   1      33.019  19.471  25.185  1.00  0.00     0.111 A 
ATOM     90  C   UNL A   1      32.722  19.679  23.848  1.00  0.00     0.154 A 
ATOM     91  C   UNL A   1      33.013  18.168  25.696  1.00  0.00     0.048 A 
ATOM     92  C   UNL A   1      32.420  18.670  22.940  1.00  0.00     0.050 A 
ATOM     93  C   UNL A   1      32.711  17.128  24.809  1.00  0.00     0.020 A 
ATOM     94  C   UNL A   1      32.424  17.368  23.459  1.00  0.00     0.019 A 
ATOM     95  Br  UNL A   1      32.697  15.347  25.454  1.00  0.00    -0.051 Br
ENDBRANCH  82  86
ENDBRANCH  77  80
ENDBRANCH  75  76
ENDBRANCH  74  75
ENDBRANCH  73  74
ENDBRANCH   1  73
TORSDOF 14
ENDMDL
MODEL 2
REMARK VINA RESULT:     -12.6      5.703     11.913
REMARK SMILES O=C(NCCCCCCNC(=O)[C@H]1CC=CC[C@H]1c1nc2cc(Br)ccc2o1)c1ccc(-c2c3nc(c(-c4c(F)c(F)c(F)c(F)c4F)c4ccc([nH]4)c(-c4c(F)c(F)c(F)c(F)c4F)c4nc(c(-c5c(F)c(F)c(F)c(F)c5F)c5ccc2[nH]5)C=C4)C=C3)cc1
REMARK SMILES IDX 6 1 5 2 4 3 3 4 1 5 2 6 29 8 30 9 91 10 31 11 90 12 32 13
REMARK SMILES IDX 33 14 34 15 84 16 35 17 89 18 83 19 85 20 36 21 88 22 82 23
REMARK SMILES IDX 81 24 37 26 69 27 49 28 68 29 50 30 53 31 67 32 86 33 51 34
REMARK SMILES IDX 52 35 66 37 87 38 54 39 38 40 39 41 47 42 40 43 41 44 45 45
REMARK SMILES IDX 48 46 42 47 43 48 46 49 44 50 70 51 71 52 79 53 72 54 73 55
REMARK SMILES IDX 77 56 80 57 74 58 75 59 78 60 76 61 55 62 56 63 64 64 57 65
REMARK SMILES IDX 58 66 62 67 65 68 59 69 60 70 63 71 61 72 7 73 8 74 9 75
REMARK SMILES IDX 10 76 11 77 12 79 13 80 14 81 18 82 15 83 17 84 16 85 19 86
REMARK SMILES IDX 20 87 28 88 21 89 27 90 22 91 26 92 23 93 25 94 24 95
REMARK H PARENT 3 7 85 25 53 36 10 78
REMARK Flexibility Score: inf
ROOT
ATOM      1  C   UNL A   1      36.175  32.431  33.136  1.00  0.00     0.002 C 
ENDROOT
BRANCH   1   2
ATOM      2  C   UNL A   1      35.621  33.180  31.915  1.00  0.00     0.021 C 
BRANCH   2   3
ATOM      3  C   UNL A   1      34.779  32.328  30.985  1.00  0.00     0.116 C 
BRANCH   3   4
ATOM      4  N   UNL A   1      34.793  32.763  29.579  1.00  0.00    -0.352 N 
ATOM      5  O   UNL A   1      35.889  33.235  27.626  1.00  0.00    -0.269 OA
ATOM      6  C   UNL A   1      35.788  32.547  28.621  1.00  0.00     0.251 C 
ATOM      7  H   UNL A   1      34.004  33.267  29.275  1.00  0.00     0.163 HD
BRANCH   6   8
ATOM      8  C   UNL A   1      36.707  31.417  28.853  1.00  0.00     0.039 A 
ATOM      9  C   UNL A   1      36.513  30.114  28.395  1.00  0.00     0.014 A 
ATOM     10  C   UNL A   1      37.884  31.767  29.480  1.00  0.00     0.014 A 
ATOM     11  C   UNL A   1      37.569  29.211  28.549  1.00  0.00     0.010 A 
ATOM     12  C   UNL A   1      38.991  31.052  29.169  1.00  0.00     0.010 A 
ATOM     13  C   UNL A   1      38.821  29.708  28.951  1.00  0.00    -0.014 A 
BRANCH  13  14
ATOM     14  C   UNL A   1      40.002  28.896  29.192  1.00  0.00     0.031 A 
ATOM     15  C   UNL A   1      40.302  28.656  30.614  1.00  0.00     0.074 A 
ATOM     16  C   UNL A   1      40.679  28.273  28.196  1.00  0.00     0.049 A 
ATOM     17  N   UNL A   1      41.272  29.163  31.294  1.00  0.00    -0.248 NA
ATOM     18  C   UNL A   1      39.339  27.886  31.414  1.00  0.00     0.031 C 
ATOM     19  C   UNL A   1      40.367  28.162  26.759  1.00  0.00     0.029 A 
ATOM     20  N   UNL A   1      41.808  27.522  28.294  1.00  0.00    -0.354 N 
ATOM     21  C   UNL A   1      41.159  28.633  32.570  1.00  0.00     0.074 A 
ATOM     22  C   UNL A   1      39.868  27.996  32.634  1.00  0.00     0.031 C 
ATOM     23  C   UNL A   1      41.142  27.216  26.184  1.00  0.00     0.029 A 
ATOM     24  C   UNL A   1      42.133  26.800  27.152  1.00  0.00     0.049 A 
ATOM     25  H   UNL A   1      42.354  27.491  29.113  1.00  0.00     0.167 HD
ATOM     26  C   UNL A   1      42.242  28.571  33.391  1.00  0.00     0.037 A 
ATOM     27  C   UNL A   1      43.157  25.923  27.017  1.00  0.00     0.037 A 
ATOM     28  C   UNL A   1      43.309  29.420  32.918  1.00  0.00     0.049 A 
ATOM     29  C   UNL A   1      44.142  26.257  28.078  1.00  0.00     0.074 A 
ATOM     30  C   UNL A   1      43.428  30.779  32.698  1.00  0.00     0.029 A 
ATOM     31  N   UNL A   1      44.323  28.839  32.194  1.00  0.00    -0.354 N 
ATOM     32  N   UNL A   1      44.823  27.371  28.101  1.00  0.00    -0.248 NA
ATOM     33  C   UNL A   1      43.997  25.585  29.361  1.00  0.00     0.031 C 
ATOM     34  C   UNL A   1      44.167  30.893  31.482  1.00  0.00     0.029 A 
ATOM     35  C   UNL A   1      44.520  29.606  31.072  1.00  0.00     0.049 A 
ATOM     36  H   UNL A   1      44.817  28.023  32.435  1.00  0.00     0.167 HD
ATOM     37  C   UNL A   1      44.826  27.757  29.433  1.00  0.00     0.074 A 
ATOM     38  C   UNL A   1      44.361  26.582  30.170  1.00  0.00     0.031 C 
ATOM     39  C   UNL A   1      44.922  29.071  29.791  1.00  0.00     0.037 A 
BRANCH  26  40
ATOM     40  C   UNL A   1      42.464  27.487  34.406  1.00  0.00     0.064 A 
ATOM     41  C   UNL A   1      43.002  26.254  33.993  1.00  0.00     0.173 A 
ATOM     42  C   UNL A   1      41.904  27.510  35.701  1.00  0.00     0.173 A 
ATOM     43  F   UNL A   1      43.533  26.118  32.768  1.00  0.00    -0.203 F 
ATOM     44  C   UNL A   1      42.927  25.115  34.797  1.00  0.00     0.198 A 
ATOM     45  C   UNL A   1      41.880  26.386  36.521  1.00  0.00     0.198 A 
ATOM     46  F   UNL A   1      41.257  28.581  36.177  1.00  0.00    -0.203 F 
ATOM     47  F   UNL A   1      43.344  23.935  34.318  1.00  0.00    -0.200 F 
ATOM     48  C   UNL A   1      42.363  25.181  36.059  1.00  0.00     0.200 A 
ATOM     49  F   UNL A   1      41.308  26.465  37.731  1.00  0.00    -0.200 F 
ATOM     50  F   UNL A   1      42.238  24.078  36.807  1.00  0.00    -0.200 F 
ENDBRANCH  26  40
BRANCH  27  51
ATOM     51  C   UNL A   1      43.138  24.614  26.319  1.00  0.00     0.064 A 
ATOM     52  C   UNL A   1      43.996  24.364  25.235  1.00  0.00     0.173 A 
ATOM     53  C   UNL A   1      42.501  23.490  26.884  1.00  0.00     0.173 A 
ATOM     54  F   UNL A   1      44.667  25.373  24.662  1.00  0.00    -0.203 F 
ATOM     55  C   UNL A   1      44.236  23.064  24.773  1.00  0.00     0.198 A 
ATOM     56  C   UNL A   1      42.739  22.195  26.419  1.00  0.00     0.198 A 
ATOM     57  F   UNL A   1      41.710  23.615  27.959  1.00  0.00    -0.203 F 
ATOM     58  F   UNL A   1      45.116  22.859  23.783  1.00  0.00    -0.200 F 
ATOM     59  C   UNL A   1      43.620  21.980  25.376  1.00  0.00     0.200 A 
ATOM     60  F   UNL A   1      42.159  21.154  27.033  1.00  0.00    -0.200 F 
ATOM     61  F   UNL A   1      43.904  20.731  24.983  1.00  0.00    -0.200 F 
ENDBRANCH  27  51
BRANCH  39  62
ATOM     62  C   UNL A   1      45.251  30.072  28.714  1.00  0.00     0.064 A 
ATOM     63  C   UNL A   1      44.289  30.728  27.925  1.00  0.00     0.173 A 
ATOM     64  C   UNL A   1      46.579  30.502  28.591  1.00  0.00     0.173 A 
ATOM     65  F   UNL A   1      42.989  30.443  28.046  1.00  0.00    -0.203 F 
ATOM     66  C   UNL A   1      44.646  31.743  27.037  1.00  0.00     0.198 A 
ATOM     67  C   UNL A   1      46.929  31.537  27.728  1.00  0.00     0.198 A 
ATOM     68  F   UNL A   1      47.535  29.950  29.354  1.00  0.00    -0.203 F 
ATOM     69  F   UNL A   1      43.706  32.350  26.296  1.00  0.00    -0.200 F 
ATOM     70  C   UNL A   1      45.964  32.153  26.946  1.00  0.00     0.200 A 
ATOM     71  F   UNL A   1      48.199  31.962  27.678  1.00  0.00    -0.200 F 
ATOM     72  F   UNL A   1      46.303  33.159  26.126  1.00  0.00    -0.200 F 
ENDBRANCH  39  62
ENDBRANCH  13  14
ENDBRANCH   6   8
ENDBRANCH   3   4
ENDBRANCH   2   3
ENDBRANCH   1   2
BRANCH   1  73
ATOM     73  C   UNL A   1      37.127  31.250  32.878  1.00  0.00     0.002 C 
BRANCH  73  74
ATOM     74  C   UNL A   1      38.381  31.164  33.757  1.00  0.00     0.021 C 
BRANCH  74  75
ATOM     75  C   UNL A   1      38.153  30.580  35.148  1.00  0.00     0.116 C 
BRANCH  75  76
ATOM     76  N   UNL A   1      39.201  30.977  36.065  1.00  0.00    -0.356 N 
ATOM     77  C   UNL A   1      39.399  32.151  36.723  1.00  0.00     0.224 C 
ATOM     78  H   UNL A   1      39.882  30.287  36.239  1.00  0.00     0.163 HD
ATOM     79  O   UNL A   1      40.436  32.256  37.375  1.00  0.00    -0.275 OA
BRANCH  77  80
ATOM     80  C   UNL A   1      38.340  33.246  36.632  1.00  0.00     0.095 C 
ATOM     81  C   UNL A   1      37.670  33.446  38.008  1.00  0.00     0.041 C 
ATOM     82  C   UNL A   1      38.904  34.590  36.124  1.00  0.00     0.092 C 
ATOM     83  C   UNL A   1      38.476  34.286  38.954  1.00  0.00    -0.030 C 
ATOM     84  C   UNL A   1      39.898  35.225  37.117  1.00  0.00     0.041 C 
ATOM     85  C   UNL A   1      39.488  35.069  38.555  1.00  0.00    -0.030 C 
BRANCH  82  86
ATOM     86  C   UNL A   1      39.476  34.493  34.744  1.00  0.00     0.199 A 
ATOM     87  N   UNL A   1      40.731  34.316  34.376  1.00  0.00    -0.213 NA
ATOM     88  O   UNL A   1      38.594  34.660  33.702  1.00  0.00    -0.440 OA
ATOM     89  C   UNL A   1      40.678  34.320  33.008  1.00  0.00     0.111 A 
ATOM     90  C   UNL A   1      39.377  34.542  32.590  1.00  0.00     0.154 A 
ATOM     91  C   UNL A   1      41.687  34.152  32.053  1.00  0.00     0.048 A 
ATOM     92  C   UNL A   1      38.977  34.627  31.261  1.00  0.00     0.050 A 
ATOM     93  C   UNL A   1      41.320  34.230  30.704  1.00  0.00     0.020 A 
ATOM     94  C   UNL A   1      39.996  34.466  30.311  1.00  0.00     0.019 A 
ATOM     95  Br  UNL A   1      42.654  34.017  29.376  1.00  0.00    -0.051 Br
ENDBRANCH  82  86
ENDBRANCH  77  80
ENDBRANCH  75  76
ENDBRANCH  74  75
ENDBRANCH  73  74
ENDBRANCH   1  73
TORSDOF 14
ENDMDL
MODEL 3
REMARK VINA RESULT:     -12.6      3.968      9.230
REMARK SMILES O=C(NCCCCCCNC(=O)[C@H]1CC=CC[C@H]1c1nc2cc(Br)ccc2o1)c1ccc(-c2c3nc(c(-c4c(F)c(F)c(F)c(F)c4F)c4ccc([nH]4)c(-c4c(F)c(F)c(F)c(F)c4F)c4nc(c(-c5c(F)c(F)c(F)c(F)c5F)c5ccc2[nH]5)C=C4)C=C3)cc1
REMARK SMILES IDX 6 1 5 2 4 3 3 4 1 5 2 6 29 8 30 9 91 10 31 11 90 12 32 13
REMARK SMILES IDX 33 14 34 15 84 16 35 17 89 18 83 19 85 20 36 21 88 22 82 23
REMARK SMILES IDX 81 24 37 26 69 27 49 28 68 29 50 30 53 31 67 32 86 33 51 34
REMARK SMILES IDX 52 35 66 37 87 38 54 39 38 40 39 41 47 42 40 43 41 44 45 45
REMARK SMILES IDX 48 46 42 47 43 48 46 49 44 50 70 51 71 52 79 53 72 54 73 55
REMARK SMILES IDX 77 56 80 57 74 58 75 59 78 60 76 61 55 62 56 63 64 64 57 65
REMARK SMILES IDX 58 66 62 67 65 68 59 69 60 70 63 71 61 72 7 73 8 74 9 75
REMARK SMILES IDX 10 76 11 77 12 79 13 80 14 81 18 82 15 83 17 84 16 85 19 86
REMARK SMILES IDX 20 87 28 88 21 89 27 90 22 91 26 92 23 93 25 94 24 95
REMARK H PARENT 3 7 85 25 53 36 10 78
REMARK Flexibility Score: inf
ROOT
ATOM      1  C   UNL A   1      34.739  29.944  27.469  1.00  0.00     0.002 C 
ENDROOT
BRANCH   1   2
ATOM      2  C   UNL A   1      34.014  31.296  27.527  1.00  0.00     0.021 C 
BRANCH   2   3
ATOM      3  C   UNL A   1      34.859  32.440  28.055  1.00  0.00     0.116 C 
BRANCH   3   4
ATOM      4  N   UNL A   1      34.683  32.717  29.490  1.00  0.00    -0.352 N 
ATOM      5  O   UNL A   1      34.934  32.161  31.696  1.00  0.00    -0.269 OA
ATOM      6  C   UNL A   1      35.378  32.158  30.567  1.00  0.00     0.251 C 
ATOM      7  H   UNL A   1      33.991  33.379  29.720  1.00  0.00     0.163 HD
BRANCH   6   8
ATOM      8  C   UNL A   1      36.705  31.581  30.279  1.00  0.00     0.039 A 
ATOM      9  C   UNL A   1      37.872  32.314  30.058  1.00  0.00     0.014 A 
ATOM     10  C   UNL A   1      36.752  30.206  30.363  1.00  0.00     0.014 A 
ATOM     11  C   UNL A   1      39.074  31.606  29.980  1.00  0.00     0.010 A 
ATOM     12  C   UNL A   1      37.917  29.646  30.766  1.00  0.00     0.010 A 
ATOM     13  C   UNL A   1      39.075  30.247  30.339  1.00  0.00    -0.014 A 
BRANCH  13  14
ATOM     14  C   UNL A   1      40.231  29.369  30.275  1.00  0.00     0.031 A 
ATOM     15  C   UNL A   1      40.864  29.091  31.576  1.00  0.00     0.074 A 
ATOM     16  C   UNL A   1      40.602  28.726  29.140  1.00  0.00     0.049 A 
ATOM     17  N   UNL A   1      42.000  29.534  31.992  1.00  0.00    -0.248 NA
ATOM     18  C   UNL A   1      40.090  28.360  32.590  1.00  0.00     0.031 C 
ATOM     19  C   UNL A   1      39.935  28.655  27.827  1.00  0.00     0.029 A 
ATOM     20  N   UNL A   1      41.677  27.915  28.950  1.00  0.00    -0.354 N 
ATOM     21  C   UNL A   1      42.180  28.991  33.255  1.00  0.00     0.074 A 
ATOM     22  C   UNL A   1      40.913  28.422  33.639  1.00  0.00     0.031 C 
ATOM     23  C   UNL A   1      40.487  27.679  27.074  1.00  0.00     0.029 A 
ATOM     24  C   UNL A   1      41.664  27.195  27.761  1.00  0.00     0.049 A 
ATOM     25  H   UNL A   1      42.407  27.842  29.606  1.00  0.00     0.167 HD
ATOM     26  C   UNL A   1      43.429  28.857  33.778  1.00  0.00     0.037 A 
ATOM     27  C   UNL A   1      42.571  26.267  27.373  1.00  0.00     0.037 A 
ATOM     28  C   UNL A   1      44.389  29.656  33.054  1.00  0.00     0.049 A 
ATOM     29  C   UNL A   1      43.808  26.531  28.154  1.00  0.00     0.074 A 
ATOM     30  C   UNL A   1      44.525  31.010  32.814  1.00  0.00     0.029 A 
ATOM     31  N   UNL A   1      45.156  29.033  32.099  1.00  0.00    -0.354 N 
ATOM     32  N   UNL A   1      44.534  27.606  28.007  1.00  0.00    -0.248 NA
ATOM     33  C   UNL A   1      43.951  25.847  29.430  1.00  0.00     0.031 C 
ATOM     34  C   UNL A   1      44.941  31.104  31.452  1.00  0.00     0.029 A 
ATOM     35  C   UNL A   1      45.109  29.807  30.964  1.00  0.00     0.049 A 
ATOM     36  H   UNL A   1      45.648  28.188  32.206  1.00  0.00     0.167 HD
ATOM     37  C   UNL A   1      44.892  27.970  29.297  1.00  0.00     0.074 A 
ATOM     38  C   UNL A   1      44.561  26.811  30.125  1.00  0.00     0.031 C 
ATOM     39  C   UNL A   1      45.147  29.272  29.622  1.00  0.00     0.037 A 
BRANCH  26  40
ATOM     40  C   UNL A   1      43.836  27.747  34.702  1.00  0.00     0.064 A 
ATOM     41  C   UNL A   1      43.743  26.414  34.263  1.00  0.00     0.173 A 
ATOM     42  C   UNL A   1      44.038  27.925  36.088  1.00  0.00     0.173 A 
ATOM     43  F   UNL A   1      43.524  26.136  32.968  1.00  0.00    -0.203 F 
ATOM     44  C   UNL A   1      43.787  25.342  35.157  1.00  0.00     0.198 A 
ATOM     45  C   UNL A   1      44.134  26.852  36.969  1.00  0.00     0.198 A 
ATOM     46  F   UNL A   1      44.030  29.137  36.658  1.00  0.00    -0.203 F 
ATOM     47  F   UNL A   1      43.574  24.096  34.712  1.00  0.00    -0.200 F 
ATOM     48  C   UNL A   1      43.979  25.562  36.510  1.00  0.00     0.200 A 
ATOM     49  F   UNL A   1      44.297  27.088  38.279  1.00  0.00    -0.200 F 
ATOM     50  F   UNL A   1      43.962  24.541  37.375  1.00  0.00    -0.200 F 
ENDBRANCH  26  40
BRANCH  27  51
ATOM     51  C   UNL A   1      42.306  24.972  26.698  1.00  0.00     0.064 A 
ATOM     52  C   UNL A   1      43.017  24.602  25.545  1.00  0.00     0.173 A 
ATOM     53  C   UNL A   1      41.573  23.950  27.336  1.00  0.00     0.173 A 
ATOM     54  F   UNL A   1      43.767  25.505  24.898  1.00  0.00    -0.203 F 
ATOM     55  C   UNL A   1      43.030  23.280  25.083  1.00  0.00     0.198 A 
ATOM     56  C   UNL A   1      41.584  22.634  26.871  1.00  0.00     0.198 A 
ATOM     57  F   UNL A   1      40.909  24.187  28.477  1.00  0.00    -0.203 F 
ATOM     58  F   UNL A   1      43.777  22.951  24.020  1.00  0.00    -0.200 F 
ATOM     59  C   UNL A   1      42.326  22.295  25.756  1.00  0.00     0.200 A 
ATOM     60  F   UNL A   1      40.922  21.685  27.550  1.00  0.00    -0.200 F 
ATOM     61  F   UNL A   1      42.395  21.017  25.356  1.00  0.00    -0.200 F 
ENDBRANCH  27  51
BRANCH  39  62
ATOM     62  C   UNL A   1      45.252  30.271  28.499  1.00  0.00     0.064 A 
ATOM     63  C   UNL A   1      44.175  31.043  28.027  1.00  0.00     0.173 A 
ATOM     64  C   UNL A   1      46.524  30.573  27.996  1.00  0.00     0.173 A 
ATOM     65  F   UNL A   1      42.943  30.883  28.521  1.00  0.00    -0.203 F 
ATOM     66  C   UNL A   1      44.362  32.047  27.076  1.00  0.00     0.198 A 
ATOM     67  C   UNL A   1      46.713  31.597  27.071  1.00  0.00     0.198 A 
ATOM     68  F   UNL A   1      47.598  29.905  28.445  1.00  0.00    -0.203 F 
ATOM     69  F   UNL A   1      43.315  32.767  26.643  1.00  0.00    -0.200 F 
ATOM     70  C   UNL A   1      45.632  32.329  26.606  1.00  0.00     0.200 A 
ATOM     71  F   UNL A   1      47.951  31.897  26.655  1.00  0.00    -0.200 F 
ATOM     72  F   UNL A   1      45.821  33.324  25.727  1.00  0.00    -0.200 F 
ENDBRANCH  39  62
ENDBRANCH  13  14
ENDBRANCH   6   8
ENDBRANCH   3   4
ENDBRANCH   2   3
ENDBRANCH   1   2
BRANCH   1  73
ATOM     73  C   UNL A   1      33.976  28.750  26.872  1.00  0.00     0.002 C 
BRANCH  73  74
ATOM     74  C   UNL A   1      32.577  28.467  27.435  1.00  0.00     0.021 C 
BRANCH  74  75
ATOM     75  C   UNL A   1      31.534  28.068  26.396  1.00  0.00     0.116 C 
BRANCH  75  76
ATOM     76  N   UNL A   1      30.957  26.775  26.699  1.00  0.00    -0.356 N 
ATOM     77  C   UNL A   1      31.136  25.567  26.098  1.00  0.00     0.224 C 
ATOM     78  H   UNL A   1      30.334  26.768  27.461  1.00  0.00     0.163 HD
ATOM     79  O   UNL A   1      30.441  24.636  26.502  1.00  0.00    -0.275 OA
BRANCH  77  80
ATOM     80  C   UNL A   1      32.176  25.431  24.990  1.00  0.00     0.095 C 
ATOM     81  C   UNL A   1      33.048  24.182  25.238  1.00  0.00     0.041 C 
ATOM     82  C   UNL A   1      31.552  25.362  23.581  1.00  0.00     0.092 C 
ATOM     83  C   UNL A   1      32.401  22.899  24.806  1.00  0.00    -0.030 C 
ATOM     84  C   UNL A   1      30.724  24.079  23.366  1.00  0.00     0.041 C 
ATOM     85  C   UNL A   1      31.346  22.856  23.981  1.00  0.00    -0.030 C 
BRANCH  82  86
ATOM     86  C   UNL A   1      30.775  26.593  23.231  1.00  0.00     0.199 A 
ATOM     87  N   UNL A   1      31.195  27.704  22.657  1.00  0.00    -0.213 NA
ATOM     88  O   UNL A   1      29.450  26.606  23.597  1.00  0.00    -0.440 OA
ATOM     89  C   UNL A   1      30.074  28.488  22.594  1.00  0.00     0.111 A 
ATOM     90  C   UNL A   1      29.006  27.827  23.179  1.00  0.00     0.154 A 
ATOM     91  C   UNL A   1      29.882  29.771  22.068  1.00  0.00     0.048 A 
ATOM     92  C   UNL A   1      27.724  28.350  23.302  1.00  0.00     0.050 A 
ATOM     93  C   UNL A   1      28.602  30.329  22.174  1.00  0.00     0.020 A 
ATOM     94  C   UNL A   1      27.544  29.639  22.780  1.00  0.00     0.019 A 
ATOM     95  Br  UNL A   1      28.298  32.066  21.483  1.00  0.00    -0.051 Br
ENDBRANCH  82  86
ENDBRANCH  77  80
ENDBRANCH  75  76
ENDBRANCH  74  75
ENDBRANCH  73  74
ENDBRANCH   1  73
TORSDOF 14
ENDMDL
