MODEL 1
REMARK VINA RESULT:     -12.4      0.000      0.000
REMARK SMILES C[C@@H](C(=O)NCCCCCCNC(=O)c1ccc(-c2c3nc(c(-c4c(F)c(F)c(F)c(F)c4F)c4ccc([nH]4)c(-c4c(F)c(F)c(F)c(F)c4F)c4nc(c(-c5c(F)c(F)c(F)c(F)c5F)c5ccc2[nH]5)C=C4)C=C3)cc1)[C@H](C)n1ncc2ccc([N+](=O)[O-])cc21
REMARK SMILES IDX 8 1 7 2 6 3 5 4 3 5 4 6 2 8 1 9 78 10 79 11 80 12 81 13
REMARK SMILES IDX 91 14 82 15 83 16 90 17 84 18 86 19 85 20 87 21 88 22 89 23
REMARK SMILES IDX 9 24 10 25 11 26 12 27 13 28 14 30 15 31 16 32 77 33 17 34
REMARK SMILES IDX 76 35 18 36 19 37 20 38 70 39 21 40 75 41 69 42 71 43 22 44
REMARK SMILES IDX 74 45 68 46 67 47 23 49 55 50 35 51 54 52 36 53 39 54 53 55
REMARK SMILES IDX 72 56 37 57 38 58 52 60 73 61 40 62 24 63 25 64 33 65 26 66
REMARK SMILES IDX 27 67 31 68 34 69 28 70 29 71 32 72 30 73 56 74 57 75 65 76
REMARK SMILES IDX 58 77 59 78 63 79 66 80 60 81 61 82 64 83 62 84 41 85 42 86
REMARK SMILES IDX 50 87 43 88 44 89 48 90 51 91 45 92 46 93 49 94 47 95
REMARK H PARENT 5 7 12 29 71 48 39 59
REMARK Flexibility Score: inf
ROOT
ATOM      1  C   UNL A   1      33.139  29.945  26.715  1.00  0.00     0.002 C 
ENDROOT
BRANCH   1   2
ATOM      2  C   UNL A   1      33.483  28.563  26.141  1.00  0.00     0.021 C 
BRANCH   2   3
ATOM      3  C   UNL A   1      32.616  27.416  26.670  1.00  0.00     0.116 C 
BRANCH   3   4
ATOM      4  N   UNL A   1      33.182  26.123  26.350  1.00  0.00    -0.356 N 
ATOM      5  C   UNL A   1      32.624  24.964  25.911  1.00  0.00     0.224 C 
ATOM      6  O   UNL A   1      33.421  24.100  25.533  1.00  0.00    -0.275 OA
ATOM      7  H   UNL A   1      34.156  26.073  26.474  1.00  0.00     0.163 HD
BRANCH   5   8
ATOM      8  C   UNL A   1      31.111  24.792  25.737  1.00  0.00     0.100 C 
ATOM      9  C   UNL A   1      30.484  23.524  26.328  1.00  0.00     0.020 C 
BRANCH   8  10
ATOM     10  C   UNL A   1      30.720  25.006  24.234  1.00  0.00     0.117 C 
ATOM     11  C   UNL A   1      31.161  23.836  23.344  1.00  0.00     0.034 C 
BRANCH  10  12
ATOM     12  N   UNL A   1      31.206  26.260  23.640  1.00  0.00    -0.261 N 
ATOM     13  N   UNL A   1      32.492  26.332  23.232  1.00  0.00    -0.180 NA
ATOM     14  C   UNL A   1      30.463  27.378  23.300  1.00  0.00     0.075 A 
ATOM     15  C   UNL A   1      32.567  27.498  22.594  1.00  0.00     0.143 A 
ATOM     16  C   UNL A   1      31.335  28.180  22.563  1.00  0.00     0.020 A 
ATOM     17  C   UNL A   1      29.134  27.765  23.554  1.00  0.00     0.114 A 
ATOM     18  C   UNL A   1      30.879  29.384  21.997  1.00  0.00     0.019 A 
ATOM     19  C   UNL A   1      28.710  28.992  23.006  1.00  0.00     0.271 A 
ATOM     20  C   UNL A   1      29.558  29.781  22.218  1.00  0.00     0.086 A 
BRANCH  19  21
ATOM     21  N   UNL A   1      27.345  29.469  23.274  1.00  0.00     0.062 N 
ATOM     22  O   UNL A   1      27.160  30.694  23.321  1.00  0.00    -0.258 OA
ATOM     23  O   UNL A   1      26.457  28.619  23.437  1.00  0.00    -0.258 OA
ENDBRANCH  19  21
ENDBRANCH  10  12
ENDBRANCH   8  10
ENDBRANCH   5   8
ENDBRANCH   3   4
ENDBRANCH   2   3
ENDBRANCH   1   2
BRANCH   1  24
ATOM     24  C   UNL A   1      31.741  30.468  26.377  1.00  0.00     0.002 C 
BRANCH  24  25
ATOM     25  C   UNL A   1      31.547  31.972  26.578  1.00  0.00     0.021 C 
BRANCH  25  26
ATOM     26  C   UNL A   1      32.649  32.655  27.383  1.00  0.00     0.116 C 
BRANCH  26  27
ATOM     27  N   UNL A   1      32.357  34.057  27.640  1.00  0.00    -0.352 N 
ATOM     28  C   UNL A   1      32.931  34.920  28.543  1.00  0.00     0.251 C 
ATOM     29  H   UNL A   1      31.640  34.445  27.086  1.00  0.00     0.163 HD
ATOM     30  O   UNL A   1      32.430  36.015  28.762  1.00  0.00    -0.269 OA
BRANCH  28  31
ATOM     31  C   UNL A   1      34.148  34.508  29.275  1.00  0.00     0.039 A 
ATOM     32  C   UNL A   1      34.018  34.004  30.571  1.00  0.00     0.014 A 
ATOM     33  C   UNL A   1      35.408  34.602  28.678  1.00  0.00     0.014 A 
ATOM     34  C   UNL A   1      35.143  33.509  31.236  1.00  0.00     0.010 A 
ATOM     35  C   UNL A   1      36.517  34.048  29.315  1.00  0.00     0.010 A 
ATOM     36  C   UNL A   1      36.391  33.479  30.592  1.00  0.00    -0.014 A 
BRANCH  36  37
ATOM     37  C   UNL A   1      37.561  32.802  31.208  1.00  0.00     0.031 A 
ATOM     38  C   UNL A   1      38.202  31.623  30.534  1.00  0.00     0.074 A 
ATOM     39  C   UNL A   1      37.983  33.197  32.427  1.00  0.00     0.049 A 
ATOM     40  N   UNL A   1      39.158  30.840  30.970  1.00  0.00    -0.248 NA
ATOM     41  C   UNL A   1      37.690  31.257  29.204  1.00  0.00     0.031 C 
ATOM     42  C   UNL A   1      37.409  34.299  33.202  1.00  0.00     0.029 A 
ATOM     43  N   UNL A   1      38.974  32.704  33.240  1.00  0.00    -0.354 N 
ATOM     44  C   UNL A   1      39.346  29.883  29.983  1.00  0.00     0.074 A 
ATOM     45  C   UNL A   1      38.385  30.160  28.937  1.00  0.00     0.031 C 
ATOM     46  C   UNL A   1      38.057  34.400  34.373  1.00  0.00     0.029 A 
ATOM     47  C   UNL A   1      39.058  33.341  34.455  1.00  0.00     0.049 A 
ATOM     48  H   UNL A   1      39.567  31.963  32.978  1.00  0.00     0.167 HD
ATOM     49  C   UNL A   1      40.247  28.874  29.952  1.00  0.00     0.037 A 
ATOM     50  C   UNL A   1      39.832  33.084  35.527  1.00  0.00     0.037 A 
ATOM     51  C   UNL A   1      41.222  28.625  30.981  1.00  0.00     0.049 A 
ATOM     52  C   UNL A   1      40.811  31.940  35.467  1.00  0.00     0.074 A 
ATOM     53  C   UNL A   1      42.246  27.694  30.989  1.00  0.00     0.029 A 
ATOM     54  N   UNL A   1      41.286  29.301  32.191  1.00  0.00    -0.354 N 
ATOM     55  N   UNL A   1      41.050  31.108  34.483  1.00  0.00    -0.248 NA
ATOM     56  C   UNL A   1      41.623  31.695  36.667  1.00  0.00     0.031 C 
ATOM     57  C   UNL A   1      42.884  27.756  32.230  1.00  0.00     0.029 A 
ATOM     58  C   UNL A   1      42.299  28.769  32.973  1.00  0.00     0.049 A 
ATOM     59  H   UNL A   1      40.700  30.046  32.454  1.00  0.00     0.167 HD
ATOM     60  C   UNL A   1      42.051  30.259  34.936  1.00  0.00     0.074 A 
ATOM     61  C   UNL A   1      42.392  30.689  36.274  1.00  0.00     0.031 C 
ATOM     62  C   UNL A   1      42.628  29.209  34.303  1.00  0.00     0.037 A 
BRANCH  49  63
ATOM     63  C   UNL A   1      40.233  27.944  28.775  1.00  0.00     0.064 A 
ATOM     64  C   UNL A   1      40.951  28.223  27.603  1.00  0.00     0.173 A 
ATOM     65  C   UNL A   1      39.571  26.709  28.859  1.00  0.00     0.173 A 
ATOM     66  F   UNL A   1      41.597  29.392  27.469  1.00  0.00    -0.203 F 
ATOM     67  C   UNL A   1      40.999  27.305  26.556  1.00  0.00     0.198 A 
ATOM     68  C   UNL A   1      39.643  25.783  27.823  1.00  0.00     0.198 A 
ATOM     69  F   UNL A   1      38.875  26.390  29.961  1.00  0.00    -0.203 F 
ATOM     70  F   UNL A   1      41.670  27.604  25.436  1.00  0.00    -0.200 F 
ATOM     71  C   UNL A   1      40.355  26.082  26.671  1.00  0.00     0.200 A 
ATOM     72  F   UNL A   1      39.034  24.595  27.945  1.00  0.00    -0.200 F 
ATOM     73  F   UNL A   1      40.421  25.191  25.674  1.00  0.00    -0.200 F 
ENDBRANCH  49  63
BRANCH  50  74
ATOM     74  C   UNL A   1      39.699  33.899  36.765  1.00  0.00     0.064 A 
ATOM     75  C   UNL A   1      38.879  33.482  37.824  1.00  0.00     0.173 A 
ATOM     76  C   UNL A   1      40.355  35.133  36.899  1.00  0.00     0.173 A 
ATOM     77  F   UNL A   1      38.212  32.321  37.735  1.00  0.00    -0.203 F 
ATOM     78  C   UNL A   1      38.692  34.282  38.949  1.00  0.00     0.198 A 
ATOM     79  C   UNL A   1      40.196  35.914  38.041  1.00  0.00     0.198 A 
ATOM     80  F   UNL A   1      41.154  35.579  35.920  1.00  0.00    -0.203 F 
ATOM     81  F   UNL A   1      37.849  33.889  39.914  1.00  0.00    -0.200 F 
ATOM     82  C   UNL A   1      39.354  35.495  39.059  1.00  0.00     0.200 A 
ATOM     83  F   UNL A   1      40.851  37.078  38.150  1.00  0.00    -0.200 F 
ATOM     84  F   UNL A   1      39.171  36.266  40.140  1.00  0.00    -0.200 F 
ENDBRANCH  50  74
BRANCH  62  85
ATOM     85  C   UNL A   1      43.699  28.459  35.041  1.00  0.00     0.064 A 
ATOM     86  C   UNL A   1      45.036  28.885  35.024  1.00  0.00     0.173 A 
ATOM     87  C   UNL A   1      43.376  27.339  35.823  1.00  0.00     0.173 A 
ATOM     88  F   UNL A   1      45.398  29.940  34.278  1.00  0.00    -0.203 F 
ATOM     89  C   UNL A   1      46.012  28.207  35.749  1.00  0.00     0.198 A 
ATOM     90  C   UNL A   1      44.349  26.684  36.573  1.00  0.00     0.198 A 
ATOM     91  F   UNL A   1      42.112  26.895  35.878  1.00  0.00    -0.203 F 
ATOM     92  F   UNL A   1      47.288  28.607  35.686  1.00  0.00    -0.200 F 
ATOM     93  C   UNL A   1      45.666  27.115  36.531  1.00  0.00     0.200 A 
ATOM     94  F   UNL A   1      44.009  25.639  37.340  1.00  0.00    -0.200 F 
ATOM     95  F   UNL A   1      46.604  26.475  37.242  1.00  0.00    -0.200 F 
ENDBRANCH  62  85
ENDBRANCH  36  37
ENDBRANCH  28  31
ENDBRANCH  26  27
ENDBRANCH  25  26
ENDBRANCH  24  25
ENDBRANCH   1  24
TORSDOF 16
ENDMDL
MODEL 2
REMARK VINA RESULT:     -12.3      1.466      2.938
REMARK SMILES C[C@@H](C(=O)NCCCCCCNC(=O)c1ccc(-c2c3nc(c(-c4c(F)c(F)c(F)c(F)c4F)c4ccc([nH]4)c(-c4c(F)c(F)c(F)c(F)c4F)c4nc(c(-c5c(F)c(F)c(F)c(F)c5F)c5ccc2[nH]5)C=C4)C=C3)cc1)[C@H](C)n1ncc2ccc([N+](=O)[O-])cc21
REMARK SMILES IDX 8 1 7 2 6 3 5 4 3 5 4 6 2 8 1 9 78 10 79 11 80 12 81 13
REMARK SMILES IDX 91 14 82 15 83 16 90 17 84 18 86 19 85 20 87 21 88 22 89 23
REMARK SMILES IDX 9 24 10 25 11 26 12 27 13 28 14 30 15 31 16 32 77 33 17 34
REMARK SMILES IDX 76 35 18 36 19 37 20 38 70 39 21 40 75 41 69 42 71 43 22 44
REMARK SMILES IDX 74 45 68 46 67 47 23 49 55 50 35 51 54 52 36 53 39 54 53 55
REMARK SMILES IDX 72 56 37 57 38 58 52 60 73 61 40 62 24 63 25 64 33 65 26 66
REMARK SMILES IDX 27 67 31 68 34 69 28 70 29 71 32 72 30 73 56 74 57 75 65 76
REMARK SMILES IDX 58 77 59 78 63 79 66 80 60 81 61 82 64 83 62 84 41 85 42 86
REMARK SMILES IDX 50 87 43 88 44 89 48 90 51 91 45 92 46 93 49 94 47 95
REMARK H PARENT 5 7 12 29 71 48 39 59
REMARK Flexibility Score: inf
ROOT
ATOM      1  C   UNL A   1      31.999  29.804  25.282  1.00  0.00     0.002 C 
ENDROOT
BRANCH   1   2
ATOM      2  C   UNL A   1      30.826  29.900  24.295  1.00  0.00     0.021 C 
BRANCH   2   3
ATOM      3  C   UNL A   1      30.927  28.964  23.087  1.00  0.00     0.116 C 
BRANCH   3   4
ATOM      4  N   UNL A   1      32.245  28.998  22.489  1.00  0.00    -0.356 N 
ATOM      5  C   UNL A   1      33.298  28.141  22.549  1.00  0.00     0.224 C 
ATOM      6  O   UNL A   1      34.211  28.364  21.748  1.00  0.00    -0.275 OA
ATOM      7  H   UNL A   1      32.410  29.793  21.934  1.00  0.00     0.163 HD
BRANCH   5   8
ATOM      8  C   UNL A   1      33.291  26.886  23.429  1.00  0.00     0.100 C 
ATOM      9  C   UNL A   1      34.174  26.911  24.681  1.00  0.00     0.020 C 
BRANCH   8  10
ATOM     10  C   UNL A   1      33.542  25.616  22.546  1.00  0.00     0.117 C 
ATOM     11  C   UNL A   1      32.403  25.365  21.546  1.00  0.00     0.034 C 
BRANCH  10  12
ATOM     12  N   UNL A   1      33.791  24.378  23.298  1.00  0.00    -0.261 N 
ATOM     13  N   UNL A   1      34.901  23.658  23.019  1.00  0.00    -0.180 NA
ATOM     14  C   UNL A   1      33.089  23.896  24.390  1.00  0.00     0.075 A 
ATOM     15  C   UNL A   1      34.928  22.723  23.966  1.00  0.00     0.143 A 
ATOM     16  C   UNL A   1      33.858  22.836  24.873  1.00  0.00     0.020 A 
ATOM     17  C   UNL A   1      31.879  24.276  25.001  1.00  0.00     0.114 A 
ATOM     18  C   UNL A   1      33.463  22.152  26.037  1.00  0.00     0.019 A 
ATOM     19  C   UNL A   1      31.487  23.553  26.145  1.00  0.00     0.271 A 
ATOM     20  C   UNL A   1      32.275  22.523  26.674  1.00  0.00     0.086 A 
BRANCH  19  21
ATOM     21  N   UNL A   1      30.211  23.876  26.801  1.00  0.00     0.062 N 
ATOM     22  O   UNL A   1      29.707  24.984  26.568  1.00  0.00    -0.258 OA
ATOM     23  O   UNL A   1      29.713  23.022  27.549  1.00  0.00    -0.258 OA
ENDBRANCH  19  21
ENDBRANCH  10  12
ENDBRANCH   8  10
ENDBRANCH   5   8
ENDBRANCH   3   4
ENDBRANCH   2   3
ENDBRANCH   1   2
BRANCH   1  24
ATOM     24  C   UNL A   1      31.734  30.380  26.675  1.00  0.00     0.002 C 
BRANCH  24  25
ATOM     25  C   UNL A   1      31.563  31.900  26.724  1.00  0.00     0.021 C 
BRANCH  25  26
ATOM     26  C   UNL A   1      32.744  32.655  27.330  1.00  0.00     0.116 C 
BRANCH  26  27
ATOM     27  N   UNL A   1      32.424  34.046  27.610  1.00  0.00    -0.352 N 
ATOM     28  C   UNL A   1      32.968  34.899  28.542  1.00  0.00     0.251 C 
ATOM     29  H   UNL A   1      31.712  34.434  27.051  1.00  0.00     0.163 HD
ATOM     30  O   UNL A   1      32.445  35.981  28.774  1.00  0.00    -0.269 OA
BRANCH  28  31
ATOM     31  C   UNL A   1      34.178  34.490  29.288  1.00  0.00     0.039 A 
ATOM     32  C   UNL A   1      34.029  33.915  30.552  1.00  0.00     0.014 A 
ATOM     33  C   UNL A   1      35.450  34.659  28.735  1.00  0.00     0.014 A 
ATOM     34  C   UNL A   1      35.152  33.425  31.224  1.00  0.00     0.010 A 
ATOM     35  C   UNL A   1      36.559  34.111  29.375  1.00  0.00     0.010 A 
ATOM     36  C   UNL A   1      36.417  33.471  30.617  1.00  0.00    -0.014 A 
BRANCH  36  37
ATOM     37  C   UNL A   1      37.593  32.803  31.233  1.00  0.00     0.031 A 
ATOM     38  C   UNL A   1      38.237  31.623  30.563  1.00  0.00     0.074 A 
ATOM     39  C   UNL A   1      38.017  33.207  32.448  1.00  0.00     0.049 A 
ATOM     40  N   UNL A   1      39.198  30.847  30.999  1.00  0.00    -0.248 NA
ATOM     41  C   UNL A   1      37.722  31.248  29.236  1.00  0.00     0.031 C 
ATOM     42  C   UNL A   1      37.441  34.310  33.219  1.00  0.00     0.029 A 
ATOM     43  N   UNL A   1      39.013  32.722  33.259  1.00  0.00    -0.354 N 
ATOM     44  C   UNL A   1      39.387  29.886  30.016  1.00  0.00     0.074 A 
ATOM     45  C   UNL A   1      38.421  30.152  28.972  1.00  0.00     0.031 C 
ATOM     46  C   UNL A   1      38.093  34.420  34.386  1.00  0.00     0.029 A 
ATOM     47  C   UNL A   1      39.099  33.367  34.471  1.00  0.00     0.049 A 
ATOM     48  H   UNL A   1      39.609  31.983  32.999  1.00  0.00     0.167 HD
ATOM     49  C   UNL A   1      40.293  28.881  29.987  1.00  0.00     0.037 A 
ATOM     50  C   UNL A   1      39.879  33.119  35.541  1.00  0.00     0.037 A 
ATOM     51  C   UNL A   1      41.273  28.642  31.014  1.00  0.00     0.049 A 
ATOM     52  C   UNL A   1      40.862  31.979  35.484  1.00  0.00     0.074 A 
ATOM     53  C   UNL A   1      42.301  27.716  31.024  1.00  0.00     0.029 A 
ATOM     54  N   UNL A   1      41.338  29.325  32.220  1.00  0.00    -0.354 N 
ATOM     55  N   UNL A   1      41.102  31.143  34.504  1.00  0.00    -0.248 NA
ATOM     56  C   UNL A   1      41.680  31.745  36.682  1.00  0.00     0.031 C 
ATOM     57  C   UNL A   1      42.943  27.788  32.262  1.00  0.00     0.029 A 
ATOM     58  C   UNL A   1      42.356  28.802  33.001  1.00  0.00     0.049 A 
ATOM     59  H   UNL A   1      40.750  30.069  32.482  1.00  0.00     0.167 HD
ATOM     60  C   UNL A   1      42.108  30.301  34.958  1.00  0.00     0.074 A 
ATOM     61  C   UNL A   1      42.453  30.740  36.292  1.00  0.00     0.031 C 
ATOM     62  C   UNL A   1      42.689  29.251  34.328  1.00  0.00     0.037 A 
BRANCH  49  63
ATOM     63  C   UNL A   1      40.279  27.944  28.815  1.00  0.00     0.064 A 
ATOM     64  C   UNL A   1      41.003  28.213  27.645  1.00  0.00     0.173 A 
ATOM     65  C   UNL A   1      39.610  26.714  28.904  1.00  0.00     0.173 A 
ATOM     66  F   UNL A   1      41.656  29.378  27.508  1.00  0.00    -0.203 F 
ATOM     67  C   UNL A   1      41.050  27.289  26.603  1.00  0.00     0.198 A 
ATOM     68  C   UNL A   1      39.681  25.782  27.873  1.00  0.00     0.198 A 
ATOM     69  F   UNL A   1      38.908  26.404  30.005  1.00  0.00    -0.203 F 
ATOM     70  F   UNL A   1      41.728  27.578  25.484  1.00  0.00    -0.200 F 
ATOM     71  C   UNL A   1      40.400  26.070  26.723  1.00  0.00     0.200 A 
ATOM     72  F   UNL A   1      39.066  24.597  27.999  1.00  0.00    -0.200 F 
ATOM     73  F   UNL A   1      40.466  25.173  25.730  1.00  0.00    -0.200 F 
ENDBRANCH  49  63
BRANCH  50  74
ATOM     74  C   UNL A   1      39.746  33.940  36.775  1.00  0.00     0.064 A 
ATOM     75  C   UNL A   1      38.906  33.542  37.825  1.00  0.00     0.173 A 
ATOM     76  C   UNL A   1      40.423  35.162  36.914  1.00  0.00     0.173 A 
ATOM     77  F   UNL A   1      38.219  32.393  37.733  1.00  0.00    -0.203 F 
ATOM     78  C   UNL A   1      38.721  34.348  38.946  1.00  0.00     0.198 A 
ATOM     79  C   UNL A   1      40.265  35.950  38.052  1.00  0.00     0.198 A 
ATOM     80  F   UNL A   1      41.241  35.591  35.943  1.00  0.00    -0.203 F 
ATOM     81  F   UNL A   1      37.860  33.974  39.903  1.00  0.00    -0.200 F 
ATOM     82  C   UNL A   1      39.404  35.549  39.061  1.00  0.00     0.200 A 
ATOM     83  F   UNL A   1      40.941  37.101  38.165  1.00  0.00    -0.200 F 
ATOM     84  F   UNL A   1      39.223  36.326  40.137  1.00  0.00    -0.200 F 
ENDBRANCH  50  74
BRANCH  62  85
ATOM     85  C   UNL A   1      43.766  28.510  35.066  1.00  0.00     0.064 A 
ATOM     86  C   UNL A   1      43.470  27.403  35.876  1.00  0.00     0.173 A 
ATOM     87  C   UNL A   1      45.113  28.872  34.915  1.00  0.00     0.173 A 
ATOM     88  F   UNL A   1      42.196  27.028  36.066  1.00  0.00    -0.203 F 
ATOM     89  C   UNL A   1      44.482  26.696  36.519  1.00  0.00     0.198 A 
ATOM     90  C   UNL A   1      46.125  28.142  35.533  1.00  0.00     0.198 A 
ATOM     91  F   UNL A   1      45.450  29.919  34.147  1.00  0.00    -0.203 F 
ATOM     92  F   UNL A   1      44.172  25.668  37.319  1.00  0.00    -0.200 F 
ATOM     93  C   UNL A   1      45.808  27.059  36.338  1.00  0.00     0.200 A 
ATOM     94  F   UNL A   1      47.407  28.485  35.344  1.00  0.00    -0.200 F 
ATOM     95  F   UNL A   1      46.782  26.366  36.944  1.00  0.00    -0.200 F 
ENDBRANCH  62  85
ENDBRANCH  36  37
ENDBRANCH  28  31
ENDBRANCH  26  27
ENDBRANCH  25  26
ENDBRANCH  24  25
ENDBRANCH   1  24
TORSDOF 16
ENDMDL
MODEL 3
REMARK VINA RESULT:     -12.1      5.582     10.750
REMARK SMILES C[C@@H](C(=O)NCCCCCCNC(=O)c1ccc(-c2c3nc(c(-c4c(F)c(F)c(F)c(F)c4F)c4ccc([nH]4)c(-c4c(F)c(F)c(F)c(F)c4F)c4nc(c(-c5c(F)c(F)c(F)c(F)c5F)c5ccc2[nH]5)C=C4)C=C3)cc1)[C@H](C)n1ncc2ccc([N+](=O)[O-])cc21
REMARK SMILES IDX 8 1 7 2 6 3 5 4 3 5 4 6 2 8 1 9 78 10 79 11 80 12 81 13
REMARK SMILES IDX 91 14 82 15 83 16 90 17 84 18 86 19 85 20 87 21 88 22 89 23
REMARK SMILES IDX 9 24 10 25 11 26 12 27 13 28 14 30 15 31 16 32 77 33 17 34
REMARK SMILES IDX 76 35 18 36 19 37 20 38 70 39 21 40 75 41 69 42 71 43 22 44
REMARK SMILES IDX 74 45 68 46 67 47 23 49 55 50 35 51 54 52 36 53 39 54 53 55
REMARK SMILES IDX 72 56 37 57 38 58 52 60 73 61 40 62 24 63 25 64 33 65 26 66
REMARK SMILES IDX 27 67 31 68 34 69 28 70 29 71 32 72 30 73 56 74 57 75 65 76
REMARK SMILES IDX 58 77 59 78 63 79 66 80 60 81 61 82 64 83 62 84 41 85 42 86
REMARK SMILES IDX 50 87 43 88 44 89 48 90 51 91 45 92 46 93 49 94 47 95
REMARK H PARENT 5 7 12 29 71 48 39 59
REMARK Flexibility Score: inf
ROOT
ATOM      1  C   UNL A   1      35.802  21.415  24.683  1.00  0.00     0.002 C 
ENDROOT
BRANCH   1   2
ATOM      2  C   UNL A   1      35.371  21.698  26.129  1.00  0.00     0.021 C 
BRANCH   2   3
ATOM      3  C   UNL A   1      33.940  21.269  26.466  1.00  0.00     0.116 C 
BRANCH   3   4
ATOM      4  N   UNL A   1      33.039  21.473  25.351  1.00  0.00    -0.356 N 
ATOM      5  C   UNL A   1      32.339  22.558  24.929  1.00  0.00     0.224 C 
ATOM      6  O   UNL A   1      31.822  22.456  23.812  1.00  0.00    -0.275 OA
ATOM      7  H   UNL A   1      32.911  20.674  24.792  1.00  0.00     0.163 HD
BRANCH   5   8
ATOM      8  C   UNL A   1      32.322  23.880  25.703  1.00  0.00     0.100 C 
ATOM      9  C   UNL A   1      31.024  24.239  26.436  1.00  0.00     0.020 C 
BRANCH   8  10
ATOM     10  C   UNL A   1      32.828  25.043  24.782  1.00  0.00     0.117 C 
ATOM     11  C   UNL A   1      34.296  24.864  24.370  1.00  0.00     0.034 C 
BRANCH  10  12
ATOM     12  N   UNL A   1      32.654  26.393  25.336  1.00  0.00    -0.261 N 
ATOM     13  N   UNL A   1      33.464  26.794  26.341  1.00  0.00    -0.180 NA
ATOM     14  C   UNL A   1      31.835  27.403  24.861  1.00  0.00     0.075 A 
ATOM     15  C   UNL A   1      33.182  28.086  26.490  1.00  0.00     0.143 A 
ATOM     16  C   UNL A   1      32.210  28.540  25.578  1.00  0.00     0.020 A 
ATOM     17  C   UNL A   1      30.818  27.441  23.888  1.00  0.00     0.114 A 
ATOM     18  C   UNL A   1      31.612  29.781  25.296  1.00  0.00     0.019 A 
ATOM     19  C   UNL A   1      30.210  28.689  23.648  1.00  0.00     0.271 A 
ATOM     20  C   UNL A   1      30.615  29.849  24.320  1.00  0.00     0.086 A 
BRANCH  19  21
ATOM     21  N   UNL A   1      29.113  28.782  22.673  1.00  0.00     0.062 N 
ATOM     22  O   UNL A   1      28.035  28.245  22.964  1.00  0.00    -0.258 OA
ATOM     23  O   UNL A   1      29.330  29.391  21.615  1.00  0.00    -0.258 OA
ENDBRANCH  19  21
ENDBRANCH  10  12
ENDBRANCH   8  10
ENDBRANCH   5   8
ENDBRANCH   3   4
ENDBRANCH   2   3
ENDBRANCH   1   2
BRANCH   1  24
ATOM     24  C   UNL A   1      37.313  21.314  24.456  1.00  0.00     0.002 C 
BRANCH  24  25
ATOM     25  C   UNL A   1      37.969  20.056  25.027  1.00  0.00     0.021 C 
BRANCH  25  26
ATOM     26  C   UNL A   1      39.161  20.319  25.945  1.00  0.00     0.116 C 
BRANCH  26  27
ATOM     27  N   UNL A   1      40.113  19.220  25.942  1.00  0.00    -0.352 N 
ATOM     28  C   UNL A   1      41.482  19.247  26.062  1.00  0.00     0.251 C 
ATOM     29  H   UNL A   1      39.719  18.323  25.837  1.00  0.00     0.163 HD
ATOM     30  O   UNL A   1      42.146  18.242  25.844  1.00  0.00    -0.269 OA
BRANCH  28  31
ATOM     31  C   UNL A   1      42.158  20.510  26.432  1.00  0.00     0.039 A 
ATOM     32  C   UNL A   1      42.650  21.334  25.417  1.00  0.00     0.014 A 
ATOM     33  C   UNL A   1      42.290  20.885  27.771  1.00  0.00     0.014 A 
ATOM     34  C   UNL A   1      43.194  22.579  25.741  1.00  0.00     0.010 A 
ATOM     35  C   UNL A   1      42.771  22.153  28.088  1.00  0.00     0.010 A 
ATOM     36  C   UNL A   1      43.209  23.021  27.074  1.00  0.00    -0.014 A 
BRANCH  36  37
ATOM     37  C   UNL A   1      43.619  24.405  27.425  1.00  0.00     0.031 A 
ATOM     38  C   UNL A   1      42.600  25.412  27.874  1.00  0.00     0.074 A 
ATOM     39  C   UNL A   1      44.903  24.776  27.243  1.00  0.00     0.049 A 
ATOM     40  N   UNL A   1      42.752  26.690  28.117  1.00  0.00    -0.248 NA
ATOM     41  C   UNL A   1      41.222  24.929  28.055  1.00  0.00     0.031 C 
ATOM     42  C   UNL A   1      45.975  23.900  26.766  1.00  0.00     0.029 A 
ATOM     43  N   UNL A   1      45.521  25.990  27.413  1.00  0.00    -0.354 N 
ATOM     44  C   UNL A   1      41.492  27.165  28.456  1.00  0.00     0.074 A 
ATOM     45  C   UNL A   1      40.578  26.047  28.359  1.00  0.00     0.031 C 
ATOM     46  C   UNL A   1      47.116  24.602  26.684  1.00  0.00     0.029 A 
ATOM     47  C   UNL A   1      46.849  25.988  27.054  1.00  0.00     0.049 A 
ATOM     48  H   UNL A   1      45.058  26.788  27.758  1.00  0.00     0.167 HD
ATOM     49  C   UNL A   1      41.138  28.418  28.826  1.00  0.00     0.037 A 
ATOM     50  C   UNL A   1      47.743  26.994  27.000  1.00  0.00     0.037 A 
ATOM     51  C   UNL A   1      42.060  29.517  28.954  1.00  0.00     0.049 A 
ATOM     52  C   UNL A   1      47.311  28.381  27.399  1.00  0.00     0.074 A 
ATOM     53  C   UNL A   1      41.814  30.794  29.424  1.00  0.00     0.029 A 
ATOM     54  N   UNL A   1      43.399  29.473  28.595  1.00  0.00    -0.354 N 
ATOM     55  N   UNL A   1      46.140  28.793  27.819  1.00  0.00    -0.248 NA
ATOM     56  C   UNL A   1      48.322  29.445  27.310  1.00  0.00     0.031 C 
ATOM     57  C   UNL A   1      42.984  31.545  29.284  1.00  0.00     0.029 A 
ATOM     58  C   UNL A   1      43.977  30.718  28.785  1.00  0.00     0.049 A 
ATOM     59  H   UNL A   1      43.868  28.677  28.257  1.00  0.00     0.167 HD
ATOM     60  C   UNL A   1      46.279  30.153  28.065  1.00  0.00     0.074 A 
ATOM     61  C   UNL A   1      47.653  30.494  27.770  1.00  0.00     0.031 C 
ATOM     62  C   UNL A   1      45.348  31.042  28.488  1.00  0.00     0.037 A 
BRANCH  49  63
ATOM     63  C   UNL A   1      39.693  28.692  29.119  1.00  0.00     0.064 A 
ATOM     64  C   UNL A   1      39.154  28.525  30.403  1.00  0.00     0.173 A 
ATOM     65  C   UNL A   1      38.860  29.222  28.122  1.00  0.00     0.173 A 
ATOM     66  F   UNL A   1      39.906  28.016  31.390  1.00  0.00    -0.203 F 
ATOM     67  C   UNL A   1      37.831  28.870  30.675  1.00  0.00     0.198 A 
ATOM     68  C   UNL A   1      37.548  29.592  28.403  1.00  0.00     0.198 A 
ATOM     69  F   UNL A   1      39.328  29.408  26.878  1.00  0.00    -0.203 F 
ATOM     70  F   UNL A   1      37.330  28.678  31.902  1.00  0.00    -0.200 F 
ATOM     71  C   UNL A   1      37.034  29.414  29.679  1.00  0.00     0.200 A 
ATOM     72  F   UNL A   1      36.785  30.133  27.443  1.00  0.00    -0.200 F 
ATOM     73  F   UNL A   1      35.770  29.767  29.948  1.00  0.00    -0.200 F 
ENDBRANCH  49  63
BRANCH  50  74
ATOM     74  C   UNL A   1      49.129  26.744  26.521  1.00  0.00     0.064 A 
ATOM     75  C   UNL A   1      49.476  26.925  25.174  1.00  0.00     0.173 A 
ATOM     76  C   UNL A   1      50.128  26.277  27.391  1.00  0.00     0.173 A 
ATOM     77  F   UNL A   1      48.553  27.348  24.297  1.00  0.00    -0.203 F 
ATOM     78  C   UNL A   1      50.753  26.616  24.711  1.00  0.00     0.198 A 
ATOM     79  C   UNL A   1      51.414  26.003  26.933  1.00  0.00     0.198 A 
ATOM     80  F   UNL A   1      49.853  26.089  28.690  1.00  0.00    -0.203 F 
ATOM     81  F   UNL A   1      51.036  26.735  23.406  1.00  0.00    -0.200 F 
ATOM     82  C   UNL A   1      51.722  26.160  25.590  1.00  0.00     0.200 A 
ATOM     83  F   UNL A   1      52.352  25.579  27.791  1.00  0.00    -0.200 F 
ATOM     84  F   UNL A   1      52.949  25.859  25.144  1.00  0.00    -0.200 F 
ENDBRANCH  50  74
BRANCH  62  85
ATOM     85  C   UNL A   1      45.784  32.467  28.672  1.00  0.00     0.064 A 
ATOM     86  C   UNL A   1      45.644  33.412  27.645  1.00  0.00     0.173 A 
ATOM     87  C   UNL A   1      46.290  32.905  29.905  1.00  0.00     0.173 A 
ATOM     88  F   UNL A   1      45.181  33.040  26.443  1.00  0.00    -0.203 F 
ATOM     89  C   UNL A   1      46.009  34.741  27.843  1.00  0.00     0.198 A 
ATOM     90  C   UNL A   1      46.623  34.241  30.109  1.00  0.00     0.198 A 
ATOM     91  F   UNL A   1      46.438  32.041  30.921  1.00  0.00    -0.203 F 
ATOM     92  F   UNL A   1      45.904  35.618  26.836  1.00  0.00    -0.200 F 
ATOM     93  C   UNL A   1      46.487  35.156  29.077  1.00  0.00     0.200 A 
ATOM     94  F   UNL A   1      47.070  34.643  31.307  1.00  0.00    -0.200 F 
ATOM     95  F   UNL A   1      46.821  36.440  29.270  1.00  0.00    -0.200 F 
ENDBRANCH  62  85
ENDBRANCH  36  37
ENDBRANCH  28  31
ENDBRANCH  26  27
ENDBRANCH  25  26
ENDBRANCH  24  25
ENDBRANCH   1  24
TORSDOF 16
ENDMDL
