MODEL 1
REMARK VINA RESULT:     -12.7      0.000      0.000
REMARK SMILES CN(C(=O)C[C@@H]1SC(=O)N(c2ccccc2)C1=O)c1ccccc1C(=O)NCCCCCCNC(=O)c1ccc(-c2c3nc(c(-c4c(F)c(F)c(F)c(F)c4F)c4ccc([nH]4)c(-c4c(F)c(F)c(F)c(F)c4F)c4nc(c(-c5c(F)c(F)c(F)c(F)c5F)c5ccc2[nH]5)C=C4)C=C3)cc1
REMARK SMILES IDX 29 1 28 2 27 3 25 4 26 5 24 7 19 8 20 9 21 10 23 11 22 12
REMARK SMILES IDX 2 13 1 14 3 15 4 16 5 17 6 18 7 19 17 20 8 21 10 22 18 23
REMARK SMILES IDX 9 24 11 25 12 26 16 27 13 28 15 29 14 30 30 31 31 32 32 33
REMARK SMILES IDX 33 34 34 35 35 36 36 38 37 39 38 40 99 41 39 42 98 43 40 44
REMARK SMILES IDX 41 45 42 46 92 47 43 48 97 49 91 50 93 51 44 52 96 53 90 54
REMARK SMILES IDX 89 55 45 57 77 58 57 59 76 60 58 61 61 62 75 63 94 64 59 65
REMARK SMILES IDX 60 66 74 68 95 69 62 70 46 71 47 72 55 73 48 74 49 75 53 76
REMARK SMILES IDX 56 77 50 78 51 79 54 80 52 81 78 82 79 83 87 84 80 85 81 86
REMARK SMILES IDX 85 87 88 88 82 89 83 90 86 91 84 92 63 93 64 94 72 95 65 96
REMARK SMILES IDX 66 97 70 98 73 99 67 100 68 101 71 102 69 103
REMARK H PARENT 27 6 34 37 93 56 61 67
REMARK Flexibility Score: inf
ROOT
ATOM      1  C   UNL A   1      35.851  22.830  25.929  1.00  0.00     0.021 C 
ENDROOT
BRANCH   1   2
ATOM      2  C   UNL A   1      35.792  24.352  25.806  1.00  0.00     0.116 C 
BRANCH   2   3
ATOM      3  N   UNL A   1      34.986  24.733  24.666  1.00  0.00    -0.352 N 
ATOM      4  C   UNL A   1      33.922  25.582  24.502  1.00  0.00     0.253 C 
ATOM      5  O   UNL A   1      33.520  25.726  23.343  1.00  0.00    -0.269 OA
ATOM      6  H   UNL A   1      35.259  24.287  23.832  1.00  0.00     0.163 HD
BRANCH   4   7
ATOM      7  C   UNL A   1      33.307  26.437  25.562  1.00  0.00     0.063 A 
ATOM      8  C   UNL A   1      32.032  26.348  26.155  1.00  0.00     0.056 A 
ATOM      9  C   UNL A   1      31.621  27.359  27.058  1.00  0.00     0.027 A 
ATOM     10  C   UNL A   1      32.433  28.447  27.365  1.00  0.00     0.002 A 
ATOM     11  C   UNL A   1      34.121  27.543  25.914  1.00  0.00     0.016 A 
ATOM     12  C   UNL A   1      33.690  28.537  26.796  1.00  0.00     0.001 A 
BRANCH   8  13
ATOM     13  N   UNL A   1      31.018  25.397  25.816  1.00  0.00    -0.315 N 
ATOM     14  C   UNL A   1      30.107  25.816  24.743  1.00  0.00     0.153 C 
BRANCH  13  15
ATOM     15  C   UNL A   1      31.202  24.085  26.254  1.00  0.00     0.228 C 
ATOM     16  O   UNL A   1      31.470  23.803  27.421  1.00  0.00    -0.274 OA
BRANCH  15  17
ATOM     17  C   UNL A   1      31.138  22.974  25.214  1.00  0.00     0.125 C 
BRANCH  17  18
ATOM     18  C   UNL A   1      32.470  22.280  24.928  1.00  0.00     0.156 C 
ATOM     19  S   UNL A   1      32.706  21.971  23.169  1.00  0.00    -0.050 SA
ATOM     20  C   UNL A   1      32.715  20.934  25.593  1.00  0.00     0.248 C 
ATOM     21  C   UNL A   1      32.396  20.269  23.386  1.00  0.00     0.293 C 
ATOM     22  N   UNL A   1      32.797  19.910  24.653  1.00  0.00    -0.240 N 
ATOM     23  O   UNL A   1      32.881  20.882  26.809  1.00  0.00    -0.273 OA
ATOM     24  O   UNL A   1      31.919  19.612  22.484  1.00  0.00    -0.261 OA
BRANCH  22  25
ATOM     25  C   UNL A   1      33.327  18.606  24.909  1.00  0.00     0.053 A 
ATOM     26  C   UNL A   1      34.498  18.134  24.301  1.00  0.00     0.027 A 
ATOM     27  C   UNL A   1      32.581  17.682  25.667  1.00  0.00     0.027 A 
ATOM     28  C   UNL A   1      34.865  16.787  24.391  1.00  0.00     0.002 A 
ATOM     29  C   UNL A   1      32.942  16.337  25.755  1.00  0.00     0.002 A 
ATOM     30  C   UNL A   1      34.077  15.884  25.099  1.00  0.00     0.000 A 
ENDBRANCH  22  25
ENDBRANCH  17  18
ENDBRANCH  15  17
ENDBRANCH  13  15
ENDBRANCH   8  13
ENDBRANCH   4   7
ENDBRANCH   2   3
ENDBRANCH   1   2
BRANCH   1  31
ATOM     31  C   UNL A   1      36.579  22.074  24.810  1.00  0.00     0.002 C 
BRANCH  31  32
ATOM     32  C   UNL A   1      36.574  20.548  24.987  1.00  0.00     0.002 C 
BRANCH  32  33
ATOM     33  C   UNL A   1      37.921  19.819  24.836  1.00  0.00     0.021 C 
BRANCH  33  34
ATOM     34  C   UNL A   1      39.006  20.163  25.853  1.00  0.00     0.116 C 
BRANCH  34  35
ATOM     35  N   UNL A   1      40.076  19.186  25.909  1.00  0.00    -0.352 N 
ATOM     36  C   UNL A   1      41.425  19.359  26.094  1.00  0.00     0.251 C 
ATOM     37  H   UNL A   1      39.789  18.252  25.796  1.00  0.00     0.163 HD
ATOM     38  O   UNL A   1      42.192  18.412  25.957  1.00  0.00    -0.269 OA
BRANCH  36  39
ATOM     39  C   UNL A   1      41.974  20.691  26.435  1.00  0.00     0.039 A 
ATOM     40  C   UNL A   1      42.266  21.577  25.394  1.00  0.00     0.014 A 
ATOM     41  C   UNL A   1      42.245  21.054  27.758  1.00  0.00     0.014 A 
ATOM     42  C   UNL A   1      42.770  22.849  25.681  1.00  0.00     0.010 A 
ATOM     43  C   UNL A   1      42.696  22.344  28.047  1.00  0.00     0.010 A 
ATOM     44  C   UNL A   1      42.960  23.256  27.012  1.00  0.00    -0.014 A 
BRANCH  44  45
ATOM     45  C   UNL A   1      43.418  24.636  27.326  1.00  0.00     0.031 A 
ATOM     46  C   UNL A   1      42.453  25.662  27.854  1.00  0.00     0.074 A 
ATOM     47  C   UNL A   1      44.699  24.981  27.092  1.00  0.00     0.049 A 
ATOM     48  N   UNL A   1      42.664  26.922  28.148  1.00  0.00    -0.248 NA
ATOM     49  C   UNL A   1      41.066  25.222  28.060  1.00  0.00     0.031 C 
ATOM     50  C   UNL A   1      45.725  24.092  26.544  1.00  0.00     0.029 A 
ATOM     51  N   UNL A   1      45.357  26.172  27.277  1.00  0.00    -0.354 N 
ATOM     52  C   UNL A   1      41.436  27.425  28.560  1.00  0.00     0.074 A 
ATOM     53  C   UNL A   1      40.477  26.348  28.434  1.00  0.00     0.031 C 
ATOM     54  C   UNL A   1      46.885  24.762  26.455  1.00  0.00     0.029 A 
ATOM     55  C   UNL A   1      46.680  26.135  26.907  1.00  0.00     0.049 A 
ATOM     56  H   UNL A   1      44.922  26.977  27.641  1.00  0.00     0.167 HD
ATOM     57  C   UNL A   1      41.141  28.666  29.020  1.00  0.00     0.037 A 
ATOM     58  C   UNL A   1      47.620  27.099  26.923  1.00  0.00     0.037 A 
ATOM     59  C   UNL A   1      42.100  29.729  29.168  1.00  0.00     0.049 A 
ATOM     60  C   UNL A   1      47.265  28.469  27.435  1.00  0.00     0.074 A 
ATOM     61  C   UNL A   1      41.909  30.999  29.686  1.00  0.00     0.029 A 
ATOM     62  N   UNL A   1      43.433  29.648  28.794  1.00  0.00    -0.354 N 
ATOM     63  N   UNL A   1      46.117  28.910  27.890  1.00  0.00    -0.248 NA
ATOM     64  C   UNL A   1      48.339  29.473  27.444  1.00  0.00     0.031 C 
ATOM     65  C   UNL A   1      43.113  31.701  29.582  1.00  0.00     0.029 A 
ATOM     66  C   UNL A   1      44.069  30.854  29.047  1.00  0.00     0.049 A 
ATOM     67  H   UNL A   1      43.865  28.853  28.406  1.00  0.00     0.167 HD
ATOM     68  C   UNL A   1      46.336  30.228  28.264  1.00  0.00     0.074 A 
ATOM     69  C   UNL A   1      47.730  30.513  27.997  1.00  0.00     0.031 C 
ATOM     70  C   UNL A   1      45.460  31.123  28.783  1.00  0.00     0.037 A 
BRANCH  57  71
ATOM     71  C   UNL A   1      39.715  28.944  29.400  1.00  0.00     0.064 A 
ATOM     72  C   UNL A   1      38.777  29.402  28.462  1.00  0.00     0.173 A 
ATOM     73  C   UNL A   1      39.269  28.706  30.710  1.00  0.00     0.173 A 
ATOM     74  F   UNL A   1      39.155  29.652  27.199  1.00  0.00    -0.203 F 
ATOM     75  C   UNL A   1      37.455  29.638  28.827  1.00  0.00     0.198 A 
ATOM     76  C   UNL A   1      37.939  28.916  31.063  1.00  0.00     0.198 A 
ATOM     77  F   UNL A   1      40.121  28.260  31.644  1.00  0.00    -0.203 F 
ATOM     78  F   UNL A   1      36.589  30.119  27.924  1.00  0.00    -0.200 F 
ATOM     79  C   UNL A   1      37.035  29.389  30.125  1.00  0.00     0.200 A 
ATOM     80  F   UNL A   1      37.531  28.660  32.314  1.00  0.00    -0.200 F 
ATOM     81  F   UNL A   1      35.759  29.609  30.472  1.00  0.00    -0.200 F 
ENDBRANCH  57  71
BRANCH  58  82
ATOM     82  C   UNL A   1      49.000  26.798  26.459  1.00  0.00     0.064 A 
ATOM     83  C   UNL A   1      49.368  26.991  25.120  1.00  0.00     0.173 A 
ATOM     84  C   UNL A   1      49.974  26.306  27.340  1.00  0.00     0.173 A 
ATOM     85  F   UNL A   1      48.465  27.440  24.235  1.00  0.00    -0.203 F 
ATOM     86  C   UNL A   1      50.652  26.682  24.674  1.00  0.00     0.198 A 
ATOM     87  C   UNL A   1      51.265  26.025  26.900  1.00  0.00     0.198 A 
ATOM     88  F   UNL A   1      49.674  26.109  28.631  1.00  0.00    -0.203 F 
ATOM     89  F   UNL A   1      50.965  26.833  23.381  1.00  0.00    -0.200 F 
ATOM     90  C   UNL A   1      51.601  26.206  25.566  1.00  0.00     0.200 A 
ATOM     91  F   UNL A   1      52.184  25.579  27.767  1.00  0.00    -0.200 F 
ATOM     92  F   UNL A   1      52.837  25.914  25.139  1.00  0.00    -0.200 F 
ENDBRANCH  58  82
BRANCH  70  93
ATOM     93  C   UNL A   1      45.988  32.485  29.128  1.00  0.00     0.064 A 
ATOM     94  C   UNL A   1      46.552  32.761  30.382  1.00  0.00     0.173 A 
ATOM     95  C   UNL A   1      45.963  33.519  28.178  1.00  0.00     0.173 A 
ATOM     96  F   UNL A   1      46.584  31.812  31.330  1.00  0.00    -0.203 F 
ATOM     97  C   UNL A   1      47.052  34.025  30.681  1.00  0.00     0.198 A 
ATOM     98  C   UNL A   1      46.490  34.773  28.470  1.00  0.00     0.198 A 
ATOM     99  F   UNL A   1      45.439  33.306  26.962  1.00  0.00    -0.203 F 
ATOM    100  F   UNL A   1      47.544  34.278  31.901  1.00  0.00    -0.200 F 
ATOM    101  C   UNL A   1      47.027  35.028  29.722  1.00  0.00     0.200 A 
ATOM    102  F   UNL A   1      46.476  35.737  27.538  1.00  0.00    -0.200 F 
ATOM    103  F   UNL A   1      47.515  36.243  30.009  1.00  0.00    -0.200 F 
ENDBRANCH  70  93
ENDBRANCH  44  45
ENDBRANCH  36  39
ENDBRANCH  34  35
ENDBRANCH  33  34
ENDBRANCH  32  33
ENDBRANCH  31  32
ENDBRANCH   1  31
TORSDOF 18
ENDMDL
MODEL 2
REMARK VINA RESULT:     -12.5      0.866      6.942
REMARK SMILES CN(C(=O)C[C@@H]1SC(=O)N(c2ccccc2)C1=O)c1ccccc1C(=O)NCCCCCCNC(=O)c1ccc(-c2c3nc(c(-c4c(F)c(F)c(F)c(F)c4F)c4ccc([nH]4)c(-c4c(F)c(F)c(F)c(F)c4F)c4nc(c(-c5c(F)c(F)c(F)c(F)c5F)c5ccc2[nH]5)C=C4)C=C3)cc1
REMARK SMILES IDX 29 1 28 2 27 3 25 4 26 5 24 7 19 8 20 9 21 10 23 11 22 12
REMARK SMILES IDX 2 13 1 14 3 15 4 16 5 17 6 18 7 19 17 20 8 21 10 22 18 23
REMARK SMILES IDX 9 24 11 25 12 26 16 27 13 28 15 29 14 30 30 31 31 32 32 33
REMARK SMILES IDX 33 34 34 35 35 36 36 38 37 39 38 40 99 41 39 42 98 43 40 44
REMARK SMILES IDX 41 45 42 46 92 47 43 48 97 49 91 50 93 51 44 52 96 53 90 54
REMARK SMILES IDX 89 55 45 57 77 58 57 59 76 60 58 61 61 62 75 63 94 64 59 65
REMARK SMILES IDX 60 66 74 68 95 69 62 70 46 71 47 72 55 73 48 74 49 75 53 76
REMARK SMILES IDX 56 77 50 78 51 79 54 80 52 81 78 82 79 83 87 84 80 85 81 86
REMARK SMILES IDX 85 87 88 88 82 89 83 90 86 91 84 92 63 93 64 94 72 95 65 96
REMARK SMILES IDX 66 97 70 98 73 99 67 100 68 101 71 102 69 103
REMARK H PARENT 27 6 34 37 93 56 61 67
REMARK Flexibility Score: inf
ROOT
ATOM      1  C   UNL A   1      35.801  22.809  25.679  1.00  0.00     0.021 C 
ENDROOT
BRANCH   1   2
ATOM      2  C   UNL A   1      35.729  24.336  25.648  1.00  0.00     0.116 C 
BRANCH   2   3
ATOM      3  N   UNL A   1      34.913  24.777  24.537  1.00  0.00    -0.352 N 
ATOM      4  C   UNL A   1      33.860  25.647  24.426  1.00  0.00     0.253 C 
ATOM      5  O   UNL A   1      33.444  25.847  23.280  1.00  0.00    -0.269 OA
ATOM      6  H   UNL A   1      35.168  24.365  23.680  1.00  0.00     0.163 HD
BRANCH   4   7
ATOM      7  C   UNL A   1      33.271  26.463  25.530  1.00  0.00     0.063 A 
ATOM      8  C   UNL A   1      32.009  26.355  26.148  1.00  0.00     0.056 A 
ATOM      9  C   UNL A   1      31.622  27.332  27.097  1.00  0.00     0.027 A 
ATOM     10  C   UNL A   1      32.444  28.406  27.427  1.00  0.00     0.002 A 
ATOM     11  C   UNL A   1      34.096  27.553  25.905  1.00  0.00     0.016 A 
ATOM     12  C   UNL A   1      33.689  28.514  26.834  1.00  0.00     0.001 A 
BRANCH   8  13
ATOM     13  N   UNL A   1      30.984  25.421  25.797  1.00  0.00    -0.315 N 
ATOM     14  C   UNL A   1      30.075  25.867  24.732  1.00  0.00     0.153 C 
BRANCH  13  15
ATOM     15  C   UNL A   1      31.156  24.099  26.212  1.00  0.00     0.228 C 
ATOM     16  O   UNL A   1      31.430  23.796  27.372  1.00  0.00    -0.274 OA
BRANCH  15  17
ATOM     17  C   UNL A   1      31.071  23.006  25.156  1.00  0.00     0.125 C 
BRANCH  17  18
ATOM     18  C   UNL A   1      32.391  22.298  24.852  1.00  0.00     0.156 C 
ATOM     19  S   UNL A   1      32.675  22.129  23.081  1.00  0.00    -0.050 SA
ATOM     20  C   UNL A   1      32.575  20.893  25.407  1.00  0.00     0.248 C 
ATOM     21  C   UNL A   1      32.309  20.425  23.143  1.00  0.00     0.293 C 
ATOM     22  N   UNL A   1      32.659  19.950  24.387  1.00  0.00    -0.240 N 
ATOM     23  O   UNL A   1      32.700  20.734  26.619  1.00  0.00    -0.273 OA
ATOM     24  O   UNL A   1      31.843  19.861  22.176  1.00  0.00    -0.261 OA
BRANCH  22  25
ATOM     25  C   UNL A   1      33.143  18.613  24.547  1.00  0.00     0.053 A 
ATOM     26  C   UNL A   1      32.357  17.585  25.085  1.00  0.00     0.027 A 
ATOM     27  C   UNL A   1      34.504  18.327  24.316  1.00  0.00     0.027 A 
ATOM     28  C   UNL A   1      32.924  16.355  25.440  1.00  0.00     0.002 A 
ATOM     29  C   UNL A   1      35.071  17.104  24.673  1.00  0.00     0.002 A 
ATOM     30  C   UNL A   1      34.283  16.122  25.254  1.00  0.00     0.000 A 
ENDBRANCH  22  25
ENDBRANCH  17  18
ENDBRANCH  15  17
ENDBRANCH  13  15
ENDBRANCH   8  13
ENDBRANCH   4   7
ENDBRANCH   2   3
ENDBRANCH   1   2
BRANCH   1  31
ATOM     31  C   UNL A   1      37.115  22.170  25.211  1.00  0.00     0.002 C 
BRANCH  31  32
ATOM     32  C   UNL A   1      37.012  20.661  24.948  1.00  0.00     0.002 C 
BRANCH  32  33
ATOM     33  C   UNL A   1      38.330  19.873  24.845  1.00  0.00     0.021 C 
BRANCH  33  34
ATOM     34  C   UNL A   1      39.278  19.962  26.038  1.00  0.00     0.116 C 
BRANCH  34  35
ATOM     35  N   UNL A   1      40.450  19.117  25.908  1.00  0.00    -0.352 N 
ATOM     36  C   UNL A   1      41.782  19.430  26.006  1.00  0.00     0.251 C 
ATOM     37  H   UNL A   1      40.258  18.170  25.721  1.00  0.00     0.163 HD
ATOM     38  O   UNL A   1      42.634  18.597  25.712  1.00  0.00    -0.269 OA
BRANCH  36  39
ATOM     39  C   UNL A   1      42.210  20.779  26.439  1.00  0.00     0.039 A 
ATOM     40  C   UNL A   1      42.603  21.699  25.464  1.00  0.00     0.014 A 
ATOM     41  C   UNL A   1      42.273  21.127  27.792  1.00  0.00     0.014 A 
ATOM     42  C   UNL A   1      42.997  22.987  25.836  1.00  0.00     0.010 A 
ATOM     43  C   UNL A   1      42.613  22.431  28.160  1.00  0.00     0.010 A 
ATOM     44  C   UNL A   1      42.976  23.375  27.186  1.00  0.00    -0.014 A 
BRANCH  44  45
ATOM     45  C   UNL A   1      43.314  24.769  27.582  1.00  0.00     0.031 A 
ATOM     46  C   UNL A   1      44.748  25.209  27.688  1.00  0.00     0.074 A 
ATOM     47  C   UNL A   1      42.325  25.631  27.890  1.00  0.00     0.049 A 
ATOM     48  N   UNL A   1      45.232  26.370  28.054  1.00  0.00    -0.248 NA
ATOM     49  C   UNL A   1      45.773  24.207  27.362  1.00  0.00     0.031 C 
ATOM     50  C   UNL A   1      40.896  25.318  27.865  1.00  0.00     0.029 A 
ATOM     51  N   UNL A   1      42.371  26.944  28.293  1.00  0.00    -0.354 N 
ATOM     52  C   UNL A   1      46.615  26.234  28.014  1.00  0.00     0.074 A 
ATOM     53  C   UNL A   1      46.891  24.865  27.633  1.00  0.00     0.031 C 
ATOM     54  C   UNL A   1      40.200  26.411  28.218  1.00  0.00     0.029 A 
ATOM     55  C   UNL A   1      41.133  27.492  28.525  1.00  0.00     0.049 A 
ATOM     56  H   UNL A   1      43.211  27.444  28.403  1.00  0.00     0.167 HD
ATOM     57  C   UNL A   1      47.565  27.171  28.252  1.00  0.00     0.037 A 
ATOM     58  C   UNL A   1      40.787  28.724  28.945  1.00  0.00     0.037 A 
ATOM     59  C   UNL A   1      47.289  28.539  28.606  1.00  0.00     0.049 A 
ATOM     60  C   UNL A   1      41.862  29.744  29.206  1.00  0.00     0.074 A 
ATOM     61  C   UNL A   1      48.184  29.577  28.804  1.00  0.00     0.029 A 
ATOM     62  N   UNL A   1      46.022  29.060  28.820  1.00  0.00    -0.354 N 
ATOM     63  N   UNL A   1      43.162  29.623  29.093  1.00  0.00    -0.248 NA
ATOM     64  C   UNL A   1      41.420  31.076  29.646  1.00  0.00     0.031 C 
ATOM     65  C   UNL A   1      47.462  30.713  29.183  1.00  0.00     0.029 A 
ATOM     66  C   UNL A   1      46.112  30.398  29.172  1.00  0.00     0.049 A 
ATOM     67  H   UNL A   1      45.181  28.555  28.735  1.00  0.00     0.167 HD
ATOM     68  C   UNL A   1      43.691  30.865  29.418  1.00  0.00     0.074 A 
ATOM     69  C   UNL A   1      42.571  31.730  29.719  1.00  0.00     0.031 C 
ATOM     70  C   UNL A   1      44.990  31.252  29.463  1.00  0.00     0.037 A 
BRANCH  57  71
ATOM     71  C   UNL A   1      49.001  26.749  28.137  1.00  0.00     0.064 A 
ATOM     72  C   UNL A   1      49.682  26.782  26.910  1.00  0.00     0.173 A 
ATOM     73  C   UNL A   1      49.719  26.349  29.275  1.00  0.00     0.173 A 
ATOM     74  F   UNL A   1      49.039  27.148  25.791  1.00  0.00    -0.203 F 
ATOM     75  C   UNL A   1      51.019  26.404  26.822  1.00  0.00     0.198 A 
ATOM     76  C   UNL A   1      51.065  26.001  29.187  1.00  0.00     0.198 A 
ATOM     77  F   UNL A   1      49.120  26.308  30.473  1.00  0.00    -0.203 F 
ATOM     78  F   UNL A   1      51.635  26.400  25.632  1.00  0.00    -0.200 F 
ATOM     79  C   UNL A   1      51.711  26.020  27.961  1.00  0.00     0.200 A 
ATOM     80  F   UNL A   1      51.736  25.644  30.291  1.00  0.00    -0.200 F 
ATOM     81  F   UNL A   1      53.001  25.665  27.876  1.00  0.00    -0.200 F 
ENDBRANCH  57  71
BRANCH  58  82
ATOM     82  C   UNL A   1      39.353  29.072  29.124  1.00  0.00     0.064 A 
ATOM     83  C   UNL A   1      38.567  29.474  28.035  1.00  0.00     0.173 A 
ATOM     84  C   UNL A   1      38.742  29.017  30.386  1.00  0.00     0.173 A 
ATOM     85  F   UNL A   1      39.113  29.563  26.813  1.00  0.00    -0.203 F 
ATOM     86  C   UNL A   1      37.230  29.829  28.203  1.00  0.00     0.198 A 
ATOM     87  C   UNL A   1      37.397  29.344  30.548  1.00  0.00     0.198 A 
ATOM     88  F   UNL A   1      39.448  28.633  31.459  1.00  0.00    -0.203 F 
ATOM     89  F   UNL A   1      36.514  30.254  27.154  1.00  0.00    -0.200 F 
ATOM     90  C   UNL A   1      36.645  29.758  29.458  1.00  0.00     0.200 A 
ATOM     91  F   UNL A   1      36.831  29.260  31.759  1.00  0.00    -0.200 F 
ATOM     92  F   UNL A   1      35.358  30.094  29.620  1.00  0.00    -0.200 F 
ENDBRANCH  58  82
BRANCH  70  93
ATOM     93  C   UNL A   1      45.270  32.683  29.819  1.00  0.00     0.064 A 
ATOM     94  C   UNL A   1      45.319  33.689  28.843  1.00  0.00     0.173 A 
ATOM     95  C   UNL A   1      45.455  33.058  31.159  1.00  0.00     0.173 A 
ATOM     96  F   UNL A   1      45.166  33.379  27.547  1.00  0.00    -0.203 F 
ATOM     97  C   UNL A   1      45.565  35.014  29.192  1.00  0.00     0.198 A 
ATOM     98  C   UNL A   1      45.672  34.388  31.507  1.00  0.00     0.198 A 
ATOM     99  F   UNL A   1      45.413  32.135  32.132  1.00  0.00    -0.203 F 
ATOM    100  F   UNL A   1      45.654  35.951  28.238  1.00  0.00    -0.200 F 
ATOM    101  C   UNL A   1      45.734  35.364  30.524  1.00  0.00     0.200 A 
ATOM    102  F   UNL A   1      45.823  34.726  32.795  1.00  0.00    -0.200 F 
ATOM    103  F   UNL A   1      45.965  36.641  30.859  1.00  0.00    -0.200 F 
ENDBRANCH  70  93
ENDBRANCH  44  45
ENDBRANCH  36  39
ENDBRANCH  34  35
ENDBRANCH  33  34
ENDBRANCH  32  33
ENDBRANCH  31  32
ENDBRANCH   1  31
TORSDOF 18
ENDMDL
MODEL 3
REMARK VINA RESULT:     -12.4      0.416      7.017
REMARK SMILES CN(C(=O)C[C@@H]1SC(=O)N(c2ccccc2)C1=O)c1ccccc1C(=O)NCCCCCCNC(=O)c1ccc(-c2c3nc(c(-c4c(F)c(F)c(F)c(F)c4F)c4ccc([nH]4)c(-c4c(F)c(F)c(F)c(F)c4F)c4nc(c(-c5c(F)c(F)c(F)c(F)c5F)c5ccc2[nH]5)C=C4)C=C3)cc1
REMARK SMILES IDX 29 1 28 2 27 3 25 4 26 5 24 7 19 8 20 9 21 10 23 11 22 12
REMARK SMILES IDX 2 13 1 14 3 15 4 16 5 17 6 18 7 19 17 20 8 21 10 22 18 23
REMARK SMILES IDX 9 24 11 25 12 26 16 27 13 28 15 29 14 30 30 31 31 32 32 33
REMARK SMILES IDX 33 34 34 35 35 36 36 38 37 39 38 40 99 41 39 42 98 43 40 44
REMARK SMILES IDX 41 45 42 46 92 47 43 48 97 49 91 50 93 51 44 52 96 53 90 54
REMARK SMILES IDX 89 55 45 57 77 58 57 59 76 60 58 61 61 62 75 63 94 64 59 65
REMARK SMILES IDX 60 66 74 68 95 69 62 70 46 71 47 72 55 73 48 74 49 75 53 76
REMARK SMILES IDX 56 77 50 78 51 79 54 80 52 81 78 82 79 83 87 84 80 85 81 86
REMARK SMILES IDX 85 87 88 88 82 89 83 90 86 91 84 92 63 93 64 94 72 95 65 96
REMARK SMILES IDX 66 97 70 98 73 99 67 100 68 101 71 102 69 103
REMARK H PARENT 27 6 34 37 93 56 61 67
REMARK Flexibility Score: inf
ROOT
ATOM      1  C   UNL A   1      35.615  22.772  25.641  1.00  0.00     0.021 C 
ENDROOT
BRANCH   1   2
ATOM      2  C   UNL A   1      35.598  24.300  25.671  1.00  0.00     0.116 C 
BRANCH   2   3
ATOM      3  N   UNL A   1      34.861  24.817  24.538  1.00  0.00    -0.352 N 
ATOM      4  C   UNL A   1      33.839  25.722  24.409  1.00  0.00     0.253 C 
ATOM      5  O   UNL A   1      33.496  25.987  23.252  1.00  0.00    -0.269 OA
ATOM      6  H   UNL A   1      35.154  24.437  23.678  1.00  0.00     0.163 HD
BRANCH   4   7
ATOM      7  C   UNL A   1      33.210  26.503  25.516  1.00  0.00     0.063 A 
ATOM      8  C   UNL A   1      31.931  26.368  26.092  1.00  0.00     0.056 A 
ATOM      9  C   UNL A   1      31.506  27.316  27.054  1.00  0.00     0.027 A 
ATOM     10  C   UNL A   1      32.308  28.388  27.437  1.00  0.00     0.002 A 
ATOM     11  C   UNL A   1      34.014  27.590  25.945  1.00  0.00     0.016 A 
ATOM     12  C   UNL A   1      33.569  28.522  26.885  1.00  0.00     0.001 A 
BRANCH   8  13
ATOM     13  N   UNL A   1      30.926  25.435  25.685  1.00  0.00    -0.315 N 
ATOM     14  C   UNL A   1      30.104  25.864  24.546  1.00  0.00     0.153 C 
BRANCH  13  15
ATOM     15  C   UNL A   1      31.053  24.122  26.141  1.00  0.00     0.228 C 
ATOM     16  O   UNL A   1      31.241  23.843  27.324  1.00  0.00    -0.274 OA
BRANCH  15  17
ATOM     17  C   UNL A   1      31.028  23.005  25.106  1.00  0.00     0.125 C 
BRANCH  17  18
ATOM     18  C   UNL A   1      32.375  22.326  24.857  1.00  0.00     0.156 C 
ATOM     19  S   UNL A   1      32.657  22.007  23.106  1.00  0.00    -0.050 SA
ATOM     20  C   UNL A   1      32.619  20.987  25.537  1.00  0.00     0.248 C 
ATOM     21  C   UNL A   1      32.362  20.303  23.327  1.00  0.00     0.293 C 
ATOM     22  N   UNL A   1      32.737  19.958  24.606  1.00  0.00    -0.240 N 
ATOM     23  O   UNL A   1      32.757  20.945  26.757  1.00  0.00    -0.273 OA
ATOM     24  O   UNL A   1      31.915  19.635  22.419  1.00  0.00    -0.261 OA
BRANCH  22  25
ATOM     25  C   UNL A   1      33.276  18.662  24.883  1.00  0.00     0.053 A 
ATOM     26  C   UNL A   1      34.476  18.207  24.320  1.00  0.00     0.027 A 
ATOM     27  C   UNL A   1      32.516  17.728  25.616  1.00  0.00     0.027 A 
ATOM     28  C   UNL A   1      34.859  16.865  24.426  1.00  0.00     0.002 A 
ATOM     29  C   UNL A   1      32.894  16.389  25.719  1.00  0.00     0.002 A 
ATOM     30  C   UNL A   1      34.059  15.952  25.106  1.00  0.00     0.000 A 
ENDBRANCH  22  25
ENDBRANCH  17  18
ENDBRANCH  15  17
ENDBRANCH  13  15
ENDBRANCH   8  13
ENDBRANCH   4   7
ENDBRANCH   2   3
ENDBRANCH   1   2
BRANCH   1  31
ATOM     31  C   UNL A   1      36.978  22.100  25.430  1.00  0.00     0.002 C 
BRANCH  31  32
ATOM     32  C   UNL A   1      36.884  20.656  24.916  1.00  0.00     0.002 C 
BRANCH  32  33
ATOM     33  C   UNL A   1      38.188  19.839  24.874  1.00  0.00     0.021 C 
BRANCH  33  34
ATOM     34  C   UNL A   1      39.178  20.065  26.013  1.00  0.00     0.116 C 
BRANCH  34  35
ATOM     35  N   UNL A   1      40.322  19.175  25.969  1.00  0.00    -0.352 N 
ATOM     36  C   UNL A   1      41.662  19.451  26.075  1.00  0.00     0.251 C 
ATOM     37  H   UNL A   1      40.102  18.224  25.844  1.00  0.00     0.163 HD
ATOM     38  O   UNL A   1      42.491  18.572  25.859  1.00  0.00    -0.269 OA
BRANCH  36  39
ATOM     39  C   UNL A   1      42.127  20.812  26.423  1.00  0.00     0.039 A 
ATOM     40  C   UNL A   1      42.361  21.722  25.389  1.00  0.00     0.014 A 
ATOM     41  C   UNL A   1      42.377  21.183  27.749  1.00  0.00     0.014 A 
ATOM     42  C   UNL A   1      42.784  23.020  25.683  1.00  0.00     0.010 A 
ATOM     43  C   UNL A   1      42.746  22.497  28.046  1.00  0.00     0.010 A 
ATOM     44  C   UNL A   1      42.951  23.430  27.016  1.00  0.00    -0.014 A 
BRANCH  44  45
ATOM     45  C   UNL A   1      43.321  24.835  27.339  1.00  0.00     0.031 A 
ATOM     46  C   UNL A   1      44.730  25.321  27.141  1.00  0.00     0.074 A 
ATOM     47  C   UNL A   1      42.393  25.664  27.857  1.00  0.00     0.049 A 
ATOM     48  N   UNL A   1      45.243  26.498  27.402  1.00  0.00    -0.248 NA
ATOM     49  C   UNL A   1      45.693  24.354  26.596  1.00  0.00     0.031 C 
ATOM     50  C   UNL A   1      41.002  25.304  28.136  1.00  0.00     0.029 A 
ATOM     51  N   UNL A   1      42.481  26.977  28.249  1.00  0.00    -0.354 N 
ATOM     52  C   UNL A   1      46.588  26.408  27.067  1.00  0.00     0.074 A 
ATOM     53  C   UNL A   1      46.821  25.049  26.627  1.00  0.00     0.031 C 
ATOM     54  C   UNL A   1      40.363  26.374  28.636  1.00  0.00     0.029 A 
ATOM     55  C   UNL A   1      41.304  27.485  28.744  1.00  0.00     0.049 A 
ATOM     56  H   UNL A   1      43.309  27.505  28.182  1.00  0.00     0.167 HD
ATOM     57  C   UNL A   1      47.537  27.376  27.104  1.00  0.00     0.037 A 
ATOM     58  C   UNL A   1      41.016  28.705  29.236  1.00  0.00     0.037 A 
ATOM     59  C   UNL A   1      47.299  28.734  27.517  1.00  0.00     0.049 A 
ATOM     60  C   UNL A   1      42.089  29.760  29.269  1.00  0.00     0.074 A 
ATOM     61  C   UNL A   1      48.181  29.801  27.527  1.00  0.00     0.029 A 
ATOM     62  N   UNL A   1      46.090  29.213  28.000  1.00  0.00    -0.354 N 
ATOM     63  N   UNL A   1      43.338  29.682  28.880  1.00  0.00    -0.248 NA
ATOM     64  C   UNL A   1      41.708  31.077  29.801  1.00  0.00     0.031 C 
ATOM     65  C   UNL A   1      47.520  30.913  28.058  1.00  0.00     0.029 A 
ATOM     66  C   UNL A   1      46.211  30.553  28.333  1.00  0.00     0.049 A 
ATOM     67  H   UNL A   1      45.267  28.681  28.093  1.00  0.00     0.167 HD
ATOM     68  C   UNL A   1      43.884  30.940  29.092  1.00  0.00     0.074 A 
ATOM     69  C   UNL A   1      42.826  31.769  29.631  1.00  0.00     0.031 C 
ATOM     70  C   UNL A   1      45.149  31.370  28.862  1.00  0.00     0.037 A 
BRANCH  57  71
ATOM     71  C   UNL A   1      48.928  27.001  26.681  1.00  0.00     0.064 A 
ATOM     72  C   UNL A   1      49.877  26.533  27.603  1.00  0.00     0.173 A 
ATOM     73  C   UNL A   1      49.304  27.066  25.330  1.00  0.00     0.173 A 
ATOM     74  F   UNL A   1      49.571  26.459  28.908  1.00  0.00    -0.203 F 
ATOM     75  C   UNL A   1      51.158  26.172  27.193  1.00  0.00     0.198 A 
ATOM     76  C   UNL A   1      50.576  26.676  24.920  1.00  0.00     0.198 A 
ATOM     77  F   UNL A   1      48.433  27.498  24.407  1.00  0.00    -0.203 F 
ATOM     78  F   UNL A   1      52.061  25.772  28.099  1.00  0.00    -0.200 F 
ATOM     79  C   UNL A   1      51.504  26.237  25.851  1.00  0.00     0.200 A 
ATOM     80  F   UNL A   1      50.904  26.726  23.621  1.00  0.00    -0.200 F 
ATOM     81  F   UNL A   1      52.735  25.882  25.457  1.00  0.00    -0.200 F 
ENDBRANCH  57  71
BRANCH  58  82
ATOM     82  C   UNL A   1      39.643  29.005  29.719  1.00  0.00     0.064 A 
ATOM     83  C   UNL A   1      39.304  28.850  31.070  1.00  0.00     0.173 A 
ATOM     84  C   UNL A   1      38.642  29.446  28.841  1.00  0.00     0.173 A 
ATOM     85  F   UNL A   1      40.222  28.410  31.944  1.00  0.00    -0.203 F 
ATOM     86  C   UNL A   1      38.010  29.102  31.522  1.00  0.00     0.198 A 
ATOM     87  C   UNL A   1      37.356  29.726  29.299  1.00  0.00     0.198 A 
ATOM     88  F   UNL A   1      38.916  29.616  27.540  1.00  0.00    -0.203 F 
ATOM     89  F   UNL A   1      37.701  28.902  32.810  1.00  0.00    -0.200 F 
ATOM     90  C   UNL A   1      37.039  29.546  30.638  1.00  0.00     0.200 A 
ATOM     91  F   UNL A   1      36.424  30.169  28.444  1.00  0.00    -0.200 F 
ATOM     92  F   UNL A   1      35.796  29.794  31.072  1.00  0.00    -0.200 F 
ENDBRANCH  58  82
BRANCH  70  93
ATOM     93  C   UNL A   1      45.453  32.810  29.159  1.00  0.00     0.064 A 
ATOM     94  C   UNL A   1      45.978  33.212  30.395  1.00  0.00     0.173 A 
ATOM     95  C   UNL A   1      45.251  33.795  28.179  1.00  0.00     0.173 A 
ATOM     96  F   UNL A   1      46.174  32.312  31.370  1.00  0.00    -0.203 F 
ATOM     97  C   UNL A   1      46.270  34.550  30.649  1.00  0.00     0.198 A 
ATOM     98  C   UNL A   1      45.570  35.126  28.426  1.00  0.00     0.198 A 
ATOM     99  F   UNL A   1      44.755  33.462  26.978  1.00  0.00    -0.203 F 
ATOM    100  F   UNL A   1      46.727  34.918  31.853  1.00  0.00    -0.200 F 
ATOM    101  C   UNL A   1      46.072  35.505  29.662  1.00  0.00     0.200 A 
ATOM    102  F   UNL A   1      45.391  36.046  27.467  1.00  0.00    -0.200 F 
ATOM    103  F   UNL A   1      46.359  36.791  29.905  1.00  0.00    -0.200 F 
ENDBRANCH  70  93
ENDBRANCH  44  45
ENDBRANCH  36  39
ENDBRANCH  34  35
ENDBRANCH  33  34
ENDBRANCH  32  33
ENDBRANCH  31  32
ENDBRANCH   1  31
TORSDOF 18
ENDMDL
