MODEL 1
REMARK VINA RESULT:     -12.6      0.000      0.000
REMARK SMILES CC(C)CSc1cc2c(cc1Cl)C=C(C(=O)NCCCCCCNC(=O)c1ccc(-c3c4nc(c(-c5c(F)c(F)c(F)c(F)c5F)c5ccc([nH]5)c(-c5c(F)c(F)c(F)c(F)c5F)c5nc(c(-c6c(F)c(F)c(F)c(F)c6F)c6ccc3[nH]6)C=C5)C=C4)cc1)[C@@H](C(F)(F)F)O2
REMARK SMILES IDX 20 1 19 2 18 3 17 4 15 5 16 6 14 8 6 9 7 10 11 11 8 12 10 13
REMARK SMILES IDX 12 14 9 15 95 16 13 17 90 18 5 19 4 20 2 21 1 22 3 23 91 24
REMARK SMILES IDX 92 25 93 26 94 27 21 28 22 29 23 30 24 31 25 32 26 34 27 35
REMARK SMILES IDX 28 36 89 37 29 38 88 39 30 40 31 41 32 42 82 43 33 44 87 45
REMARK SMILES IDX 81 46 83 47 34 48 86 49 80 50 79 51 35 53 67 54 47 55 66 56
REMARK SMILES IDX 48 57 51 58 65 59 84 60 49 61 50 62 64 64 85 65 52 66 36 67
REMARK SMILES IDX 37 68 45 69 38 70 39 71 43 72 46 73 40 74 41 75 44 76 42 77
REMARK SMILES IDX 68 78 69 79 77 80 70 81 71 82 75 83 78 84 72 85 73 86 76 87
REMARK SMILES IDX 74 88 53 89 54 90 62 91 55 92 56 93 60 94 63 95 57 96 58 97
REMARK SMILES IDX 61 98 59 99
REMARK H PARENT 17 7 24 33 83 52 51 63
REMARK Flexibility Score: inf
ROOT
ATOM      1  C   UNL A   1      32.168  29.589  26.810  1.00  0.00     0.002 C 
ENDROOT
BRANCH   1   2
ATOM      2  C   UNL A   1      32.483  28.369  25.936  1.00  0.00     0.021 C 
BRANCH   2   3
ATOM      3  C   UNL A   1      32.011  28.503  24.491  1.00  0.00     0.116 C 
BRANCH   3   4
ATOM      4  N   UNL A   1      30.651  28.021  24.317  1.00  0.00    -0.352 N 
ATOM      5  C   UNL A   1      30.024  26.829  24.180  1.00  0.00     0.251 C 
ATOM      6  O   UNL A   1      28.794  26.888  24.089  1.00  0.00    -0.270 OA
ATOM      7  H   UNL A   1      30.008  28.767  24.290  1.00  0.00     0.163 HD
BRANCH   5   8
ATOM      8  C   UNL A   1      30.698  25.499  24.132  1.00  0.00     0.067 C 
ATOM      9  C   UNL A   1      33.122  21.221  25.186  1.00  0.00     0.030 A 
ATOM     10  C   UNL A   1      32.315  21.647  24.128  1.00  0.00     0.063 A 
ATOM     11  C   UNL A   1      33.188  22.011  26.347  1.00  0.00     0.055 A 
ATOM     12  C   UNL A   1      31.702  22.894  24.176  1.00  0.00     0.129 A 
ATOM     13  C   UNL A   1      32.503  23.235  26.417  1.00  0.00     0.033 A 
ATOM     14  Cl  UNL A   1      34.118  21.544  27.728  1.00  0.00    -0.083 Cl
ATOM     15  C   UNL A   1      31.779  23.694  25.316  1.00  0.00     0.019 A 
ATOM     16  O   UNL A   1      31.045  23.295  23.048  1.00  0.00    -0.475 OA
ATOM     17  C   UNL A   1      31.091  24.982  25.315  1.00  0.00     0.025 C 
ATOM     18  C   UNL A   1      30.979  24.739  22.867  1.00  0.00     0.314 C 
BRANCH   9  19
ATOM     19  S   UNL A   1      34.039  19.703  24.948  1.00  0.00    -0.124 SA
BRANCH  19  20
ATOM     20  C   UNL A   1      32.885  18.785  23.842  1.00  0.00     0.078 C 
BRANCH  20  21
ATOM     21  C   UNL A   1      32.942  17.252  24.019  1.00  0.00    -0.007 C 
ATOM     22  C   UNL A   1      34.109  16.625  23.248  1.00  0.00     0.008 C 
ATOM     23  C   UNL A   1      33.096  16.883  25.499  1.00  0.00     0.008 C 
ENDBRANCH  20  21
ENDBRANCH  19  20
ENDBRANCH   9  19
BRANCH  18  24
ATOM     24  C   UNL A   1      32.248  25.249  22.152  1.00  0.00     0.429 C 
ATOM     25  F   UNL A   1      32.817  24.258  21.422  1.00  0.00    -0.167 F 
ATOM     26  F   UNL A   1      31.980  26.256  21.285  1.00  0.00    -0.167 F 
ATOM     27  F   UNL A   1      33.187  25.713  23.008  1.00  0.00    -0.167 F 
ENDBRANCH  18  24
ENDBRANCH   5   8
ENDBRANCH   3   4
ENDBRANCH   2   3
ENDBRANCH   1   2
BRANCH   1  28
ATOM     28  C   UNL A   1      31.691  30.837  26.056  1.00  0.00     0.002 C 
BRANCH  28  29
ATOM     29  C   UNL A   1      31.444  32.078  26.918  1.00  0.00     0.021 C 
BRANCH  29  30
ATOM     30  C   UNL A   1      32.702  32.845  27.312  1.00  0.00     0.116 C 
BRANCH  30  31
ATOM     31  N   UNL A   1      32.423  34.225  27.675  1.00  0.00    -0.352 N 
ATOM     32  C   UNL A   1      33.021  35.016  28.629  1.00  0.00     0.251 C 
ATOM     33  H   UNL A   1      31.703  34.656  27.162  1.00  0.00     0.163 HD
ATOM     34  O   UNL A   1      32.554  36.111  28.905  1.00  0.00    -0.269 OA
BRANCH  32  35
ATOM     35  C   UNL A   1      34.214  34.518  29.346  1.00  0.00     0.039 A 
ATOM     36  C   UNL A   1      35.488  34.645  28.788  1.00  0.00     0.014 A 
ATOM     37  C   UNL A   1      34.047  33.896  30.586  1.00  0.00     0.014 A 
ATOM     38  C   UNL A   1      36.569  34.009  29.390  1.00  0.00     0.010 A 
ATOM     39  C   UNL A   1      35.148  33.323  31.228  1.00  0.00     0.010 A 
ATOM     40  C   UNL A   1      36.409  33.331  30.609  1.00  0.00    -0.014 A 
BRANCH  40  41
ATOM     41  C   UNL A   1      37.564  32.613  31.207  1.00  0.00     0.031 A 
ATOM     42  C   UNL A   1      38.030  32.943  32.599  1.00  0.00     0.074 A 
ATOM     43  C   UNL A   1      38.158  31.623  30.515  1.00  0.00     0.049 A 
ATOM     44  N   UNL A   1      39.017  32.424  33.286  1.00  0.00    -0.248 NA
ATOM     45  C   UNL A   1      37.293  33.997  33.316  1.00  0.00     0.031 C 
ATOM     46  C   UNL A   1      37.783  31.197  29.166  1.00  0.00     0.029 A 
ATOM     47  N   UNL A   1      39.185  30.780  30.858  1.00  0.00    -0.354 N 
ATOM     48  C   UNL A   1      39.030  33.094  34.502  1.00  0.00     0.074 A 
ATOM     49  C   UNL A   1      37.971  34.080  34.452  1.00  0.00     0.031 C 
ATOM     50  C   UNL A   1      38.533  30.142  28.816  1.00  0.00     0.029 A 
ATOM     51  C   UNL A   1      39.481  29.855  29.888  1.00  0.00     0.049 A 
ATOM     52  H   UNL A   1      39.663  30.833  31.717  1.00  0.00     0.167 HD
ATOM     53  C   UNL A   1      39.841  32.895  35.568  1.00  0.00     0.037 A 
ATOM     54  C   UNL A   1      40.420  28.891  29.859  1.00  0.00     0.037 A 
ATOM     55  C   UNL A   1      40.877  31.897  35.626  1.00  0.00     0.049 A 
ATOM     56  C   UNL A   1      41.341  28.727  31.035  1.00  0.00     0.074 A 
ATOM     57  C   UNL A   1      41.736  31.606  36.671  1.00  0.00     0.029 A 
ATOM     58  N   UNL A   1      41.192  31.025  34.594  1.00  0.00    -0.354 N 
ATOM     59  N   UNL A   1      41.346  29.371  32.175  1.00  0.00    -0.248 NA
ATOM     60  C   UNL A   1      42.396  27.712  30.911  1.00  0.00     0.031 C 
ATOM     61  C   UNL A   1      42.598  30.584  36.258  1.00  0.00     0.029 A 
ATOM     62  C   UNL A   1      42.247  30.209  34.971  1.00  0.00     0.049 A 
ATOM     63  H   UNL A   1      40.734  30.990  33.724  1.00  0.00     0.167 HD
ATOM     64  C   UNL A   1      42.398  28.840  32.907  1.00  0.00     0.074 A 
ATOM     65  C   UNL A   1      42.993  27.801  32.092  1.00  0.00     0.031 C 
ATOM     66  C   UNL A   1      42.836  29.188  34.142  1.00  0.00     0.037 A 
BRANCH  53  67
ATOM     67  C   UNL A   1      39.649  33.777  36.767  1.00  0.00     0.064 A 
ATOM     68  C   UNL A   1      40.227  35.053  36.840  1.00  0.00     0.173 A 
ATOM     69  C   UNL A   1      38.826  33.368  37.826  1.00  0.00     0.173 A 
ATOM     70  F   UNL A   1      41.033  35.486  35.858  1.00  0.00    -0.203 F 
ATOM     71  C   UNL A   1      40.002  35.880  37.938  1.00  0.00     0.198 A 
ATOM     72  C   UNL A   1      38.582  34.206  38.911  1.00  0.00     0.198 A 
ATOM     73  F   UNL A   1      38.244  32.159  37.803  1.00  0.00    -0.203 F 
ATOM     74  F   UNL A   1      40.594  37.081  38.002  1.00  0.00    -0.200 F 
ATOM     75  C   UNL A   1      39.175  35.459  38.968  1.00  0.00     0.200 A 
ATOM     76  F   UNL A   1      37.772  33.804  39.901  1.00  0.00    -0.200 F 
ATOM     77  F   UNL A   1      38.950  36.261  40.018  1.00  0.00    -0.200 F 
ENDBRANCH  53  67
BRANCH  54  78
ATOM     78  C   UNL A   1      40.528  28.009  28.670  1.00  0.00     0.064 A 
ATOM     79  C   UNL A   1      39.852  26.783  28.622  1.00  0.00     0.173 A 
ATOM     80  C   UNL A   1      41.280  28.387  27.547  1.00  0.00     0.173 A 
ATOM     81  F   UNL A   1      39.138  26.371  29.680  1.00  0.00    -0.203 F 
ATOM     82  C   UNL A   1      39.925  25.967  27.496  1.00  0.00     0.198 A 
ATOM     83  C   UNL A   1      41.330  27.582  26.412  1.00  0.00     0.198 A 
ATOM     84  F   UNL A   1      41.943  29.552  27.545  1.00  0.00    -0.203 F 
ATOM     85  F   UNL A   1      39.290  24.787  27.485  1.00  0.00    -0.200 F 
ATOM     86  C   UNL A   1      40.655  26.371  26.388  1.00  0.00     0.200 A 
ATOM     87  F   UNL A   1      42.025  27.984  25.339  1.00  0.00    -0.200 F 
ATOM     88  F   UNL A   1      40.711  25.592  25.299  1.00  0.00    -0.200 F 
ENDBRANCH  54  78
BRANCH  66  89
ATOM     89  C   UNL A   1      44.018  28.445  34.688  1.00  0.00     0.064 A 
ATOM     90  C   UNL A   1      45.326  28.905  34.479  1.00  0.00     0.173 A 
ATOM     91  C   UNL A   1      43.841  27.295  35.471  1.00  0.00     0.173 A 
ATOM     92  F   UNL A   1      45.547  29.993  33.723  1.00  0.00    -0.203 F 
ATOM     93  C   UNL A   1      46.416  28.231  35.022  1.00  0.00     0.198 A 
ATOM     94  C   UNL A   1      44.931  26.638  36.034  1.00  0.00     0.198 A 
ATOM     95  F   UNL A   1      42.609  26.819  35.704  1.00  0.00    -0.203 F 
ATOM     96  F   UNL A   1      47.660  28.669  34.782  1.00  0.00    -0.200 F 
ATOM     97  C   UNL A   1      46.217  27.105  35.806  1.00  0.00     0.200 A 
ATOM     98  F   UNL A   1      44.738  25.557  36.801  1.00  0.00    -0.200 F 
ATOM     99  F   UNL A   1      47.267  26.463  36.338  1.00  0.00    -0.200 F 
ENDBRANCH  66  89
ENDBRANCH  40  41
ENDBRANCH  32  35
ENDBRANCH  30  31
ENDBRANCH  29  30
ENDBRANCH  28  29
ENDBRANCH   1  28
TORSDOF 17
ENDMDL
MODEL 2
REMARK VINA RESULT:     -12.6      0.409      7.081
REMARK SMILES CC(C)CSc1cc2c(cc1Cl)C=C(C(=O)NCCCCCCNC(=O)c1ccc(-c3c4nc(c(-c5c(F)c(F)c(F)c(F)c5F)c5ccc([nH]5)c(-c5c(F)c(F)c(F)c(F)c5F)c5nc(c(-c6c(F)c(F)c(F)c(F)c6F)c6ccc3[nH]6)C=C5)C=C4)cc1)[C@@H](C(F)(F)F)O2
REMARK SMILES IDX 20 1 19 2 18 3 17 4 15 5 16 6 14 8 6 9 7 10 11 11 8 12 10 13
REMARK SMILES IDX 12 14 9 15 95 16 13 17 90 18 5 19 4 20 2 21 1 22 3 23 91 24
REMARK SMILES IDX 92 25 93 26 94 27 21 28 22 29 23 30 24 31 25 32 26 34 27 35
REMARK SMILES IDX 28 36 89 37 29 38 88 39 30 40 31 41 32 42 82 43 33 44 87 45
REMARK SMILES IDX 81 46 83 47 34 48 86 49 80 50 79 51 35 53 67 54 47 55 66 56
REMARK SMILES IDX 48 57 51 58 65 59 84 60 49 61 50 62 64 64 85 65 52 66 36 67
REMARK SMILES IDX 37 68 45 69 38 70 39 71 43 72 46 73 40 74 41 75 44 76 42 77
REMARK SMILES IDX 68 78 69 79 77 80 70 81 71 82 75 83 78 84 72 85 73 86 76 87
REMARK SMILES IDX 74 88 53 89 54 90 62 91 55 92 56 93 60 94 63 95 57 96 58 97
REMARK SMILES IDX 61 98 59 99
REMARK H PARENT 17 7 24 33 83 52 51 63
REMARK Flexibility Score: inf
ROOT
ATOM      1  C   UNL A   1      32.099  29.651  26.926  1.00  0.00     0.002 C 
ENDROOT
BRANCH   1   2
ATOM      2  C   UNL A   1      32.247  28.340  26.146  1.00  0.00     0.021 C 
BRANCH   2   3
ATOM      3  C   UNL A   1      31.887  28.455  24.667  1.00  0.00     0.116 C 
BRANCH   3   4
ATOM      4  N   UNL A   1      30.540  27.984  24.397  1.00  0.00    -0.352 N 
ATOM      5  C   UNL A   1      29.921  26.798  24.184  1.00  0.00     0.251 C 
ATOM      6  O   UNL A   1      28.699  26.864  24.023  1.00  0.00    -0.270 OA
ATOM      7  H   UNL A   1      29.900  28.732  24.357  1.00  0.00     0.163 HD
BRANCH   5   8
ATOM      8  C   UNL A   1      30.595  25.468  24.131  1.00  0.00     0.067 C 
ATOM      9  C   UNL A   1      33.030  21.192  25.169  1.00  0.00     0.030 A 
ATOM     10  C   UNL A   1      32.215  21.618  24.116  1.00  0.00     0.063 A 
ATOM     11  C   UNL A   1      33.103  21.983  26.330  1.00  0.00     0.055 A 
ATOM     12  C   UNL A   1      31.602  22.864  24.169  1.00  0.00     0.129 A 
ATOM     13  C   UNL A   1      32.417  23.206  26.404  1.00  0.00     0.033 A 
ATOM     14  Cl  UNL A   1      34.042  21.516  27.704  1.00  0.00    -0.083 Cl
ATOM     15  C   UNL A   1      31.686  23.665  25.308  1.00  0.00     0.019 A 
ATOM     16  O   UNL A   1      30.937  23.266  23.045  1.00  0.00    -0.475 OA
ATOM     17  C   UNL A   1      30.997  24.952  25.311  1.00  0.00     0.025 C 
ATOM     18  C   UNL A   1      30.869  24.709  22.865  1.00  0.00     0.314 C 
BRANCH   9  19
ATOM     19  S   UNL A   1      33.946  19.675  24.925  1.00  0.00    -0.124 SA
BRANCH  19  20
ATOM     20  C   UNL A   1      32.665  18.640  24.098  1.00  0.00     0.078 C 
BRANCH  20  21
ATOM     21  C   UNL A   1      32.999  17.133  24.080  1.00  0.00    -0.007 C 
ATOM     22  C   UNL A   1      34.201  16.819  23.182  1.00  0.00     0.008 C 
ATOM     23  C   UNL A   1      33.317  16.632  25.493  1.00  0.00     0.008 C 
ENDBRANCH  20  21
ENDBRANCH  19  20
ENDBRANCH   9  19
BRANCH  18  24
ATOM     24  C   UNL A   1      32.132  25.220  22.141  1.00  0.00     0.429 C 
ATOM     25  F   UNL A   1      32.826  24.186  21.604  1.00  0.00    -0.167 F 
ATOM     26  F   UNL A   1      31.836  26.055  21.115  1.00  0.00    -0.167 F 
ATOM     27  F   UNL A   1      32.974  25.892  22.958  1.00  0.00    -0.167 F 
ENDBRANCH  18  24
ENDBRANCH   5   8
ENDBRANCH   3   4
ENDBRANCH   2   3
ENDBRANCH   1   2
BRANCH   1  28
ATOM     28  C   UNL A   1      31.698  30.876  26.094  1.00  0.00     0.002 C 
BRANCH  28  29
ATOM     29  C   UNL A   1      31.426  32.156  26.886  1.00  0.00     0.021 C 
BRANCH  29  30
ATOM     30  C   UNL A   1      32.673  32.891  27.366  1.00  0.00     0.116 C 
BRANCH  30  31
ATOM     31  N   UNL A   1      32.416  34.290  27.669  1.00  0.00    -0.352 N 
ATOM     32  C   UNL A   1      32.994  35.099  28.619  1.00  0.00     0.251 C 
ATOM     33  H   UNL A   1      31.728  34.720  27.112  1.00  0.00     0.163 HD
ATOM     34  O   UNL A   1      32.545  36.214  28.838  1.00  0.00    -0.269 OA
BRANCH  32  35
ATOM     35  C   UNL A   1      34.144  34.597  29.402  1.00  0.00     0.039 A 
ATOM     36  C   UNL A   1      35.428  34.583  28.856  1.00  0.00     0.014 A 
ATOM     37  C   UNL A   1      33.922  34.116  30.695  1.00  0.00     0.014 A 
ATOM     38  C   UNL A   1      36.458  33.941  29.537  1.00  0.00     0.010 A 
ATOM     39  C   UNL A   1      34.976  33.539  31.409  1.00  0.00     0.010 A 
ATOM     40  C   UNL A   1      36.240  33.401  30.814  1.00  0.00    -0.014 A 
BRANCH  40  41
ATOM     41  C   UNL A   1      37.338  32.673  31.500  1.00  0.00     0.031 A 
ATOM     42  C   UNL A   1      38.061  31.551  30.803  1.00  0.00     0.074 A 
ATOM     43  C   UNL A   1      37.723  33.060  32.729  1.00  0.00     0.049 A 
ATOM     44  N   UNL A   1      39.043  30.802  31.240  1.00  0.00    -0.248 NA
ATOM     45  C   UNL A   1      37.624  31.223  29.437  1.00  0.00     0.031 C 
ATOM     46  C   UNL A   1      37.115  34.146  33.498  1.00  0.00     0.029 A 
ATOM     47  N   UNL A   1      38.731  32.602  33.540  1.00  0.00    -0.354 N 
ATOM     48  C   UNL A   1      39.328  29.910  30.216  1.00  0.00     0.074 A 
ATOM     49  C   UNL A   1      38.398  30.188  29.143  1.00  0.00     0.031 C 
ATOM     50  C   UNL A   1      37.792  34.305  34.644  1.00  0.00     0.029 A 
ATOM     51  C   UNL A   1      38.843  33.295  34.720  1.00  0.00     0.049 A 
ATOM     52  H   UNL A   1      39.319  31.850  33.299  1.00  0.00     0.167 HD
ATOM     53  C   UNL A   1      40.289  28.956  30.168  1.00  0.00     0.037 A 
ATOM     54  C   UNL A   1      39.689  33.127  35.754  1.00  0.00     0.037 A 
ATOM     55  C   UNL A   1      41.230  28.697  31.226  1.00  0.00     0.049 A 
ATOM     56  C   UNL A   1      40.710  32.028  35.697  1.00  0.00     0.074 A 
ATOM     57  C   UNL A   1      42.253  27.766  31.261  1.00  0.00     0.029 A 
ATOM     58  N   UNL A   1      41.265  29.376  32.436  1.00  0.00    -0.354 N 
ATOM     59  N   UNL A   1      40.965  31.188  34.724  1.00  0.00    -0.248 NA
ATOM     60  C   UNL A   1      41.550  31.843  36.888  1.00  0.00     0.031 C 
ATOM     61  C   UNL A   1      42.882  27.853  32.508  1.00  0.00     0.029 A 
ATOM     62  C   UNL A   1      42.278  28.869  33.233  1.00  0.00     0.049 A 
ATOM     63  H   UNL A   1      40.659  30.109  32.690  1.00  0.00     0.167 HD
ATOM     64  C   UNL A   1      41.995  30.378  35.181  1.00  0.00     0.074 A 
ATOM     65  C   UNL A   1      42.336  30.844  36.509  1.00  0.00     0.031 C 
ATOM     66  C   UNL A   1      42.597  29.336  34.558  1.00  0.00     0.037 A 
BRANCH  53  67
ATOM     67  C   UNL A   1      40.373  28.110  28.931  1.00  0.00     0.064 A 
ATOM     68  C   UNL A   1      41.169  28.485  27.839  1.00  0.00     0.173 A 
ATOM     69  C   UNL A   1      39.700  26.882  28.862  1.00  0.00     0.173 A 
ATOM     70  F   UNL A   1      41.823  29.656  27.850  1.00  0.00    -0.203 F 
ATOM     71  C   UNL A   1      41.275  27.668  26.716  1.00  0.00     0.198 A 
ATOM     72  C   UNL A   1      39.827  26.056  27.749  1.00  0.00     0.198 A 
ATOM     73  F   UNL A   1      38.929  26.474  29.883  1.00  0.00    -0.203 F 
ATOM     74  F   UNL A   1      42.014  28.063  25.670  1.00  0.00    -0.200 F 
ATOM     75  C   UNL A   1      40.610  26.451  26.675  1.00  0.00     0.200 A 
ATOM     76  F   UNL A   1      39.194  24.874  27.715  1.00  0.00    -0.200 F 
ATOM     77  F   UNL A   1      40.723  25.661  25.598  1.00  0.00    -0.200 F 
ENDBRANCH  53  67
BRANCH  54  78
ATOM     78  C   UNL A   1      39.597  34.031  36.928  1.00  0.00     0.064 A 
ATOM     79  C   UNL A   1      38.841  33.673  38.052  1.00  0.00     0.173 A 
ATOM     80  C   UNL A   1      40.287  35.252  36.964  1.00  0.00     0.173 A 
ATOM     81  F   UNL A   1      38.148  32.525  38.054  1.00  0.00    -0.203 F 
ATOM     82  C   UNL A   1      38.778  34.503  39.169  1.00  0.00     0.198 A 
ATOM     83  C   UNL A   1      40.244  36.069  38.092  1.00  0.00     0.198 A 
ATOM     84  F   UNL A   1      41.025  35.637  35.913  1.00  0.00    -0.203 F 
ATOM     85  F   UNL A   1      38.028  34.151  40.221  1.00  0.00    -0.200 F 
ATOM     86  C   UNL A   1      39.487  35.695  39.192  1.00  0.00     0.200 A 
ATOM     87  F   UNL A   1      40.942  37.212  38.115  1.00  0.00    -0.200 F 
ATOM     88  F   UNL A   1      39.438  36.486  40.273  1.00  0.00    -0.200 F 
ENDBRANCH  54  78
BRANCH  66  89
ATOM     89  C   UNL A   1      43.685  28.624  35.304  1.00  0.00     0.064 A 
ATOM     90  C   UNL A   1      43.396  27.568  36.179  1.00  0.00     0.173 A 
ATOM     91  C   UNL A   1      45.032  28.963  35.103  1.00  0.00     0.173 A 
ATOM     92  F   UNL A   1      42.122  27.217  36.417  1.00  0.00    -0.203 F 
ATOM     93  C   UNL A   1      44.414  26.886  36.838  1.00  0.00     0.198 A 
ATOM     94  C   UNL A   1      46.049  28.262  35.743  1.00  0.00     0.198 A 
ATOM     95  F   UNL A   1      45.360  29.962  34.270  1.00  0.00    -0.203 F 
ATOM     96  F   UNL A   1      44.113  25.902  37.697  1.00  0.00    -0.200 F 
ATOM     97  C   UNL A   1      45.739  27.227  36.613  1.00  0.00     0.200 A 
ATOM     98  F   UNL A   1      47.329  28.585  35.516  1.00  0.00    -0.200 F 
ATOM     99  F   UNL A   1      46.720  26.562  37.239  1.00  0.00    -0.200 F 
ENDBRANCH  66  89
ENDBRANCH  40  41
ENDBRANCH  32  35
ENDBRANCH  30  31
ENDBRANCH  29  30
ENDBRANCH  28  29
ENDBRANCH   1  28
TORSDOF 17
ENDMDL
MODEL 3
REMARK VINA RESULT:     -12.3      6.321     11.608
REMARK SMILES CC(C)CSc1cc2c(cc1Cl)C=C(C(=O)NCCCCCCNC(=O)c1ccc(-c3c4nc(c(-c5c(F)c(F)c(F)c(F)c5F)c5ccc([nH]5)c(-c5c(F)c(F)c(F)c(F)c5F)c5nc(c(-c6c(F)c(F)c(F)c(F)c6F)c6ccc3[nH]6)C=C5)C=C4)cc1)[C@@H](C(F)(F)F)O2
REMARK SMILES IDX 20 1 19 2 18 3 17 4 15 5 16 6 14 8 6 9 7 10 11 11 8 12 10 13
REMARK SMILES IDX 12 14 9 15 95 16 13 17 90 18 5 19 4 20 2 21 1 22 3 23 91 24
REMARK SMILES IDX 92 25 93 26 94 27 21 28 22 29 23 30 24 31 25 32 26 34 27 35
REMARK SMILES IDX 28 36 89 37 29 38 88 39 30 40 31 41 32 42 82 43 33 44 87 45
REMARK SMILES IDX 81 46 83 47 34 48 86 49 80 50 79 51 35 53 67 54 47 55 66 56
REMARK SMILES IDX 48 57 51 58 65 59 84 60 49 61 50 62 64 64 85 65 52 66 36 67
REMARK SMILES IDX 37 68 45 69 38 70 39 71 43 72 46 73 40 74 41 75 44 76 42 77
REMARK SMILES IDX 68 78 69 79 77 80 70 81 71 82 75 83 78 84 72 85 73 86 76 87
REMARK SMILES IDX 74 88 53 89 54 90 62 91 55 92 56 93 60 94 63 95 57 96 58 97
REMARK SMILES IDX 61 98 59 99
REMARK H PARENT 17 7 24 33 83 52 51 63
REMARK Flexibility Score: inf
ROOT
ATOM      1  C   UNL A   1      40.294  22.397  26.460  1.00  0.00     0.002 C 
ENDROOT
BRANCH   1   2
ATOM      2  C   UNL A   1      39.066  21.625  25.963  1.00  0.00     0.021 C 
BRANCH   2   3
ATOM      3  C   UNL A   1      37.850  22.506  25.687  1.00  0.00     0.116 C 
BRANCH   3   4
ATOM      4  N   UNL A   1      36.605  21.833  26.018  1.00  0.00    -0.352 N 
ATOM      5  C   UNL A   1      35.282  22.015  25.793  1.00  0.00     0.251 C 
ATOM      6  O   UNL A   1      34.546  21.137  26.253  1.00  0.00    -0.270 OA
ATOM      7  H   UNL A   1      36.768  21.023  26.555  1.00  0.00     0.163 HD
BRANCH   5   8
ATOM      8  C   UNL A   1      34.681  23.163  25.054  1.00  0.00     0.067 C 
ATOM      9  C   UNL A   1      32.591  27.533  23.702  1.00  0.00     0.030 A 
ATOM     10  C   UNL A   1      33.283  26.531  23.016  1.00  0.00     0.063 A 
ATOM     11  C   UNL A   1      32.580  27.505  25.108  1.00  0.00     0.055 A 
ATOM     12  C   UNL A   1      33.828  25.458  23.712  1.00  0.00     0.129 A 
ATOM     13  C   UNL A   1      33.200  26.456  25.807  1.00  0.00     0.033 A 
ATOM     14  Cl  UNL A   1      31.796  28.727  26.047  1.00  0.00    -0.083 Cl
ATOM     15  C   UNL A   1      33.803  25.411  25.106  1.00  0.00     0.019 A 
ATOM     16  O   UNL A   1      34.365  24.452  22.960  1.00  0.00    -0.475 OA
ATOM     17  C   UNL A   1      34.417  24.270  25.779  1.00  0.00     0.025 C 
ATOM     18  C   UNL A   1      34.336  23.141  23.592  1.00  0.00     0.314 C 
BRANCH   9  19
ATOM     19  S   UNL A   1      31.743  28.758  22.713  1.00  0.00    -0.124 SA
BRANCH  19  20
ATOM     20  C   UNL A   1      29.990  28.275  23.014  1.00  0.00     0.078 C 
BRANCH  20  21
ATOM     21  C   UNL A   1      29.002  29.462  22.979  1.00  0.00    -0.007 C 
ATOM     22  C   UNL A   1      29.213  30.351  21.749  1.00  0.00     0.008 C 
ATOM     23  C   UNL A   1      27.554  28.959  22.961  1.00  0.00     0.008 C 
ENDBRANCH  20  21
ENDBRANCH  19  20
ENDBRANCH   9  19
BRANCH  18  24
ATOM     24  C   UNL A   1      32.986  22.444  23.323  1.00  0.00     0.429 C 
ATOM     25  F   UNL A   1      32.095  22.734  24.303  1.00  0.00    -0.167 F 
ATOM     26  F   UNL A   1      32.420  22.849  22.160  1.00  0.00    -0.167 F 
ATOM     27  F   UNL A   1      33.091  21.097  23.256  1.00  0.00    -0.167 F 
ENDBRANCH  18  24
ENDBRANCH   5   8
ENDBRANCH   3   4
ENDBRANCH   2   3
ENDBRANCH   1   2
BRANCH   1  28
ATOM     28  C   UNL A   1      41.559  21.558  26.680  1.00  0.00     0.002 C 
BRANCH  28  29
ATOM     29  C   UNL A   1      41.514  20.131  26.129  1.00  0.00     0.021 C 
BRANCH  29  30
ATOM     30  C   UNL A   1      42.753  19.292  26.419  1.00  0.00     0.116 C 
BRANCH  30  31
ATOM     31  N   UNL A   1      43.443  18.876  25.208  1.00  0.00    -0.352 N 
ATOM     32  C   UNL A   1      44.261  19.604  24.375  1.00  0.00     0.251 C 
ATOM     33  H   UNL A   1      43.304  17.938  24.947  1.00  0.00     0.163 HD
ATOM     34  O   UNL A   1      44.635  19.134  23.310  1.00  0.00    -0.269 OA
BRANCH  32  35
ATOM     35  C   UNL A   1      44.659  20.975  24.759  1.00  0.00     0.039 A 
ATOM     36  C   UNL A   1      45.479  21.197  25.867  1.00  0.00     0.014 A 
ATOM     37  C   UNL A   1      44.184  22.053  24.006  1.00  0.00     0.014 A 
ATOM     38  C   UNL A   1      45.690  22.497  26.318  1.00  0.00     0.010 A 
ATOM     39  C   UNL A   1      44.461  23.359  24.417  1.00  0.00     0.010 A 
ATOM     40  C   UNL A   1      45.173  23.591  25.605  1.00  0.00    -0.014 A 
BRANCH  40  41
ATOM     41  C   UNL A   1      45.363  24.966  26.133  1.00  0.00     0.031 A 
ATOM     42  C   UNL A   1      46.697  25.652  26.010  1.00  0.00     0.074 A 
ATOM     43  C   UNL A   1      44.318  25.619  26.673  1.00  0.00     0.049 A 
ATOM     44  N   UNL A   1      47.052  26.848  26.410  1.00  0.00    -0.248 NA
ATOM     45  C   UNL A   1      47.777  24.897  25.355  1.00  0.00     0.031 C 
ATOM     46  C   UNL A   1      42.971  25.067  26.828  1.00  0.00     0.029 A 
ATOM     47  N   UNL A   1      44.215  26.894  27.169  1.00  0.00    -0.354 N 
ATOM     48  C   UNL A   1      48.392  26.982  26.071  1.00  0.00     0.074 A 
ATOM     49  C   UNL A   1      48.799  25.736  25.459  1.00  0.00     0.031 C 
ATOM     50  C   UNL A   1      42.166  26.013  27.333  1.00  0.00     0.029 A 
ATOM     51  C   UNL A   1      42.950  27.216  27.593  1.00  0.00     0.049 A 
ATOM     52  H   UNL A   1      44.975  27.518  27.214  1.00  0.00     0.167 HD
ATOM     53  C   UNL A   1      49.203  28.053  26.242  1.00  0.00     0.037 A 
ATOM     54  C   UNL A   1      42.476  28.350  28.144  1.00  0.00     0.037 A 
ATOM     55  C   UNL A   1      48.790  29.301  26.828  1.00  0.00     0.049 A 
ATOM     56  C   UNL A   1      43.412  29.503  28.369  1.00  0.00     0.074 A 
ATOM     57  C   UNL A   1      49.536  30.450  27.023  1.00  0.00     0.029 A 
ATOM     58  N   UNL A   1      47.516  29.564  27.311  1.00  0.00    -0.354 N 
ATOM     59  N   UNL A   1      44.677  29.614  28.050  1.00  0.00    -0.248 NA
ATOM     60  C   UNL A   1      42.856  30.683  29.047  1.00  0.00     0.031 C 
ATOM     61  C   UNL A   1      48.725  31.395  27.660  1.00  0.00     0.029 A 
ATOM     62  C   UNL A   1      47.461  30.850  27.822  1.00  0.00     0.049 A 
ATOM     63  H   UNL A   1      46.763  28.930  27.291  1.00  0.00     0.167 HD
ATOM     64  C   UNL A   1      45.070  30.873  28.482  1.00  0.00     0.074 A 
ATOM     65  C   UNL A   1      43.900  31.499  29.063  1.00  0.00     0.031 C 
ATOM     66  C   UNL A   1      46.293  31.454  28.410  1.00  0.00     0.037 A 
BRANCH  53  67
ATOM     67  C   UNL A   1      50.630  27.926  25.793  1.00  0.00     0.064 A 
ATOM     68  C   UNL A   1      50.992  28.085  24.447  1.00  0.00     0.173 A 
ATOM     69  C   UNL A   1      51.653  27.706  26.727  1.00  0.00     0.173 A 
ATOM     70  F   UNL A   1      50.051  28.284  23.513  1.00  0.00    -0.203 F 
ATOM     71  C   UNL A   1      52.326  28.011  24.051  1.00  0.00     0.198 A 
ATOM     72  C   UNL A   1      52.987  27.658  26.332  1.00  0.00     0.198 A 
ATOM     73  F   UNL A   1      51.360  27.554  28.027  1.00  0.00    -0.203 F 
ATOM     74  F   UNL A   1      52.646  28.131  22.755  1.00  0.00    -0.200 F 
ATOM     75  C   UNL A   1      53.322  27.805  24.994  1.00  0.00     0.200 A 
ATOM     76  F   UNL A   1      53.950  27.471  27.246  1.00  0.00    -0.200 F 
ATOM     77  F   UNL A   1      54.606  27.746  24.612  1.00  0.00    -0.200 F 
ENDBRANCH  53  67
BRANCH  54  78
ATOM     78  C   UNL A   1      41.042  28.440  28.516  1.00  0.00     0.064 A 
ATOM     79  C   UNL A   1      40.604  28.038  29.785  1.00  0.00     0.173 A 
ATOM     80  C   UNL A   1      40.089  28.957  27.626  1.00  0.00     0.173 A 
ATOM     81  F   UNL A   1      41.476  27.519  30.661  1.00  0.00    -0.203 F 
ATOM     82  C   UNL A   1      39.264  28.150  30.149  1.00  0.00     0.198 A 
ATOM     83  C   UNL A   1      38.754  29.092  28.001  1.00  0.00     0.198 A 
ATOM     84  F   UNL A   1      40.461  29.356  26.401  1.00  0.00    -0.203 F 
ATOM     85  F   UNL A   1      38.864  27.735  31.359  1.00  0.00    -0.200 F 
ATOM     86  C   UNL A   1      38.342  28.686  29.262  1.00  0.00     0.200 A 
ATOM     87  F   UNL A   1      37.871  29.623  27.146  1.00  0.00    -0.200 F 
ATOM     88  F   UNL A   1      37.056  28.807  29.619  1.00  0.00    -0.200 F 
ENDBRANCH  54  78
BRANCH  66  89
ATOM     89  C   UNL A   1      46.433  32.835  28.976  1.00  0.00     0.064 A 
ATOM     90  C   UNL A   1      46.822  33.038  30.308  1.00  0.00     0.173 A 
ATOM     91  C   UNL A   1      46.230  33.964  28.169  1.00  0.00     0.173 A 
ATOM     92  F   UNL A   1      47.012  31.989  31.123  1.00  0.00    -0.203 F 
ATOM     93  C   UNL A   1      46.988  34.324  30.815  1.00  0.00     0.198 A 
ATOM     94  C   UNL A   1      46.422  35.247  28.672  1.00  0.00     0.198 A 
ATOM     95  F   UNL A   1      45.862  33.821  26.886  1.00  0.00    -0.203 F 
ATOM     96  F   UNL A   1      47.327  34.496  32.100  1.00  0.00    -0.200 F 
ATOM     97  C   UNL A   1      46.797  35.426  29.995  1.00  0.00     0.200 A 
ATOM     98  F   UNL A   1      46.249  36.311  27.876  1.00  0.00    -0.200 F 
ATOM     99  F   UNL A   1      46.969  36.663  30.482  1.00  0.00    -0.200 F 
ENDBRANCH  66  89
ENDBRANCH  40  41
ENDBRANCH  32  35
ENDBRANCH  30  31
ENDBRANCH  29  30
ENDBRANCH  28  29
ENDBRANCH   1  28
TORSDOF 17
ENDMDL
