MODEL 1
REMARK VINA RESULT:     -14.9      0.000      0.000
REMARK SMILES Cc1ccccc1NC(=S)NN1C(=O)CS[C@H]1c1ccccc1C(=O)NCCCCCCNC(=O)c1ccc(-c2c3nc(c(-c4c(F)c(F)c(F)c(F)c4F)c4ccc([nH]4)c(-c4c(F)c(F)c(F)c(F)c4F)c4nc(c(-c5c(F)c(F)c(F)c(F)c5F)c5ccc2[nH]5)C=C4)C=C3)cc1
REMARK SMILES IDX 28 1 27 2 26 3 24 4 25 5 23 7 18 8 19 9 20 10 22 11 21 12
REMARK SMILES IDX 17 13 12 14 13 15 14 16 15 17 16 18 11 19 9 21 10 22 8 23
REMARK SMILES IDX 7 25 1 26 2 27 3 28 4 29 6 30 5 31 29 32 30 33 31 34 32 35
REMARK SMILES IDX 33 36 34 37 35 39 36 40 37 41 98 42 38 43 97 44 39 45 40 46
REMARK SMILES IDX 41 47 91 48 42 49 96 50 90 51 92 52 43 53 95 54 89 55 88 56
REMARK SMILES IDX 44 58 76 59 56 60 75 61 57 62 60 63 74 64 93 65 58 66 59 67
REMARK SMILES IDX 73 69 94 70 61 71 45 72 46 73 54 74 47 75 48 76 52 77 55 78
REMARK SMILES IDX 49 79 50 80 53 81 51 82 77 83 78 84 86 85 79 86 80 87 84 88
REMARK SMILES IDX 87 89 81 90 82 91 85 92 83 93 62 94 63 95 71 96 64 97 65 98
REMARK SMILES IDX 69 99 72 100 66 101 67 102 70 103 68 104
REMARK H PARENT 26 6 11 20 8 24 33 38 92 57 60 68
REMARK Flexibility Score: inf
ROOT
ATOM      1  C   UNL A   1      39.528  21.777  26.355  1.00  0.00     0.021 C 
ENDROOT
BRANCH   1   2
ATOM      2  C   UNL A   1      38.503  21.074  25.379  1.00  0.00     0.116 C 
BRANCH   2   3
ATOM      3  N   UNL A   1      37.255  21.758  24.859  1.00  0.00    -0.352 N 
ATOM      4  C   UNL A   1      35.971  21.543  25.446  1.00  0.00     0.251 C 
ATOM      5  O   UNL A   1      35.780  22.036  26.563  1.00  0.00    -0.269 OA
ATOM      6  H   UNL A   1      37.331  22.369  24.092  1.00  0.00     0.163 HD
BRANCH   4   7
ATOM      7  C   UNL A   1      34.714  20.967  24.706  1.00  0.00     0.046 A 
ATOM      8  C   UNL A   1      33.707  21.635  23.973  1.00  0.00    -0.001 A 
ATOM      9  C   UNL A   1      32.534  20.944  23.529  1.00  0.00     0.007 A 
ATOM     10  C   UNL A   1      32.366  19.588  23.713  1.00  0.00     0.000 A 
ATOM     11  C   UNL A   1      34.543  19.562  24.790  1.00  0.00     0.014 A 
ATOM     12  C   UNL A   1      33.395  18.889  24.313  1.00  0.00     0.001 A 
BRANCH   8  13
ATOM     13  C   UNL A   1      33.630  23.101  23.895  1.00  0.00     0.197 C 
ATOM     14  N   UNL A   1      32.397  23.777  24.159  1.00  0.00    -0.236 N 
ATOM     15  C   UNL A   1      32.736  24.955  23.412  1.00  0.00     0.252 C 
ATOM     16  O   UNL A   1      32.513  25.105  22.208  1.00  0.00    -0.272 OA
ATOM     17  C   UNL A   1      33.933  25.646  24.033  1.00  0.00     0.174 C 
ATOM     18  S   UNL A   1      34.856  24.217  24.685  1.00  0.00    -0.120 SA
BRANCH  14  19
ATOM     19  N   UNL A   1      31.968  23.777  25.718  1.00  0.00    -0.270 N 
ATOM     20  H   UNL A   1      32.647  23.482  26.367  1.00  0.00     0.191 HD
BRANCH  19  21
ATOM     21  C   UNL A   1      30.717  24.158  26.233  1.00  0.00     0.189 C 
ATOM     22  S   UNL A   1      29.787  22.988  27.006  1.00  0.00    -0.039 S 
BRANCH  21  23
ATOM     23  N   UNL A   1      30.199  25.446  26.243  1.00  0.00    -0.331 N 
ATOM     24  H   UNL A   1      29.249  25.500  26.497  1.00  0.00     0.169 HD
BRANCH  23  25
ATOM     25  C   UNL A   1      30.795  26.692  25.954  1.00  0.00     0.043 A 
ATOM     26  C   UNL A   1      29.694  27.295  23.291  1.00  0.00     0.046 C 
ATOM     27  C   UNL A   1      30.550  27.682  24.460  1.00  0.00    -0.028 A 
ATOM     28  C   UNL A   1      31.695  29.045  24.090  1.00  0.00     0.005 A 
ATOM     29  C   UNL A   1      33.029  29.450  25.229  1.00  0.00     0.000 A 
ATOM     30  C   UNL A   1      32.069  27.177  27.082  1.00  0.00     0.026 A 
ATOM     31  C   UNL A   1      33.244  28.469  26.707  1.00  0.00     0.002 A 
ENDBRANCH  23  25
ENDBRANCH  21  23
ENDBRANCH  19  21
ENDBRANCH  14  19
ENDBRANCH   8  13
ENDBRANCH   4   7
ENDBRANCH   2   3
ENDBRANCH   1   2
BRANCH   1  32
ATOM     32  C   UNL A   1      41.013  20.932  26.876  1.00  0.00     0.002 C 
BRANCH  32  33
ATOM     33  C   UNL A   1      42.376  19.357  26.206  1.00  0.00     0.002 C 
BRANCH  33  34
ATOM     34  C   UNL A   1      43.546  19.095  24.902  1.00  0.00     0.021 C 
BRANCH  34  35
ATOM     35  C   UNL A   1      45.050  19.413  24.895  1.00  0.00     0.116 C 
BRANCH  35  36
ATOM     36  N   UNL A   1      45.540  20.482  24.030  1.00  0.00    -0.352 N 
ATOM     37  C   UNL A   1      44.946  21.751  23.993  1.00  0.00     0.251 C 
ATOM     38  H   UNL A   1      46.317  20.306  23.451  1.00  0.00     0.163 HD
ATOM     39  O   UNL A   1      44.395  22.230  23.015  1.00  0.00    -0.269 OA
BRANCH  37  40
ATOM     40  C   UNL A   1      45.267  22.596  25.165  1.00  0.00     0.039 A 
ATOM     41  C   UNL A   1      44.855  22.214  26.447  1.00  0.00     0.014 A 
ATOM     42  C   UNL A   1      45.615  23.907  24.885  1.00  0.00     0.014 A 
ATOM     43  C   UNL A   1      44.572  23.209  27.372  1.00  0.00     0.010 A 
ATOM     44  C   UNL A   1      45.106  24.886  25.680  1.00  0.00     0.010 A 
ATOM     45  C   UNL A   1      44.593  24.528  26.923  1.00  0.00    -0.014 A 
BRANCH  45  46
ATOM     46  C   UNL A   1      44.408  25.682  27.766  1.00  0.00     0.031 A 
ATOM     47  C   UNL A   1      43.096  26.324  27.559  1.00  0.00     0.074 A 
ATOM     48  C   UNL A   1      45.331  25.909  28.725  1.00  0.00     0.049 A 
ATOM     49  N   UNL A   1      42.883  27.586  27.569  1.00  0.00    -0.248 NA
ATOM     50  C   UNL A   1      41.894  25.572  27.152  1.00  0.00     0.031 C 
ATOM     51  C   UNL A   1      45.297  26.814  29.865  1.00  0.00     0.029 A 
ATOM     52  N   UNL A   1      46.657  25.424  28.728  1.00  0.00    -0.354 N 
ATOM     53  C   UNL A   1      41.509  27.736  27.649  1.00  0.00     0.074 A 
ATOM     54  C   UNL A   1      40.956  26.519  27.136  1.00  0.00     0.031 C 
ATOM     55  C   UNL A   1      46.565  27.129  30.196  1.00  0.00     0.029 A 
ATOM     56  C   UNL A   1      47.434  26.502  29.214  1.00  0.00     0.049 A 
ATOM     57  H   UNL A   1      46.972  24.532  28.453  1.00  0.00     0.167 HD
ATOM     58  C   UNL A   1      41.022  28.752  28.414  1.00  0.00     0.037 A 
ATOM     59  C   UNL A   1      48.271  27.167  28.363  1.00  0.00     0.037 A 
ATOM     60  C   UNL A   1      42.155  29.456  29.011  1.00  0.00     0.049 A 
ATOM     61  C   UNL A   1      47.814  28.570  28.113  1.00  0.00     0.074 A 
ATOM     62  C   UNL A   1      42.772  29.337  30.246  1.00  0.00     0.029 A 
ATOM     63  N   UNL A   1      43.078  30.059  28.170  1.00  0.00    -0.354 N 
ATOM     64  N   UNL A   1      46.567  28.951  28.176  1.00  0.00    -0.248 NA
ATOM     65  C   UNL A   1      48.742  29.664  27.877  1.00  0.00     0.031 C 
ATOM     66  C   UNL A   1      44.079  29.888  30.132  1.00  0.00     0.029 A 
ATOM     67  C   UNL A   1      44.256  30.327  28.831  1.00  0.00     0.049 A 
ATOM     68  H   UNL A   1      42.911  30.270  27.222  1.00  0.00     0.167 HD
ATOM     69  C   UNL A   1      46.512  30.317  28.061  1.00  0.00     0.074 A 
ATOM     70  C   UNL A   1      47.901  30.709  27.897  1.00  0.00     0.031 C 
ATOM     71  C   UNL A   1      45.336  31.013  28.133  1.00  0.00     0.037 A 
BRANCH  58  72
ATOM     72  C   UNL A   1      39.597  28.927  28.892  1.00  0.00     0.064 A 
ATOM     73  C   UNL A   1      38.608  29.388  27.993  1.00  0.00     0.173 A 
ATOM     74  C   UNL A   1      39.123  28.651  30.190  1.00  0.00     0.173 A 
ATOM     75  F   UNL A   1      38.891  29.637  26.708  1.00  0.00    -0.203 F 
ATOM     76  C   UNL A   1      37.281  29.604  28.370  1.00  0.00     0.198 A 
ATOM     77  C   UNL A   1      37.797  28.892  30.576  1.00  0.00     0.198 A 
ATOM     78  F   UNL A   1      39.900  28.090  31.122  1.00  0.00    -0.203 F 
ATOM     79  F   UNL A   1      36.398  30.041  27.462  1.00  0.00    -0.200 F 
ATOM     80  C   UNL A   1      36.877  29.367  29.665  1.00  0.00     0.200 A 
ATOM     81  F   UNL A   1      37.414  28.643  31.837  1.00  0.00    -0.200 F 
ATOM     82  F   UNL A   1      35.603  29.573  30.026  1.00  0.00    -0.200 F 
ENDBRANCH  58  72
BRANCH  59  83
ATOM     83  C   UNL A   1      48.928  26.248  27.395  1.00  0.00     0.064 A 
ATOM     84  C   UNL A   1      48.589  26.468  26.049  1.00  0.00     0.173 A 
ATOM     85  C   UNL A   1      50.168  25.656  27.664  1.00  0.00     0.173 A 
ATOM     86  F   UNL A   1      47.389  26.983  25.734  1.00  0.00    -0.203 F 
ATOM     87  C   UNL A   1      49.545  26.364  25.052  1.00  0.00     0.198 A 
ATOM     88  C   UNL A   1      51.118  25.528  26.646  1.00  0.00     0.198 A 
ATOM     89  F   UNL A   1      50.515  25.342  28.920  1.00  0.00    -0.203 F 
ATOM     90  F   UNL A   1      49.220  26.736  23.808  1.00  0.00    -0.200 F 
ATOM     91  C   UNL A   1      50.835  25.975  25.364  1.00  0.00     0.200 A 
ATOM     92  F   UNL A   1      52.339  25.051  26.922  1.00  0.00    -0.200 F 
ATOM     93  F   UNL A   1      51.814  26.081  24.452  1.00  0.00    -0.200 F 
ENDBRANCH  59  83
BRANCH  71  94
ATOM     94  C   UNL A   1      45.081  32.423  27.624  1.00  0.00     0.064 A 
ATOM     95  C   UNL A   1      44.345  32.737  26.472  1.00  0.00     0.173 A 
ATOM     96  C   UNL A   1      45.476  33.558  28.388  1.00  0.00     0.173 A 
ATOM     97  F   UNL A   1      43.752  31.801  25.726  1.00  0.00    -0.203 F 
ATOM     98  C   UNL A   1      44.112  34.053  26.066  1.00  0.00     0.198 A 
ATOM     99  C   UNL A   1      45.146  34.865  28.038  1.00  0.00     0.198 A 
ATOM    100  F   UNL A   1      46.172  33.459  29.527  1.00  0.00    -0.203 F 
ATOM    101  F   UNL A   1      43.478  34.278  24.907  1.00  0.00    -0.200 F 
ATOM    102  C   UNL A   1      44.495  35.116  26.856  1.00  0.00     0.200 A 
ATOM    103  F   UNL A   1      45.456  35.869  28.868  1.00  0.00    -0.200 F 
ATOM    104  F   UNL A   1      44.215  36.372  26.492  1.00  0.00    -0.200 F 
ENDBRANCH  71  94
ENDBRANCH  45  46
ENDBRANCH  37  40
ENDBRANCH  35  36
ENDBRANCH  34  35
ENDBRANCH  33  34
ENDBRANCH  32  33
ENDBRANCH   1  32
TORSDOF 18
ENDMDL
MODEL 2
REMARK VINA RESULT:     -14.7      5.036     10.871
REMARK SMILES Cc1ccccc1NC(=S)NN1C(=O)CS[C@H]1c1ccccc1C(=O)NCCCCCCNC(=O)c1ccc(-c2c3nc(c(-c4c(F)c(F)c(F)c(F)c4F)c4ccc([nH]4)c(-c4c(F)c(F)c(F)c(F)c4F)c4nc(c(-c5c(F)c(F)c(F)c(F)c5F)c5ccc2[nH]5)C=C4)C=C3)cc1
REMARK SMILES IDX 28 1 27 2 26 3 24 4 25 5 23 7 18 8 19 9 20 10 22 11 21 12
REMARK SMILES IDX 17 13 12 14 13 15 14 16 15 17 16 18 11 19 9 21 10 22 8 23
REMARK SMILES IDX 7 25 1 26 2 27 3 28 4 29 6 30 5 31 29 32 30 33 31 34 32 35
REMARK SMILES IDX 33 36 34 37 35 39 36 40 37 41 98 42 38 43 97 44 39 45 40 46
REMARK SMILES IDX 41 47 91 48 42 49 96 50 90 51 92 52 43 53 95 54 89 55 88 56
REMARK SMILES IDX 44 58 76 59 56 60 75 61 57 62 60 63 74 64 93 65 58 66 59 67
REMARK SMILES IDX 73 69 94 70 61 71 45 72 46 73 54 74 47 75 48 76 52 77 55 78
REMARK SMILES IDX 49 79 50 80 53 81 51 82 77 83 78 84 86 85 79 86 80 87 84 88
REMARK SMILES IDX 87 89 81 90 82 91 85 92 83 93 62 94 63 95 71 96 64 97 65 98
REMARK SMILES IDX 69 99 72 100 66 101 67 102 70 103 68 104
REMARK H PARENT 26 6 11 20 8 24 33 38 92 57 60 68
REMARK Flexibility Score: inf
ROOT
ATOM      1  C   UNL A   1      35.273  29.420  27.723  1.00  0.00     0.021 C 
ENDROOT
BRANCH   1   2
ATOM      2  C   UNL A   1      33.764  29.447  27.251  1.00  0.00     0.116 C 
BRANCH   2   3
ATOM      3  N   UNL A   1      33.162  28.392  26.345  1.00  0.00    -0.352 N 
ATOM      4  C   UNL A   1      32.871  28.648  24.971  1.00  0.00     0.251 C 
ATOM      5  O   UNL A   1      33.837  28.757  24.208  1.00  0.00    -0.269 OA
ATOM      6  H   UNL A   1      32.966  27.502  26.716  1.00  0.00     0.163 HD
BRANCH   4   7
ATOM      7  C   UNL A   1      31.455  28.549  24.305  1.00  0.00     0.046 A 
ATOM      8  C   UNL A   1      30.807  27.444  23.708  1.00  0.00    -0.001 A 
ATOM      9  C   UNL A   1      29.582  27.606  22.985  1.00  0.00     0.007 A 
ATOM     10  C   UNL A   1      28.929  28.818  22.907  1.00  0.00     0.000 A 
ATOM     11  C   UNL A   1      30.704  29.751  24.279  1.00  0.00     0.014 A 
ATOM     12  C   UNL A   1      29.475  29.886  23.591  1.00  0.00     0.001 A 
BRANCH   8  13
ATOM     13  C   UNL A   1      31.478  26.150  23.510  1.00  0.00     0.197 C 
ATOM     14  N   UNL A   1      32.476  25.702  24.432  1.00  0.00    -0.236 N 
ATOM     15  C   UNL A   1      33.120  24.818  23.503  1.00  0.00     0.252 C 
ATOM     16  O   UNL A   1      34.031  25.152  22.742  1.00  0.00    -0.272 OA
ATOM     17  C   UNL A   1      32.170  23.717  23.078  1.00  0.00     0.174 C 
ATOM     18  S   UNL A   1      30.575  24.595  23.136  1.00  0.00    -0.120 SA
BRANCH  14  19
ATOM     19  N   UNL A   1      31.886  25.245  25.867  1.00  0.00    -0.270 N 
ATOM     20  H   UNL A   1      31.349  25.908  26.360  1.00  0.00     0.191 HD
BRANCH  19  21
ATOM     21  C   UNL A   1      32.067  23.991  26.476  1.00  0.00     0.189 C 
ATOM     22  S   UNL A   1      30.721  23.002  26.673  1.00  0.00    -0.039 S 
BRANCH  21  23
ATOM     23  N   UNL A   1      33.284  23.442  26.861  1.00  0.00    -0.331 N 
ATOM     24  H   UNL A   1      33.461  23.488  27.830  1.00  0.00     0.169 HD
BRANCH  23  25
ATOM     25  C   UNL A   1      34.310  22.831  26.110  1.00  0.00     0.043 A 
ATOM     26  C   UNL A   1      33.236  20.121  25.697  1.00  0.00     0.046 C 
ATOM     27  C   UNL A   1      34.318  21.136  25.479  1.00  0.00    -0.028 A 
ATOM     28  C   UNL A   1      35.876  20.407  24.889  1.00  0.00     0.005 A 
ATOM     29  C   UNL A   1      37.390  21.381  24.873  1.00  0.00     0.000 A 
ATOM     30  C   UNL A   1      35.803  23.774  26.001  1.00  0.00     0.026 A 
ATOM     31  C   UNL A   1      37.356  23.059  25.487  1.00  0.00     0.002 A 
ENDBRANCH  23  25
ENDBRANCH  21  23
ENDBRANCH  19  21
ENDBRANCH  14  19
ENDBRANCH   8  13
ENDBRANCH   4   7
ENDBRANCH   2   3
ENDBRANCH   1   2
BRANCH   1  32
ATOM     32  C   UNL A   1      36.299  30.873  27.567  1.00  0.00     0.002 C 
BRANCH  32  33
ATOM     33  C   UNL A   1      36.408  32.941  28.273  1.00  0.00     0.002 C 
BRANCH  33  34
ATOM     34  C   UNL A   1      35.404  34.071  29.198  1.00  0.00     0.021 C 
BRANCH  34  35
ATOM     35  C   UNL A   1      34.117  33.774  29.985  1.00  0.00     0.116 C 
BRANCH  35  36
ATOM     36  N   UNL A   1      33.933  34.394  31.294  1.00  0.00    -0.352 N 
ATOM     37  C   UNL A   1      34.208  33.718  32.491  1.00  0.00     0.251 C 
ATOM     38  H   UNL A   1      33.605  35.321  31.339  1.00  0.00     0.163 HD
ATOM     39  O   UNL A   1      33.373  33.440  33.337  1.00  0.00    -0.269 OA
BRANCH  37  40
ATOM     40  C   UNL A   1      35.652  33.592  32.789  1.00  0.00     0.039 A 
ATOM     41  C   UNL A   1      36.577  34.452  32.185  1.00  0.00     0.014 A 
ATOM     42  C   UNL A   1      36.049  32.386  33.344  1.00  0.00     0.014 A 
ATOM     43  C   UNL A   1      37.856  33.973  31.937  1.00  0.00     0.010 A 
ATOM     44  C   UNL A   1      37.199  31.822  32.886  1.00  0.00     0.010 A 
ATOM     45  C   UNL A   1      38.098  32.624  32.189  1.00  0.00    -0.014 A 
BRANCH  45  46
ATOM     46  C   UNL A   1      39.385  31.988  32.070  1.00  0.00     0.031 A 
ATOM     47  C   UNL A   1      39.330  30.759  31.254  1.00  0.00     0.074 A 
ATOM     48  C   UNL A   1      40.460  32.660  32.534  1.00  0.00     0.049 A 
ATOM     49  N   UNL A   1      39.990  29.688  31.488  1.00  0.00    -0.248 NA
ATOM     50  C   UNL A   1      38.367  30.576  30.151  1.00  0.00     0.031 C 
ATOM     51  C   UNL A   1      41.881  32.409  32.337  1.00  0.00     0.029 A 
ATOM     52  N   UNL A   1      40.437  33.692  33.497  1.00  0.00    -0.354 N 
ATOM     53  C   UNL A   1      39.889  28.923  30.339  1.00  0.00     0.074 A 
ATOM     54  C   UNL A   1      38.702  29.375  29.676  1.00  0.00     0.031 C 
ATOM     55  C   UNL A   1      42.554  32.931  33.382  1.00  0.00     0.029 A 
ATOM     56  C   UNL A   1      41.565  33.447  34.314  1.00  0.00     0.049 A 
ATOM     57  H   UNL A   1      39.782  34.422  33.581  1.00  0.00     0.167 HD
ATOM     58  C   UNL A   1      40.981  28.211  29.948  1.00  0.00     0.037 A 
ATOM     59  C   UNL A   1      41.386  33.007  35.596  1.00  0.00     0.037 A 
ATOM     60  C   UNL A   1      42.060  28.475  30.899  1.00  0.00     0.049 A 
ATOM     61  C   UNL A   1      41.868  31.601  35.777  1.00  0.00     0.074 A 
ATOM     62  C   UNL A   1      43.115  29.372  30.875  1.00  0.00     0.029 A 
ATOM     63  N   UNL A   1      41.871  28.129  32.228  1.00  0.00    -0.354 N 
ATOM     64  N   UNL A   1      41.901  30.715  34.820  1.00  0.00    -0.248 NA
ATOM     65  C   UNL A   1      42.442  31.127  37.025  1.00  0.00     0.031 C 
ATOM     66  C   UNL A   1      43.561  29.552  32.214  1.00  0.00     0.029 A 
ATOM     67  C   UNL A   1      42.771  28.776  33.046  1.00  0.00     0.049 A 
ATOM     68  H   UNL A   1      41.182  27.501  32.546  1.00  0.00     0.167 HD
ATOM     69  C   UNL A   1      42.545  29.593  35.274  1.00  0.00     0.074 A 
ATOM     70  C   UNL A   1      42.878  29.915  36.651  1.00  0.00     0.031 C 
ATOM     71  C   UNL A   1      42.772  28.504  34.477  1.00  0.00     0.037 A 
BRANCH  58  72
ATOM     72  C   UNL A   1      41.210  27.562  28.600  1.00  0.00     0.064 A 
ATOM     73  C   UNL A   1      40.555  26.349  28.288  1.00  0.00     0.173 A 
ATOM     74  C   UNL A   1      42.026  28.068  27.570  1.00  0.00     0.173 A 
ATOM     75  F   UNL A   1      39.699  25.774  29.142  1.00  0.00    -0.203 F 
ATOM     76  C   UNL A   1      40.741  25.676  27.078  1.00  0.00     0.198 A 
ATOM     77  C   UNL A   1      42.233  27.381  26.365  1.00  0.00     0.198 A 
ATOM     78  F   UNL A   1      42.613  29.266  27.656  1.00  0.00    -0.203 F 
ATOM     79  F   UNL A   1      40.085  24.530  26.850  1.00  0.00    -0.200 F 
ATOM     80  C   UNL A   1      41.590  26.186  26.120  1.00  0.00     0.200 A 
ATOM     81  F   UNL A   1      43.051  27.897  25.436  1.00  0.00    -0.200 F 
ATOM     82  F   UNL A   1      41.767  25.541  24.959  1.00  0.00    -0.200 F 
ENDBRANCH  58  72
BRANCH  59  83
ATOM     83  C   UNL A   1      40.212  33.648  36.247  1.00  0.00     0.064 A 
ATOM     84  C   UNL A   1      39.125  32.787  36.481  1.00  0.00     0.173 A 
ATOM     85  C   UNL A   1      40.347  34.766  37.079  1.00  0.00     0.173 A 
ATOM     86  F   UNL A   1      38.919  31.731  35.678  1.00  0.00    -0.203 F 
ATOM     87  C   UNL A   1      38.386  32.882  37.649  1.00  0.00     0.198 A 
ATOM     88  C   UNL A   1      39.577  34.869  38.242  1.00  0.00     0.198 A 
ATOM     89  F   UNL A   1      41.310  35.669  36.855  1.00  0.00    -0.203 F 
ATOM     90  F   UNL A   1      37.465  31.946  37.906  1.00  0.00    -0.200 F 
ATOM     91  C   UNL A   1      38.668  33.874  38.572  1.00  0.00     0.200 A 
ATOM     92  F   UNL A   1      39.772  35.888  39.088  1.00  0.00    -0.200 F 
ATOM     93  F   UNL A   1      38.111  33.843  39.791  1.00  0.00    -0.200 F 
ENDBRANCH  59  83
BRANCH  71  94
ATOM     94  C   UNL A   1      43.082  27.088  34.939  1.00  0.00     0.064 A 
ATOM     95  C   UNL A   1      42.131  26.068  35.084  1.00  0.00     0.173 A 
ATOM     96  C   UNL A   1      44.427  26.659  35.129  1.00  0.00     0.173 A 
ATOM     97  F   UNL A   1      40.842  26.244  34.782  1.00  0.00    -0.203 F 
ATOM     98  C   UNL A   1      42.474  24.773  35.481  1.00  0.00     0.198 A 
ATOM     99  C   UNL A   1      44.774  25.342  35.416  1.00  0.00     0.198 A 
ATOM    100  F   UNL A   1      45.474  27.486  35.017  1.00  0.00    -0.203 F 
ATOM    101  F   UNL A   1      41.504  23.872  35.687  1.00  0.00    -0.200 F 
ATOM    102  C   UNL A   1      43.795  24.405  35.628  1.00  0.00     0.200 A 
ATOM    103  F   UNL A   1      46.067  24.996  35.467  1.00  0.00    -0.200 F 
ATOM    104  F   UNL A   1      44.120  23.147  35.948  1.00  0.00    -0.200 F 
ENDBRANCH  71  94
ENDBRANCH  45  46
ENDBRANCH  37  40
ENDBRANCH  35  36
ENDBRANCH  34  35
ENDBRANCH  33  34
ENDBRANCH  32  33
ENDBRANCH   1  32
TORSDOF 18
ENDMDL
MODEL 3
REMARK VINA RESULT:     -14.1      3.933      9.944
REMARK SMILES Cc1ccccc1NC(=S)NN1C(=O)CS[C@H]1c1ccccc1C(=O)NCCCCCCNC(=O)c1ccc(-c2c3nc(c(-c4c(F)c(F)c(F)c(F)c4F)c4ccc([nH]4)c(-c4c(F)c(F)c(F)c(F)c4F)c4nc(c(-c5c(F)c(F)c(F)c(F)c5F)c5ccc2[nH]5)C=C4)C=C3)cc1
REMARK SMILES IDX 28 1 27 2 26 3 24 4 25 5 23 7 18 8 19 9 20 10 22 11 21 12
REMARK SMILES IDX 17 13 12 14 13 15 14 16 15 17 16 18 11 19 9 21 10 22 8 23
REMARK SMILES IDX 7 25 1 26 2 27 3 28 4 29 6 30 5 31 29 32 30 33 31 34 32 35
REMARK SMILES IDX 33 36 34 37 35 39 36 40 37 41 98 42 38 43 97 44 39 45 40 46
REMARK SMILES IDX 41 47 91 48 42 49 96 50 90 51 92 52 43 53 95 54 89 55 88 56
REMARK SMILES IDX 44 58 76 59 56 60 75 61 57 62 60 63 74 64 93 65 58 66 59 67
REMARK SMILES IDX 73 69 94 70 61 71 45 72 46 73 54 74 47 75 48 76 52 77 55 78
REMARK SMILES IDX 49 79 50 80 53 81 51 82 77 83 78 84 86 85 79 86 80 87 84 88
REMARK SMILES IDX 87 89 81 90 82 91 85 92 83 93 62 94 63 95 71 96 64 97 65 98
REMARK SMILES IDX 69 99 72 100 66 101 67 102 70 103 68 104
REMARK H PARENT 26 6 11 20 8 24 33 38 92 57 60 68
REMARK Flexibility Score: inf
ROOT
ATOM      1  C   UNL A   1      31.387  24.642  26.665  1.00  0.00     0.021 C 
ENDROOT
BRANCH   1   2
ATOM      2  C   UNL A   1      30.422  23.390  26.637  1.00  0.00     0.116 C 
BRANCH   2   3
ATOM      3  N   UNL A   1      30.920  21.965  26.511  1.00  0.00    -0.352 N 
ATOM      4  C   UNL A   1      32.160  21.647  25.877  1.00  0.00     0.251 C 
ATOM      5  O   UNL A   1      33.190  21.957  26.483  1.00  0.00    -0.269 OA
ATOM      6  H   UNL A   1      30.371  21.235  26.877  1.00  0.00     0.163 HD
BRANCH   4   7
ATOM      7  C   UNL A   1      32.331  20.724  24.621  1.00  0.00     0.046 A 
ATOM      8  C   UNL A   1      32.461  21.064  23.256  1.00  0.00    -0.001 A 
ATOM      9  C   UNL A   1      32.420  20.059  22.236  1.00  0.00     0.007 A 
ATOM     10  C   UNL A   1      32.341  18.714  22.531  1.00  0.00     0.000 A 
ATOM     11  C   UNL A   1      32.346  19.330  24.881  1.00  0.00     0.014 A 
ATOM     12  C   UNL A   1      32.343  18.349  23.863  1.00  0.00     0.001 A 
BRANCH   8  13
ATOM     13  C   UNL A   1      32.325  22.445  22.771  1.00  0.00     0.197 C 
ATOM     14  N   UNL A   1      32.646  23.548  23.625  1.00  0.00    -0.236 N 
ATOM     15  C   UNL A   1      31.827  24.495  22.922  1.00  0.00     0.252 C 
ATOM     16  O   UNL A   1      30.637  24.703  23.168  1.00  0.00    -0.272 OA
ATOM     17  C   UNL A   1      32.331  24.678  21.505  1.00  0.00     0.174 C 
ATOM     18  S   UNL A   1      32.978  23.012  21.150  1.00  0.00    -0.120 SA
BRANCH  14  19
ATOM     19  N   UNL A   1      34.230  23.732  23.891  1.00  0.00    -0.270 N 
ATOM     20  H   UNL A   1      34.843  23.334  23.231  1.00  0.00     0.191 HD
BRANCH  19  21
ATOM     21  C   UNL A   1      34.814  24.407  24.977  1.00  0.00     0.189 C 
ATOM     22  S   UNL A   1      34.411  26.023  25.217  1.00  0.00    -0.039 S 
BRANCH  21  23
ATOM     23  N   UNL A   1      35.640  23.839  25.939  1.00  0.00    -0.331 N 
ATOM     24  H   UNL A   1      35.259  23.832  26.848  1.00  0.00     0.169 HD
BRANCH  23  25
ATOM     25  C   UNL A   1      36.927  23.270  25.844  1.00  0.00     0.043 A 
ATOM     26  C   UNL A   1      36.318  20.509  25.024  1.00  0.00     0.046 C 
ATOM     27  C   UNL A   1      37.321  21.571  25.362  1.00  0.00    -0.028 A 
ATOM     28  C   UNL A   1      38.984  20.912  25.681  1.00  0.00     0.005 A 
ATOM     29  C   UNL A   1      40.253  21.956  26.416  1.00  0.00     0.000 A 
ATOM     30  C   UNL A   1      38.228  24.282  26.488  1.00  0.00     0.026 A 
ATOM     31  C   UNL A   1      39.848  23.636  26.870  1.00  0.00     0.002 A 
ENDBRANCH  23  25
ENDBRANCH  21  23
ENDBRANCH  19  21
ENDBRANCH  14  19
ENDBRANCH   8  13
ENDBRANCH   4   7
ENDBRANCH   2   3
ENDBRANCH   1   2
BRANCH   1  32
ATOM     32  C   UNL A   1      30.841  26.224  26.044  1.00  0.00     0.002 C 
BRANCH  32  33
ATOM     33  C   UNL A   1      31.498  28.309  25.938  1.00  0.00     0.002 C 
BRANCH  33  34
ATOM     34  C   UNL A   1      32.872  29.285  26.484  1.00  0.00     0.021 C 
BRANCH  34  35
ATOM     35  C   UNL A   1      32.909  30.328  27.614  1.00  0.00     0.116 C 
BRANCH  35  36
ATOM     36  N   UNL A   1      33.833  31.453  27.504  1.00  0.00    -0.352 N 
ATOM     37  C   UNL A   1      34.724  31.797  28.530  1.00  0.00     0.251 C 
ATOM     38  H   UNL A   1      33.832  31.990  26.679  1.00  0.00     0.163 HD
ATOM     39  O   UNL A   1      34.695  32.848  29.149  1.00  0.00    -0.269 OA
BRANCH  37  40
ATOM     40  C   UNL A   1      35.889  30.890  28.639  1.00  0.00     0.039 A 
ATOM     41  C   UNL A   1      35.995  29.999  29.713  1.00  0.00     0.014 A 
ATOM     42  C   UNL A   1      36.998  31.243  27.888  1.00  0.00     0.014 A 
ATOM     43  C   UNL A   1      37.262  29.659  30.165  1.00  0.00     0.010 A 
ATOM     44  C   UNL A   1      38.224  31.127  28.468  1.00  0.00     0.010 A 
ATOM     45  C   UNL A   1      38.346  30.329  29.601  1.00  0.00    -0.014 A 
BRANCH  45  46
ATOM     46  C   UNL A   1      39.727  30.039  29.891  1.00  0.00     0.031 A 
ATOM     47  C   UNL A   1      40.178  28.778  29.270  1.00  0.00     0.074 A 
ATOM     48  C   UNL A   1      40.453  30.999  30.502  1.00  0.00     0.049 A 
ATOM     49  N   UNL A   1      40.977  27.935  29.808  1.00  0.00    -0.248 NA
ATOM     50  C   UNL A   1      39.619  28.267  28.004  1.00  0.00     0.031 C 
ATOM     51  C   UNL A   1      41.892  31.109  30.694  1.00  0.00     0.029 A 
ATOM     52  N   UNL A   1      39.935  32.062  31.273  1.00  0.00    -0.354 N 
ATOM     53  C   UNL A   1      41.369  27.083  28.791  1.00  0.00     0.074 A 
ATOM     54  C   UNL A   1      40.336  27.161  27.801  1.00  0.00     0.031 C 
ATOM     55  C   UNL A   1      42.119  31.867  31.786  1.00  0.00     0.029 A 
ATOM     56  C   UNL A   1      40.823  32.181  32.367  1.00  0.00     0.049 A 
ATOM     57  H   UNL A   1      39.132  32.603  31.089  1.00  0.00     0.167 HD
ATOM     58  C   UNL A   1      42.659  26.648  28.783  1.00  0.00     0.037 A 
ATOM     59  C   UNL A   1      40.408  31.811  33.615  1.00  0.00     0.037 A 
ATOM     60  C   UNL A   1      43.350  27.255  29.920  1.00  0.00     0.049 A 
ATOM     61  C   UNL A   1      41.131  30.596  34.107  1.00  0.00     0.074 A 
ATOM     62  C   UNL A   1      44.137  28.390  30.026  1.00  0.00     0.029 A 
ATOM     63  N   UNL A   1      42.891  26.977  31.199  1.00  0.00    -0.354 N 
ATOM     64  N   UNL A   1      41.625  29.677  33.323  1.00  0.00    -0.248 NA
ATOM     65  C   UNL A   1      41.438  30.384  35.512  1.00  0.00     0.031 C 
ATOM     66  C   UNL A   1      44.150  28.782  31.394  1.00  0.00     0.029 A 
ATOM     67  C   UNL A   1      43.363  27.895  32.110  1.00  0.00     0.049 A 
ATOM     68  H   UNL A   1      42.304  26.219  31.426  1.00  0.00     0.167 HD
ATOM     69  C   UNL A   1      42.361  28.798  34.076  1.00  0.00     0.074 A 
ATOM     70  C   UNL A   1      42.225  29.300  35.432  1.00  0.00     0.031 C 
ATOM     71  C   UNL A   1      43.038  27.745  33.522  1.00  0.00     0.037 A 
BRANCH  58  72
ATOM     72  C   UNL A   1      43.387  25.978  27.639  1.00  0.00     0.064 A 
ATOM     73  C   UNL A   1      43.366  24.569  27.526  1.00  0.00     0.173 A 
ATOM     74  C   UNL A   1      44.099  26.636  26.616  1.00  0.00     0.173 A 
ATOM     75  F   UNL A   1      42.681  23.807  28.388  1.00  0.00    -0.203 F 
ATOM     76  C   UNL A   1      44.040  23.879  26.516  1.00  0.00     0.198 A 
ATOM     77  C   UNL A   1      44.796  25.943  25.617  1.00  0.00     0.198 A 
ATOM     78  F   UNL A   1      44.109  27.968  26.506  1.00  0.00    -0.203 F 
ATOM     79  F   UNL A   1      43.975  22.541  26.471  1.00  0.00    -0.200 F 
ATOM     80  C   UNL A   1      44.766  24.565  25.567  1.00  0.00     0.200 A 
ATOM     81  F   UNL A   1      45.486  26.625  24.691  1.00  0.00    -0.200 F 
ATOM     82  F   UNL A   1      45.411  23.902  24.597  1.00  0.00    -0.200 F 
ENDBRANCH  58  72
BRANCH  59  83
ATOM     83  C   UNL A   1      38.988  32.175  33.862  1.00  0.00     0.064 A 
ATOM     84  C   UNL A   1      38.699  33.545  33.736  1.00  0.00     0.173 A 
ATOM     85  C   UNL A   1      37.943  31.269  33.644  1.00  0.00     0.173 A 
ATOM     86  F   UNL A   1      39.651  34.459  33.989  1.00  0.00    -0.203 F 
ATOM     87  C   UNL A   1      37.517  33.969  33.151  1.00  0.00     0.198 A 
ATOM     88  C   UNL A   1      36.742  31.708  33.079  1.00  0.00     0.198 A 
ATOM     89  F   UNL A   1      38.131  29.955  33.831  1.00  0.00    -0.203 F 
ATOM     90  F   UNL A   1      37.352  35.274  32.905  1.00  0.00    -0.200 F 
ATOM     91  C   UNL A   1      36.573  33.043  32.744  1.00  0.00     0.200 A 
ATOM     92  F   UNL A   1      35.779  30.827  32.780  1.00  0.00    -0.200 F 
ATOM     93  F   UNL A   1      35.533  33.425  31.987  1.00  0.00    -0.200 F 
ENDBRANCH  59  83
BRANCH  71  94
ATOM     94  C   UNL A   1      43.526  26.498  34.243  1.00  0.00     0.064 A 
ATOM     95  C   UNL A   1      44.874  26.160  34.435  1.00  0.00     0.173 A 
ATOM     96  C   UNL A   1      42.610  25.634  34.910  1.00  0.00     0.173 A 
ATOM     97  F   UNL A   1      45.873  26.947  34.026  1.00  0.00    -0.203 F 
ATOM     98  C   UNL A   1      45.269  25.017  35.134  1.00  0.00     0.198 A 
ATOM     99  C   UNL A   1      43.012  24.560  35.698  1.00  0.00     0.198 A 
ATOM    100  F   UNL A   1      41.284  25.804  34.857  1.00  0.00    -0.203 F 
ATOM    101  F   UNL A   1      46.571  24.708  35.202  1.00  0.00    -0.200 F 
ATOM    102  C   UNL A   1      44.342  24.228  35.781  1.00  0.00     0.200 A 
ATOM    103  F   UNL A   1      42.096  23.864  36.384  1.00  0.00    -0.200 F 
ATOM    104  F   UNL A   1      44.731  23.170  36.501  1.00  0.00    -0.200 F 
ENDBRANCH  71  94
ENDBRANCH  45  46
ENDBRANCH  37  40
ENDBRANCH  35  36
ENDBRANCH  34  35
ENDBRANCH  33  34
ENDBRANCH  32  33
ENDBRANCH   1  32
TORSDOF 18
ENDMDL
