MODEL 1
REMARK VINA RESULT:     -11.4      0.000      0.000
REMARK SMILES NC(=O)C[C@H](NC(=O)c1csc(Br)c1)C(=O)NCCCCCCNC(=O)c1ccc(-c2c3nc(c(-c4c(F)c(F)c(F)c(F)c4F)c4ccc([nH]4)c(-c4c(F)c(F)c(F)c(F)c4F)c4nc(c(-c5c(F)c(F)c(F)c(F)c5F)c5ccc2[nH]5)C=C4)C=C3)cc1
REMARK SMILES IDX 20 1 19 2 18 3 17 4 15 5 16 6 5 8 4 9 2 10 1 11 3 14 6 15
REMARK SMILES IDX 7 16 8 18 9 19 10 20 14 21 11 22 12 23 13 24 21 25 22 26
REMARK SMILES IDX 23 27 24 28 25 29 26 31 27 32 28 33 89 34 29 35 88 36 30 37
REMARK SMILES IDX 31 38 32 39 82 40 33 41 87 42 81 43 83 44 34 45 86 46 80 47
REMARK SMILES IDX 79 48 35 50 67 51 47 52 66 53 48 54 51 55 65 56 84 57 49 58
REMARK SMILES IDX 50 59 64 61 85 62 52 63 36 64 37 65 45 66 38 67 39 68 43 69
REMARK SMILES IDX 46 70 40 71 41 72 44 73 42 74 68 75 69 76 77 77 70 78 71 79
REMARK SMILES IDX 75 80 78 81 72 82 73 83 76 84 74 85 53 86 54 87 62 88 55 89
REMARK SMILES IDX 56 90 60 91 63 92 57 93 58 94 61 95 59 96
REMARK H PARENT 17 7 1 12 1 13 6 17 24 30 83 49 51 60
REMARK Flexibility Score: inf
ROOT
ATOM      1  C   UNL A   1      32.121  29.718  26.695  1.00  0.00     0.002 C 
ENDROOT
BRANCH   1   2
ATOM      2  C   UNL A   1      33.613  29.523  26.405  1.00  0.00     0.021 C 
BRANCH   2   3
ATOM      3  C   UNL A   1      33.946  28.567  25.263  1.00  0.00     0.116 C 
BRANCH   3   4
ATOM      4  N   UNL A   1      33.276  28.916  24.024  1.00  0.00    -0.354 N 
ATOM      5  C   UNL A   1      32.299  28.282  23.318  1.00  0.00     0.243 C 
ATOM      6  O   UNL A   1      31.644  28.966  22.524  1.00  0.00    -0.273 OA
ATOM      7  H   UNL A   1      33.584  29.761  23.622  1.00  0.00     0.163 HD
BRANCH   5   8
ATOM      8  C   UNL A   1      31.935  26.797  23.522  1.00  0.00     0.180 C 
BRANCH   8   9
ATOM      9  C   UNL A   1      31.434  26.116  22.245  1.00  0.00     0.134 C 
BRANCH   9  10
ATOM     10  C   UNL A   1      32.504  25.796  21.234  1.00  0.00     0.220 C 
ATOM     11  N   UNL A   1      32.087  25.668  19.944  1.00  0.00    -0.370 N 
ATOM     12  H   UNL A   1      32.738  25.459  19.236  1.00  0.00     0.159 HD
ATOM     13  H   UNL A   1      31.135  25.785  19.720  1.00  0.00     0.159 HD
ATOM     14  O   UNL A   1      33.687  25.665  21.522  1.00  0.00    -0.275 OA
ENDBRANCH   9  10
ENDBRANCH   8   9
BRANCH   8  15
ATOM     15  N   UNL A   1      31.099  26.577  24.707  1.00  0.00    -0.340 N 
ATOM     16  C   UNL A   1      31.133  25.590  25.655  1.00  0.00     0.252 C 
ATOM     17  H   UNL A   1      30.398  27.253  24.845  1.00  0.00     0.164 HD
ATOM     18  O   UNL A   1      30.200  25.515  26.451  1.00  0.00    -0.269 OA
BRANCH  16  19
ATOM     19  C   UNL A   1      32.233  24.632  25.672  1.00  0.00     0.051 A 
ATOM     20  C   UNL A   1      32.006  23.265  25.718  1.00  0.00     0.079 A 
ATOM     21  C   UNL A   1      33.643  24.905  25.747  1.00  0.00     0.041 A 
ATOM     22  S   UNL A   1      33.451  22.349  25.731  1.00  0.00    -0.136 S 
ATOM     23  C   UNL A   1      34.390  23.755  25.761  1.00  0.00     0.071 A 
ATOM     24  Br  UNL A   1      36.262  23.739  25.826  1.00  0.00    -0.039 Br
ENDBRANCH  16  19
ENDBRANCH   8  15
ENDBRANCH   5   8
ENDBRANCH   3   4
ENDBRANCH   2   3
ENDBRANCH   1   2
BRANCH   1  25
ATOM     25  C   UNL A   1      31.413  30.842  25.930  1.00  0.00     0.002 C 
BRANCH  25  26
ATOM     26  C   UNL A   1      31.242  32.175  26.664  1.00  0.00     0.021 C 
BRANCH  26  27
ATOM     27  C   UNL A   1      32.524  32.884  27.090  1.00  0.00     0.116 C 
BRANCH  27  28
ATOM     28  N   UNL A   1      32.300  34.225  27.594  1.00  0.00    -0.352 N 
ATOM     29  C   UNL A   1      32.978  34.922  28.564  1.00  0.00     0.251 C 
ATOM     30  H   UNL A   1      31.548  34.708  27.180  1.00  0.00     0.163 HD
ATOM     31  O   UNL A   1      32.576  36.030  28.910  1.00  0.00    -0.269 OA
BRANCH  29  32
ATOM     32  C   UNL A   1      34.173  34.345  29.227  1.00  0.00     0.039 A 
ATOM     33  C   UNL A   1      33.976  33.537  30.352  1.00  0.00     0.014 A 
ATOM     34  C   UNL A   1      35.474  34.626  28.794  1.00  0.00     0.014 A 
ATOM     35  C   UNL A   1      35.070  32.968  31.010  1.00  0.00     0.010 A 
ATOM     36  C   UNL A   1      36.565  34.030  29.430  1.00  0.00     0.010 A 
ATOM     37  C   UNL A   1      36.372  33.195  30.541  1.00  0.00    -0.014 A 
BRANCH  37  38
ATOM     38  C   UNL A   1      37.537  32.563  31.204  1.00  0.00     0.031 A 
ATOM     39  C   UNL A   1      38.288  31.454  30.526  1.00  0.00     0.074 A 
ATOM     40  C   UNL A   1      37.894  32.955  32.441  1.00  0.00     0.049 A 
ATOM     41  N   UNL A   1      39.283  30.733  30.981  1.00  0.00    -0.248 NA
ATOM     42  C   UNL A   1      37.854  31.098  29.168  1.00  0.00     0.031 C 
ATOM     43  C   UNL A   1      37.229  33.998  33.221  1.00  0.00     0.029 A 
ATOM     44  N   UNL A   1      38.898  32.509  33.263  1.00  0.00    -0.354 N 
ATOM     45  C   UNL A   1      39.572  29.818  29.979  1.00  0.00     0.074 A 
ATOM     46  C   UNL A   1      38.652  30.074  28.891  1.00  0.00     0.031 C 
ATOM     47  C   UNL A   1      37.847  34.116  34.408  1.00  0.00     0.029 A 
ATOM     48  C   UNL A   1      38.939  33.148  34.476  1.00  0.00     0.049 A 
ATOM     49  H   UNL A   1      39.530  31.799  33.005  1.00  0.00     0.167 HD
ATOM     50  C   UNL A   1      40.520  28.851  29.968  1.00  0.00     0.037 A 
ATOM     51  C   UNL A   1      39.760  32.968  35.526  1.00  0.00     0.037 A 
ATOM     52  C   UNL A   1      41.470  28.617  31.021  1.00  0.00     0.049 A 
ATOM     53  C   UNL A   1      40.844  31.934  35.462  1.00  0.00     0.074 A 
ATOM     54  C   UNL A   1      42.503  27.695  31.065  1.00  0.00     0.029 A 
ATOM     55  N   UNL A   1      41.509  29.319  32.215  1.00  0.00    -0.354 N 
ATOM     56  N   UNL A   1      41.123  31.092  34.499  1.00  0.00    -0.248 NA
ATOM     57  C   UNL A   1      41.729  31.827  36.632  1.00  0.00     0.031 C 
ATOM     58  C   UNL A   1      43.163  27.835  32.292  1.00  0.00     0.029 A 
ATOM     59  C   UNL A   1      42.546  28.849  33.004  1.00  0.00     0.049 A 
ATOM     60  H   UNL A   1      40.893  30.044  32.464  1.00  0.00     0.167 HD
ATOM     61  C   UNL A   1      42.214  30.358  34.941  1.00  0.00     0.074 A 
ATOM     62  C   UNL A   1      42.554  30.858  36.257  1.00  0.00     0.031 C 
ATOM     63  C   UNL A   1      42.871  29.359  34.309  1.00  0.00     0.037 A 
BRANCH  50  64
ATOM     64  C   UNL A   1      40.569  27.960  28.770  1.00  0.00     0.064 A 
ATOM     65  C   UNL A   1      39.847  26.760  28.724  1.00  0.00     0.173 A 
ATOM     66  C   UNL A   1      41.322  28.326  27.646  1.00  0.00     0.173 A 
ATOM     67  F   UNL A   1      39.126  26.367  29.784  1.00  0.00    -0.203 F 
ATOM     68  C   UNL A   1      39.886  25.950  27.593  1.00  0.00     0.198 A 
ATOM     69  C   UNL A   1      41.350  27.519  26.513  1.00  0.00     0.198 A 
ATOM     70  F   UNL A   1      42.031  29.465  27.649  1.00  0.00    -0.203 F 
ATOM     71  F   UNL A   1      39.206  24.795  27.574  1.00  0.00    -0.200 F 
ATOM     72  C   UNL A   1      40.634  26.332  26.488  1.00  0.00     0.200 A 
ATOM     73  F   UNL A   1      42.073  27.888  25.446  1.00  0.00    -0.200 F 
ATOM     74  F   UNL A   1      40.670  25.549  25.401  1.00  0.00    -0.200 F 
ENDBRANCH  50  64
BRANCH  51  75
ATOM     75  C   UNL A   1      39.588  33.807  36.734  1.00  0.00     0.064 A 
ATOM     76  C   UNL A   1      40.204  35.062  36.827  1.00  0.00     0.173 A 
ATOM     77  C   UNL A   1      38.797  33.377  37.806  1.00  0.00     0.173 A 
ATOM     78  F   UNL A   1      40.984  35.500  35.828  1.00  0.00    -0.203 F 
ATOM     79  C   UNL A   1      40.034  35.858  37.956  1.00  0.00     0.198 A 
ATOM     80  C   UNL A   1      38.621  34.179  38.931  1.00  0.00     0.198 A 
ATOM     81  F   UNL A   1      38.193  32.180  37.757  1.00  0.00    -0.203 F 
ATOM     82  F   UNL A   1      40.644  37.049  38.031  1.00  0.00    -0.200 F 
ATOM     83  C   UNL A   1      39.239  35.418  39.005  1.00  0.00     0.200 A 
ATOM     84  F   UNL A   1      37.852  33.752  39.941  1.00  0.00    -0.200 F 
ATOM     85  F   UNL A   1      39.076  36.186  40.091  1.00  0.00    -0.200 F 
ENDBRANCH  51  75
BRANCH  63  86
ATOM     86  C   UNL A   1      44.027  28.743  35.030  1.00  0.00     0.064 A 
ATOM     87  C   UNL A   1      43.848  27.632  35.864  1.00  0.00     0.173 A 
ATOM     88  C   UNL A   1      45.325  29.245  34.858  1.00  0.00     0.173 A 
ATOM     89  F   UNL A   1      42.621  27.131  36.066  1.00  0.00    -0.203 F 
ATOM     90  C   UNL A   1      44.932  27.045  36.510  1.00  0.00     0.198 A 
ATOM     91  C   UNL A   1      46.407  28.651  35.500  1.00  0.00     0.198 A 
ATOM     92  F   UNL A   1      45.538  30.310  34.073  1.00  0.00    -0.203 F 
ATOM     93  F   UNL A   1      44.740  25.994  37.319  1.00  0.00    -0.200 F 
ATOM     94  C   UNL A   1      46.210  27.552  36.325  1.00  0.00     0.200 A 
ATOM     95  F   UNL A   1      47.642  29.143  35.326  1.00  0.00    -0.200 F 
ATOM     96  F   UNL A   1      47.253  26.987  36.950  1.00  0.00    -0.200 F 
ENDBRANCH  63  86
ENDBRANCH  37  38
ENDBRANCH  29  32
ENDBRANCH  27  28
ENDBRANCH  26  27
ENDBRANCH  25  26
ENDBRANCH   1  25
TORSDOF 17
ENDMDL
MODEL 2
REMARK VINA RESULT:     -11.3      5.507     10.782
REMARK SMILES NC(=O)C[C@H](NC(=O)c1csc(Br)c1)C(=O)NCCCCCCNC(=O)c1ccc(-c2c3nc(c(-c4c(F)c(F)c(F)c(F)c4F)c4ccc([nH]4)c(-c4c(F)c(F)c(F)c(F)c4F)c4nc(c(-c5c(F)c(F)c(F)c(F)c5F)c5ccc2[nH]5)C=C4)C=C3)cc1
REMARK SMILES IDX 20 1 19 2 18 3 17 4 15 5 16 6 5 8 4 9 2 10 1 11 3 14 6 15
REMARK SMILES IDX 7 16 8 18 9 19 10 20 14 21 11 22 12 23 13 24 21 25 22 26
REMARK SMILES IDX 23 27 24 28 25 29 26 31 27 32 28 33 89 34 29 35 88 36 30 37
REMARK SMILES IDX 31 38 32 39 82 40 33 41 87 42 81 43 83 44 34 45 86 46 80 47
REMARK SMILES IDX 79 48 35 50 67 51 47 52 66 53 48 54 51 55 65 56 84 57 49 58
REMARK SMILES IDX 50 59 64 61 85 62 52 63 36 64 37 65 45 66 38 67 39 68 43 69
REMARK SMILES IDX 46 70 40 71 41 72 44 73 42 74 68 75 69 76 77 77 70 78 71 79
REMARK SMILES IDX 75 80 78 81 72 82 73 83 76 84 74 85 53 86 54 87 62 88 55 89
REMARK SMILES IDX 56 90 60 91 63 92 57 93 58 94 61 95 59 96
REMARK H PARENT 17 7 1 12 1 13 6 17 24 30 83 49 51 60
REMARK Flexibility Score: inf
ROOT
ATOM      1  C   UNL A   1      36.766  21.810  25.604  1.00  0.00     0.002 C 
ENDROOT
BRANCH   1   2
ATOM      2  C   UNL A   1      36.623  23.023  24.678  1.00  0.00     0.021 C 
BRANCH   2   3
ATOM      3  C   UNL A   1      35.201  23.541  24.480  1.00  0.00     0.116 C 
BRANCH   3   4
ATOM      4  N   UNL A   1      35.041  24.919  24.906  1.00  0.00    -0.354 N 
ATOM      5  C   UNL A   1      33.934  25.706  25.013  1.00  0.00     0.243 C 
ATOM      6  O   UNL A   1      34.014  26.692  25.753  1.00  0.00    -0.273 OA
ATOM      7  H   UNL A   1      35.881  25.364  25.162  1.00  0.00     0.163 HD
BRANCH   5   8
ATOM      8  C   UNL A   1      32.592  25.378  24.324  1.00  0.00     0.180 C 
BRANCH   8   9
ATOM      9  C   UNL A   1      32.338  26.218  23.069  1.00  0.00     0.134 C 
BRANCH   9  10
ATOM     10  C   UNL A   1      32.636  25.522  21.767  1.00  0.00     0.220 C 
ATOM     11  N   UNL A   1      31.930  25.953  20.685  1.00  0.00    -0.370 N 
ATOM     12  H   UNL A   1      32.078  25.539  19.804  1.00  0.00     0.159 HD
ATOM     13  H   UNL A   1      31.272  26.679  20.783  1.00  0.00     0.159 HD
ATOM     14  O   UNL A   1      33.466  24.629  21.653  1.00  0.00    -0.275 OA
ENDBRANCH   9  10
ENDBRANCH   8   9
BRANCH   8  15
ATOM     15  N   UNL A   1      31.470  25.322  25.266  1.00  0.00    -0.340 N 
ATOM     16  C   UNL A   1      31.036  24.311  26.081  1.00  0.00     0.252 C 
ATOM     17  H   UNL A   1      30.942  26.150  25.324  1.00  0.00     0.164 HD
ATOM     18  O   UNL A   1      29.951  24.441  26.641  1.00  0.00    -0.269 OA
BRANCH  16  19
ATOM     19  C   UNL A   1      31.834  23.099  26.227  1.00  0.00     0.051 A 
ATOM     20  C   UNL A   1      32.763  22.960  27.247  1.00  0.00     0.079 A 
ATOM     21  C   UNL A   1      31.880  21.958  25.353  1.00  0.00     0.041 A 
ATOM     22  S   UNL A   1      33.574  21.453  27.210  1.00  0.00    -0.136 S 
ATOM     23  C   UNL A   1      32.762  21.005  25.796  1.00  0.00     0.071 A 
ATOM     24  Br  UNL A   1      33.055  19.378  24.915  1.00  0.00    -0.039 Br
ENDBRANCH  16  19
ENDBRANCH   8  15
ENDBRANCH   5   8
ENDBRANCH   3   4
ENDBRANCH   2   3
ENDBRANCH   1   2
BRANCH   1  25
ATOM     25  C   UNL A   1      36.611  20.429  24.958  1.00  0.00     0.002 C 
BRANCH  25  26
ATOM     26  C   UNL A   1      37.834  19.507  25.001  1.00  0.00     0.021 C 
BRANCH  26  27
ATOM     27  C   UNL A   1      39.066  20.047  25.720  1.00  0.00     0.116 C 
BRANCH  27  28
ATOM     28  N   UNL A   1      40.148  19.085  25.810  1.00  0.00    -0.352 N 
ATOM     29  C   UNL A   1      41.477  19.285  26.091  1.00  0.00     0.251 C 
ATOM     30  H   UNL A   1      39.891  18.149  25.643  1.00  0.00     0.163 HD
ATOM     31  O   UNL A   1      42.258  18.339  26.036  1.00  0.00    -0.269 OA
BRANCH  29  32
ATOM     32  C   UNL A   1      41.994  20.633  26.429  1.00  0.00     0.039 A 
ATOM     33  C   UNL A   1      42.248  21.523  25.379  1.00  0.00     0.014 A 
ATOM     34  C   UNL A   1      42.278  21.014  27.745  1.00  0.00     0.014 A 
ATOM     35  C   UNL A   1      42.733  22.806  25.647  1.00  0.00     0.010 A 
ATOM     36  C   UNL A   1      42.730  22.308  28.016  1.00  0.00     0.010 A 
ATOM     37  C   UNL A   1      42.959  23.214  26.970  1.00  0.00    -0.014 A 
BRANCH  37  38
ATOM     38  C   UNL A   1      43.433  24.587  27.269  1.00  0.00     0.031 A 
ATOM     39  C   UNL A   1      42.496  25.603  27.853  1.00  0.00     0.074 A 
ATOM     40  C   UNL A   1      44.697  24.935  26.971  1.00  0.00     0.049 A 
ATOM     41  N   UNL A   1      42.709  26.870  28.111  1.00  0.00    -0.248 NA
ATOM     42  C   UNL A   1      41.137  25.142  28.173  1.00  0.00     0.031 C 
ATOM     43  C   UNL A   1      45.698  24.052  26.373  1.00  0.00     0.029 A 
ATOM     44  N   UNL A   1      45.351  26.132  27.121  1.00  0.00    -0.354 N 
ATOM     45  C   UNL A   1      41.505  27.363  28.592  1.00  0.00     0.074 A 
ATOM     46  C   UNL A   1      40.565  26.262  28.594  1.00  0.00     0.031 C 
ATOM     47  C   UNL A   1      46.843  24.737  26.211  1.00  0.00     0.029 A 
ATOM     48  C   UNL A   1      46.650  26.106  26.679  1.00  0.00     0.049 A 
ATOM     49  H   UNL A   1      44.929  26.932  27.510  1.00  0.00     0.167 HD
ATOM     50  C   UNL A   1      41.211  28.622  28.997  1.00  0.00     0.037 A 
ATOM     51  C   UNL A   1      47.578  27.080  26.649  1.00  0.00     0.037 A 
ATOM     52  C   UNL A   1      42.147  29.711  29.045  1.00  0.00     0.049 A 
ATOM     53  C   UNL A   1      47.244  28.449  27.164  1.00  0.00     0.074 A 
ATOM     54  C   UNL A   1      41.946  31.005  29.497  1.00  0.00     0.029 A 
ATOM     55  N   UNL A   1      43.467  29.632  28.634  1.00  0.00    -0.354 N 
ATOM     56  N   UNL A   1      46.110  28.897  27.640  1.00  0.00    -0.248 NA
ATOM     57  C   UNL A   1      48.323  29.449  27.139  1.00  0.00     0.031 C 
ATOM     58  C   UNL A   1      43.146  31.711  29.351  1.00  0.00     0.029 A 
ATOM     59  C   UNL A   1      44.093  30.854  28.818  1.00  0.00     0.049 A 
ATOM     60  H   UNL A   1      43.897  28.827  28.266  1.00  0.00     0.167 HD
ATOM     61  C   UNL A   1      46.335  30.223  27.974  1.00  0.00     0.074 A 
ATOM     62  C   UNL A   1      47.718  30.510  27.655  1.00  0.00     0.031 C 
ATOM     63  C   UNL A   1      45.469  31.122  28.497  1.00  0.00     0.037 A 
BRANCH  50  64
ATOM     64  C   UNL A   1      39.802  28.890  29.415  1.00  0.00     0.064 A 
ATOM     65  C   UNL A   1      39.393  28.733  30.745  1.00  0.00     0.173 A 
ATOM     66  C   UNL A   1      38.859  29.337  28.478  1.00  0.00     0.173 A 
ATOM     67  F   UNL A   1      40.260  28.293  31.669  1.00  0.00    -0.203 F 
ATOM     68  C   UNL A   1      38.082  29.006  31.123  1.00  0.00     0.198 A 
ATOM     69  C   UNL A   1      37.552  29.619  28.861  1.00  0.00     0.198 A 
ATOM     70  F   UNL A   1      39.207  29.497  27.192  1.00  0.00    -0.203 F 
ATOM     71  F   UNL A   1      37.703  28.830  32.397  1.00  0.00    -0.200 F 
ATOM     72  C   UNL A   1      37.164  29.452  30.183  1.00  0.00     0.200 A 
ATOM     73  F   UNL A   1      36.665  30.048  27.952  1.00  0.00    -0.200 F 
ATOM     74  F   UNL A   1      35.902  29.713  30.550  1.00  0.00    -0.200 F 
ENDBRANCH  50  64
BRANCH  51  75
ATOM     75  C   UNL A   1      48.926  26.783  26.116  1.00  0.00     0.064 A 
ATOM     76  C   UNL A   1      49.920  26.244  26.943  1.00  0.00     0.173 A 
ATOM     77  C   UNL A   1      49.239  27.018  24.771  1.00  0.00     0.173 A 
ATOM     78  F   UNL A   1      49.663  26.023  28.240  1.00  0.00    -0.203 F 
ATOM     79  C   UNL A   1      51.185  25.951  26.441  1.00  0.00     0.198 A 
ATOM     80  C   UNL A   1      50.503  26.716  24.269  1.00  0.00     0.198 A 
ATOM     81  F   UNL A   1      48.316  27.536  23.947  1.00  0.00    -0.203 F 
ATOM     82  F   UNL A   1      52.126  25.450  27.253  1.00  0.00    -0.200 F 
ATOM     83  C   UNL A   1      51.474  26.184  25.103  1.00  0.00     0.200 A 
ATOM     84  F   UNL A   1      50.778  26.939  22.977  1.00  0.00    -0.200 F 
ATOM     85  F   UNL A   1      52.692  25.900  24.621  1.00  0.00    -0.200 F 
ENDBRANCH  51  75
BRANCH  63  86
ATOM     86  C   UNL A   1      45.993  32.496  28.763  1.00  0.00     0.064 A 
ATOM     87  C   UNL A   1      46.544  32.830  30.006  1.00  0.00     0.173 A 
ATOM     88  C   UNL A   1      45.974  33.473  27.758  1.00  0.00     0.173 A 
ATOM     89  F   UNL A   1      46.566  31.929  30.999  1.00  0.00    -0.203 F 
ATOM     90  C   UNL A   1      47.056  34.103  30.239  1.00  0.00     0.198 A 
ATOM     91  C   UNL A   1      46.494  34.743  27.992  1.00  0.00     0.198 A 
ATOM     92  F   UNL A   1      45.451  33.196  26.555  1.00  0.00    -0.203 F 
ATOM     93  F   UNL A   1      47.563  34.411  31.440  1.00  0.00    -0.200 F 
ATOM     94  C   UNL A   1      47.034  35.057  29.231  1.00  0.00     0.200 A 
ATOM     95  F   UNL A   1      46.469  35.666  27.020  1.00  0.00    -0.200 F 
ATOM     96  F   UNL A   1      47.525  36.284  29.457  1.00  0.00    -0.200 F 
ENDBRANCH  63  86
ENDBRANCH  37  38
ENDBRANCH  29  32
ENDBRANCH  27  28
ENDBRANCH  26  27
ENDBRANCH  25  26
ENDBRANCH   1  25
TORSDOF 17
ENDMDL
MODEL 3
REMARK VINA RESULT:     -11.2      5.708     11.102
REMARK SMILES NC(=O)C[C@H](NC(=O)c1csc(Br)c1)C(=O)NCCCCCCNC(=O)c1ccc(-c2c3nc(c(-c4c(F)c(F)c(F)c(F)c4F)c4ccc([nH]4)c(-c4c(F)c(F)c(F)c(F)c4F)c4nc(c(-c5c(F)c(F)c(F)c(F)c5F)c5ccc2[nH]5)C=C4)C=C3)cc1
REMARK SMILES IDX 20 1 19 2 18 3 17 4 15 5 16 6 5 8 4 9 2 10 1 11 3 14 6 15
REMARK SMILES IDX 7 16 8 18 9 19 10 20 14 21 11 22 12 23 13 24 21 25 22 26
REMARK SMILES IDX 23 27 24 28 25 29 26 31 27 32 28 33 89 34 29 35 88 36 30 37
REMARK SMILES IDX 31 38 32 39 82 40 33 41 87 42 81 43 83 44 34 45 86 46 80 47
REMARK SMILES IDX 79 48 35 50 67 51 47 52 66 53 48 54 51 55 65 56 84 57 49 58
REMARK SMILES IDX 50 59 64 61 85 62 52 63 36 64 37 65 45 66 38 67 39 68 43 69
REMARK SMILES IDX 46 70 40 71 41 72 44 73 42 74 68 75 69 76 77 77 70 78 71 79
REMARK SMILES IDX 75 80 78 81 72 82 73 83 76 84 74 85 53 86 54 87 62 88 55 89
REMARK SMILES IDX 56 90 60 91 63 92 57 93 58 94 61 95 59 96
REMARK H PARENT 17 7 1 12 1 13 6 17 24 30 83 49 51 60
REMARK Flexibility Score: inf
ROOT
ATOM      1  C   UNL A   1      37.294  21.883  24.745  1.00  0.00     0.002 C 
ENDROOT
BRANCH   1   2
ATOM      2  C   UNL A   1      36.377  22.781  23.908  1.00  0.00     0.021 C 
BRANCH   2   3
ATOM      3  C   UNL A   1      34.951  22.939  24.429  1.00  0.00     0.116 C 
BRANCH   3   4
ATOM      4  N   UNL A   1      33.959  22.383  23.527  1.00  0.00    -0.354 N 
ATOM      5  C   UNL A   1      32.618  22.600  23.418  1.00  0.00     0.243 C 
ATOM      6  O   UNL A   1      32.086  22.306  22.343  1.00  0.00    -0.273 OA
ATOM      7  H   UNL A   1      34.318  21.734  22.881  1.00  0.00     0.163 HD
BRANCH   5   8
ATOM      8  C   UNL A   1      31.773  23.255  24.531  1.00  0.00     0.180 C 
BRANCH   8   9
ATOM      9  C   UNL A   1      31.406  22.286  25.659  1.00  0.00     0.134 C 
BRANCH   9  10
ATOM     10  C   UNL A   1      30.794  22.929  26.876  1.00  0.00     0.220 C 
ATOM     11  N   UNL A   1      29.507  22.580  27.152  1.00  0.00    -0.370 N 
ATOM     12  H   UNL A   1      29.050  22.965  27.934  1.00  0.00     0.159 HD
ATOM     13  H   UNL A   1      29.034  21.941  26.570  1.00  0.00     0.159 HD
ATOM     14  O   UNL A   1      31.396  23.711  27.601  1.00  0.00    -0.275 OA
ENDBRANCH   9  10
ENDBRANCH   8   9
BRANCH   8  15
ATOM     15  N   UNL A   1      30.654  24.042  24.004  1.00  0.00    -0.340 N 
ATOM     16  C   UNL A   1      30.448  25.395  23.971  1.00  0.00     0.252 C 
ATOM     17  H   UNL A   1      29.930  23.507  23.605  1.00  0.00     0.164 HD
ATOM     18  O   UNL A   1      29.337  25.806  23.647  1.00  0.00    -0.269 OA
BRANCH  16  19
ATOM     19  C   UNL A   1      31.519  26.305  24.360  1.00  0.00     0.051 A 
ATOM     20  C   UNL A   1      32.519  26.671  23.473  1.00  0.00     0.079 A 
ATOM     21  C   UNL A   1      31.778  26.863  25.660  1.00  0.00     0.041 A 
ATOM     22  S   UNL A   1      33.661  27.745  24.161  1.00  0.00    -0.136 S 
ATOM     23  C   UNL A   1      32.888  27.668  25.663  1.00  0.00     0.071 A 
ATOM     24  Br  UNL A   1      33.501  28.578  27.181  1.00  0.00    -0.039 Br
ENDBRANCH  16  19
ENDBRANCH   8  15
ENDBRANCH   5   8
ENDBRANCH   3   4
ENDBRANCH   2   3
ENDBRANCH   1   2
BRANCH   1  25
ATOM     25  C   UNL A   1      36.926  20.397  24.814  1.00  0.00     0.002 C 
BRANCH  25  26
ATOM     26  C   UNL A   1      38.081  19.408  25.001  1.00  0.00     0.021 C 
BRANCH  26  27
ATOM     27  C   UNL A   1      39.250  19.884  25.859  1.00  0.00     0.116 C 
BRANCH  27  28
ATOM     28  N   UNL A   1      40.361  18.953  25.884  1.00  0.00    -0.352 N 
ATOM     29  C   UNL A   1      41.698  19.190  26.090  1.00  0.00     0.251 C 
ATOM     30  H   UNL A   1      40.121  18.010  25.731  1.00  0.00     0.163 HD
ATOM     31  O   UNL A   1      42.501  18.266  25.989  1.00  0.00    -0.269 OA
BRANCH  29  32
ATOM     32  C   UNL A   1      42.196  20.552  26.401  1.00  0.00     0.039 A 
ATOM     33  C   UNL A   1      42.523  21.393  25.331  1.00  0.00     0.014 A 
ATOM     34  C   UNL A   1      42.391  20.992  27.714  1.00  0.00     0.014 A 
ATOM     35  C   UNL A   1      42.993  22.686  25.572  1.00  0.00     0.010 A 
ATOM     36  C   UNL A   1      42.829  22.297  27.955  1.00  0.00     0.010 A 
ATOM     37  C   UNL A   1      43.131  23.155  26.887  1.00  0.00    -0.014 A 
BRANCH  37  38
ATOM     38  C   UNL A   1      43.588  24.539  27.155  1.00  0.00     0.031 A 
ATOM     39  C   UNL A   1      42.631  25.565  27.688  1.00  0.00     0.074 A 
ATOM     40  C   UNL A   1      44.856  24.888  26.873  1.00  0.00     0.049 A 
ATOM     41  N   UNL A   1      42.830  26.841  27.913  1.00  0.00    -0.248 NA
ATOM     42  C   UNL A   1      41.270  25.103  27.993  1.00  0.00     0.031 C 
ATOM     43  C   UNL A   1      45.876  23.996  26.323  1.00  0.00     0.029 A 
ATOM     44  N   UNL A   1      45.498  26.095  27.000  1.00  0.00    -0.354 N 
ATOM     45  C   UNL A   1      41.612  27.339  28.353  1.00  0.00     0.074 A 
ATOM     46  C   UNL A   1      40.680  26.231  28.368  1.00  0.00     0.031 C 
ATOM     47  C   UNL A   1      47.019  24.685  26.164  1.00  0.00     0.029 A 
ATOM     48  C   UNL A   1      46.806  26.066  26.587  1.00  0.00     0.049 A 
ATOM     49  H   UNL A   1      45.061  26.903  27.356  1.00  0.00     0.167 HD
ATOM     50  C   UNL A   1      41.300  28.606  28.713  1.00  0.00     0.037 A 
ATOM     51  C   UNL A   1      47.727  27.046  26.547  1.00  0.00     0.037 A 
ATOM     52  C   UNL A   1      42.227  29.704  28.748  1.00  0.00     0.049 A 
ATOM     53  C   UNL A   1      47.372  28.427  27.014  1.00  0.00     0.074 A 
ATOM     54  C   UNL A   1      42.007  31.009  29.157  1.00  0.00     0.029 A 
ATOM     55  N   UNL A   1      43.557  29.623  28.367  1.00  0.00    -0.354 N 
ATOM     56  N   UNL A   1      46.225  28.880  27.452  1.00  0.00    -0.248 NA
ATOM     57  C   UNL A   1      48.444  29.434  26.981  1.00  0.00     0.031 C 
ATOM     58  C   UNL A   1      43.205  31.721  29.015  1.00  0.00     0.029 A 
ATOM     59  C   UNL A   1      44.169  30.855  28.528  1.00  0.00     0.049 A 
ATOM     60  H   UNL A   1      44.000  28.811  28.033  1.00  0.00     0.167 HD
ATOM     61  C   UNL A   1      46.433  30.217  27.751  1.00  0.00     0.074 A 
ATOM     62  C   UNL A   1      47.821  30.506  27.452  1.00  0.00     0.031 C 
ATOM     63  C   UNL A   1      45.550  31.124  28.228  1.00  0.00     0.037 A 
BRANCH  50  64
ATOM     64  C   UNL A   1      39.880  28.875  29.093  1.00  0.00     0.064 A 
ATOM     65  C   UNL A   1      38.934  29.273  28.140  1.00  0.00     0.173 A 
ATOM     66  C   UNL A   1      39.458  28.705  30.419  1.00  0.00     0.173 A 
ATOM     67  F   UNL A   1      39.300  29.461  26.864  1.00  0.00    -0.203 F 
ATOM     68  C   UNL A   1      37.610  29.499  28.505  1.00  0.00     0.198 A 
ATOM     69  C   UNL A   1      38.132  28.923  30.778  1.00  0.00     0.198 A 
ATOM     70  F   UNL A   1      40.333  28.329  31.364  1.00  0.00    -0.203 F 
ATOM     71  F   UNL A   1      36.722  29.899  27.583  1.00  0.00    -0.200 F 
ATOM     72  C   UNL A   1      37.210  29.321  29.822  1.00  0.00     0.200 A 
ATOM     73  F   UNL A   1      37.746  28.752  32.050  1.00  0.00    -0.200 F 
ATOM     74  F   UNL A   1      35.935  29.542  30.170  1.00  0.00    -0.200 F 
ENDBRANCH  50  64
BRANCH  51  75
ATOM     75  C   UNL A   1      49.088  26.744  26.052  1.00  0.00     0.064 A 
ATOM     76  C   UNL A   1      50.046  26.170  26.897  1.00  0.00     0.173 A 
ATOM     77  C   UNL A   1      49.450  27.009  24.725  1.00  0.00     0.173 A 
ATOM     78  F   UNL A   1      49.744  25.920  28.179  1.00  0.00    -0.203 F 
ATOM     79  C   UNL A   1      51.324  25.873  26.430  1.00  0.00     0.198 A 
ATOM     80  C   UNL A   1      50.725  26.702  24.257  1.00  0.00     0.198 A 
ATOM     81  F   UNL A   1      48.561  27.561  23.885  1.00  0.00    -0.203 F 
ATOM     82  F   UNL A   1      52.231  25.338  27.260  1.00  0.00    -0.200 F 
ATOM     83  C   UNL A   1      51.661  26.135  25.110  1.00  0.00     0.200 A 
ATOM     84  F   UNL A   1      51.047  26.955  22.982  1.00  0.00    -0.200 F 
ATOM     85  F   UNL A   1      52.890  25.847  24.661  1.00  0.00    -0.200 F 
ENDBRANCH  51  75
BRANCH  63  86
ATOM     86  C   UNL A   1      46.057  32.510  28.463  1.00  0.00     0.064 A 
ATOM     87  C   UNL A   1      46.626  32.871  29.691  1.00  0.00     0.173 A 
ATOM     88  C   UNL A   1      46.006  33.472  27.444  1.00  0.00     0.173 A 
ATOM     89  F   UNL A   1      46.681  31.985  30.696  1.00  0.00    -0.203 F 
ATOM     90  C   UNL A   1      47.123  34.155  29.895  1.00  0.00     0.198 A 
ATOM     91  C   UNL A   1      46.510  34.752  27.650  1.00  0.00     0.198 A 
ATOM     92  F   UNL A   1      45.464  33.168  26.256  1.00  0.00    -0.203 F 
ATOM     93  F   UNL A   1      47.648  34.489  31.082  1.00  0.00    -0.200 F 
ATOM     94  C   UNL A   1      47.068  35.093  28.874  1.00  0.00     0.200 A 
ATOM     95  F   UNL A   1      46.453  35.660  26.665  1.00  0.00    -0.200 F 
ATOM     96  F   UNL A   1      47.545  36.330  29.072  1.00  0.00    -0.200 F 
ENDBRANCH  63  86
ENDBRANCH  37  38
ENDBRANCH  29  32
ENDBRANCH  27  28
ENDBRANCH  26  27
ENDBRANCH  25  26
ENDBRANCH   1  25
TORSDOF 17
ENDMDL
