MODEL 1
REMARK VINA RESULT:     -13.2      0.000      0.000
REMARK SMILES O=C1[NH+]=C(Nc2ccc(C(=O)NCCCCCCNC(=O)c3ccc(-c4c5nc(c(-c6c(F)c(F)c(F)c(F)c6F)c6ccc([nH]6)c(-c6c(F)c(F)c(F)c(F)c6F)c6nc(c(-c7c(F)c(F)c(F)c(F)c7F)c7ccc4[nH]7)C=C6)C=C5)cc3)c(O)c2)S/C1=C\c1ccc[nH]1
REMARK SMILES IDX 15 1 14 2 13 3 12 4 10 5 11 6 9 8 6 9 7 10 87 11 8 12 85 13
REMARK SMILES IDX 5 14 1 15 2 16 3 17 89 18 4 19 88 21 90 22 91 24 92 25 95 26
REMARK SMILES IDX 93 27 94 28 86 30 16 32 17 33 18 34 19 35 20 36 21 38 22 39
REMARK SMILES IDX 23 40 84 41 24 42 83 43 25 44 26 45 27 46 77 47 28 48 82 49
REMARK SMILES IDX 76 50 78 51 29 52 81 53 75 54 74 55 30 57 62 58 42 59 61 60
REMARK SMILES IDX 43 61 46 62 60 63 79 64 44 65 45 66 59 68 80 69 47 70 31 71
REMARK SMILES IDX 32 72 40 73 33 74 34 75 38 76 41 77 35 78 36 79 39 80 37 81
REMARK SMILES IDX 63 82 64 83 72 84 65 85 66 86 70 87 73 88 67 89 68 90 71 91
REMARK SMILES IDX 69 92 48 93 49 94 57 95 50 96 51 97 55 98 58 99 52 100
REMARK SMILES IDX 53 101 56 102 54 103
REMARK H PARENT 12 7 3 20 5 23 95 29 86 31 19 37 78 56 46 67
REMARK Flexibility Score: inf
ROOT
ATOM      1  C   UNL A   1      31.639  29.561  25.814  1.00  0.00     0.002 C 
ENDROOT
BRANCH   1   2
ATOM      2  C   UNL A   1      32.976  28.994  25.323  1.00  0.00     0.021 C 
BRANCH   2   3
ATOM      3  C   UNL A   1      33.231  29.062  23.820  1.00  0.00     0.116 C 
BRANCH   3   4
ATOM      4  N   UNL A   1      32.081  29.474  23.036  1.00  0.00    -0.352 N 
ATOM      5  C   UNL A   1      31.063  28.728  22.493  1.00  0.00     0.255 C 
ATOM      6  O   UNL A   1      30.193  29.302  21.839  1.00  0.00    -0.269 OA
ATOM      7  H   UNL A   1      32.020  30.442  22.867  1.00  0.00     0.163 HD
BRANCH   5   8
ATOM      8  C   UNL A   1      31.006  27.250  22.628  1.00  0.00     0.081 A 
ATOM      9  C   UNL A   1      31.190  24.438  22.867  1.00  0.00     0.129 A 
ATOM     10  C   UNL A   1      31.982  25.131  21.947  1.00  0.00     0.053 A 
ATOM     11  C   UNL A   1      30.263  25.164  23.623  1.00  0.00     0.098 A 
ATOM     12  C   UNL A   1      31.889  26.521  21.822  1.00  0.00     0.022 A 
ATOM     13  C   UNL A   1      30.145  26.549  23.475  1.00  0.00     0.132 A 
BRANCH   9  14
ATOM     14  N   UNL A   1      31.351  23.070  23.112  1.00  0.00    -0.234 N 
ATOM     15  O   UNL A   1      35.432  22.357  25.254  1.00  0.00    -0.240 OA
ATOM     16  C   UNL A   1      34.385  22.081  24.682  1.00  0.00     0.346 C 
ATOM     17  N   UNL A   1      33.507  23.003  24.161  1.00  0.00    -0.199 N 
ATOM     18  C   UNL A   1      33.904  20.685  24.482  1.00  0.00     0.111 C 
ATOM     19  C   UNL A   1      32.447  22.469  23.653  1.00  0.00     0.322 C 
ATOM     20  H   UNL A   1      33.670  23.974  24.175  1.00  0.00     0.316 HD
ATOM     21  S   UNL A   1      32.371  20.722  23.705  1.00  0.00     0.006 SA
ATOM     22  C   UNL A   1      34.605  19.622  24.899  1.00  0.00     0.050 C 
ATOM     23  H   UNL A   1      30.598  22.484  22.870  1.00  0.00     0.313 HD
BRANCH  22  24
ATOM     24  C   UNL A   1      34.186  18.292  24.659  1.00  0.00     0.039 A 
ATOM     25  C   UNL A   1      34.182  17.482  23.540  1.00  0.00     0.027 A 
ATOM     26  N   UNL A   1      33.658  17.565  25.699  1.00  0.00    -0.362 N 
ATOM     27  C   UNL A   1      33.598  16.248  23.907  1.00  0.00     0.020 A 
ATOM     28  C   UNL A   1      33.274  16.330  25.242  1.00  0.00     0.083 A 
ATOM     29  H   UNL A   1      33.569  17.882  26.626  1.00  0.00     0.166 HD
ENDBRANCH  22  24
ENDBRANCH   9  14
BRANCH  13  30
ATOM     30  O   UNL A   1      29.123  27.128  24.176  1.00  0.00    -0.507 OA
ATOM     31  H   UNL A   1      29.267  27.931  24.637  1.00  0.00     0.293 HD
ENDBRANCH  13  30
ENDBRANCH   5   8
ENDBRANCH   3   4
ENDBRANCH   2   3
ENDBRANCH   1   2
BRANCH   1  32
ATOM     32  C   UNL A   1      31.459  31.079  25.731  1.00  0.00     0.002 C 
BRANCH  32  33
ATOM     33  C   UNL A   1      31.505  31.846  27.054  1.00  0.00     0.021 C 
BRANCH  33  34
ATOM     34  C   UNL A   1      32.750  32.693  27.289  1.00  0.00     0.116 C 
BRANCH  34  35
ATOM     35  N   UNL A   1      32.444  34.072  27.628  1.00  0.00    -0.352 N 
ATOM     36  C   UNL A   1      33.019  34.893  28.567  1.00  0.00     0.251 C 
ATOM     37  H   UNL A   1      31.714  34.480  27.107  1.00  0.00     0.163 HD
ATOM     38  O   UNL A   1      32.529  35.992  28.808  1.00  0.00    -0.269 OA
BRANCH  36  39
ATOM     39  C   UNL A   1      34.210  34.441  29.318  1.00  0.00     0.039 A 
ATOM     40  C   UNL A   1      34.028  33.842  30.567  1.00  0.00     0.014 A 
ATOM     41  C   UNL A   1      35.497  34.597  28.798  1.00  0.00     0.014 A 
ATOM     42  C   UNL A   1      35.127  33.330  31.257  1.00  0.00     0.010 A 
ATOM     43  C   UNL A   1      36.583  34.019  29.451  1.00  0.00     0.010 A 
ATOM     44  C   UNL A   1      36.409  33.370  30.683  1.00  0.00    -0.014 A 
BRANCH  44  45
ATOM     45  C   UNL A   1      37.567  32.712  31.342  1.00  0.00     0.031 A 
ATOM     46  C   UNL A   1      38.268  31.560  30.678  1.00  0.00     0.074 A 
ATOM     47  C   UNL A   1      37.944  33.111  32.573  1.00  0.00     0.049 A 
ATOM     48  N   UNL A   1      39.246  30.815  31.129  1.00  0.00    -0.248 NA
ATOM     49  C   UNL A   1      37.793  31.179  29.339  1.00  0.00     0.031 C 
ATOM     50  C   UNL A   1      37.316  34.189  33.339  1.00  0.00     0.029 A 
ATOM     51  N   UNL A   1      38.935  32.650  33.403  1.00  0.00    -0.354 N 
ATOM     52  C   UNL A   1      39.496  29.877  30.137  1.00  0.00     0.074 A 
ATOM     53  C   UNL A   1      38.533  30.110  29.083  1.00  0.00     0.031 C 
ATOM     54  C   UNL A   1      37.950  34.321  34.514  1.00  0.00     0.029 A 
ATOM     55  C   UNL A   1      38.995  33.306  34.609  1.00  0.00     0.049 A 
ATOM     56  H   UNL A   1      39.547  31.919  33.157  1.00  0.00     0.167 HD
ATOM     57  C   UNL A   1      40.457  28.921  30.101  1.00  0.00     0.037 A 
ATOM     58  C   UNL A   1      39.788  33.102  35.678  1.00  0.00     0.037 A 
ATOM     59  C   UNL A   1      41.420  28.702  31.149  1.00  0.00     0.049 A 
ATOM     60  C   UNL A   1      40.822  32.009  35.625  1.00  0.00     0.074 A 
ATOM     61  C   UNL A   1      42.468  27.799  31.180  1.00  0.00     0.029 A 
ATOM     62  N   UNL A   1      41.448  29.386  32.355  1.00  0.00    -0.354 N 
ATOM     63  N   UNL A   1      41.097  31.177  34.650  1.00  0.00    -0.248 NA
ATOM     64  C   UNL A   1      41.654  31.827  36.821  1.00  0.00     0.031 C 
ATOM     65  C   UNL A   1      43.088  27.890  32.429  1.00  0.00     0.029 A 
ATOM     66  C   UNL A   1      42.472  28.897  33.153  1.00  0.00     0.049 A 
ATOM     67  H   UNL A   1      40.831  30.111  32.608  1.00  0.00     0.167 HD
ATOM     68  C   UNL A   1      42.151  30.394  35.103  1.00  0.00     0.074 A 
ATOM     69  C   UNL A   1      42.478  30.864  36.433  1.00  0.00     0.031 C 
ATOM     70  C   UNL A   1      42.790  29.376  34.475  1.00  0.00     0.037 A 
BRANCH  57  71
ATOM     71  C   UNL A   1      40.513  28.033  28.891  1.00  0.00     0.064 A 
ATOM     72  C   UNL A   1      39.786  26.834  28.818  1.00  0.00     0.173 A 
ATOM     73  C   UNL A   1      41.261  28.412  27.765  1.00  0.00     0.173 A 
ATOM     74  F   UNL A   1      39.061  26.421  29.869  1.00  0.00    -0.203 F 
ATOM     75  C   UNL A   1      39.830  26.036  27.679  1.00  0.00     0.198 A 
ATOM     76  C   UNL A   1      41.274  27.629  26.614  1.00  0.00     0.198 A 
ATOM     77  F   UNL A   1      41.969  29.552  27.776  1.00  0.00    -0.203 F 
ATOM     78  F   UNL A   1      39.166  24.872  27.653  1.00  0.00    -0.200 F 
ATOM     79  C   UNL A   1      40.566  26.438  26.575  1.00  0.00     0.200 A 
ATOM     80  F   UNL A   1      41.973  28.027  25.542  1.00  0.00    -0.200 F 
ATOM     81  F   UNL A   1      40.596  25.675  25.473  1.00  0.00    -0.200 F 
ENDBRANCH  57  71
BRANCH  58  82
ATOM     82  C   UNL A   1      39.639  33.951  36.891  1.00  0.00     0.064 A 
ATOM     83  C   UNL A   1      38.845  33.534  37.970  1.00  0.00     0.173 A 
ATOM     84  C   UNL A   1      40.269  35.200  36.991  1.00  0.00     0.173 A 
ATOM     85  F   UNL A   1      38.205  32.358  37.916  1.00  0.00    -0.203 F 
ATOM     86  C   UNL A   1      38.666  34.347  39.088  1.00  0.00     0.198 A 
ATOM     87  C   UNL A   1      40.116  35.997  38.124  1.00  0.00     0.198 A 
ATOM     88  F   UNL A   1      41.042  35.646  35.989  1.00  0.00    -0.203 F 
ATOM     89  F   UNL A   1      37.855  33.950  40.078  1.00  0.00    -0.200 F 
ATOM     90  C   UNL A   1      39.306  35.574  39.166  1.00  0.00     0.200 A 
ATOM     91  F   UNL A   1      40.751  37.174  38.202  1.00  0.00    -0.200 F 
ATOM     92  F   UNL A   1      39.134  36.355  40.241  1.00  0.00    -0.200 F 
ENDBRANCH  58  82
BRANCH  70  93
ATOM     93  C   UNL A   1      43.928  28.718  35.202  1.00  0.00     0.064 A 
ATOM     94  C   UNL A   1      43.731  27.592  36.016  1.00  0.00     0.173 A 
ATOM     95  C   UNL A   1      45.240  29.193  35.046  1.00  0.00     0.173 A 
ATOM     96  F   UNL A   1      42.496  27.107  36.211  1.00  0.00    -0.203 F 
ATOM     97  C   UNL A   1      44.801  26.983  36.665  1.00  0.00     0.198 A 
ATOM     98  C   UNL A   1      46.311  28.560  35.668  1.00  0.00     0.198 A 
ATOM     99  F   UNL A   1      45.484  30.263  34.274  1.00  0.00    -0.203 F 
ATOM    100  F   UNL A   1      44.584  25.940  37.478  1.00  0.00    -0.200 F 
ATOM    101  C   UNL A   1      46.091  27.461  36.484  1.00  0.00     0.200 A 
ATOM    102  F   UNL A   1      47.557  29.013  35.477  1.00  0.00    -0.200 F 
ATOM    103  F   UNL A   1      47.121  26.865  37.100  1.00  0.00    -0.200 F 
ENDBRANCH  70  93
ENDBRANCH  44  45
ENDBRANCH  36  39
ENDBRANCH  34  35
ENDBRANCH  33  34
ENDBRANCH  32  33
ENDBRANCH   1  32
TORSDOF 16
ENDMDL
MODEL 2
REMARK VINA RESULT:     -13.0      0.903      1.935
REMARK SMILES O=C1[NH+]=C(Nc2ccc(C(=O)NCCCCCCNC(=O)c3ccc(-c4c5nc(c(-c6c(F)c(F)c(F)c(F)c6F)c6ccc([nH]6)c(-c6c(F)c(F)c(F)c(F)c6F)c6nc(c(-c7c(F)c(F)c(F)c(F)c7F)c7ccc4[nH]7)C=C6)C=C5)cc3)c(O)c2)S/C1=C\c1ccc[nH]1
REMARK SMILES IDX 15 1 14 2 13 3 12 4 10 5 11 6 9 8 6 9 7 10 87 11 8 12 85 13
REMARK SMILES IDX 5 14 1 15 2 16 3 17 89 18 4 19 88 21 90 22 91 24 92 25 95 26
REMARK SMILES IDX 93 27 94 28 86 30 16 32 17 33 18 34 19 35 20 36 21 38 22 39
REMARK SMILES IDX 23 40 84 41 24 42 83 43 25 44 26 45 27 46 77 47 28 48 82 49
REMARK SMILES IDX 76 50 78 51 29 52 81 53 75 54 74 55 30 57 62 58 42 59 61 60
REMARK SMILES IDX 43 61 46 62 60 63 79 64 44 65 45 66 59 68 80 69 47 70 31 71
REMARK SMILES IDX 32 72 40 73 33 74 34 75 38 76 41 77 35 78 36 79 39 80 37 81
REMARK SMILES IDX 63 82 64 83 72 84 65 85 66 86 70 87 73 88 67 89 68 90 71 91
REMARK SMILES IDX 69 92 48 93 49 94 57 95 50 96 51 97 55 98 58 99 52 100
REMARK SMILES IDX 53 101 56 102 54 103
REMARK H PARENT 12 7 3 20 5 23 95 29 86 31 19 37 78 56 46 67
REMARK Flexibility Score: inf
ROOT
ATOM      1  C   UNL A   1      31.856  29.704  25.637  1.00  0.00     0.002 C 
ENDROOT
BRANCH   1   2
ATOM      2  C   UNL A   1      33.243  29.689  24.984  1.00  0.00     0.021 C 
BRANCH   2   3
ATOM      3  C   UNL A   1      33.302  29.242  23.526  1.00  0.00     0.116 C 
BRANCH   3   4
ATOM      4  N   UNL A   1      32.026  29.287  22.835  1.00  0.00    -0.352 N 
ATOM      5  C   UNL A   1      31.154  28.275  22.513  1.00  0.00     0.255 C 
ATOM      6  O   UNL A   1      30.126  28.554  21.897  1.00  0.00    -0.269 OA
ATOM      7  H   UNL A   1      31.740  30.185  22.552  1.00  0.00     0.163 HD
BRANCH   5   8
ATOM      8  C   UNL A   1      31.435  26.854  22.842  1.00  0.00     0.081 A 
ATOM      9  C   UNL A   1      31.700  24.136  23.577  1.00  0.00     0.129 A 
ATOM     10  C   UNL A   1      31.076  25.051  24.431  1.00  0.00     0.053 A 
ATOM     11  C   UNL A   1      32.242  24.612  22.377  1.00  0.00     0.098 A 
ATOM     12  C   UNL A   1      30.950  26.396  24.073  1.00  0.00     0.022 A 
ATOM     13  C   UNL A   1      32.146  25.964  22.034  1.00  0.00     0.132 A 
BRANCH   9  14
ATOM     14  N   UNL A   1      31.726  22.763  23.842  1.00  0.00    -0.234 N 
ATOM     15  O   UNL A   1      36.086  21.478  24.889  1.00  0.00    -0.240 OA
ATOM     16  C   UNL A   1      34.897  21.354  24.623  1.00  0.00     0.346 C 
ATOM     17  N   UNL A   1      34.051  22.389  24.300  1.00  0.00    -0.199 N 
ATOM     18  C   UNL A   1      34.189  20.042  24.628  1.00  0.00     0.111 C 
ATOM     19  C   UNL A   1      32.831  22.012  24.112  1.00  0.00     0.322 C 
ATOM     20  H   UNL A   1      34.346  23.325  24.220  1.00  0.00     0.316 HD
ATOM     21  S   UNL A   1      32.526  20.297  24.273  1.00  0.00     0.006 SA
ATOM     22  C   UNL A   1      34.819  18.892  24.904  1.00  0.00     0.050 C 
ATOM     23  H   UNL A   1      30.862  22.292  23.834  1.00  0.00     0.313 HD
BRANCH  22  24
ATOM     24  C   UNL A   1      34.170  17.637  24.850  1.00  0.00     0.039 A 
ATOM     25  C   UNL A   1      33.981  16.703  23.850  1.00  0.00     0.027 A 
ATOM     26  N   UNL A   1      33.567  17.153  25.986  1.00  0.00    -0.362 N 
ATOM     27  C   UNL A   1      33.210  15.648  24.387  1.00  0.00     0.020 A 
ATOM     28  C   UNL A   1      32.959  15.956  25.705  1.00  0.00     0.083 A 
ATOM     29  H   UNL A   1      33.571  17.596  26.864  1.00  0.00     0.166 HD
ENDBRANCH  22  24
ENDBRANCH   9  14
BRANCH  13  30
ATOM     30  O   UNL A   1      32.818  26.329  20.901  1.00  0.00    -0.507 OA
ATOM     31  H   UNL A   1      33.606  26.833  20.964  1.00  0.00     0.293 HD
ENDBRANCH  13  30
ENDBRANCH   5   8
ENDBRANCH   3   4
ENDBRANCH   2   3
ENDBRANCH   1   2
BRANCH   1  32
ATOM     32  C   UNL A   1      30.996  30.950  25.406  1.00  0.00     0.002 C 
BRANCH  32  33
ATOM     33  C   UNL A   1      31.023  32.011  26.508  1.00  0.00     0.021 C 
BRANCH  33  34
ATOM     34  C   UNL A   1      32.399  32.553  26.876  1.00  0.00     0.116 C 
BRANCH  34  35
ATOM     35  N   UNL A   1      32.353  33.894  27.431  1.00  0.00    -0.352 N 
ATOM     36  C   UNL A   1      33.145  34.475  28.392  1.00  0.00     0.251 C 
ATOM     37  H   UNL A   1      31.647  34.475  27.064  1.00  0.00     0.163 HD
ATOM     38  O   UNL A   1      32.863  35.584  28.836  1.00  0.00    -0.269 OA
BRANCH  36  39
ATOM     39  C   UNL A   1      34.321  33.750  28.921  1.00  0.00     0.039 A 
ATOM     40  C   UNL A   1      35.589  34.306  28.736  1.00  0.00     0.014 A 
ATOM     41  C   UNL A   1      34.180  32.537  29.599  1.00  0.00     0.014 A 
ATOM     42  C   UNL A   1      36.706  33.686  29.300  1.00  0.00     0.010 A 
ATOM     43  C   UNL A   1      35.283  31.960  30.224  1.00  0.00     0.010 A 
ATOM     44  C   UNL A   1      36.557  32.533  30.089  1.00  0.00    -0.014 A 
BRANCH  44  45
ATOM     45  C   UNL A   1      37.715  31.938  30.806  1.00  0.00     0.031 A 
ATOM     46  C   UNL A   1      38.531  30.852  30.164  1.00  0.00     0.074 A 
ATOM     47  C   UNL A   1      37.988  32.333  32.065  1.00  0.00     0.049 A 
ATOM     48  N   UNL A   1      39.529  30.163  30.661  1.00  0.00    -0.248 NA
ATOM     49  C   UNL A   1      38.165  30.471  28.792  1.00  0.00     0.031 C 
ATOM     50  C   UNL A   1      37.243  33.349  32.811  1.00  0.00     0.029 A 
ATOM     51  N   UNL A   1      38.957  31.919  32.946  1.00  0.00    -0.354 N 
ATOM     52  C   UNL A   1      39.901  29.267  29.668  1.00  0.00     0.074 A 
ATOM     53  C   UNL A   1      38.990  29.460  28.561  1.00  0.00     0.031 C 
ATOM     54  C   UNL A   1      37.794  33.494  34.026  1.00  0.00     0.029 A 
ATOM     55  C   UNL A   1      38.898  32.550  34.166  1.00  0.00     0.049 A 
ATOM     56  H   UNL A   1      39.630  31.236  32.725  1.00  0.00     0.167 HD
ATOM     57  C   UNL A   1      40.925  28.378  29.674  1.00  0.00     0.037 A 
ATOM     58  C   UNL A   1      39.637  32.374  35.278  1.00  0.00     0.037 A 
ATOM     59  C   UNL A   1      41.835  28.199  30.775  1.00  0.00     0.049 A 
ATOM     60  C   UNL A   1      40.744  31.353  35.268  1.00  0.00     0.074 A 
ATOM     61  C   UNL A   1      42.939  27.367  30.853  1.00  0.00     0.029 A 
ATOM     62  N   UNL A   1      41.743  28.855  31.994  1.00  0.00    -0.354 N 
ATOM     63  N   UNL A   1      41.134  30.564  34.297  1.00  0.00    -0.248 NA
ATOM     64  C   UNL A   1      41.513  31.198  36.510  1.00  0.00     0.031 C 
ATOM     65  C   UNL A   1      43.474  27.469  32.140  1.00  0.00     0.029 A 
ATOM     66  C   UNL A   1      42.748  28.416  32.844  1.00  0.00     0.049 A 
ATOM     67  H   UNL A   1      41.065  29.531  32.221  1.00  0.00     0.167 HD
ATOM     68  C   UNL A   1      42.209  29.842  34.798  1.00  0.00     0.074 A 
ATOM     69  C   UNL A   1      42.422  30.302  36.155  1.00  0.00     0.031 C 
ATOM     70  C   UNL A   1      42.952  28.884  34.192  1.00  0.00     0.037 A 
BRANCH  57  71
ATOM     71  C   UNL A   1      41.114  27.524  28.452  1.00  0.00     0.064 A 
ATOM     72  C   UNL A   1      40.385  26.341  28.256  1.00  0.00     0.173 A 
ATOM     73  C   UNL A   1      41.998  27.923  27.437  1.00  0.00     0.173 A 
ATOM     74  F   UNL A   1      39.533  25.911  29.199  1.00  0.00    -0.203 F 
ATOM     75  C   UNL A   1      40.555  25.575  27.106  1.00  0.00     0.198 A 
ATOM     76  C   UNL A   1      42.139  27.172  26.272  1.00  0.00     0.198 A 
ATOM     77  F   UNL A   1      42.715  29.049  27.567  1.00  0.00    -0.203 F 
ATOM     78  F   UNL A   1      39.883  24.424  26.965  1.00  0.00    -0.200 F 
ATOM     79  C   UNL A   1      41.425  25.996  26.111  1.00  0.00     0.200 A 
ATOM     80  F   UNL A   1      42.968  27.589  25.305  1.00  0.00    -0.200 F 
ATOM     81  F   UNL A   1      41.577  25.264  24.999  1.00  0.00    -0.200 F 
ENDBRANCH  57  71
BRANCH  58  82
ATOM     82  C   UNL A   1      39.358  33.181  36.496  1.00  0.00     0.064 A 
ATOM     83  C   UNL A   1      40.003  34.407  36.713  1.00  0.00     0.173 A 
ATOM     84  C   UNL A   1      38.456  32.738  37.476  1.00  0.00     0.173 A 
ATOM     85  F   UNL A   1      40.889  34.865  35.818  1.00  0.00    -0.203 F 
ATOM     86  C   UNL A   1      39.779  35.143  37.875  1.00  0.00     0.198 A 
ATOM     87  C   UNL A   1      38.207  33.492  38.621  1.00  0.00     0.198 A 
ATOM     88  F   UNL A   1      37.808  31.574  37.316  1.00  0.00    -0.203 F 
ATOM     89  F   UNL A   1      40.454  36.282  38.084  1.00  0.00    -0.200 F 
ATOM     90  C   UNL A   1      38.877  34.688  38.825  1.00  0.00     0.200 A 
ATOM     91  F   UNL A   1      37.322  33.056  39.527  1.00  0.00    -0.200 F 
ATOM     92  F   UNL A   1      38.661  35.397  39.941  1.00  0.00    -0.200 F 
ENDBRANCH  58  82
BRANCH  70  93
ATOM     93  C   UNL A   1      44.086  28.287  34.975  1.00  0.00     0.064 A 
ATOM     94  C   UNL A   1      45.356  28.882  35.005  1.00  0.00     0.173 A 
ATOM     95  C   UNL A   1      43.886  27.130  35.745  1.00  0.00     0.173 A 
ATOM     96  F   UNL A   1      45.605  29.981  34.276  1.00  0.00    -0.203 F 
ATOM     97  C   UNL A   1      46.390  28.326  35.754  1.00  0.00     0.198 A 
ATOM     98  C   UNL A   1      44.912  26.598  36.520  1.00  0.00     0.198 A 
ATOM     99  F   UNL A   1      42.689  26.524  35.757  1.00  0.00    -0.203 F 
ATOM    100  F   UNL A   1      47.609  28.882  35.726  1.00  0.00    -0.200 F 
ATOM    101  C   UNL A   1      46.165  27.191  36.518  1.00  0.00     0.200 A 
ATOM    102  F   UNL A   1      44.686  25.511  37.271  1.00  0.00    -0.200 F 
ATOM    103  F   UNL A   1      47.158  26.665  37.249  1.00  0.00    -0.200 F 
ENDBRANCH  70  93
ENDBRANCH  44  45
ENDBRANCH  36  39
ENDBRANCH  34  35
ENDBRANCH  33  34
ENDBRANCH  32  33
ENDBRANCH   1  32
TORSDOF 16
ENDMDL
MODEL 3
REMARK VINA RESULT:     -13.0      1.760      7.408
REMARK SMILES O=C1[NH+]=C(Nc2ccc(C(=O)NCCCCCCNC(=O)c3ccc(-c4c5nc(c(-c6c(F)c(F)c(F)c(F)c6F)c6ccc([nH]6)c(-c6c(F)c(F)c(F)c(F)c6F)c6nc(c(-c7c(F)c(F)c(F)c(F)c7F)c7ccc4[nH]7)C=C6)C=C5)cc3)c(O)c2)S/C1=C\c1ccc[nH]1
REMARK SMILES IDX 15 1 14 2 13 3 12 4 10 5 11 6 9 8 6 9 7 10 87 11 8 12 85 13
REMARK SMILES IDX 5 14 1 15 2 16 3 17 89 18 4 19 88 21 90 22 91 24 92 25 95 26
REMARK SMILES IDX 93 27 94 28 86 30 16 32 17 33 18 34 19 35 20 36 21 38 22 39
REMARK SMILES IDX 23 40 84 41 24 42 83 43 25 44 26 45 27 46 77 47 28 48 82 49
REMARK SMILES IDX 76 50 78 51 29 52 81 53 75 54 74 55 30 57 62 58 42 59 61 60
REMARK SMILES IDX 43 61 46 62 60 63 79 64 44 65 45 66 59 68 80 69 47 70 31 71
REMARK SMILES IDX 32 72 40 73 33 74 34 75 38 76 41 77 35 78 36 79 39 80 37 81
REMARK SMILES IDX 63 82 64 83 72 84 65 85 66 86 70 87 73 88 67 89 68 90 71 91
REMARK SMILES IDX 69 92 48 93 49 94 57 95 50 96 51 97 55 98 58 99 52 100
REMARK SMILES IDX 53 101 56 102 54 103
REMARK H PARENT 12 7 3 20 5 23 95 29 86 31 19 37 78 56 46 67
REMARK Flexibility Score: inf
ROOT
ATOM      1  C   UNL A   1      34.535  31.812  28.318  1.00  0.00     0.002 C 
ENDROOT
BRANCH   1   2
ATOM      2  C   UNL A   1      33.227  31.422  27.620  1.00  0.00     0.021 C 
BRANCH   2   3
ATOM      3  C   UNL A   1      33.254  30.138  26.796  1.00  0.00     0.116 C 
BRANCH   3   4
ATOM      4  N   UNL A   1      32.204  30.047  25.797  1.00  0.00    -0.352 N 
ATOM      5  C   UNL A   1      31.695  28.952  25.142  1.00  0.00     0.255 C 
ATOM      6  O   UNL A   1      30.807  29.123  24.307  1.00  0.00    -0.269 OA
ATOM      7  H   UNL A   1      31.792  30.906  25.550  1.00  0.00     0.163 HD
BRANCH   5   8
ATOM      8  C   UNL A   1      32.214  27.580  25.372  1.00  0.00     0.081 A 
ATOM      9  C   UNL A   1      32.924  24.876  25.802  1.00  0.00     0.129 A 
ATOM     10  C   UNL A   1      31.818  25.437  26.448  1.00  0.00     0.053 A 
ATOM     11  C   UNL A   1      33.704  25.703  24.986  1.00  0.00     0.098 A 
ATOM     12  C   UNL A   1      31.468  26.775  26.242  1.00  0.00     0.022 A 
ATOM     13  C   UNL A   1      33.375  27.050  24.806  1.00  0.00     0.132 A 
BRANCH   9  14
ATOM     14  N   UNL A   1      33.224  23.512  25.881  1.00  0.00    -0.234 N 
ATOM     15  O   UNL A   1      31.776  21.389  21.988  1.00  0.00    -0.240 OA
ATOM     16  C   UNL A   1      32.220  21.502  23.124  1.00  0.00     0.346 C 
ATOM     17  N   UNL A   1      32.347  22.690  23.805  1.00  0.00    -0.199 N 
ATOM     18  C   UNL A   1      32.704  20.347  23.933  1.00  0.00     0.111 C 
ATOM     19  C   UNL A   1      32.890  22.557  24.969  1.00  0.00     0.322 C 
ATOM     20  H   UNL A   1      32.054  23.556  23.441  1.00  0.00     0.316 HD
ATOM     21  S   UNL A   1      33.309  20.924  25.435  1.00  0.00     0.006 SA
ATOM     22  C   UNL A   1      32.664  19.088  23.474  1.00  0.00     0.050 C 
ATOM     23  H   UNL A   1      33.727  23.213  26.673  1.00  0.00     0.313 HD
BRANCH  22  24
ATOM     24  C   UNL A   1      33.063  17.981  24.258  1.00  0.00     0.039 A 
ATOM     25  C   UNL A   1      34.240  17.267  24.371  1.00  0.00     0.027 A 
ATOM     26  N   UNL A   1      32.157  17.424  25.129  1.00  0.00    -0.362 N 
ATOM     27  C   UNL A   1      34.025  16.227  25.304  1.00  0.00     0.020 A 
ATOM     28  C   UNL A   1      32.727  16.341  25.749  1.00  0.00     0.083 A 
ATOM     29  H   UNL A   1      31.242  17.751  25.284  1.00  0.00     0.166 HD
ENDBRANCH  22  24
ENDBRANCH   9  14
BRANCH  13  30
ATOM     30  O   UNL A   1      34.279  27.782  24.087  1.00  0.00    -0.507 OA
ATOM     31  H   UNL A   1      34.382  27.629  23.169  1.00  0.00     0.293 HD
ENDBRANCH  13  30
ENDBRANCH   5   8
ENDBRANCH   3   4
ENDBRANCH   2   3
ENDBRANCH   1   2
BRANCH   1  32
ATOM     32  C   UNL A   1      34.619  33.230  28.890  1.00  0.00     0.002 C 
BRANCH  32  33
ATOM     33  C   UNL A   1      33.381  34.111  28.716  1.00  0.00     0.021 C 
BRANCH  33  34
ATOM     34  C   UNL A   1      33.536  35.567  29.139  1.00  0.00     0.116 C 
BRANCH  34  35
ATOM     35  N   UNL A   1      32.614  35.955  30.192  1.00  0.00    -0.352 N 
ATOM     36  C   UNL A   1      32.661  35.695  31.540  1.00  0.00     0.251 C 
ATOM     37  H   UNL A   1      31.837  36.484  29.896  1.00  0.00     0.163 HD
ATOM     38  O   UNL A   1      31.710  35.989  32.259  1.00  0.00    -0.269 OA
BRANCH  36  39
ATOM     39  C   UNL A   1      33.844  35.027  32.126  1.00  0.00     0.039 A 
ATOM     40  C   UNL A   1      33.688  33.755  32.680  1.00  0.00     0.014 A 
ATOM     41  C   UNL A   1      35.098  35.642  32.125  1.00  0.00     0.014 A 
ATOM     42  C   UNL A   1      34.804  33.067  33.161  1.00  0.00     0.010 A 
ATOM     43  C   UNL A   1      36.221  34.927  32.535  1.00  0.00     0.010 A 
ATOM     44  C   UNL A   1      36.088  33.628  33.049  1.00  0.00    -0.014 A 
BRANCH  44  45
ATOM     45  C   UNL A   1      37.299  32.857  33.433  1.00  0.00     0.031 A 
ATOM     46  C   UNL A   1      38.025  33.166  34.712  1.00  0.00     0.074 A 
ATOM     47  C   UNL A   1      37.782  31.922  32.591  1.00  0.00     0.049 A 
ATOM     48  N   UNL A   1      39.137  32.652  35.177  1.00  0.00    -0.248 NA
ATOM     49  C   UNL A   1      37.439  34.205  35.572  1.00  0.00     0.031 C 
ATOM     50  C   UNL A   1      37.191  31.561  31.301  1.00  0.00     0.029 A 
ATOM     51  N   UNL A   1      38.888  31.114  32.685  1.00  0.00    -0.354 N 
ATOM     52  C   UNL A   1      39.385  33.308  36.374  1.00  0.00     0.074 A 
ATOM     53  C   UNL A   1      38.340  34.295  36.539  1.00  0.00     0.031 C 
ATOM     54  C   UNL A   1      37.926  30.591  30.736  1.00  0.00     0.029 A 
ATOM     55  C   UNL A   1      39.067  30.295  31.596  1.00  0.00     0.049 A 
ATOM     56  H   UNL A   1      39.495  31.120  33.460  1.00  0.00     0.167 HD
ATOM     57  C   UNL A   1      40.384  33.092  37.265  1.00  0.00     0.037 A 
ATOM     58  C   UNL A   1      40.050  29.418  31.313  1.00  0.00     0.037 A 
ATOM     59  C   UNL A   1      41.414  32.100  37.100  1.00  0.00     0.049 A 
ATOM     60  C   UNL A   1      41.167  29.225  32.304  1.00  0.00     0.074 A 
ATOM     61  C   UNL A   1      42.434  31.764  37.973  1.00  0.00     0.029 A 
ATOM     62  N   UNL A   1      41.563  31.290  35.984  1.00  0.00    -0.354 N 
ATOM     63  N   UNL A   1      41.350  29.799  33.468  1.00  0.00    -0.248 NA
ATOM     64  C   UNL A   1      42.215  28.262  31.941  1.00  0.00     0.031 C 
ATOM     65  C   UNL A   1      43.238  30.801  37.358  1.00  0.00     0.029 A 
ATOM     66  C   UNL A   1      42.682  30.484  36.130  1.00  0.00     0.049 A 
ATOM     67  H   UNL A   1      40.964  31.290  35.203  1.00  0.00     0.167 HD
ATOM     68  C   UNL A   1      42.513  29.247  33.988  1.00  0.00     0.074 A 
ATOM     69  C   UNL A   1      42.983  28.278  33.021  1.00  0.00     0.031 C 
ATOM     70  C   UNL A   1      43.138  29.520  35.160  1.00  0.00     0.037 A 
BRANCH  57  71
ATOM     71  C   UNL A   1      40.416  33.948  38.500  1.00  0.00     0.064 A 
ATOM     72  C   UNL A   1      39.713  33.595  39.662  1.00  0.00     0.173 A 
ATOM     73  C   UNL A   1      41.204  35.108  38.540  1.00  0.00     0.173 A 
ATOM     74  F   UNL A   1      38.938  32.499  39.675  1.00  0.00    -0.203 F 
ATOM     75  C   UNL A   1      39.774  34.386  40.806  1.00  0.00     0.198 A 
ATOM     76  C   UNL A   1      41.291  35.878  39.697  1.00  0.00     0.198 A 
ATOM     77  F   UNL A   1      41.904  35.489  37.460  1.00  0.00    -0.203 F 
ATOM     78  F   UNL A   1      39.055  34.054  41.887  1.00  0.00    -0.200 F 
ATOM     79  C   UNL A   1      40.570  35.522  40.826  1.00  0.00     0.200 A 
ATOM     80  F   UNL A   1      42.074  36.966  39.719  1.00  0.00    -0.200 F 
ATOM     81  F   UNL A   1      40.639  36.275  41.932  1.00  0.00    -0.200 F 
ENDBRANCH  57  71
BRANCH  58  82
ATOM     82  C   UNL A   1      40.024  28.654  30.037  1.00  0.00     0.064 A 
ATOM     83  C   UNL A   1      39.422  27.390  29.964  1.00  0.00     0.173 A 
ATOM     84  C   UNL A   1      40.617  29.161  28.870  1.00  0.00     0.173 A 
ATOM     85  F   UNL A   1      38.861  26.852  31.055  1.00  0.00    -0.203 F 
ATOM     86  C   UNL A   1      39.437  26.652  28.782  1.00  0.00     0.198 A 
ATOM     87  C   UNL A   1      40.601  28.437  27.680  1.00  0.00     0.198 A 
ATOM     88  F   UNL A   1      41.203  30.368  28.883  1.00  0.00    -0.203 F 
ATOM     89  F   UNL A   1      38.906  25.422  28.756  1.00  0.00    -0.200 F 
ATOM     90  C   UNL A   1      40.021  27.178  27.640  1.00  0.00     0.200 A 
ATOM     91  F   UNL A   1      41.151  28.957  26.575  1.00  0.00    -0.200 F 
ATOM     92  F   UNL A   1      40.035  26.469  26.503  1.00  0.00    -0.200 F 
ENDBRANCH  58  82
BRANCH  70  93
ATOM     93  C   UNL A   1      44.381  28.739  35.481  1.00  0.00     0.064 A 
ATOM     94  C   UNL A   1      45.657  29.207  35.129  1.00  0.00     0.173 A 
ATOM     95  C   UNL A   1      44.298  27.531  36.190  1.00  0.00     0.173 A 
ATOM     96  F   UNL A   1      45.791  30.348  34.438  1.00  0.00    -0.203 F 
ATOM     97  C   UNL A   1      46.799  28.481  35.453  1.00  0.00     0.198 A 
ATOM     98  C   UNL A   1      45.445  26.826  36.543  1.00  0.00     0.198 A 
ATOM     99  F   UNL A   1      43.103  27.042  36.555  1.00  0.00    -0.203 F 
ATOM    100  F   UNL A   1      48.003  28.920  35.062  1.00  0.00    -0.200 F 
ATOM    101  C   UNL A   1      46.694  27.296  36.167  1.00  0.00     0.200 A 
ATOM    102  F   UNL A   1      45.341  25.691  37.248  1.00  0.00    -0.200 F 
ATOM    103  F   UNL A   1      47.796  26.605  36.489  1.00  0.00    -0.200 F 
ENDBRANCH  70  93
ENDBRANCH  44  45
ENDBRANCH  36  39
ENDBRANCH  34  35
ENDBRANCH  33  34
ENDBRANCH  32  33
ENDBRANCH   1  32
TORSDOF 16
ENDMDL
