MODEL 1
REMARK VINA RESULT:     -12.7      0.000      0.000
REMARK SMILES O=C(NCCCCCCNC(=O)c1csc(-c2ccnc(N3CCOCC3)c2)n1)c1ccc(-c2c3nc(c(-c4c(F)c(F)c(F)c(F)c4F)c4ccc([nH]4)c(-c4c(F)c(F)c(F)c(F)c4F)c4nc(c(-c5c(F)c(F)c(F)c(F)c5F)c5ccc2[nH]5)C=C4)C=C3)cc1
REMARK SMILES IDX 6 1 5 2 4 3 3 4 1 5 2 6 30 8 31 9 92 10 32 11 91 12 33 13
REMARK SMILES IDX 34 14 35 15 85 16 36 17 90 18 84 19 86 20 37 21 89 22 83 23
REMARK SMILES IDX 82 24 38 26 70 27 50 28 69 29 51 30 54 31 68 32 87 33 52 34
REMARK SMILES IDX 53 35 67 37 88 38 55 39 39 40 40 41 48 42 41 43 42 44 46 45
REMARK SMILES IDX 49 46 43 47 44 48 47 49 45 50 71 51 72 52 80 53 73 54 74 55
REMARK SMILES IDX 78 56 81 57 75 58 76 59 79 60 77 61 56 62 57 63 65 64 58 65
REMARK SMILES IDX 59 66 63 67 66 68 60 69 61 70 64 71 62 72 7 73 8 74 9 75
REMARK SMILES IDX 10 76 11 77 12 79 13 80 14 81 29 82 15 83 16 84 17 85 18 86
REMARK SMILES IDX 28 87 19 88 21 89 20 90 22 91 23 92 27 93 24 94 26 95 25 96
REMARK H PARENT 3 7 86 25 54 36 10 78
REMARK Flexibility Score: inf
ROOT
ATOM      1  C   UNL A   1      31.483  30.548  26.057  1.00  0.00     0.002 C 
ENDROOT
BRANCH   1   2
ATOM      2  C   UNL A   1      31.397  32.007  26.505  1.00  0.00     0.021 C 
BRANCH   2   3
ATOM      3  C   UNL A   1      32.663  32.544  27.163  1.00  0.00     0.116 C 
BRANCH   3   4
ATOM      4  N   UNL A   1      32.499  33.911  27.628  1.00  0.00    -0.352 N 
ATOM      5  O   UNL A   1      32.738  35.655  29.037  1.00  0.00    -0.269 OA
ATOM      6  C   UNL A   1      33.141  34.564  28.647  1.00  0.00     0.251 C 
ATOM      7  H   UNL A   1      31.830  34.444  27.141  1.00  0.00     0.163 HD
BRANCH   6   8
ATOM      8  C   UNL A   1      34.319  33.945  29.289  1.00  0.00     0.039 A 
ATOM      9  C   UNL A   1      34.168  32.900  30.206  1.00  0.00     0.014 A 
ATOM     10  C   UNL A   1      35.594  34.399  28.942  1.00  0.00     0.014 A 
ATOM     11  C   UNL A   1      35.283  32.385  30.860  1.00  0.00     0.010 A 
ATOM     12  C   UNL A   1      36.716  33.829  29.543  1.00  0.00     0.010 A 
ATOM     13  C   UNL A   1      36.568  32.832  30.521  1.00  0.00    -0.014 A 
BRANCH  13  14
ATOM     14  C   UNL A   1      37.763  32.208  31.140  1.00  0.00     0.031 A 
ATOM     15  C   UNL A   1      38.543  31.153  30.414  1.00  0.00     0.074 A 
ATOM     16  C   UNL A   1      38.114  32.573  32.388  1.00  0.00     0.049 A 
ATOM     17  N   UNL A   1      39.551  30.433  30.835  1.00  0.00    -0.248 NA
ATOM     18  C   UNL A   1      38.126  30.858  29.035  1.00  0.00     0.031 C 
ATOM     19  C   UNL A   1      37.424  33.583  33.192  1.00  0.00     0.029 A 
ATOM     20  N   UNL A   1      39.120  32.125  33.204  1.00  0.00    -0.354 N 
ATOM     21  C   UNL A   1      39.874  29.584  29.786  1.00  0.00     0.074 A 
ATOM     22  C   UNL A   1      38.938  29.861  28.717  1.00  0.00     0.031 C 
ATOM     23  C   UNL A   1      38.025  33.676  34.386  1.00  0.00     0.029 A 
ATOM     24  C   UNL A   1      39.099  32.692  34.454  1.00  0.00     0.049 A 
ATOM     25  H   UNL A   1      39.792  31.463  32.921  1.00  0.00     0.167 HD
ATOM     26  C   UNL A   1      40.865  28.661  29.726  1.00  0.00     0.037 A 
ATOM     27  C   UNL A   1      39.831  32.421  35.550  1.00  0.00     0.037 A 
ATOM     28  C   UNL A   1      41.789  28.397  30.799  1.00  0.00     0.049 A 
ATOM     29  C   UNL A   1      40.896  31.364  35.476  1.00  0.00     0.074 A 
ATOM     30  C   UNL A   1      42.861  27.520  30.821  1.00  0.00     0.029 A 
ATOM     31  N   UNL A   1      41.738  28.993  32.052  1.00  0.00    -0.354 N 
ATOM     32  N   UNL A   1      41.230  30.602  34.464  1.00  0.00    -0.248 NA
ATOM     33  C   UNL A   1      41.686  31.130  36.691  1.00  0.00     0.031 C 
ATOM     34  C   UNL A   1      43.414  27.539  32.104  1.00  0.00     0.029 A 
ATOM     35  C   UNL A   1      42.736  28.478  32.865  1.00  0.00     0.049 A 
ATOM     36  H   UNL A   1      41.089  29.682  32.323  1.00  0.00     0.167 HD
ATOM     37  C   UNL A   1      42.283  29.816  34.908  1.00  0.00     0.074 A 
ATOM     38  C   UNL A   1      42.535  30.197  36.282  1.00  0.00     0.031 C 
ATOM     39  C   UNL A   1      42.980  28.870  34.232  1.00  0.00     0.037 A 
BRANCH  26  40
ATOM     40  C   UNL A   1      40.973  27.839  28.470  1.00  0.00     0.064 A 
ATOM     41  C   UNL A   1      40.298  26.618  28.319  1.00  0.00     0.173 A 
ATOM     42  C   UNL A   1      41.757  28.289  27.395  1.00  0.00     0.173 A 
ATOM     43  F   UNL A   1      39.541  26.137  29.316  1.00  0.00    -0.203 F 
ATOM     44  C   UNL A   1      40.443  25.857  27.160  1.00  0.00     0.198 A 
ATOM     45  C   UNL A   1      41.870  27.543  26.225  1.00  0.00     0.198 A 
ATOM     46  F   UNL A   1      42.415  29.455  27.480  1.00  0.00    -0.203 F 
ATOM     47  F   UNL A   1      39.842  24.662  27.066  1.00  0.00    -0.200 F 
ATOM     48  C   UNL A   1      41.224  26.322  26.114  1.00  0.00     0.200 A 
ATOM     49  F   UNL A   1      42.613  28.003  25.209  1.00  0.00    -0.200 F 
ATOM     50  F   UNL A   1      41.364  25.587  25.002  1.00  0.00    -0.200 F 
ENDBRANCH  26  40
BRANCH  27  51
ATOM     51  C   UNL A   1      39.550  33.161  36.805  1.00  0.00     0.064 A 
ATOM     52  C   UNL A   1      40.186  34.377  37.086  1.00  0.00     0.173 A 
ATOM     53  C   UNL A   1      38.589  32.699  37.717  1.00  0.00     0.173 A 
ATOM     54  F   UNL A   1      41.122  34.852  36.250  1.00  0.00    -0.203 F 
ATOM     55  C   UNL A   1      39.873  35.102  38.234  1.00  0.00     0.198 A 
ATOM     56  C   UNL A   1      38.256  33.439  38.849  1.00  0.00     0.198 A 
ATOM     57  F   UNL A   1      37.945  31.545  37.487  1.00  0.00    -0.203 F 
ATOM     58  F   UNL A   1      40.512  36.251  38.492  1.00  0.00    -0.200 F 
ATOM     59  C   UNL A   1      38.901  34.638  39.108  1.00  0.00     0.200 A 
ATOM     60  F   UNL A   1      37.301  32.998  39.678  1.00  0.00    -0.200 F 
ATOM     61  F   UNL A   1      38.585  35.349  40.200  1.00  0.00    -0.200 F 
ENDBRANCH  27  51
BRANCH  39  62
ATOM     62  C   UNL A   1      44.118  28.201  34.948  1.00  0.00     0.064 A 
ATOM     63  C   UNL A   1      45.399  28.768  34.993  1.00  0.00     0.173 A 
ATOM     64  C   UNL A   1      43.897  27.015  35.665  1.00  0.00     0.173 A 
ATOM     65  F   UNL A   1      45.664  29.891  34.309  1.00  0.00    -0.203 F 
ATOM     66  C   UNL A   1      46.420  28.168  35.726  1.00  0.00     0.198 A 
ATOM     67  C   UNL A   1      44.912  26.435  36.420  1.00  0.00     0.198 A 
ATOM     68  F   UNL A   1      42.688  26.434  35.656  1.00  0.00    -0.203 F 
ATOM     69  F   UNL A   1      47.646  28.711  35.731  1.00  0.00    -0.200 F 
ATOM     70  C   UNL A   1      46.173  27.010  36.448  1.00  0.00     0.200 A 
ATOM     71  F   UNL A   1      44.666  25.325  37.130  1.00  0.00    -0.200 F 
ATOM     72  F   UNL A   1      47.151  26.447  37.170  1.00  0.00    -0.200 F 
ENDBRANCH  39  62
ENDBRANCH  13  14
ENDBRANCH   6   8
ENDBRANCH   3   4
ENDBRANCH   2   3
ENDBRANCH   1   2
BRANCH   1  73
ATOM     73  C   UNL A   1      32.013  29.575  27.115  1.00  0.00     0.002 C 
BRANCH  73  74
ATOM     74  C   UNL A   1      32.699  28.325  26.558  1.00  0.00     0.021 C 
BRANCH  74  75
ATOM     75  C   UNL A   1      31.813  27.463  25.660  1.00  0.00     0.116 C 
BRANCH  75  76
ATOM     76  N   UNL A   1      30.788  26.781  26.434  1.00  0.00    -0.351 N 
ATOM     77  C   UNL A   1      30.231  25.548  26.204  1.00  0.00     0.270 C 
ATOM     78  H   UNL A   1      30.450  27.266  27.221  1.00  0.00     0.163 HD
ATOM     79  O   UNL A   1      29.189  25.240  26.789  1.00  0.00    -0.267 OA
BRANCH  77  80
ATOM     80  C   UNL A   1      30.881  24.656  25.249  1.00  0.00     0.139 A 
ATOM     81  C   UNL A   1      30.722  24.752  23.879  1.00  0.00     0.101 A 
ATOM     82  N   UNL A   1      31.705  23.607  25.660  1.00  0.00    -0.231 NA
ATOM     83  S   UNL A   1      31.700  23.589  23.087  1.00  0.00    -0.122 S 
ATOM     84  C   UNL A   1      32.224  23.002  24.616  1.00  0.00     0.124 A 
BRANCH  84  85
ATOM     85  C   UNL A   1      33.176  21.902  24.696  1.00  0.00     0.016 A 
ATOM     86  C   UNL A   1      34.524  22.152  24.926  1.00  0.00     0.031 A 
ATOM     87  C   UNL A   1      32.755  20.585  24.517  1.00  0.00     0.058 A 
ATOM     88  C   UNL A   1      35.367  21.064  25.046  1.00  0.00     0.114 A 
ATOM     89  C   UNL A   1      33.664  19.543  24.648  1.00  0.00     0.129 A 
ATOM     90  N   UNL A   1      34.957  19.780  24.947  1.00  0.00    -0.239 NA
BRANCH  89  91
ATOM     91  N   UNL A   1      33.241  18.250  24.525  1.00  0.00    -0.352 N 
ATOM     92  C   UNL A   1      32.627  17.505  25.615  1.00  0.00     0.146 C 
ATOM     93  C   UNL A   1      33.316  17.564  23.242  1.00  0.00     0.146 C 
ATOM     94  C   UNL A   1      33.334  16.149  25.749  1.00  0.00     0.181 C 
ATOM     95  C   UNL A   1      34.019  16.213  23.478  1.00  0.00     0.181 C 
ATOM     96  O   UNL A   1      33.360  15.436  24.499  1.00  0.00    -0.378 OA
ENDBRANCH  89  91
ENDBRANCH  84  85
ENDBRANCH  77  80
ENDBRANCH  75  76
ENDBRANCH  74  75
ENDBRANCH  73  74
ENDBRANCH   1  73
TORSDOF 15
ENDMDL
MODEL 2
REMARK VINA RESULT:     -12.7      1.337      2.126
REMARK SMILES O=C(NCCCCCCNC(=O)c1csc(-c2ccnc(N3CCOCC3)c2)n1)c1ccc(-c2c3nc(c(-c4c(F)c(F)c(F)c(F)c4F)c4ccc([nH]4)c(-c4c(F)c(F)c(F)c(F)c4F)c4nc(c(-c5c(F)c(F)c(F)c(F)c5F)c5ccc2[nH]5)C=C4)C=C3)cc1
REMARK SMILES IDX 6 1 5 2 4 3 3 4 1 5 2 6 30 8 31 9 92 10 32 11 91 12 33 13
REMARK SMILES IDX 34 14 35 15 85 16 36 17 90 18 84 19 86 20 37 21 89 22 83 23
REMARK SMILES IDX 82 24 38 26 70 27 50 28 69 29 51 30 54 31 68 32 87 33 52 34
REMARK SMILES IDX 53 35 67 37 88 38 55 39 39 40 40 41 48 42 41 43 42 44 46 45
REMARK SMILES IDX 49 46 43 47 44 48 47 49 45 50 71 51 72 52 80 53 73 54 74 55
REMARK SMILES IDX 78 56 81 57 75 58 76 59 79 60 77 61 56 62 57 63 65 64 58 65
REMARK SMILES IDX 59 66 63 67 66 68 60 69 61 70 64 71 62 72 7 73 8 74 9 75
REMARK SMILES IDX 10 76 11 77 12 79 13 80 14 81 29 82 15 83 16 84 17 85 18 86
REMARK SMILES IDX 28 87 19 88 21 89 20 90 22 91 23 92 27 93 24 94 26 95 25 96
REMARK H PARENT 3 7 86 25 54 36 10 78
REMARK Flexibility Score: inf
ROOT
ATOM      1  C   UNL A   1      31.412  30.914  25.953  1.00  0.00     0.002 C 
ENDROOT
BRANCH   1   2
ATOM      2  C   UNL A   1      31.261  32.311  26.557  1.00  0.00     0.021 C 
BRANCH   2   3
ATOM      3  C   UNL A   1      32.529  32.867  27.194  1.00  0.00     0.116 C 
BRANCH   3   4
ATOM      4  N   UNL A   1      32.352  34.232  27.660  1.00  0.00    -0.352 N 
ATOM      5  O   UNL A   1      32.579  35.979  29.069  1.00  0.00    -0.269 OA
ATOM      6  C   UNL A   1      32.993  34.892  28.676  1.00  0.00     0.251 C 
ATOM      7  H   UNL A   1      31.674  34.758  27.178  1.00  0.00     0.163 HD
BRANCH   6   8
ATOM      8  C   UNL A   1      34.182  34.286  29.310  1.00  0.00     0.039 A 
ATOM      9  C   UNL A   1      34.051  33.442  30.417  1.00  0.00     0.014 A 
ATOM     10  C   UNL A   1      35.443  34.545  28.766  1.00  0.00     0.014 A 
ATOM     11  C   UNL A   1      35.187  32.947  31.050  1.00  0.00     0.010 A 
ATOM     12  C   UNL A   1      36.576  33.986  29.357  1.00  0.00     0.010 A 
ATOM     13  C   UNL A   1      36.458  33.199  30.514  1.00  0.00    -0.014 A 
BRANCH  13  14
ATOM     14  C   UNL A   1      37.662  32.583  31.125  1.00  0.00     0.031 A 
ATOM     15  C   UNL A   1      38.383  31.462  30.440  1.00  0.00     0.074 A 
ATOM     16  C   UNL A   1      38.073  33.018  32.331  1.00  0.00     0.049 A 
ATOM     17  N   UNL A   1      39.389  30.742  30.868  1.00  0.00    -0.248 NA
ATOM     18  C   UNL A   1      37.902  31.090  29.102  1.00  0.00     0.031 C 
ATOM     19  C   UNL A   1      37.443  34.097  33.093  1.00  0.00     0.029 A 
ATOM     20  N   UNL A   1      39.101  32.596  33.135  1.00  0.00    -0.354 N 
ATOM     21  C   UNL A   1      39.646  29.817  29.865  1.00  0.00     0.074 A 
ATOM     22  C   UNL A   1      38.674  30.051  28.818  1.00  0.00     0.031 C 
ATOM     23  C   UNL A   1      38.095  34.251  34.254  1.00  0.00     0.029 A 
ATOM     24  C   UNL A   1      39.145  33.243  34.345  1.00  0.00     0.049 A 
ATOM     25  H   UNL A   1      39.742  31.898  32.870  1.00  0.00     0.167 HD
ATOM     26  C   UNL A   1      40.610  28.864  29.827  1.00  0.00     0.037 A 
ATOM     27  C   UNL A   1      39.915  33.023  35.427  1.00  0.00     0.037 A 
ATOM     28  C   UNL A   1      41.571  28.645  30.878  1.00  0.00     0.049 A 
ATOM     29  C   UNL A   1      40.948  31.934  35.380  1.00  0.00     0.074 A 
ATOM     30  C   UNL A   1      42.619  27.741  30.915  1.00  0.00     0.029 A 
ATOM     31  N   UNL A   1      41.587  29.323  32.089  1.00  0.00    -0.354 N 
ATOM     32  N   UNL A   1      41.220  31.098  34.408  1.00  0.00    -0.248 NA
ATOM     33  C   UNL A   1      41.782  31.757  36.576  1.00  0.00     0.031 C 
ATOM     34  C   UNL A   1      43.225  27.827  32.172  1.00  0.00     0.029 A 
ATOM     35  C   UNL A   1      42.603  28.832  32.895  1.00  0.00     0.049 A 
ATOM     36  H   UNL A   1      40.967  30.046  32.341  1.00  0.00     0.167 HD
ATOM     37  C   UNL A   1      42.270  30.313  34.861  1.00  0.00     0.074 A 
ATOM     38  C   UNL A   1      42.589  30.775  36.196  1.00  0.00     0.031 C 
ATOM     39  C   UNL A   1      42.914  29.306  34.222  1.00  0.00     0.037 A 
BRANCH  26  40
ATOM     40  C   UNL A   1      40.644  27.960  28.625  1.00  0.00     0.064 A 
ATOM     41  C   UNL A   1      41.419  28.256  27.493  1.00  0.00     0.173 A 
ATOM     42  C   UNL A   1      39.897  26.772  28.612  1.00  0.00     0.173 A 
ATOM     43  F   UNL A   1      42.148  29.381  27.448  1.00  0.00    -0.203 F 
ATOM     44  C   UNL A   1      41.406  27.421  26.377  1.00  0.00     0.198 A 
ATOM     45  C   UNL A   1      39.914  25.922  27.509  1.00  0.00     0.198 A 
ATOM     46  F   UNL A   1      39.147  26.433  29.672  1.00  0.00    -0.203 F 
ATOM     47  F   UNL A   1      42.101  27.759  25.282  1.00  0.00    -0.200 F 
ATOM     48  C   UNL A   1      40.658  26.254  26.388  1.00  0.00     0.200 A 
ATOM     49  F   UNL A   1      39.203  24.786  27.529  1.00  0.00    -0.200 F 
ATOM     50  F   UNL A   1      40.645  25.455  25.312  1.00  0.00    -0.200 F 
ENDBRANCH  26  40
BRANCH  27  51
ATOM     51  C   UNL A   1      39.706  33.851  36.640  1.00  0.00     0.064 A 
ATOM     52  C   UNL A   1      40.266  35.130  36.749  1.00  0.00     0.173 A 
ATOM     53  C   UNL A   1      38.883  33.405  37.686  1.00  0.00     0.173 A 
ATOM     54  F   UNL A   1      41.071  35.593  35.780  1.00  0.00    -0.203 F 
ATOM     55  C   UNL A   1      40.016  35.931  37.862  1.00  0.00     0.198 A 
ATOM     56  C   UNL A   1      38.609  34.218  38.783  1.00  0.00     0.198 A 
ATOM     57  F   UNL A   1      38.314  32.193  37.623  1.00  0.00    -0.203 F 
ATOM     58  F   UNL A   1      40.583  37.141  37.953  1.00  0.00    -0.200 F 
ATOM     59  C   UNL A   1      39.179  35.479  38.871  1.00  0.00     0.200 A 
ATOM     60  F   UNL A   1      37.783  33.786  39.744  1.00  0.00    -0.200 F 
ATOM     61  F   UNL A   1      38.920  36.260  39.929  1.00  0.00    -0.200 F 
ENDBRANCH  27  51
BRANCH  39  62
ATOM     62  C   UNL A   1      44.063  28.653  34.935  1.00  0.00     0.064 A 
ATOM     63  C   UNL A   1      43.885  27.521  35.743  1.00  0.00     0.173 A 
ATOM     64  C   UNL A   1      45.371  29.123  34.738  1.00  0.00     0.173 A 
ATOM     65  F   UNL A   1      42.653  27.045  35.976  1.00  0.00    -0.203 F 
ATOM     66  C   UNL A   1      44.975  26.887  36.334  1.00  0.00     0.198 A 
ATOM     67  C   UNL A   1      46.460  28.468  35.307  1.00  0.00     0.198 A 
ATOM     68  F   UNL A   1      45.594  30.200  33.972  1.00  0.00    -0.203 F 
ATOM     69  F   UNL A   1      44.780  25.825  37.128  1.00  0.00    -0.200 F 
ATOM     70  C   UNL A   1      46.262  27.353  36.106  1.00  0.00     0.200 A 
ATOM     71  F   UNL A   1      47.703  28.912  35.071  1.00  0.00    -0.200 F 
ATOM     72  F   UNL A   1      47.311  26.728  36.657  1.00  0.00    -0.200 F 
ENDBRANCH  39  62
ENDBRANCH  13  14
ENDBRANCH   6   8
ENDBRANCH   3   4
ENDBRANCH   2   3
ENDBRANCH   1   2
BRANCH   1  73
ATOM     73  C   UNL A   1      32.090  29.884  26.863  1.00  0.00     0.002 C 
BRANCH  73  74
ATOM     74  C   UNL A   1      33.420  29.335  26.340  1.00  0.00     0.021 C 
BRANCH  74  75
ATOM     75  C   UNL A   1      33.290  28.092  25.462  1.00  0.00     0.116 C 
BRANCH  75  76
ATOM     76  N   UNL A   1      33.498  28.416  24.060  1.00  0.00    -0.351 N 
ATOM     77  C   UNL A   1      33.623  27.554  23.000  1.00  0.00     0.270 C 
ATOM     78  H   UNL A   1      33.559  29.374  23.845  1.00  0.00     0.163 HD
ATOM     79  O   UNL A   1      34.067  27.977  21.929  1.00  0.00    -0.267 OA
BRANCH  77  80
ATOM     80  C   UNL A   1      33.250  26.155  23.189  1.00  0.00     0.139 A 
ATOM     81  C   UNL A   1      32.022  25.633  22.824  1.00  0.00     0.101 A 
ATOM     82  N   UNL A   1      34.113  25.233  23.782  1.00  0.00    -0.231 NA
ATOM     83  S   UNL A   1      31.984  23.947  23.125  1.00  0.00    -0.122 S 
ATOM     84  C   UNL A   1      33.576  24.035  23.768  1.00  0.00     0.124 A 
BRANCH  84  85
ATOM     85  C   UNL A   1      34.241  22.834  24.256  1.00  0.00     0.016 A 
ATOM     86  C   UNL A   1      35.438  22.925  24.957  1.00  0.00     0.031 A 
ATOM     87  C   UNL A   1      33.701  21.572  24.005  1.00  0.00     0.058 A 
ATOM     88  C   UNL A   1      35.989  21.754  25.441  1.00  0.00     0.114 A 
ATOM     89  C   UNL A   1      34.317  20.440  24.521  1.00  0.00     0.129 A 
ATOM     90  N   UNL A   1      35.436  20.533  25.266  1.00  0.00    -0.239 NA
BRANCH  89  91
ATOM     91  N   UNL A   1      33.759  19.209  24.320  1.00  0.00    -0.352 N 
ATOM     92  C   UNL A   1      34.455  17.962  24.603  1.00  0.00     0.146 C 
ATOM     93  C   UNL A   1      32.377  19.086  23.875  1.00  0.00     0.146 C 
ATOM     94  C   UNL A   1      34.344  17.043  23.378  1.00  0.00     0.181 C 
ATOM     95  C   UNL A   1      32.363  18.136  22.661  1.00  0.00     0.181 C 
ATOM     96  O   UNL A   1      32.976  16.866  22.967  1.00  0.00    -0.378 OA
ENDBRANCH  89  91
ENDBRANCH  84  85
ENDBRANCH  77  80
ENDBRANCH  75  76
ENDBRANCH  74  75
ENDBRANCH  73  74
ENDBRANCH   1  73
TORSDOF 15
ENDMDL
MODEL 3
REMARK VINA RESULT:     -12.6      5.329     11.353
REMARK SMILES O=C(NCCCCCCNC(=O)c1csc(-c2ccnc(N3CCOCC3)c2)n1)c1ccc(-c2c3nc(c(-c4c(F)c(F)c(F)c(F)c4F)c4ccc([nH]4)c(-c4c(F)c(F)c(F)c(F)c4F)c4nc(c(-c5c(F)c(F)c(F)c(F)c5F)c5ccc2[nH]5)C=C4)C=C3)cc1
REMARK SMILES IDX 6 1 5 2 4 3 3 4 1 5 2 6 30 8 31 9 92 10 32 11 91 12 33 13
REMARK SMILES IDX 34 14 35 15 85 16 36 17 90 18 84 19 86 20 37 21 89 22 83 23
REMARK SMILES IDX 82 24 38 26 70 27 50 28 69 29 51 30 54 31 68 32 87 33 52 34
REMARK SMILES IDX 53 35 67 37 88 38 55 39 39 40 40 41 48 42 41 43 42 44 46 45
REMARK SMILES IDX 49 46 43 47 44 48 47 49 45 50 71 51 72 52 80 53 73 54 74 55
REMARK SMILES IDX 78 56 81 57 75 58 76 59 79 60 77 61 56 62 57 63 65 64 58 65
REMARK SMILES IDX 59 66 63 67 66 68 60 69 61 70 64 71 62 72 7 73 8 74 9 75
REMARK SMILES IDX 10 76 11 77 12 79 13 80 14 81 29 82 15 83 16 84 17 85 18 86
REMARK SMILES IDX 28 87 19 88 21 89 20 90 22 91 23 92 27 93 24 94 26 95 25 96
REMARK H PARENT 3 7 86 25 54 36 10 78
REMARK Flexibility Score: inf
ROOT
ATOM      1  C   UNL A   1      36.909  20.327  25.029  1.00  0.00     0.002 C 
ENDROOT
BRANCH   1   2
ATOM      2  C   UNL A   1      38.244  19.589  24.906  1.00  0.00     0.021 C 
BRANCH   2   3
ATOM      3  C   UNL A   1      39.257  19.927  25.993  1.00  0.00     0.116 C 
BRANCH   3   4
ATOM      4  N   UNL A   1      40.408  19.040  25.961  1.00  0.00    -0.352 N 
ATOM      5  O   UNL A   1      42.589  18.493  25.780  1.00  0.00    -0.269 OA
ATOM      6  C   UNL A   1      41.742  19.347  26.026  1.00  0.00     0.251 C 
ATOM      7  H   UNL A   1      40.199  18.082  25.879  1.00  0.00     0.163 HD
BRANCH   6   8
ATOM      8  C   UNL A   1      42.164  20.718  26.381  1.00  0.00     0.039 A 
ATOM      9  C   UNL A   1      42.233  21.122  27.718  1.00  0.00     0.014 A 
ATOM     10  C   UNL A   1      42.525  21.600  25.359  1.00  0.00     0.014 A 
ATOM     11  C   UNL A   1      42.553  22.439  28.029  1.00  0.00     0.010 A 
ATOM     12  C   UNL A   1      42.920  22.899  25.677  1.00  0.00     0.010 A 
ATOM     13  C   UNL A   1      42.918  23.334  27.013  1.00  0.00    -0.014 A 
BRANCH  13  14
ATOM     14  C   UNL A   1      43.363  24.708  27.351  1.00  0.00     0.031 A 
ATOM     15  C   UNL A   1      42.395  25.719  27.890  1.00  0.00     0.074 A 
ATOM     16  C   UNL A   1      44.645  25.050  27.125  1.00  0.00     0.049 A 
ATOM     17  N   UNL A   1      42.584  26.988  28.149  1.00  0.00    -0.248 NA
ATOM     18  C   UNL A   1      41.031  25.245  28.160  1.00  0.00     0.031 C 
ATOM     19  C   UNL A   1      45.672  24.151  26.597  1.00  0.00     0.029 A 
ATOM     20  N   UNL A   1      45.298  26.244  27.291  1.00  0.00    -0.354 N 
ATOM     21  C   UNL A   1      41.359  27.471  28.589  1.00  0.00     0.074 A 
ATOM     22  C   UNL A   1      40.428  26.363  28.538  1.00  0.00     0.031 C 
ATOM     23  C   UNL A   1      46.825  24.825  26.479  1.00  0.00     0.029 A 
ATOM     24  C   UNL A   1      46.602  26.214  26.862  1.00  0.00     0.049 A 
ATOM     25  H   UNL A   1      44.874  27.044  27.678  1.00  0.00     0.167 HD
ATOM     26  C   UNL A   1      41.047  28.724  29.000  1.00  0.00     0.037 A 
ATOM     27  C   UNL A   1      47.508  27.203  26.748  1.00  0.00     0.037 A 
ATOM     28  C   UNL A   1      41.986  29.816  29.045  1.00  0.00     0.049 A 
ATOM     29  C   UNL A   1      47.130  28.594  27.168  1.00  0.00     0.074 A 
ATOM     30  C   UNL A   1      41.785  31.110  29.494  1.00  0.00     0.029 A 
ATOM     31  N   UNL A   1      43.301  29.747  28.606  1.00  0.00    -0.354 N 
ATOM     32  N   UNL A   1      45.985  29.032  27.633  1.00  0.00    -0.248 NA
ATOM     33  C   UNL A   1      48.166  29.628  27.052  1.00  0.00     0.031 C 
ATOM     34  C   UNL A   1      42.956  31.839  29.264  1.00  0.00     0.029 A 
ATOM     35  C   UNL A   1      43.912  30.985  28.738  1.00  0.00     0.049 A 
ATOM     36  H   UNL A   1      43.737  28.939  28.251  1.00  0.00     0.167 HD
ATOM     37  C   UNL A   1      46.167  30.383  27.888  1.00  0.00     0.074 A 
ATOM     38  C   UNL A   1      47.535  30.693  27.529  1.00  0.00     0.031 C 
ATOM     39  C   UNL A   1      45.279  31.280  28.382  1.00  0.00     0.037 A 
BRANCH  26  40
ATOM     40  C   UNL A   1      39.620  28.991  29.394  1.00  0.00     0.064 A 
ATOM     41  C   UNL A   1      39.160  28.794  30.705  1.00  0.00     0.173 A 
ATOM     42  C   UNL A   1      38.700  29.461  28.443  1.00  0.00     0.173 A 
ATOM     43  F   UNL A   1      39.994  28.340  31.652  1.00  0.00    -0.203 F 
ATOM     44  C   UNL A   1      37.824  29.013  31.037  1.00  0.00     0.198 A 
ATOM     45  C   UNL A   1      37.374  29.713  28.787  1.00  0.00     0.198 A 
ATOM     46  F   UNL A   1      39.086  29.678  27.177  1.00  0.00    -0.203 F 
ATOM     47  F   UNL A   1      37.394  28.754  32.280  1.00  0.00    -0.200 F 
ATOM     48  C   UNL A   1      36.935  29.476  30.080  1.00  0.00     0.200 A 
ATOM     49  F   UNL A   1      36.520  30.176  27.864  1.00  0.00    -0.200 F 
ATOM     50  F   UNL A   1      35.650  29.683  30.402  1.00  0.00    -0.200 F 
ENDBRANCH  26  40
BRANCH  27  51
ATOM     51  C   UNL A   1      48.848  26.891  26.191  1.00  0.00     0.064 A 
ATOM     52  C   UNL A   1      49.863  26.365  26.999  1.00  0.00     0.173 A 
ATOM     53  C   UNL A   1      49.116  27.051  24.823  1.00  0.00     0.173 A 
ATOM     54  F   UNL A   1      49.657  26.207  28.315  1.00  0.00    -0.203 F 
ATOM     55  C   UNL A   1      51.100  26.013  26.460  1.00  0.00     0.198 A 
ATOM     56  C   UNL A   1      50.342  26.671  24.280  1.00  0.00     0.198 A 
ATOM     57  F   UNL A   1      48.172  27.541  24.005  1.00  0.00    -0.203 F 
ATOM     58  F   UNL A   1      52.063  25.533  27.258  1.00  0.00    -0.200 F 
ATOM     59  C   UNL A   1      51.333  26.156  25.101  1.00  0.00     0.200 A 
ATOM     60  F   UNL A   1      50.554  26.791  22.963  1.00  0.00    -0.200 F 
ATOM     61  F   UNL A   1      52.515  25.795  24.580  1.00  0.00    -0.200 F 
ENDBRANCH  27  51
BRANCH  39  62
ATOM     62  C   UNL A   1      45.762  32.683  28.609  1.00  0.00     0.064 A 
ATOM     63  C   UNL A   1      46.419  33.057  29.790  1.00  0.00     0.173 A 
ATOM     64  C   UNL A   1      45.636  33.644  27.593  1.00  0.00     0.173 A 
ATOM     65  F   UNL A   1      46.548  32.180  30.797  1.00  0.00    -0.203 F 
ATOM     66  C   UNL A   1      46.925  34.345  29.949  1.00  0.00     0.198 A 
ATOM     67  C   UNL A   1      46.170  34.920  27.744  1.00  0.00     0.198 A 
ATOM     68  F   UNL A   1      45.019  33.335  26.443  1.00  0.00    -0.203 F 
ATOM     69  F   UNL A   1      47.522  34.691  31.098  1.00  0.00    -0.200 F 
ATOM     70  C   UNL A   1      46.812  35.271  28.922  1.00  0.00     0.200 A 
ATOM     71  F   UNL A   1      46.073  35.807  26.744  1.00  0.00    -0.200 F 
ATOM     72  F   UNL A   1      47.320  36.502  29.068  1.00  0.00    -0.200 F 
ENDBRANCH  39  62
ENDBRANCH  13  14
ENDBRANCH   6   8
ENDBRANCH   3   4
ENDBRANCH   2   3
ENDBRANCH   1   2
BRANCH   1  73
ATOM     73  C   UNL A   1      36.881  21.725  24.405  1.00  0.00     0.002 C 
BRANCH  73  74
ATOM     74  C   UNL A   1      37.444  22.840  25.290  1.00  0.00     0.021 C 
BRANCH  74  75
ATOM     75  C   UNL A   1      36.386  23.737  25.929  1.00  0.00     0.116 C 
BRANCH  75  76
ATOM     76  N   UNL A   1      35.451  22.960  26.726  1.00  0.00    -0.351 N 
ATOM     77  C   UNL A   1      34.096  23.133  26.852  1.00  0.00     0.270 C 
ATOM     78  H   UNL A   1      35.840  22.216  27.239  1.00  0.00     0.163 HD
ATOM     79  O   UNL A   1      33.500  22.566  27.772  1.00  0.00    -0.267 OA
BRANCH  77  80
ATOM     80  C   UNL A   1      33.412  24.008  25.905  1.00  0.00     0.139 A 
ATOM     81  C   UNL A   1      32.888  23.574  24.701  1.00  0.00     0.101 A 
ATOM     82  N   UNL A   1      33.255  25.374  26.140  1.00  0.00    -0.231 NA
ATOM     83  S   UNL A   1      32.093  24.864  23.902  1.00  0.00    -0.122 S 
ATOM     84  C   UNL A   1      32.545  25.922  25.180  1.00  0.00     0.124 A 
BRANCH  84  85
ATOM     85  C   UNL A   1      32.148  27.323  25.153  1.00  0.00     0.016 A 
ATOM     86  C   UNL A   1      32.822  28.264  25.923  1.00  0.00     0.031 A 
ATOM     87  C   UNL A   1      31.068  27.739  24.373  1.00  0.00     0.058 A 
ATOM     88  C   UNL A   1      32.433  29.584  25.811  1.00  0.00     0.114 A 
ATOM     89  C   UNL A   1      30.734  29.086  24.316  1.00  0.00     0.129 A 
ATOM     90  N   UNL A   1      31.436  30.009  25.003  1.00  0.00    -0.239 NA
BRANCH  89  91
ATOM     91  N   UNL A   1      29.710  29.500  23.511  1.00  0.00    -0.352 N 
ATOM     92  C   UNL A   1      29.432  30.901  23.231  1.00  0.00     0.146 C 
ATOM     93  C   UNL A   1      28.875  28.529  22.817  1.00  0.00     0.146 C 
ATOM     94  C   UNL A   1      27.941  31.171  23.479  1.00  0.00     0.181 C 
ATOM     95  C   UNL A   1      27.404  28.889  23.107  1.00  0.00     0.181 C 
ATOM     96  O   UNL A   1      27.105  30.255  22.749  1.00  0.00    -0.378 OA
ENDBRANCH  89  91
ENDBRANCH  84  85
ENDBRANCH  77  80
ENDBRANCH  75  76
ENDBRANCH  74  75
ENDBRANCH  73  74
ENDBRANCH   1  73
TORSDOF 15
ENDMDL
