MODEL 1
REMARK VINA RESULT:     -13.4      0.000      0.000
REMARK SMILES Cc1ccc(S(=O)(=O)CC(=O)N2CCC(C(=O)NCCCCCCNC(=O)c3ccc(-c4c5nc(c(-c6c(F)c(F)c(F)c(F)c6F)c6ccc([nH]6)c(-c6c(F)c(F)c(F)c(F)c6F)c6nc(c(-c7c(F)c(F)c(F)c(F)c7F)c7ccc4[nH]7)C=C6)C=C5)cc3)CC2)cc1
REMARK SMILES IDX 21 1 20 2 19 3 18 4 16 5 17 6 15 8 10 9 11 10 12 11 13 12
REMARK SMILES IDX 92 13 14 14 91 15 9 16 6 17 7 18 8 19 5 20 1 21 2 22 3 23
REMARK SMILES IDX 94 24 4 25 93 26 22 27 23 28 24 29 25 30 26 31 27 33 28 34
REMARK SMILES IDX 29 35 90 36 30 37 89 38 31 39 32 40 33 41 83 42 34 43 88 44
REMARK SMILES IDX 82 45 84 46 35 47 87 48 81 49 80 50 36 52 68 53 48 54 67 55
REMARK SMILES IDX 49 56 52 57 66 58 85 59 50 60 51 61 65 63 86 64 53 65 37 66
REMARK SMILES IDX 38 67 46 68 39 69 40 70 44 71 47 72 41 73 42 74 45 75 43 76
REMARK SMILES IDX 69 77 70 78 78 79 71 80 72 81 76 82 79 83 73 84 74 85 77 86
REMARK SMILES IDX 75 87 54 88 55 89 63 90 56 91 57 92 61 93 64 94 58 95 59 96
REMARK SMILES IDX 62 97 60 98
REMARK H PARENT 18 7 25 32 84 51 52 62
REMARK Flexibility Score: inf
ROOT
ATOM      1  C   UNL A   1      36.280  23.191  24.885  1.00  0.00     0.002 C 
ENDROOT
BRANCH   1   2
ATOM      2  C   UNL A   1      36.083  21.695  24.603  1.00  0.00     0.021 C 
BRANCH   2   3
ATOM      3  C   UNL A   1      35.170  20.955  25.582  1.00  0.00     0.116 C 
BRANCH   3   4
ATOM      4  N   UNL A   1      34.527  19.806  24.972  1.00  0.00    -0.356 N 
ATOM      5  C   UNL A   1      33.302  19.664  24.398  1.00  0.00     0.223 C 
ATOM      6  O   UNL A   1      33.027  18.571  23.895  1.00  0.00    -0.275 OA
ATOM      7  H   UNL A   1      35.071  18.986  24.975  1.00  0.00     0.163 HD
BRANCH   5   8
ATOM      8  C   UNL A   1      32.289  20.801  24.353  1.00  0.00     0.082 C 
ATOM      9  C   UNL A   1      32.552  24.655  25.093  1.00  0.00     0.238 C 
ATOM     10  O   UNL A   1      33.278  24.583  26.087  1.00  0.00    -0.274 OA
ATOM     11  N   UNL A   1      31.748  23.592  24.710  1.00  0.00    -0.342 N 
ATOM     12  C   UNL A   1      31.229  22.674  25.715  1.00  0.00     0.120 C 
ATOM     13  C   UNL A   1      31.740  23.069  23.353  1.00  0.00     0.120 C 
ATOM     14  C   UNL A   1      32.003  21.367  25.755  1.00  0.00     0.035 C 
ATOM     15  C   UNL A   1      32.652  21.847  23.284  1.00  0.00     0.035 C 
BRANCH   9  16
ATOM     16  C   UNL A   1      32.285  25.970  24.432  1.00  0.00     0.242 C 
BRANCH  16  17
ATOM     17  S   UNL A   1      31.294  27.132  25.280  1.00  0.00     0.187 S 
ATOM     18  O   UNL A   1      30.691  26.434  26.403  1.00  0.00    -0.223 OA
ATOM     19  O   UNL A   1      30.428  27.750  24.288  1.00  0.00    -0.223 OA
BRANCH  17  20
ATOM     20  C   UNL A   1      32.247  28.439  25.998  1.00  0.00     0.067 A 
ATOM     21  C   UNL A   1      34.226  31.621  28.109  1.00  0.00     0.044 C 
ATOM     22  C   UNL A   1      33.568  30.520  27.328  1.00  0.00    -0.051 A 
ATOM     23  C   UNL A   1      32.316  30.741  26.745  1.00  0.00     0.005 A 
ATOM     24  C   UNL A   1      34.150  29.249  27.237  1.00  0.00     0.005 A 
ATOM     25  C   UNL A   1      31.659  29.709  26.077  1.00  0.00     0.020 A 
ATOM     26  C   UNL A   1      33.488  28.203  26.583  1.00  0.00     0.020 A 
ENDBRANCH  17  20
ENDBRANCH  16  17
ENDBRANCH   9  16
ENDBRANCH   5   8
ENDBRANCH   3   4
ENDBRANCH   2   3
ENDBRANCH   1   2
BRANCH   1  27
ATOM     27  C   UNL A   1      37.543  23.584  25.668  1.00  0.00     0.002 C 
BRANCH  27  28
ATOM     28  C   UNL A   1      38.610  22.499  25.831  1.00  0.00     0.021 C 
BRANCH  28  29
ATOM     29  C   UNL A   1      39.624  22.772  26.933  1.00  0.00     0.116 C 
BRANCH  29  30
ATOM     30  N   UNL A   1      40.950  23.133  26.445  1.00  0.00    -0.352 N 
ATOM     31  C   UNL A   1      41.533  24.387  26.354  1.00  0.00     0.251 C 
ATOM     32  H   UNL A   1      41.508  22.383  26.137  1.00  0.00     0.163 HD
ATOM     33  O   UNL A   1      42.654  24.522  25.894  1.00  0.00    -0.269 OA
BRANCH  31  34
ATOM     34  C   UNL A   1      40.827  25.546  26.950  1.00  0.00     0.039 A 
ATOM     35  C   UNL A   1      40.800  26.740  26.221  1.00  0.00     0.014 A 
ATOM     36  C   UNL A   1      40.406  25.520  28.276  1.00  0.00     0.014 A 
ATOM     37  C   UNL A   1      40.601  27.942  26.893  1.00  0.00     0.010 A 
ATOM     38  C   UNL A   1      40.305  26.712  28.963  1.00  0.00     0.010 A 
ATOM     39  C   UNL A   1      40.485  27.921  28.281  1.00  0.00    -0.014 A 
BRANCH  39  40
ATOM     40  C   UNL A   1      40.647  29.103  29.118  1.00  0.00     0.031 A 
ATOM     41  C   UNL A   1      39.578  30.117  29.185  1.00  0.00     0.074 A 
ATOM     42  C   UNL A   1      41.752  29.223  29.887  1.00  0.00     0.049 A 
ATOM     43  N   UNL A   1      39.721  31.282  29.721  1.00  0.00    -0.248 NA
ATOM     44  C   UNL A   1      38.273  29.928  28.564  1.00  0.00     0.031 C 
ATOM     45  C   UNL A   1      41.979  30.159  30.986  1.00  0.00     0.029 A 
ATOM     46  N   UNL A   1      43.019  28.660  29.646  1.00  0.00    -0.354 N 
ATOM     47  C   UNL A   1      38.490  31.886  29.756  1.00  0.00     0.074 A 
ATOM     48  C   UNL A   1      37.659  31.064  28.911  1.00  0.00     0.031 C 
ATOM     49  C   UNL A   1      43.299  30.361  31.112  1.00  0.00     0.029 A 
ATOM     50  C   UNL A   1      43.940  29.679  30.004  1.00  0.00     0.049 A 
ATOM     51  H   UNL A   1      43.221  27.760  29.304  1.00  0.00     0.167 HD
ATOM     52  C   UNL A   1      38.315  32.946  30.594  1.00  0.00     0.037 A 
ATOM     53  C   UNL A   1      44.716  30.279  29.054  1.00  0.00     0.037 A 
ATOM     54  C   UNL A   1      39.612  33.498  31.005  1.00  0.00     0.049 A 
ATOM     55  C   UNL A   1      44.502  31.773  28.903  1.00  0.00     0.074 A 
ATOM     56  C   UNL A   1      40.366  33.512  32.166  1.00  0.00     0.029 A 
ATOM     57  N   UNL A   1      40.451  33.972  30.008  1.00  0.00    -0.354 N 
ATOM     58  N   UNL A   1      43.597  32.462  29.544  1.00  0.00    -0.248 NA
ATOM     59  C   UNL A   1      45.234  32.586  27.932  1.00  0.00     0.031 C 
ATOM     60  C   UNL A   1      41.681  33.975  31.838  1.00  0.00     0.029 A 
ATOM     61  C   UNL A   1      41.715  34.257  30.484  1.00  0.00     0.049 A 
ATOM     62  H   UNL A   1      40.177  34.091  29.070  1.00  0.00     0.167 HD
ATOM     63  C   UNL A   1      43.595  33.751  29.082  1.00  0.00     0.074 A 
ATOM     64  C   UNL A   1      44.629  33.778  28.065  1.00  0.00     0.031 C 
ATOM     65  C   UNL A   1      42.725  34.700  29.536  1.00  0.00     0.037 A 
BRANCH  52  66
ATOM     66  C   UNL A   1      36.985  33.414  31.165  1.00  0.00     0.064 A 
ATOM     67  C   UNL A   1      36.669  33.162  32.521  1.00  0.00     0.173 A 
ATOM     68  C   UNL A   1      35.928  33.997  30.431  1.00  0.00     0.173 A 
ATOM     69  F   UNL A   1      37.565  32.620  33.357  1.00  0.00    -0.203 F 
ATOM     70  C   UNL A   1      35.407  33.431  33.069  1.00  0.00     0.198 A 
ATOM     71  C   UNL A   1      34.681  34.297  30.987  1.00  0.00     0.198 A 
ATOM     72  F   UNL A   1      36.019  34.275  29.130  1.00  0.00    -0.203 F 
ATOM     73  F   UNL A   1      35.156  33.114  34.347  1.00  0.00    -0.200 F 
ATOM     74  C   UNL A   1      34.413  33.999  32.302  1.00  0.00     0.200 A 
ATOM     75  F   UNL A   1      33.733  34.853  30.218  1.00  0.00    -0.200 F 
ATOM     76  F   UNL A   1      33.203  34.246  32.819  1.00  0.00    -0.200 F 
ENDBRANCH  52  66
BRANCH  53  77
ATOM     77  C   UNL A   1      45.097  29.352  27.955  1.00  0.00     0.064 A 
ATOM     78  C   UNL A   1      46.141  28.433  28.185  1.00  0.00     0.173 A 
ATOM     79  C   UNL A   1      44.248  29.107  26.871  1.00  0.00     0.173 A 
ATOM     80  F   UNL A   1      46.987  28.622  29.211  1.00  0.00    -0.203 F 
ATOM     81  C   UNL A   1      46.246  27.257  27.446  1.00  0.00     0.198 A 
ATOM     82  C   UNL A   1      44.372  27.939  26.118  1.00  0.00     0.198 A 
ATOM     83  F   UNL A   1      43.223  29.932  26.611  1.00  0.00    -0.203 F 
ATOM     84  F   UNL A   1      47.171  26.343  27.772  1.00  0.00    -0.200 F 
ATOM     85  C   UNL A   1      45.343  26.998  26.430  1.00  0.00     0.200 A 
ATOM     86  F   UNL A   1      43.482  27.676  25.151  1.00  0.00    -0.200 F 
ATOM     87  F   UNL A   1      45.380  25.827  25.781  1.00  0.00    -0.200 F 
ENDBRANCH  53  77
BRANCH  65  88
ATOM     88  C   UNL A   1      42.747  36.132  29.075  1.00  0.00     0.064 A 
ATOM     89  C   UNL A   1      42.061  36.565  27.928  1.00  0.00     0.173 A 
ATOM     90  C   UNL A   1      43.547  37.101  29.717  1.00  0.00     0.173 A 
ATOM     91  F   UNL A   1      41.338  35.705  27.194  1.00  0.00    -0.203 F 
ATOM     92  C   UNL A   1      42.118  37.891  27.493  1.00  0.00     0.198 A 
ATOM     93  C   UNL A   1      43.645  38.410  29.251  1.00  0.00     0.198 A 
ATOM     94  F   UNL A   1      44.238  36.813  30.829  1.00  0.00    -0.203 F 
ATOM     95  F   UNL A   1      41.397  38.273  26.430  1.00  0.00    -0.200 F 
ATOM     96  C   UNL A   1      42.915  38.811  28.150  1.00  0.00     0.200 A 
ATOM     97  F   UNL A   1      44.442  39.284  29.883  1.00  0.00    -0.200 F 
ATOM     98  F   UNL A   1      42.982  40.079  27.722  1.00  0.00    -0.200 F 
ENDBRANCH  65  88
ENDBRANCH  39  40
ENDBRANCH  31  34
ENDBRANCH  29  30
ENDBRANCH  28  29
ENDBRANCH  27  28
ENDBRANCH   1  27
TORSDOF 16
ENDMDL
MODEL 2
REMARK VINA RESULT:     -13.3      4.112     10.437
REMARK SMILES Cc1ccc(S(=O)(=O)CC(=O)N2CCC(C(=O)NCCCCCCNC(=O)c3ccc(-c4c5nc(c(-c6c(F)c(F)c(F)c(F)c6F)c6ccc([nH]6)c(-c6c(F)c(F)c(F)c(F)c6F)c6nc(c(-c7c(F)c(F)c(F)c(F)c7F)c7ccc4[nH]7)C=C6)C=C5)cc3)CC2)cc1
REMARK SMILES IDX 21 1 20 2 19 3 18 4 16 5 17 6 15 8 10 9 11 10 12 11 13 12
REMARK SMILES IDX 92 13 14 14 91 15 9 16 6 17 7 18 8 19 5 20 1 21 2 22 3 23
REMARK SMILES IDX 94 24 4 25 93 26 22 27 23 28 24 29 25 30 26 31 27 33 28 34
REMARK SMILES IDX 29 35 90 36 30 37 89 38 31 39 32 40 33 41 83 42 34 43 88 44
REMARK SMILES IDX 82 45 84 46 35 47 87 48 81 49 80 50 36 52 68 53 48 54 67 55
REMARK SMILES IDX 49 56 52 57 66 58 85 59 50 60 51 61 65 63 86 64 53 65 37 66
REMARK SMILES IDX 38 67 46 68 39 69 40 70 44 71 47 72 41 73 42 74 45 75 43 76
REMARK SMILES IDX 69 77 70 78 78 79 71 80 72 81 76 82 79 83 73 84 74 85 77 86
REMARK SMILES IDX 75 87 54 88 55 89 63 90 56 91 57 92 61 93 64 94 58 95 59 96
REMARK SMILES IDX 62 97 60 98
REMARK H PARENT 18 7 25 32 84 51 52 62
REMARK Flexibility Score: inf
ROOT
ATOM      1  C   UNL A   1      32.795  28.394  26.246  1.00  0.00     0.002 C 
ENDROOT
BRANCH   1   2
ATOM      2  C   UNL A   1      31.740  29.386  25.739  1.00  0.00     0.021 C 
BRANCH   2   3
ATOM      3  C   UNL A   1      31.714  29.602  24.225  1.00  0.00     0.116 C 
BRANCH   3   4
ATOM      4  N   UNL A   1      30.363  29.761  23.716  1.00  0.00    -0.356 N 
ATOM      5  C   UNL A   1      29.512  28.871  23.140  1.00  0.00     0.223 C 
ATOM      6  O   UNL A   1      28.380  29.265  22.849  1.00  0.00    -0.275 OA
ATOM      7  H   UNL A   1      30.001  30.672  23.802  1.00  0.00     0.163 HD
BRANCH   5   8
ATOM      8  C   UNL A   1      29.912  27.427  22.863  1.00  0.00     0.082 C 
ATOM      9  C   UNL A   1      32.959  25.222  24.012  1.00  0.00     0.238 C 
ATOM     10  O   UNL A   1      33.835  26.082  23.904  1.00  0.00    -0.274 OA
ATOM     11  N   UNL A   1      31.782  25.298  23.283  1.00  0.00    -0.342 N 
ATOM     12  C   UNL A   1      31.777  25.938  21.975  1.00  0.00     0.120 C 
ATOM     13  C   UNL A   1      30.471  25.179  23.902  1.00  0.00     0.120 C 
ATOM     14  C   UNL A   1      31.198  27.342  22.023  1.00  0.00     0.035 C 
ATOM     15  C   UNL A   1      29.907  26.577  24.146  1.00  0.00     0.035 C 
BRANCH   9  16
ATOM     16  C   UNL A   1      33.240  23.924  24.701  1.00  0.00     0.242 C 
BRANCH  16  17
ATOM     17  S   UNL A   1      34.242  22.755  23.876  1.00  0.00     0.187 S 
ATOM     18  O   UNL A   1      34.578  23.323  22.581  1.00  0.00    -0.223 OA
ATOM     19  O   UNL A   1      33.537  21.485  23.927  1.00  0.00    -0.223 OA
BRANCH  17  20
ATOM     20  C   UNL A   1      35.793  22.499  24.691  1.00  0.00     0.067 A 
ATOM     21  C   UNL A   1      39.755  21.812  26.217  1.00  0.00     0.044 C 
ATOM     22  C   UNL A   1      38.352  22.048  25.737  1.00  0.00    -0.051 A 
ATOM     23  C   UNL A   1      37.646  21.004  25.129  1.00  0.00     0.005 A 
ATOM     24  C   UNL A   1      37.764  23.317  25.815  1.00  0.00     0.005 A 
ATOM     25  C   UNL A   1      36.369  21.225  24.614  1.00  0.00     0.020 A 
ATOM     26  C   UNL A   1      36.490  23.550  25.283  1.00  0.00     0.020 A 
ENDBRANCH  17  20
ENDBRANCH  16  17
ENDBRANCH   9  16
ENDBRANCH   5   8
ENDBRANCH   3   4
ENDBRANCH   2   3
ENDBRANCH   1   2
BRANCH   1  27
ATOM     27  C   UNL A   1      33.940  28.977  27.089  1.00  0.00     0.002 C 
BRANCH  27  28
ATOM     28  C   UNL A   1      33.784  30.431  27.540  1.00  0.00     0.021 C 
BRANCH  28  29
ATOM     29  C   UNL A   1      35.093  31.199  27.658  1.00  0.00     0.116 C 
BRANCH  29  30
ATOM     30  N   UNL A   1      35.386  31.670  29.006  1.00  0.00    -0.352 N 
ATOM     31  C   UNL A   1      36.280  31.157  29.934  1.00  0.00     0.251 C 
ATOM     32  H   UNL A   1      34.879  32.461  29.300  1.00  0.00     0.163 HD
ATOM     33  O   UNL A   1      36.389  31.659  31.039  1.00  0.00    -0.269 OA
BRANCH  31  34
ATOM     34  C   UNL A   1      37.199  30.073  29.512  1.00  0.00     0.039 A 
ATOM     35  C   UNL A   1      37.312  28.953  30.344  1.00  0.00     0.014 A 
ATOM     36  C   UNL A   1      38.084  30.259  28.455  1.00  0.00     0.014 A 
ATOM     37  C   UNL A   1      38.459  28.168  30.273  1.00  0.00     0.010 A 
ATOM     38  C   UNL A   1      39.265  29.545  28.445  1.00  0.00     0.010 A 
ATOM     39  C   UNL A   1      39.483  28.555  29.410  1.00  0.00    -0.014 A 
BRANCH  39  40
ATOM     40  C   UNL A   1      40.848  28.056  29.509  1.00  0.00     0.031 A 
ATOM     41  C   UNL A   1      41.186  26.712  29.003  1.00  0.00     0.074 A 
ATOM     42  C   UNL A   1      41.814  28.863  30.000  1.00  0.00     0.049 A 
ATOM     43  N   UNL A   1      42.302  26.111  29.240  1.00  0.00    -0.248 NA
ATOM     44  C   UNL A   1      40.241  25.892  28.253  1.00  0.00     0.031 C 
ATOM     45  C   UNL A   1      43.261  28.675  29.926  1.00  0.00     0.029 A 
ATOM     46  N   UNL A   1      41.651  29.924  30.910  1.00  0.00    -0.354 N 
ATOM     47  C   UNL A   1      42.338  24.969  28.480  1.00  0.00     0.074 A 
ATOM     48  C   UNL A   1      40.990  24.815  27.995  1.00  0.00     0.031 C 
ATOM     49  C   UNL A   1      43.832  29.323  30.952  1.00  0.00     0.029 A 
ATOM     50  C   UNL A   1      42.757  29.816  31.792  1.00  0.00     0.049 A 
ATOM     51  H   UNL A   1      40.929  30.592  30.931  1.00  0.00     0.167 HD
ATOM     52  C   UNL A   1      43.544  24.368  28.276  1.00  0.00     0.037 A 
ATOM     53  C   UNL A   1      42.571  29.486  33.104  1.00  0.00     0.037 A 
ATOM     54  C   UNL A   1      44.529  24.841  29.256  1.00  0.00     0.049 A 
ATOM     55  C   UNL A   1      43.244  28.200  33.543  1.00  0.00     0.074 A 
ATOM     56  C   UNL A   1      45.644  25.662  29.233  1.00  0.00     0.029 A 
ATOM     57  N   UNL A   1      44.251  24.625  30.598  1.00  0.00    -0.354 N 
ATOM     58  N   UNL A   1      43.888  27.390  32.746  1.00  0.00    -0.248 NA
ATOM     59  C   UNL A   1      43.151  27.679  34.907  1.00  0.00     0.031 C 
ATOM     60  C   UNL A   1      46.009  25.956  30.586  1.00  0.00     0.029 A 
ATOM     61  C   UNL A   1      45.127  25.300  31.425  1.00  0.00     0.049 A 
ATOM     62  H   UNL A   1      43.516  24.057  30.922  1.00  0.00     0.167 HD
ATOM     63  C   UNL A   1      44.260  26.270  33.441  1.00  0.00     0.074 A 
ATOM     64  C   UNL A   1      43.766  26.492  34.787  1.00  0.00     0.031 C 
ATOM     65  C   UNL A   1      44.916  25.222  32.862  1.00  0.00     0.037 A 
BRANCH  52  66
ATOM     66  C   UNL A   1      43.892  23.455  27.110  1.00  0.00     0.064 A 
ATOM     67  C   UNL A   1      44.686  23.940  26.043  1.00  0.00     0.173 A 
ATOM     68  C   UNL A   1      43.393  22.150  26.903  1.00  0.00     0.173 A 
ATOM     69  F   UNL A   1      45.243  25.158  26.086  1.00  0.00    -0.203 F 
ATOM     70  C   UNL A   1      44.918  23.204  24.873  1.00  0.00     0.198 A 
ATOM     71  C   UNL A   1      43.652  21.403  25.750  1.00  0.00     0.198 A 
ATOM     72  F   UNL A   1      42.596  21.534  27.776  1.00  0.00    -0.203 F 
ATOM     73  F   UNL A   1      45.631  23.746  23.876  1.00  0.00    -0.200 F 
ATOM     74  C   UNL A   1      44.401  21.935  24.727  1.00  0.00     0.200 A 
ATOM     75  F   UNL A   1      43.140  20.168  25.635  1.00  0.00    -0.200 F 
ATOM     76  F   UNL A   1      44.609  21.233  23.605  1.00  0.00    -0.200 F 
ENDBRANCH  52  66
BRANCH  53  77
ATOM     77  C   UNL A   1      41.295  30.016  33.653  1.00  0.00     0.064 A 
ATOM     78  C   UNL A   1      41.221  31.386  33.976  1.00  0.00     0.173 A 
ATOM     79  C   UNL A   1      40.090  29.319  33.518  1.00  0.00     0.173 A 
ATOM     80  F   UNL A   1      42.348  32.103  34.120  1.00  0.00    -0.203 F 
ATOM     81  C   UNL A   1      40.000  32.053  34.029  1.00  0.00     0.198 A 
ATOM     82  C   UNL A   1      38.867  29.987  33.596  1.00  0.00     0.198 A 
ATOM     83  F   UNL A   1      40.090  28.018  33.191  1.00  0.00    -0.203 F 
ATOM     84  F   UNL A   1      39.970  33.381  34.212  1.00  0.00    -0.200 F 
ATOM     85  C   UNL A   1      38.824  31.357  33.811  1.00  0.00     0.200 A 
ATOM     86  F   UNL A   1      37.730  29.317  33.359  1.00  0.00    -0.200 F 
ATOM     87  F   UNL A   1      37.655  32.010  33.765  1.00  0.00    -0.200 F 
ENDBRANCH  53  77
BRANCH  65  88
ATOM     88  C   UNL A   1      45.377  24.010  33.625  1.00  0.00     0.064 A 
ATOM     89  C   UNL A   1      44.540  22.907  33.865  1.00  0.00     0.173 A 
ATOM     90  C   UNL A   1      46.650  23.961  34.231  1.00  0.00     0.173 A 
ATOM     91  F   UNL A   1      43.280  22.888  33.405  1.00  0.00    -0.203 F 
ATOM     92  C   UNL A   1      44.971  21.803  34.604  1.00  0.00     0.198 A 
ATOM     93  C   UNL A   1      47.059  22.882  35.012  1.00  0.00     0.198 A 
ATOM     94  F   UNL A   1      47.544  24.946  34.064  1.00  0.00    -0.203 F 
ATOM     95  F   UNL A   1      44.160  20.747  34.754  1.00  0.00    -0.200 F 
ATOM     96  C   UNL A   1      46.227  21.794  35.183  1.00  0.00     0.200 A 
ATOM     97  F   UNL A   1      48.270  22.899  35.589  1.00  0.00    -0.200 F 
ATOM     98  F   UNL A   1      46.634  20.741  35.905  1.00  0.00    -0.200 F 
ENDBRANCH  65  88
ENDBRANCH  39  40
ENDBRANCH  31  34
ENDBRANCH  29  30
ENDBRANCH  28  29
ENDBRANCH  27  28
ENDBRANCH   1  27
TORSDOF 16
ENDMDL
MODEL 3
REMARK VINA RESULT:     -13.2      4.032     10.612
REMARK SMILES Cc1ccc(S(=O)(=O)CC(=O)N2CCC(C(=O)NCCCCCCNC(=O)c3ccc(-c4c5nc(c(-c6c(F)c(F)c(F)c(F)c6F)c6ccc([nH]6)c(-c6c(F)c(F)c(F)c(F)c6F)c6nc(c(-c7c(F)c(F)c(F)c(F)c7F)c7ccc4[nH]7)C=C6)C=C5)cc3)CC2)cc1
REMARK SMILES IDX 21 1 20 2 19 3 18 4 16 5 17 6 15 8 10 9 11 10 12 11 13 12
REMARK SMILES IDX 92 13 14 14 91 15 9 16 6 17 7 18 8 19 5 20 1 21 2 22 3 23
REMARK SMILES IDX 94 24 4 25 93 26 22 27 23 28 24 29 25 30 26 31 27 33 28 34
REMARK SMILES IDX 29 35 90 36 30 37 89 38 31 39 32 40 33 41 83 42 34 43 88 44
REMARK SMILES IDX 82 45 84 46 35 47 87 48 81 49 80 50 36 52 68 53 48 54 67 55
REMARK SMILES IDX 49 56 52 57 66 58 85 59 50 60 51 61 65 63 86 64 53 65 37 66
REMARK SMILES IDX 38 67 46 68 39 69 40 70 44 71 47 72 41 73 42 74 45 75 43 76
REMARK SMILES IDX 69 77 70 78 78 79 71 80 72 81 76 82 79 83 73 84 74 85 77 86
REMARK SMILES IDX 75 87 54 88 55 89 63 90 56 91 57 92 61 93 64 94 58 95 59 96
REMARK SMILES IDX 62 97 60 98
REMARK H PARENT 18 7 25 32 84 51 52 62
REMARK Flexibility Score: inf
ROOT
ATOM      1  C   UNL A   1      31.189  30.087  25.164  1.00  0.00     0.002 C 
ENDROOT
BRANCH   1   2
ATOM      2  C   UNL A   1      30.727  29.377  23.885  1.00  0.00     0.021 C 
BRANCH   2   3
ATOM      3  C   UNL A   1      31.806  29.167  22.821  1.00  0.00     0.116 C 
BRANCH   3   4
ATOM      4  N   UNL A   1      31.607  27.941  22.070  1.00  0.00    -0.356 N 
ATOM      5  C   UNL A   1      31.914  26.650  22.364  1.00  0.00     0.223 C 
ATOM      6  O   UNL A   1      31.574  25.780  21.557  1.00  0.00    -0.275 OA
ATOM      7  H   UNL A   1      31.175  28.066  21.194  1.00  0.00     0.163 HD
BRANCH   5   8
ATOM      8  C   UNL A   1      32.643  26.260  23.644  1.00  0.00     0.082 C 
ATOM      9  C   UNL A   1      32.947  22.880  25.632  1.00  0.00     0.238 C 
ATOM     10  O   UNL A   1      31.776  22.513  25.513  1.00  0.00    -0.274 OA
ATOM     11  N   UNL A   1      33.294  24.220  25.548  1.00  0.00    -0.342 N 
ATOM     12  C   UNL A   1      32.344  25.244  25.960  1.00  0.00     0.120 C 
ATOM     13  C   UNL A   1      34.357  24.698  24.678  1.00  0.00     0.120 C 
ATOM     14  C   UNL A   1      31.662  25.908  24.775  1.00  0.00     0.035 C 
ATOM     15  C   UNL A   1      33.743  25.217  23.379  1.00  0.00     0.035 C 
BRANCH   9  16
ATOM     16  C   UNL A   1      33.994  21.947  26.155  1.00  0.00     0.242 C 
BRANCH  16  17
ATOM     17  S   UNL A   1      34.813  20.908  25.014  1.00  0.00     0.187 S 
ATOM     18  O   UNL A   1      36.178  20.752  25.488  1.00  0.00    -0.223 OA
ATOM     19  O   UNL A   1      34.586  21.471  23.693  1.00  0.00    -0.223 OA
BRANCH  17  20
ATOM     20  C   UNL A   1      34.139  19.272  24.984  1.00  0.00     0.067 A 
ATOM     21  C   UNL A   1      32.846  15.179  25.249  1.00  0.00     0.044 C 
ATOM     22  C   UNL A   1      33.265  16.613  25.111  1.00  0.00    -0.051 A 
ATOM     23  C   UNL A   1      34.514  16.918  24.559  1.00  0.00     0.005 A 
ATOM     24  C   UNL A   1      32.460  17.653  25.597  1.00  0.00     0.005 A 
ATOM     25  C   UNL A   1      34.948  18.241  24.488  1.00  0.00     0.020 A 
ATOM     26  C   UNL A   1      32.899  18.982  25.547  1.00  0.00     0.020 A 
ENDBRANCH  17  20
ENDBRANCH  16  17
ENDBRANCH   9  16
ENDBRANCH   5   8
ENDBRANCH   3   4
ENDBRANCH   2   3
ENDBRANCH   1   2
BRANCH   1  27
ATOM     27  C   UNL A   1      32.282  29.384  25.986  1.00  0.00     0.002 C 
BRANCH  27  28
ATOM     28  C   UNL A   1      32.762  30.111  27.244  1.00  0.00     0.021 C 
BRANCH  28  29
ATOM     29  C   UNL A   1      34.241  29.922  27.556  1.00  0.00     0.116 C 
BRANCH  29  30
ATOM     30  N   UNL A   1      34.809  30.967  28.397  1.00  0.00    -0.352 N 
ATOM     31  C   UNL A   1      35.994  30.960  29.117  1.00  0.00     0.251 C 
ATOM     32  H   UNL A   1      34.278  31.794  28.465  1.00  0.00     0.163 HD
ATOM     33  O   UNL A   1      36.316  31.917  29.799  1.00  0.00    -0.269 OA
BRANCH  31  34
ATOM     34  C   UNL A   1      36.929  29.824  28.935  1.00  0.00     0.039 A 
ATOM     35  C   UNL A   1      37.149  28.978  30.028  1.00  0.00     0.014 A 
ATOM     36  C   UNL A   1      37.731  29.733  27.801  1.00  0.00     0.014 A 
ATOM     37  C   UNL A   1      38.321  28.231  30.084  1.00  0.00     0.010 A 
ATOM     38  C   UNL A   1      38.938  29.072  27.894  1.00  0.00     0.010 A 
ATOM     39  C   UNL A   1      39.265  28.390  29.072  1.00  0.00    -0.014 A 
BRANCH  39  40
ATOM     40  C   UNL A   1      40.655  27.970  29.196  1.00  0.00     0.031 A 
ATOM     41  C   UNL A   1      41.066  26.624  28.755  1.00  0.00     0.074 A 
ATOM     42  C   UNL A   1      41.575  28.851  29.649  1.00  0.00     0.049 A 
ATOM     43  N   UNL A   1      42.211  26.095  29.022  1.00  0.00    -0.248 NA
ATOM     44  C   UNL A   1      40.169  25.719  28.045  1.00  0.00     0.031 C 
ATOM     45  C   UNL A   1      43.030  28.737  29.584  1.00  0.00     0.029 A 
ATOM     46  N   UNL A   1      41.352  29.943  30.506  1.00  0.00    -0.354 N 
ATOM     47  C   UNL A   1      42.311  24.922  28.318  1.00  0.00     0.074 A 
ATOM     48  C   UNL A   1      40.975  24.673  27.839  1.00  0.00     0.031 C 
ATOM     49  C   UNL A   1      43.562  29.462  30.579  1.00  0.00     0.029 A 
ATOM     50  C   UNL A   1      42.460  29.937  31.393  1.00  0.00     0.049 A 
ATOM     51  H   UNL A   1      40.595  30.573  30.495  1.00  0.00     0.167 HD
ATOM     52  C   UNL A   1      43.548  24.377  28.144  1.00  0.00     0.037 A 
ATOM     53  C   UNL A   1      42.287  29.661  32.720  1.00  0.00     0.037 A 
ATOM     54  C   UNL A   1      44.503  24.949  29.101  1.00  0.00     0.049 A 
ATOM     55  C   UNL A   1      43.026  28.435  33.220  1.00  0.00     0.074 A 
ATOM     56  C   UNL A   1      45.573  25.826  29.039  1.00  0.00     0.029 A 
ATOM     57  N   UNL A   1      44.232  24.782  30.451  1.00  0.00    -0.354 N 
ATOM     58  N   UNL A   1      43.714  27.623  32.464  1.00  0.00    -0.248 NA
ATOM     59  C   UNL A   1      42.956  27.976  34.608  1.00  0.00     0.031 C 
ATOM     60  C   UNL A   1      45.916  26.204  30.377  1.00  0.00     0.029 A 
ATOM     61  C   UNL A   1      45.068  25.542  31.246  1.00  0.00     0.049 A 
ATOM     62  H   UNL A   1      43.527  24.192  30.802  1.00  0.00     0.167 HD
ATOM     63  C   UNL A   1      44.144  26.560  33.212  1.00  0.00     0.074 A 
ATOM     64  C   UNL A   1      43.634  26.819  34.546  1.00  0.00     0.031 C 
ATOM     65  C   UNL A   1      44.856  25.522  32.685  1.00  0.00     0.037 A 
BRANCH  52  66
ATOM     66  C   UNL A   1      43.949  23.429  27.023  1.00  0.00     0.064 A 
ATOM     67  C   UNL A   1      44.822  23.870  26.001  1.00  0.00     0.173 A 
ATOM     68  C   UNL A   1      43.431  22.132  26.812  1.00  0.00     0.173 A 
ATOM     69  F   UNL A   1      45.406  25.075  26.055  1.00  0.00    -0.203 F 
ATOM     70  C   UNL A   1      45.111  23.101  24.865  1.00  0.00     0.198 A 
ATOM     71  C   UNL A   1      43.746  21.352  25.695  1.00  0.00     0.198 A 
ATOM     72  F   UNL A   1      42.562  21.556  27.644  1.00  0.00    -0.203 F 
ATOM     73  F   UNL A   1      45.902  23.603  23.906  1.00  0.00    -0.200 F 
ATOM     74  C   UNL A   1      44.573  21.842  24.713  1.00  0.00     0.200 A 
ATOM     75  F   UNL A   1      43.211  20.128  25.573  1.00  0.00    -0.200 F 
ATOM     76  F   UNL A   1      44.837  21.110  23.622  1.00  0.00    -0.200 F 
ENDBRANCH  52  66
BRANCH  53  77
ATOM     77  C   UNL A   1      40.982  30.148  33.241  1.00  0.00     0.064 A 
ATOM     78  C   UNL A   1      40.782  31.538  33.357  1.00  0.00     0.173 A 
ATOM     79  C   UNL A   1      39.849  29.329  33.269  1.00  0.00     0.173 A 
ATOM     80  F   UNL A   1      41.836  32.371  33.337  1.00  0.00    -0.203 F 
ATOM     81  C   UNL A   1      39.503  32.088  33.365  1.00  0.00     0.198 A 
ATOM     82  C   UNL A   1      38.569  29.883  33.303  1.00  0.00     0.198 A 
ATOM     83  F   UNL A   1      39.969  27.999  33.144  1.00  0.00    -0.203 F 
ATOM     84  F   UNL A   1      39.347  33.420  33.346  1.00  0.00    -0.200 F 
ATOM     85  C   UNL A   1      38.396  31.260  33.310  1.00  0.00     0.200 A 
ATOM     86  F   UNL A   1      37.497  29.081  33.224  1.00  0.00    -0.200 F 
ATOM     87  F   UNL A   1      37.166  31.785  33.220  1.00  0.00    -0.200 F 
ENDBRANCH  53  77
BRANCH  65  88
ATOM     88  C   UNL A   1      45.378  24.374  33.505  1.00  0.00     0.064 A 
ATOM     89  C   UNL A   1      46.704  24.318  33.967  1.00  0.00     0.173 A 
ATOM     90  C   UNL A   1      44.586  23.237  33.768  1.00  0.00     0.173 A 
ATOM     91  F   UNL A   1      47.567  25.310  33.700  1.00  0.00    -0.203 F 
ATOM     92  C   UNL A   1      47.183  23.230  34.700  1.00  0.00     0.198 A 
ATOM     93  C   UNL A   1      45.081  22.129  34.454  1.00  0.00     0.198 A 
ATOM     94  F   UNL A   1      43.300  23.176  33.392  1.00  0.00    -0.203 F 
ATOM     95  F   UNL A   1      48.436  23.248  35.174  1.00  0.00    -0.200 F 
ATOM     96  C   UNL A   1      46.375  22.133  34.936  1.00  0.00     0.200 A 
ATOM     97  F   UNL A   1      44.293  21.062  34.652  1.00  0.00    -0.200 F 
ATOM     98  F   UNL A   1      46.840  21.082  35.625  1.00  0.00    -0.200 F 
ENDBRANCH  65  88
ENDBRANCH  39  40
ENDBRANCH  31  34
ENDBRANCH  29  30
ENDBRANCH  28  29
ENDBRANCH  27  28
ENDBRANCH   1  27
TORSDOF 16
ENDMDL
