MODEL 1
REMARK VINA RESULT:     -13.6      0.000      0.000
REMARK SMILES C[C@H]1Oc2ccccc2C=C1/C=C/C(=O)N[C@H](C(=O)NCCCCCCNC(=O)c1ccc(-c2c3nc(c(-c4c(F)c(F)c(F)c(F)c4F)c4ccc([nH]4)c(-c4c(F)c(F)c(F)c(F)c4F)c4nc(c(-c5c(F)c(F)c(F)c(F)c5F)c5ccc2[nH]5)C=C4)C=C3)cc1)c1ccccc1
REMARK SMILES IDX 23 1 22 2 21 3 20 4 18 5 19 6 17 8 16 9 14 10 15 11 13 13
REMARK SMILES IDX 12 14 11 15 1 16 2 17 3 18 4 19 10 20 5 21 9 22 6 23 8 24
REMARK SMILES IDX 7 25 93 26 94 27 98 28 95 29 97 30 96 31 24 32 25 33 26 34
REMARK SMILES IDX 27 35 28 36 29 38 30 39 31 40 92 41 32 42 91 43 33 44 34 45
REMARK SMILES IDX 35 46 85 47 36 48 90 49 84 50 86 51 37 52 89 53 83 54 82 55
REMARK SMILES IDX 38 57 70 58 50 59 69 60 51 61 54 62 68 63 87 64 52 65 53 66
REMARK SMILES IDX 67 68 88 69 55 70 39 71 40 72 48 73 41 74 42 75 46 76 49 77
REMARK SMILES IDX 43 78 44 79 47 80 45 81 71 82 72 83 80 84 73 85 74 86 78 87
REMARK SMILES IDX 81 88 75 89 76 90 79 91 77 92 56 93 57 94 65 95 58 96 59 97
REMARK SMILES IDX 63 98 66 99 60 100 61 101 64 102 62 103
REMARK H PARENT 20 7 16 12 27 37 86 56 54 67
REMARK Flexibility Score: inf
ROOT
ATOM      1  C   UNL A   1      31.901  25.815  26.590  1.00  0.00     0.002 C 
ENDROOT
BRANCH   1   2
ATOM      2  C   UNL A   1      31.313  24.426  26.289  1.00  0.00     0.021 C 
BRANCH   2   3
ATOM      3  C   UNL A   1      31.907  23.223  27.044  1.00  0.00     0.116 C 
BRANCH   3   4
ATOM      4  N   UNL A   1      33.269  22.841  26.687  1.00  0.00    -0.354 N 
ATOM      5  C   UNL A   1      33.819  22.546  25.453  1.00  0.00     0.247 C 
ATOM      6  O   UNL A   1      35.030  22.758  25.332  1.00  0.00    -0.272 OA
ATOM      7  H   UNL A   1      33.895  22.784  27.444  1.00  0.00     0.163 HD
BRANCH   5   8
ATOM      8  C   UNL A   1      32.960  21.932  24.297  1.00  0.00     0.202 C 
BRANCH   8   9
ATOM      9  N   UNL A   1      33.457  22.310  22.971  1.00  0.00    -0.337 N 
ATOM     10  C   UNL A   1      33.024  23.296  22.134  1.00  0.00     0.244 C 
ATOM     11  O   UNL A   1      33.398  23.346  20.968  1.00  0.00    -0.270 OA
ATOM     12  H   UNL A   1      34.211  21.774  22.636  1.00  0.00     0.164 HD
BRANCH  10  13
ATOM     13  C   UNL A   1      32.296  24.434  22.727  1.00  0.00     0.071 C 
ATOM     14  C   UNL A   1      32.797  25.654  22.989  1.00  0.00     0.013 C 
BRANCH  14  15
ATOM     15  C   UNL A   1      31.931  26.824  23.126  1.00  0.00    -0.007 C 
ATOM     16  C   UNL A   1      33.634  28.422  22.008  1.00  0.00     0.058 C 
ATOM     17  C   UNL A   1      32.565  28.221  23.086  1.00  0.00     0.200 C 
ATOM     18  O   UNL A   1      31.662  29.328  22.887  1.00  0.00    -0.485 OA
ATOM     19  C   UNL A   1      30.325  29.106  22.971  1.00  0.00     0.127 A 
ATOM     20  C   UNL A   1      30.601  26.677  23.236  1.00  0.00     0.019 C 
ATOM     21  C   UNL A   1      29.518  30.228  22.833  1.00  0.00     0.047 A 
ATOM     22  C   UNL A   1      29.756  27.848  23.155  1.00  0.00     0.017 A 
ATOM     23  C   UNL A   1      28.138  30.092  22.903  1.00  0.00     0.004 A 
ATOM     24  C   UNL A   1      28.369  27.708  23.189  1.00  0.00     0.012 A 
ATOM     25  C   UNL A   1      27.563  28.832  23.074  1.00  0.00     0.001 A 
ENDBRANCH  14  15
ENDBRANCH  10  13
ENDBRANCH   8   9
BRANCH   8  26
ATOM     26  C   UNL A   1      32.777  20.397  24.365  1.00  0.00    -0.016 A 
ATOM     27  C   UNL A   1      32.534  19.646  23.202  1.00  0.00     0.006 A 
ATOM     28  C   UNL A   1      32.919  19.677  25.574  1.00  0.00     0.006 A 
ATOM     29  C   UNL A   1      32.388  18.252  23.252  1.00  0.00     0.000 A 
ATOM     30  C   UNL A   1      32.774  18.286  25.623  1.00  0.00     0.000 A 
ATOM     31  C   UNL A   1      32.502  17.574  24.462  1.00  0.00     0.000 A 
ENDBRANCH   8  26
ENDBRANCH   5   8
ENDBRANCH   3   4
ENDBRANCH   2   3
ENDBRANCH   1   2
BRANCH   1  32
ATOM     32  C   UNL A   1      30.913  26.997  26.690  1.00  0.00     0.002 C 
BRANCH  32  33
ATOM     33  C   UNL A   1      31.431  28.350  27.223  1.00  0.00     0.021 C 
BRANCH  33  34
ATOM     34  C   UNL A   1      32.248  29.243  26.269  1.00  0.00     0.116 C 
BRANCH  34  35
ATOM     35  N   UNL A   1      32.030  30.673  26.478  1.00  0.00    -0.352 N 
ATOM     36  C   UNL A   1      32.798  31.620  27.128  1.00  0.00     0.251 C 
ATOM     37  H   UNL A   1      31.195  31.020  26.090  1.00  0.00     0.163 HD
ATOM     38  O   UNL A   1      32.372  32.764  27.262  1.00  0.00    -0.269 OA
BRANCH  36  39
ATOM     39  C   UNL A   1      34.135  31.296  27.689  1.00  0.00     0.039 A 
ATOM     40  C   UNL A   1      34.666  30.017  27.585  1.00  0.00     0.014 A 
ATOM     41  C   UNL A   1      34.927  32.302  28.247  1.00  0.00     0.014 A 
ATOM     42  C   UNL A   1      35.895  29.708  28.206  1.00  0.00     0.010 A 
ATOM     43  C   UNL A   1      36.182  31.995  28.814  1.00  0.00     0.010 A 
ATOM     44  C   UNL A   1      36.654  30.671  28.891  1.00  0.00    -0.014 A 
BRANCH  44  45
ATOM     45  C   UNL A   1      37.835  30.296  29.772  1.00  0.00     0.031 A 
ATOM     46  C   UNL A   1      38.987  29.473  29.203  1.00  0.00     0.074 A 
ATOM     47  C   UNL A   1      37.977  30.710  31.053  1.00  0.00     0.049 A 
ATOM     48  N   UNL A   1      39.982  28.880  29.824  1.00  0.00    -0.248 NA
ATOM     49  C   UNL A   1      39.014  29.279  27.745  1.00  0.00     0.031 C 
ATOM     50  C   UNL A   1      37.038  31.548  31.795  1.00  0.00     0.029 A 
ATOM     51  N   UNL A   1      38.998  30.492  31.963  1.00  0.00    -0.354 N 
ATOM     52  C   UNL A   1      40.680  28.169  28.852  1.00  0.00     0.074 A 
ATOM     53  C   UNL A   1      40.001  28.407  27.597  1.00  0.00     0.031 C 
ATOM     54  C   UNL A   1      37.555  31.839  33.000  1.00  0.00     0.029 A 
ATOM     55  C   UNL A   1      38.816  31.123  33.173  1.00  0.00     0.049 A 
ATOM     56  H   UNL A   1      39.784  29.935  31.762  1.00  0.00     0.167 HD
ATOM     57  C   UNL A   1      41.789  27.396  28.973  1.00  0.00     0.037 A 
ATOM     58  C   UNL A   1      39.542  31.107  34.314  1.00  0.00     0.037 A 
ATOM     59  C   UNL A   1      42.578  27.250  30.169  1.00  0.00     0.049 A 
ATOM     60  C   UNL A   1      40.772  30.244  34.435  1.00  0.00     0.074 A 
ATOM     61  C   UNL A   1      43.749  26.528  30.342  1.00  0.00     0.029 A 
ATOM     62  N   UNL A   1      42.310  27.864  31.379  1.00  0.00    -0.354 N 
ATOM     63  N   UNL A   1      41.357  29.504  33.528  1.00  0.00    -0.248 NA
ATOM     64  C   UNL A   1      41.420  30.183  35.758  1.00  0.00     0.031 C 
ATOM     65  C   UNL A   1      44.175  26.683  31.664  1.00  0.00     0.029 A 
ATOM     66  C   UNL A   1      43.286  27.527  32.304  1.00  0.00     0.049 A 
ATOM     67  H   UNL A   1      41.540  28.452  31.556  1.00  0.00     0.167 HD
ATOM     68  C   UNL A   1      42.427  28.889  34.168  1.00  0.00     0.074 A 
ATOM     69  C   UNL A   1      42.439  29.366  35.532  1.00  0.00     0.031 C 
ATOM     70  C   UNL A   1      43.308  27.993  33.665  1.00  0.00     0.037 A 
BRANCH  57  71
ATOM     71  C   UNL A   1      42.244  26.618  27.770  1.00  0.00     0.064 A 
ATOM     72  C   UNL A   1      43.202  27.119  26.879  1.00  0.00     0.173 A 
ATOM     73  C   UNL A   1      41.781  25.307  27.570  1.00  0.00     0.173 A 
ATOM     74  F   UNL A   1      43.671  28.368  27.024  1.00  0.00    -0.203 F 
ATOM     75  C   UNL A   1      43.665  26.343  25.820  1.00  0.00     0.198 A 
ATOM     76  C   UNL A   1      42.268  24.524  26.528  1.00  0.00     0.198 A 
ATOM     77  F   UNL A   1      40.877  24.774  28.407  1.00  0.00    -0.203 F 
ATOM     78  F   UNL A   1      44.557  26.854  24.958  1.00  0.00    -0.200 F 
ATOM     79  C   UNL A   1      43.207  25.045  25.652  1.00  0.00     0.200 A 
ATOM     80  F   UNL A   1      41.839  23.264  26.380  1.00  0.00    -0.200 F 
ATOM     81  F   UNL A   1      43.670  24.293  24.643  1.00  0.00    -0.200 F 
ENDBRANCH  57  71
BRANCH  58  82
ATOM     82  C   UNL A   1      39.100  31.914  35.486  1.00  0.00     0.064 A 
ATOM     83  C   UNL A   1      39.494  33.252  35.631  1.00  0.00     0.173 A 
ATOM     84  C   UNL A   1      38.300  31.359  36.496  1.00  0.00     0.173 A 
ATOM     85  F   UNL A   1      40.296  33.816  34.715  1.00  0.00    -0.203 F 
ATOM     86  C   UNL A   1      39.103  34.003  36.738  1.00  0.00     0.198 A 
ATOM     87  C   UNL A   1      37.882  32.120  37.586  1.00  0.00     0.198 A 
ATOM     88  F   UNL A   1      37.910  30.079  36.416  1.00  0.00    -0.203 F 
ATOM     89  F   UNL A   1      39.530  35.266  36.873  1.00  0.00    -0.200 F 
ATOM     90  C   UNL A   1      38.289  33.440  37.709  1.00  0.00     0.200 A 
ATOM     91  F   UNL A   1      37.089  31.574  38.516  1.00  0.00    -0.200 F 
ATOM     92  F   UNL A   1      37.905  34.165  38.768  1.00  0.00    -0.200 F 
ENDBRANCH  58  82
BRANCH  70  93
ATOM     93  C   UNL A   1      44.366  27.444  34.578  1.00  0.00     0.064 A 
ATOM     94  C   UNL A   1      44.178  26.232  35.257  1.00  0.00     0.173 A 
ATOM     95  C   UNL A   1      45.607  28.084  34.710  1.00  0.00     0.173 A 
ATOM     96  F   UNL A   1      43.005  25.586  35.173  1.00  0.00    -0.203 F 
ATOM     97  C   UNL A   1      45.191  25.683  36.039  1.00  0.00     0.198 A 
ATOM     98  C   UNL A   1      46.626  27.522  35.476  1.00  0.00     0.198 A 
ATOM     99  F   UNL A   1      45.841  29.242  34.075  1.00  0.00    -0.203 F 
ATOM    100  F   UNL A   1      44.982  24.533  36.695  1.00  0.00    -0.200 F 
ATOM    101  C   UNL A   1      46.418  26.323  36.140  1.00  0.00     0.200 A 
ATOM    102  F   UNL A   1      47.814  28.137  35.563  1.00  0.00    -0.200 F 
ATOM    103  F   UNL A   1      47.398  25.785  36.879  1.00  0.00    -0.200 F 
ENDBRANCH  70  93
ENDBRANCH  44  45
ENDBRANCH  36  39
ENDBRANCH  34  35
ENDBRANCH  33  34
ENDBRANCH  32  33
ENDBRANCH   1  32
TORSDOF 17
ENDMDL
MODEL 2
REMARK VINA RESULT:     -13.4      3.857      9.810
REMARK SMILES C[C@H]1Oc2ccccc2C=C1/C=C/C(=O)N[C@H](C(=O)NCCCCCCNC(=O)c1ccc(-c2c3nc(c(-c4c(F)c(F)c(F)c(F)c4F)c4ccc([nH]4)c(-c4c(F)c(F)c(F)c(F)c4F)c4nc(c(-c5c(F)c(F)c(F)c(F)c5F)c5ccc2[nH]5)C=C4)C=C3)cc1)c1ccccc1
REMARK SMILES IDX 23 1 22 2 21 3 20 4 18 5 19 6 17 8 16 9 14 10 15 11 13 13
REMARK SMILES IDX 12 14 11 15 1 16 2 17 3 18 4 19 10 20 5 21 9 22 6 23 8 24
REMARK SMILES IDX 7 25 93 26 94 27 98 28 95 29 97 30 96 31 24 32 25 33 26 34
REMARK SMILES IDX 27 35 28 36 29 38 30 39 31 40 92 41 32 42 91 43 33 44 34 45
REMARK SMILES IDX 35 46 85 47 36 48 90 49 84 50 86 51 37 52 89 53 83 54 82 55
REMARK SMILES IDX 38 57 70 58 50 59 69 60 51 61 54 62 68 63 87 64 52 65 53 66
REMARK SMILES IDX 67 68 88 69 55 70 39 71 40 72 48 73 41 74 42 75 46 76 49 77
REMARK SMILES IDX 43 78 44 79 47 80 45 81 71 82 72 83 80 84 73 85 74 86 78 87
REMARK SMILES IDX 81 88 75 89 76 90 79 91 77 92 56 93 57 94 65 95 58 96 59 97
REMARK SMILES IDX 63 98 66 99 60 100 61 101 64 102 62 103
REMARK H PARENT 20 7 16 12 27 37 86 56 54 67
REMARK Flexibility Score: inf
ROOT
ATOM      1  C   UNL A   1      34.125  25.462  23.945  1.00  0.00     0.002 C 
ENDROOT
BRANCH   1   2
ATOM      2  C   UNL A   1      33.631  25.334  22.494  1.00  0.00     0.021 C 
BRANCH   2   3
ATOM      3  C   UNL A   1      32.637  26.394  21.984  1.00  0.00     0.116 C 
BRANCH   3   4
ATOM      4  N   UNL A   1      32.938  27.781  22.322  1.00  0.00    -0.354 N 
ATOM      5  C   UNL A   1      32.605  28.518  23.444  1.00  0.00     0.247 C 
ATOM      6  O   UNL A   1      33.370  29.445  23.733  1.00  0.00    -0.272 OA
ATOM      7  H   UNL A   1      33.459  28.269  21.645  1.00  0.00     0.163 HD
BRANCH   5   8
ATOM      8  C   UNL A   1      31.306  28.222  24.266  1.00  0.00     0.202 C 
BRANCH   8   9
ATOM      9  N   UNL A   1      31.464  28.528  25.690  1.00  0.00    -0.337 N 
ATOM     10  C   UNL A   1      31.531  27.677  26.754  1.00  0.00     0.244 C 
ATOM     11  O   UNL A   1      31.445  28.093  27.904  1.00  0.00    -0.270 OA
ATOM     12  H   UNL A   1      31.531  29.484  25.911  1.00  0.00     0.164 HD
BRANCH  10  13
ATOM     13  C   UNL A   1      31.956  26.287  26.501  1.00  0.00     0.071 C 
ATOM     14  C   UNL A   1      31.307  25.172  26.880  1.00  0.00     0.013 C 
BRANCH  14  15
ATOM     15  C   UNL A   1      31.529  23.891  26.209  1.00  0.00    -0.007 C 
ATOM     16  C   UNL A   1      30.457  24.683  23.988  1.00  0.00     0.058 C 
ATOM     17  C   UNL A   1      30.669  23.541  24.986  1.00  0.00     0.200 C 
ATOM     18  O   UNL A   1      31.138  22.450  24.168  1.00  0.00    -0.485 OA
ATOM     19  C   UNL A   1      32.150  21.672  24.629  1.00  0.00     0.127 A 
ATOM     20  C   UNL A   1      32.499  23.063  26.627  1.00  0.00     0.019 C 
ATOM     21  C   UNL A   1      32.506  20.601  23.819  1.00  0.00     0.047 A 
ATOM     22  C   UNL A   1      32.833  21.911  25.819  1.00  0.00     0.017 A 
ATOM     23  C   UNL A   1      33.534  19.755  24.212  1.00  0.00     0.004 A 
ATOM     24  C   UNL A   1      33.889  21.081  26.196  1.00  0.00     0.012 A 
ATOM     25  C   UNL A   1      34.229  19.999  25.397  1.00  0.00     0.001 A 
ENDBRANCH  14  15
ENDBRANCH  10  13
ENDBRANCH   8   9
BRANCH   8  26
ATOM     26  C   UNL A   1      30.024  28.904  23.728  1.00  0.00    -0.016 A 
ATOM     27  C   UNL A   1      29.878  30.301  23.770  1.00  0.00     0.006 A 
ATOM     28  C   UNL A   1      28.987  28.170  23.108  1.00  0.00     0.006 A 
ATOM     29  C   UNL A   1      28.730  30.928  23.265  1.00  0.00     0.000 A 
ATOM     30  C   UNL A   1      27.842  28.796  22.604  1.00  0.00     0.000 A 
ATOM     31  C   UNL A   1      27.710  30.176  22.689  1.00  0.00     0.000 A 
ENDBRANCH   8  26
ENDBRANCH   5   8
ENDBRANCH   3   4
ENDBRANCH   2   3
ENDBRANCH   1   2
BRANCH   1  32
ATOM     32  C   UNL A   1      35.027  24.334  24.489  1.00  0.00     0.002 C 
BRANCH  32  33
ATOM     33  C   UNL A   1      35.424  23.182  23.540  1.00  0.00     0.021 C 
BRANCH  33  34
ATOM     34  C   UNL A   1      36.912  22.788  23.459  1.00  0.00     0.116 C 
BRANCH  34  35
ATOM     35  N   UNL A   1      37.236  21.576  24.208  1.00  0.00    -0.352 N 
ATOM     36  C   UNL A   1      38.073  21.377  25.290  1.00  0.00     0.251 C 
ATOM     37  H   UNL A   1      36.781  20.764  23.888  1.00  0.00     0.163 HD
ATOM     38  O   UNL A   1      38.267  20.239  25.710  1.00  0.00    -0.269 OA
BRANCH  36  39
ATOM     39  C   UNL A   1      38.765  22.505  25.964  1.00  0.00     0.039 A 
ATOM     40  C   UNL A   1      38.143  23.736  26.127  1.00  0.00     0.014 A 
ATOM     41  C   UNL A   1      40.025  22.315  26.537  1.00  0.00     0.014 A 
ATOM     42  C   UNL A   1      38.853  24.819  26.685  1.00  0.00     0.010 A 
ATOM     43  C   UNL A   1      40.705  23.391  27.147  1.00  0.00     0.010 A 
ATOM     44  C   UNL A   1      40.172  24.694  27.152  1.00  0.00    -0.014 A 
BRANCH  44  45
ATOM     45  C   UNL A   1      41.023  25.901  27.513  1.00  0.00     0.031 A 
ATOM     46  C   UNL A   1      40.479  26.969  28.457  1.00  0.00     0.074 A 
ATOM     47  C   UNL A   1      42.300  26.071  27.096  1.00  0.00     0.049 A 
ATOM     48  N   UNL A   1      40.952  28.164  28.735  1.00  0.00    -0.248 NA
ATOM     49  C   UNL A   1      39.230  26.659  29.170  1.00  0.00     0.031 C 
ATOM     50  C   UNL A   1      43.052  25.161  26.236  1.00  0.00     0.029 A 
ATOM     51  N   UNL A   1      43.209  27.080  27.365  1.00  0.00    -0.354 N 
ATOM     52  C   UNL A   1      40.013  28.772  29.564  1.00  0.00     0.074 A 
ATOM     53  C   UNL A   1      38.944  27.815  29.750  1.00  0.00     0.031 C 
ATOM     54  C   UNL A   1      44.315  25.601  26.117  1.00  0.00     0.029 A 
ATOM     55  C   UNL A   1      44.448  26.887  26.798  1.00  0.00     0.049 A 
ATOM     56  H   UNL A   1      42.989  27.867  27.914  1.00  0.00     0.167 HD
ATOM     57  C   UNL A   1      40.029  30.004  30.133  1.00  0.00     0.037 A 
ATOM     58  C   UNL A   1      45.559  27.656  26.779  1.00  0.00     0.037 A 
ATOM     59  C   UNL A   1      41.134  30.927  30.093  1.00  0.00     0.049 A 
ATOM     60  C   UNL A   1      45.563  29.023  27.415  1.00  0.00     0.074 A 
ATOM     61  C   UNL A   1      41.236  32.169  30.702  1.00  0.00     0.029 A 
ATOM     62  N   UNL A   1      42.338  30.700  29.451  1.00  0.00    -0.354 N 
ATOM     63  N   UNL A   1      44.627  29.615  28.111  1.00  0.00    -0.248 NA
ATOM     64  C   UNL A   1      46.772  29.846  27.225  1.00  0.00     0.031 C 
ATOM     65  C   UNL A   1      42.492  32.706  30.405  1.00  0.00     0.029 A 
ATOM     66  C   UNL A   1      43.183  31.784  29.640  1.00  0.00     0.049 A 
ATOM     67  H   UNL A   1      42.561  29.890  28.938  1.00  0.00     0.167 HD
ATOM     68  C   UNL A   1      45.126  30.872  28.432  1.00  0.00     0.074 A 
ATOM     69  C   UNL A   1      46.462  30.951  27.889  1.00  0.00     0.031 C 
ATOM     70  C   UNL A   1      44.514  31.876  29.103  1.00  0.00     0.037 A 
BRANCH  57  71
ATOM     71  C   UNL A   1      38.799  30.460  30.866  1.00  0.00     0.064 A 
ATOM     72  C   UNL A   1      38.696  30.391  32.261  1.00  0.00     0.173 A 
ATOM     73  C   UNL A   1      37.749  31.068  30.158  1.00  0.00     0.173 A 
ATOM     74  F   UNL A   1      39.670  29.813  32.982  1.00  0.00    -0.203 F 
ATOM     75  C   UNL A   1      37.579  30.897  32.920  1.00  0.00     0.198 A 
ATOM     76  C   UNL A   1      36.648  31.600  30.822  1.00  0.00     0.198 A 
ATOM     77  F   UNL A   1      37.808  31.176  28.821  1.00  0.00    -0.203 F 
ATOM     78  F   UNL A   1      37.485  30.790  34.254  1.00  0.00    -0.200 F 
ATOM     79  C   UNL A   1      36.562  31.510  32.203  1.00  0.00     0.200 A 
ATOM     80  F   UNL A   1      35.678  32.209  30.129  1.00  0.00    -0.200 F 
ATOM     81  F   UNL A   1      35.498  32.014  32.842  1.00  0.00    -0.200 F 
ENDBRANCH  57  71
BRANCH  58  82
ATOM     82  C   UNL A   1      46.785  27.174  26.080  1.00  0.00     0.064 A 
ATOM     83  C   UNL A   1      47.766  26.444  26.767  1.00  0.00     0.173 A 
ATOM     84  C   UNL A   1      47.012  27.454  24.725  1.00  0.00     0.173 A 
ATOM     85  F   UNL A   1      47.617  26.188  28.075  1.00  0.00    -0.203 F 
ATOM     86  C   UNL A   1      48.925  26.013  26.124  1.00  0.00     0.198 A 
ATOM     87  C   UNL A   1      48.156  26.994  24.075  1.00  0.00     0.198 A 
ATOM     88  F   UNL A   1      46.115  28.165  24.027  1.00  0.00    -0.203 F 
ATOM     89  F   UNL A   1      49.866  25.354  26.815  1.00  0.00    -0.200 F 
ATOM     90  C   UNL A   1      49.114  26.279  24.777  1.00  0.00     0.200 A 
ATOM     91  F   UNL A   1      48.329  27.246  22.771  1.00  0.00    -0.200 F 
ATOM     92  F   UNL A   1      50.222  25.855  24.156  1.00  0.00    -0.200 F 
ENDBRANCH  58  82
BRANCH  70  93
ATOM     93  C   UNL A   1      45.260  33.164  29.294  1.00  0.00     0.064 A 
ATOM     94  C   UNL A   1      45.114  34.227  28.391  1.00  0.00     0.173 A 
ATOM     95  C   UNL A   1      46.058  33.373  30.429  1.00  0.00     0.173 A 
ATOM     96  F   UNL A   1      44.370  34.074  27.284  1.00  0.00    -0.203 F 
ATOM     97  C   UNL A   1      45.742  35.449  28.613  1.00  0.00     0.198 A 
ATOM     98  C   UNL A   1      46.669  34.605  30.659  1.00  0.00     0.198 A 
ATOM     99  F   UNL A   1      46.225  32.393  31.328  1.00  0.00    -0.203 F 
ATOM    100  F   UNL A   1      45.604  36.444  27.725  1.00  0.00    -0.200 F 
ATOM    101  C   UNL A   1      46.511  35.641  29.751  1.00  0.00     0.200 A 
ATOM    102  F   UNL A   1      47.402  34.791  31.765  1.00  0.00    -0.200 F 
ATOM    103  F   UNL A   1      47.101  36.823  29.973  1.00  0.00    -0.200 F 
ENDBRANCH  70  93
ENDBRANCH  44  45
ENDBRANCH  36  39
ENDBRANCH  34  35
ENDBRANCH  33  34
ENDBRANCH  32  33
ENDBRANCH   1  32
TORSDOF 17
ENDMDL
MODEL 3
REMARK VINA RESULT:     -13.2      4.616      9.530
REMARK SMILES C[C@H]1Oc2ccccc2C=C1/C=C/C(=O)N[C@H](C(=O)NCCCCCCNC(=O)c1ccc(-c2c3nc(c(-c4c(F)c(F)c(F)c(F)c4F)c4ccc([nH]4)c(-c4c(F)c(F)c(F)c(F)c4F)c4nc(c(-c5c(F)c(F)c(F)c(F)c5F)c5ccc2[nH]5)C=C4)C=C3)cc1)c1ccccc1
REMARK SMILES IDX 23 1 22 2 21 3 20 4 18 5 19 6 17 8 16 9 14 10 15 11 13 13
REMARK SMILES IDX 12 14 11 15 1 16 2 17 3 18 4 19 10 20 5 21 9 22 6 23 8 24
REMARK SMILES IDX 7 25 93 26 94 27 98 28 95 29 97 30 96 31 24 32 25 33 26 34
REMARK SMILES IDX 27 35 28 36 29 38 30 39 31 40 92 41 32 42 91 43 33 44 34 45
REMARK SMILES IDX 35 46 85 47 36 48 90 49 84 50 86 51 37 52 89 53 83 54 82 55
REMARK SMILES IDX 38 57 70 58 50 59 69 60 51 61 54 62 68 63 87 64 52 65 53 66
REMARK SMILES IDX 67 68 88 69 55 70 39 71 40 72 48 73 41 74 42 75 46 76 49 77
REMARK SMILES IDX 43 78 44 79 47 80 45 81 71 82 72 83 80 84 73 85 74 86 78 87
REMARK SMILES IDX 81 88 75 89 76 90 79 91 77 92 56 93 57 94 65 95 58 96 59 97
REMARK SMILES IDX 63 98 66 99 60 100 61 101 64 102 62 103
REMARK H PARENT 20 7 16 12 27 37 86 56 54 67
REMARK Flexibility Score: inf
ROOT
ATOM      1  C   UNL A   1      37.234  22.521  24.886  1.00  0.00     0.002 C 
ENDROOT
BRANCH   1   2
ATOM      2  C   UNL A   1      36.489  23.458  23.921  1.00  0.00     0.021 C 
BRANCH   2   3
ATOM      3  C   UNL A   1      34.965  23.594  24.095  1.00  0.00     0.116 C 
BRANCH   3   4
ATOM      4  N   UNL A   1      34.137  22.981  23.061  1.00  0.00    -0.354 N 
ATOM      5  C   UNL A   1      33.047  22.138  23.174  1.00  0.00     0.247 C 
ATOM      6  O   UNL A   1      32.233  22.172  22.244  1.00  0.00    -0.272 OA
ATOM      7  H   UNL A   1      34.396  23.203  22.137  1.00  0.00     0.163 HD
BRANCH   5   8
ATOM      8  C   UNL A   1      32.887  21.161  24.387  1.00  0.00     0.202 C 
BRANCH   8   9
ATOM      9  N   UNL A   1      31.572  21.272  25.023  1.00  0.00    -0.337 N 
ATOM     10  C   UNL A   1      31.056  22.291  25.769  1.00  0.00     0.244 C 
ATOM     11  O   UNL A   1      30.024  22.144  26.415  1.00  0.00    -0.270 OA
ATOM     12  H   UNL A   1      30.975  20.501  24.895  1.00  0.00     0.164 HD
BRANCH  10  13
ATOM     13  C   UNL A   1      31.627  23.639  25.585  1.00  0.00     0.071 C 
ATOM     14  C   UNL A   1      31.258  24.545  24.662  1.00  0.00     0.013 C 
BRANCH  14  15
ATOM     15  C   UNL A   1      31.527  25.971  24.839  1.00  0.00    -0.007 C 
ATOM     16  C   UNL A   1      29.155  26.681  24.081  1.00  0.00     0.058 C 
ATOM     17  C   UNL A   1      30.656  26.986  24.086  1.00  0.00     0.200 C 
ATOM     18  O   UNL A   1      30.730  28.352  24.539  1.00  0.00    -0.485 OA
ATOM     19  C   UNL A   1      31.699  28.698  25.426  1.00  0.00     0.127 A 
ATOM     20  C   UNL A   1      32.487  26.383  25.683  1.00  0.00     0.019 C 
ATOM     21  C   UNL A   1      31.751  30.043  25.769  1.00  0.00     0.047 A 
ATOM     22  C   UNL A   1      32.587  27.791  25.998  1.00  0.00     0.017 A 
ATOM     23  C   UNL A   1      32.709  30.484  26.671  1.00  0.00     0.004 A 
ATOM     24  C   UNL A   1      33.526  28.228  26.931  1.00  0.00     0.012 A 
ATOM     25  C   UNL A   1      33.593  29.576  27.257  1.00  0.00     0.001 A 
ENDBRANCH  14  15
ENDBRANCH  10  13
ENDBRANCH   8   9
BRANCH   8  26
ATOM     26  C   UNL A   1      33.187  19.675  24.072  1.00  0.00    -0.016 A 
ATOM     27  C   UNL A   1      32.409  18.962  23.144  1.00  0.00     0.006 A 
ATOM     28  C   UNL A   1      34.291  18.997  24.638  1.00  0.00     0.006 A 
ATOM     29  C   UNL A   1      32.688  17.623  22.838  1.00  0.00     0.000 A 
ATOM     30  C   UNL A   1      34.569  17.660  24.332  1.00  0.00     0.000 A 
ATOM     31  C   UNL A   1      33.763  16.970  23.436  1.00  0.00     0.000 A 
ENDBRANCH   8  26
ENDBRANCH   5   8
ENDBRANCH   3   4
ENDBRANCH   2   3
ENDBRANCH   1   2
BRANCH   1  32
ATOM     32  C   UNL A   1      36.812  21.036  24.900  1.00  0.00     0.002 C 
BRANCH  32  33
ATOM     33  C   UNL A   1      37.910  19.956  24.998  1.00  0.00     0.021 C 
BRANCH  33  34
ATOM     34  C   UNL A   1      39.190  20.290  25.790  1.00  0.00     0.116 C 
BRANCH  34  35
ATOM     35  N   UNL A   1      40.165  19.201  25.810  1.00  0.00    -0.352 N 
ATOM     36  C   UNL A   1      41.523  19.207  26.066  1.00  0.00     0.251 C 
ATOM     37  H   UNL A   1      39.790  18.314  25.607  1.00  0.00     0.163 HD
ATOM     38  O   UNL A   1      42.172  18.172  25.938  1.00  0.00    -0.269 OA
BRANCH  36  39
ATOM     39  C   UNL A   1      42.237  20.440  26.484  1.00  0.00     0.039 A 
ATOM     40  C   UNL A   1      42.220  20.868  27.805  1.00  0.00     0.014 A 
ATOM     41  C   UNL A   1      43.026  21.140  25.568  1.00  0.00     0.014 A 
ATOM     42  C   UNL A   1      42.827  22.090  28.162  1.00  0.00     0.010 A 
ATOM     43  C   UNL A   1      43.679  22.333  25.948  1.00  0.00     0.010 A 
ATOM     44  C   UNL A   1      43.517  22.887  27.232  1.00  0.00    -0.014 A 
BRANCH  44  45
ATOM     45  C   UNL A   1      43.946  24.311  27.545  1.00  0.00     0.031 A 
ATOM     46  C   UNL A   1      42.920  25.336  28.018  1.00  0.00     0.074 A 
ATOM     47  C   UNL A   1      45.231  24.735  27.496  1.00  0.00     0.049 A 
ATOM     48  N   UNL A   1      43.032  26.640  28.145  1.00  0.00    -0.248 NA
ATOM     49  C   UNL A   1      41.588  24.830  28.381  1.00  0.00     0.031 C 
ATOM     50  C   UNL A   1      46.390  23.927  27.127  1.00  0.00     0.029 A 
ATOM     51  N   UNL A   1      45.783  25.971  27.786  1.00  0.00    -0.354 N 
ATOM     52  C   UNL A   1      41.770  27.108  28.499  1.00  0.00     0.074 A 
ATOM     53  C   UNL A   1      40.905  25.950  28.573  1.00  0.00     0.031 C 
ATOM     54  C   UNL A   1      47.509  24.651  27.289  1.00  0.00     0.029 A 
ATOM     55  C   UNL A   1      47.154  26.016  27.669  1.00  0.00     0.049 A 
ATOM     56  H   UNL A   1      45.243  26.750  28.052  1.00  0.00     0.167 HD
ATOM     57  C   UNL A   1      41.356  28.375  28.753  1.00  0.00     0.037 A 
ATOM     58  C   UNL A   1      48.037  27.031  27.805  1.00  0.00     0.037 A 
ATOM     59  C   UNL A   1      42.209  29.532  28.833  1.00  0.00     0.049 A 
ATOM     60  C   UNL A   1      47.562  28.434  28.087  1.00  0.00     0.074 A 
ATOM     61  C   UNL A   1      41.859  30.836  29.146  1.00  0.00     0.029 A 
ATOM     62  N   UNL A   1      43.579  29.524  28.644  1.00  0.00    -0.354 N 
ATOM     63  N   UNL A   1      46.350  28.867  28.321  1.00  0.00    -0.248 NA
ATOM     64  C   UNL A   1      48.582  29.499  28.081  1.00  0.00     0.031 C 
ATOM     65  C   UNL A   1      43.014  31.624  29.120  1.00  0.00     0.029 A 
ATOM     66  C   UNL A   1      44.086  30.803  28.823  1.00  0.00     0.049 A 
ATOM     67  H   UNL A   1      44.114  28.729  28.417  1.00  0.00     0.167 HD
ATOM     68  C   UNL A   1      46.460  30.243  28.482  1.00  0.00     0.074 A 
ATOM     69  C   UNL A   1      47.860  30.577  28.355  1.00  0.00     0.031 C 
ATOM     70  C   UNL A   1      45.476  31.148  28.697  1.00  0.00     0.037 A 
BRANCH  57  71
ATOM     71  C   UNL A   1      39.886  28.609  28.967  1.00  0.00     0.064 A 
ATOM     72  C   UNL A   1      39.281  28.443  30.219  1.00  0.00     0.173 A 
ATOM     73  C   UNL A   1      39.097  29.104  27.915  1.00  0.00     0.173 A 
ATOM     74  F   UNL A   1      39.991  27.967  31.254  1.00  0.00    -0.203 F 
ATOM     75  C   UNL A   1      37.936  28.747  30.407  1.00  0.00     0.198 A 
ATOM     76  C   UNL A   1      37.760  29.435  28.113  1.00  0.00     0.198 A 
ATOM     77  F   UNL A   1      39.635  29.298  26.700  1.00  0.00    -0.203 F 
ATOM     78  F   UNL A   1      37.367  28.549  31.606  1.00  0.00    -0.200 F 
ATOM     79  C   UNL A   1      37.180  29.251  29.359  1.00  0.00     0.200 A 
ATOM     80  F   UNL A   1      37.039  29.941  27.106  1.00  0.00    -0.200 F 
ATOM     81  F   UNL A   1      35.890  29.562  29.549  1.00  0.00    -0.200 F 
ENDBRANCH  57  71
BRANCH  58  82
ATOM     82  C   UNL A   1      49.494  26.776  27.628  1.00  0.00     0.064 A 
ATOM     83  C   UNL A   1      50.331  26.573  28.735  1.00  0.00     0.173 A 
ATOM     84  C   UNL A   1      50.084  26.757  26.356  1.00  0.00     0.173 A 
ATOM     85  F   UNL A   1      49.823  26.627  29.976  1.00  0.00    -0.203 F 
ATOM     86  C   UNL A   1      51.699  26.360  28.576  1.00  0.00     0.198 A 
ATOM     87  C   UNL A   1      51.447  26.511  26.195  1.00  0.00     0.198 A 
ATOM     88  F   UNL A   1      49.333  26.964  25.265  1.00  0.00    -0.203 F 
ATOM     89  F   UNL A   1      52.482  26.212  29.653  1.00  0.00    -0.200 F 
ATOM     90  C   UNL A   1      52.254  26.318  27.306  1.00  0.00     0.200 A 
ATOM     91  F   UNL A   1      51.976  26.463  24.966  1.00  0.00    -0.200 F 
ATOM     92  F   UNL A   1      53.566  26.102  27.152  1.00  0.00    -0.200 F 
ENDBRANCH  58  82
BRANCH  70  93
ATOM     93  C   UNL A   1      45.851  32.598  28.802  1.00  0.00     0.064 A 
ATOM     94  C   UNL A   1      46.258  33.153  30.024  1.00  0.00     0.173 A 
ATOM     95  C   UNL A   1      45.889  33.417  27.664  1.00  0.00     0.173 A 
ATOM     96  F   UNL A   1      46.229  32.414  31.144  1.00  0.00    -0.203 F 
ATOM     97  C   UNL A   1      46.684  34.477  30.104  1.00  0.00     0.198 A 
ATOM     98  C   UNL A   1      46.335  34.735  27.744  1.00  0.00     0.198 A 
ATOM     99  F   UNL A   1      45.517  32.934  26.470  1.00  0.00    -0.203 F 
ATOM    100  F   UNL A   1      47.050  34.992  31.286  1.00  0.00    -0.200 F 
ATOM    101  C   UNL A   1      46.732  35.264  28.963  1.00  0.00     0.200 A 
ATOM    102  F   UNL A   1      46.391  35.490  26.638  1.00  0.00    -0.200 F 
ATOM    103  F   UNL A   1      47.158  36.531  29.038  1.00  0.00    -0.200 F 
ENDBRANCH  70  93
ENDBRANCH  44  45
ENDBRANCH  36  39
ENDBRANCH  34  35
ENDBRANCH  33  34
ENDBRANCH  32  33
ENDBRANCH   1  32
TORSDOF 17
ENDMDL
