MODEL 1
REMARK VINA RESULT:     -11.5      0.000      0.000
REMARK SMILES CC[C@](C)(Nc1ncnc(OC)c1[N+](=O)[O-])C(=O)NCCCCCCNC(=O)c1ccc(-c2c3nc(c(-c4c(F)c(F)c(F)c(F)c4F)c4ccc([nH]4)c(-c4c(F)c(F)c(F)c(F)c4F)c4nc(c(-c5c(F)c(F)c(F)c(F)c5F)c5ccc2[nH]5)C=C4)C=C3)cc1
REMARK SMILES IDX 22 1 21 2 20 3 19 4 17 5 18 6 3 8 4 9 2 10 1 11 5 12 6 14
REMARK SMILES IDX 7 15 13 16 8 17 10 18 9 19 14 20 15 21 16 22 11 23 12 24
REMARK SMILES IDX 23 25 24 26 25 27 26 28 27 29 28 31 29 32 30 33 91 34 31 35
REMARK SMILES IDX 90 36 32 37 33 38 34 39 84 40 35 41 89 42 83 43 85 44 36 45
REMARK SMILES IDX 88 46 82 47 81 48 37 50 69 51 49 52 68 53 50 54 53 55 67 56
REMARK SMILES IDX 86 57 51 58 52 59 66 61 87 62 54 63 38 64 39 65 47 66 40 67
REMARK SMILES IDX 41 68 45 69 48 70 42 71 43 72 46 73 44 74 70 75 71 76 79 77
REMARK SMILES IDX 72 78 73 79 77 80 80 81 74 82 75 83 78 84 76 85 55 86 56 87
REMARK SMILES IDX 64 88 57 89 58 90 62 91 65 92 59 93 60 94 63 95 61 96
REMARK H PARENT 19 7 5 13 26 30 85 49 53 60
REMARK Flexibility Score: inf
ROOT
ATOM      1  C   UNL A   1      32.519  29.750  27.267  1.00  0.00     0.002 C 
ENDROOT
BRANCH   1   2
ATOM      2  C   UNL A   1      31.783  28.458  27.637  1.00  0.00     0.021 C 
BRANCH   2   3
ATOM      3  C   UNL A   1      31.665  27.421  26.523  1.00  0.00     0.116 C 
BRANCH   3   4
ATOM      4  N   UNL A   1      31.301  26.073  26.929  1.00  0.00    -0.354 N 
ATOM      5  C   UNL A   1      31.688  24.825  26.545  1.00  0.00     0.245 C 
ATOM      6  O   UNL A   1      31.445  23.922  27.355  1.00  0.00    -0.272 OA
ATOM      7  H   UNL A   1      30.622  26.061  27.641  1.00  0.00     0.163 HD
BRANCH   5   8
ATOM      8  C   UNL A   1      32.370  24.498  25.186  1.00  0.00     0.115 C 
ATOM      9  C   UNL A   1      32.630  22.983  25.047  1.00  0.00     0.045 C 
BRANCH   8  10
ATOM     10  C   UNL A   1      33.750  25.212  25.085  1.00  0.00     0.035 C 
ATOM     11  C   UNL A   1      34.942  24.285  24.864  1.00  0.00     0.007 C 
ENDBRANCH   8  10
BRANCH   8  12
ATOM     12  N   UNL A   1      31.561  24.919  24.031  1.00  0.00    -0.350 N 
ATOM     13  H   UNL A   1      31.570  24.234  23.323  1.00  0.00     0.163 HD
BRANCH  12  14
ATOM     14  C   UNL A   1      30.807  25.986  23.670  1.00  0.00     0.213 A 
ATOM     15  N   UNL A   1      29.544  25.797  24.125  1.00  0.00    -0.212 NA
ATOM     16  C   UNL A   1      31.072  27.114  22.925  1.00  0.00     0.372 A 
ATOM     17  C   UNL A   1      28.591  26.692  23.812  1.00  0.00     0.228 A 
ATOM     18  C   UNL A   1      30.014  27.946  22.596  1.00  0.00     0.299 A 
ATOM     19  N   UNL A   1      28.758  27.758  23.031  1.00  0.00    -0.196 NA
BRANCH  16  20
ATOM     20  N   UNL A   1      32.355  27.502  22.448  1.00  0.00     0.072 N 
ATOM     21  O   UNL A   1      32.909  26.743  21.644  1.00  0.00    -0.258 OA
ATOM     22  O   UNL A   1      32.860  28.513  22.957  1.00  0.00    -0.258 OA
ENDBRANCH  16  20
BRANCH  18  23
ATOM     23  O   UNL A   1      30.188  29.086  21.851  1.00  0.00    -0.476 OA
ATOM     24  C   UNL A   1      29.580  30.217  22.480  1.00  0.00     0.280 C 
ENDBRANCH  18  23
ENDBRANCH  12  14
ENDBRANCH   8  12
ENDBRANCH   5   8
ENDBRANCH   3   4
ENDBRANCH   2   3
ENDBRANCH   1   2
BRANCH   1  25
ATOM     25  C   UNL A   1      31.822  30.670  26.262  1.00  0.00     0.002 C 
BRANCH  25  26
ATOM     26  C   UNL A   1      31.495  32.067  26.786  1.00  0.00     0.021 C 
BRANCH  26  27
ATOM     27  C   UNL A   1      32.683  32.807  27.388  1.00  0.00     0.116 C 
BRANCH  27  28
ATOM     28  N   UNL A   1      32.399  34.209  27.678  1.00  0.00    -0.352 N 
ATOM     29  C   UNL A   1      33.006  35.012  28.613  1.00  0.00     0.251 C 
ATOM     30  H   UNL A   1      31.690  34.629  27.139  1.00  0.00     0.163 HD
ATOM     31  O   UNL A   1      32.616  36.148  28.836  1.00  0.00    -0.269 OA
BRANCH  29  32
ATOM     32  C   UNL A   1      34.134  34.449  29.386  1.00  0.00     0.039 A 
ATOM     33  C   UNL A   1      33.868  33.688  30.525  1.00  0.00     0.014 A 
ATOM     34  C   UNL A   1      35.440  34.595  28.911  1.00  0.00     0.014 A 
ATOM     35  C   UNL A   1      34.911  33.004  31.151  1.00  0.00     0.010 A 
ATOM     36  C   UNL A   1      36.466  33.863  29.498  1.00  0.00     0.010 A 
ATOM     37  C   UNL A   1      36.210  33.054  30.618  1.00  0.00    -0.014 A 
BRANCH  37  38
ATOM     38  C   UNL A   1      37.327  32.280  31.215  1.00  0.00     0.031 A 
ATOM     39  C   UNL A   1      37.824  32.636  32.587  1.00  0.00     0.074 A 
ATOM     40  C   UNL A   1      37.949  31.327  30.493  1.00  0.00     0.049 A 
ATOM     41  N   UNL A   1      38.866  32.182  33.236  1.00  0.00    -0.248 NA
ATOM     42  C   UNL A   1      37.068  33.670  33.313  1.00  0.00     0.031 C 
ATOM     43  C   UNL A   1      37.593  30.925  29.132  1.00  0.00     0.029 A 
ATOM     44  N   UNL A   1      39.029  30.536  30.800  1.00  0.00    -0.354 N 
ATOM     45  C   UNL A   1      38.908  32.895  34.425  1.00  0.00     0.074 A 
ATOM     46  C   UNL A   1      37.812  33.841  34.396  1.00  0.00     0.031 C 
ATOM     47  C   UNL A   1      38.430  29.954  28.727  1.00  0.00     0.029 A 
ATOM     48  C   UNL A   1      39.400  29.688  29.785  1.00  0.00     0.049 A 
ATOM     49  H   UNL A   1      39.494  30.574  31.667  1.00  0.00     0.167 HD
ATOM     50  C   UNL A   1      39.772  32.761  35.460  1.00  0.00     0.037 A 
ATOM     51  C   UNL A   1      40.413  28.804  29.716  1.00  0.00     0.037 A 
ATOM     52  C   UNL A   1      40.824  31.783  35.512  1.00  0.00     0.049 A 
ATOM     53  C   UNL A   1      41.330  28.644  30.900  1.00  0.00     0.074 A 
ATOM     54  C   UNL A   1      41.707  31.519  36.544  1.00  0.00     0.029 A 
ATOM     55  N   UNL A   1      41.126  30.897  34.489  1.00  0.00    -0.354 N 
ATOM     56  N   UNL A   1      41.323  29.282  32.044  1.00  0.00    -0.248 NA
ATOM     57  C   UNL A   1      42.394  27.634  30.784  1.00  0.00     0.031 C 
ATOM     58  C   UNL A   1      42.562  30.490  36.135  1.00  0.00     0.029 A 
ATOM     59  C   UNL A   1      42.186  30.090  34.863  1.00  0.00     0.049 A 
ATOM     60  H   UNL A   1      40.657  30.850  33.624  1.00  0.00     0.167 HD
ATOM     61  C   UNL A   1      42.350  28.729  32.796  1.00  0.00     0.074 A 
ATOM     62  C   UNL A   1      42.958  27.699  31.982  1.00  0.00     0.031 C 
ATOM     63  C   UNL A   1      42.755  29.048  34.050  1.00  0.00     0.037 A 
BRANCH  50  64
ATOM     64  C   UNL A   1      39.605  33.686  36.628  1.00  0.00     0.064 A 
ATOM     65  C   UNL A   1      40.197  34.956  36.647  1.00  0.00     0.173 A 
ATOM     66  C   UNL A   1      38.809  33.313  37.721  1.00  0.00     0.173 A 
ATOM     67  F   UNL A   1      40.979  35.353  35.631  1.00  0.00    -0.203 F 
ATOM     68  C   UNL A   1      40.017  35.812  37.730  1.00  0.00     0.198 A 
ATOM     69  C   UNL A   1      38.610  34.182  38.790  1.00  0.00     0.198 A 
ATOM     70  F   UNL A   1      38.217  32.109  37.749  1.00  0.00    -0.203 F 
ATOM     71  F   UNL A   1      40.628  37.006  37.747  1.00  0.00    -0.200 F 
ATOM     72  C   UNL A   1      39.218  35.428  38.796  1.00  0.00     0.200 A 
ATOM     73  F   UNL A   1      37.828  33.814  39.815  1.00  0.00    -0.200 F 
ATOM     74  F   UNL A   1      39.039  36.258  39.833  1.00  0.00    -0.200 F 
ENDBRANCH  50  64
BRANCH  51  75
ATOM     75  C   UNL A   1      40.603  27.974  28.497  1.00  0.00     0.064 A 
ATOM     76  C   UNL A   1      41.365  28.448  27.420  1.00  0.00     0.173 A 
ATOM     77  C   UNL A   1      40.008  26.712  28.370  1.00  0.00     0.173 A 
ATOM     78  F   UNL A   1      41.936  29.659  27.486  1.00  0.00    -0.203 F 
ATOM     79  C   UNL A   1      41.502  27.702  26.251  1.00  0.00     0.198 A 
ATOM     80  C   UNL A   1      40.167  25.955  27.210  1.00  0.00     0.198 A 
ATOM     81  F   UNL A   1      39.273  26.211  29.374  1.00  0.00    -0.203 F 
ATOM     82  F   UNL A   1      42.193  28.203  25.217  1.00  0.00    -0.200 F 
ATOM     83  C   UNL A   1      40.906  26.455  26.149  1.00  0.00     0.200 A 
ATOM     84  F   UNL A   1      39.598  24.745  27.119  1.00  0.00    -0.200 F 
ATOM     85  F   UNL A   1      41.033  25.740  25.023  1.00  0.00    -0.200 F 
ENDBRANCH  51  75
BRANCH  63  86
ATOM     86  C   UNL A   1      43.870  28.240  34.642  1.00  0.00     0.064 A 
ATOM     87  C   UNL A   1      43.625  27.047  35.335  1.00  0.00     0.173 A 
ATOM     88  C   UNL A   1      45.203  28.636  34.457  1.00  0.00     0.173 A 
ATOM     89  F   UNL A   1      42.366  26.637  35.548  1.00  0.00    -0.203 F 
ATOM     90  C   UNL A   1      44.677  26.286  35.836  1.00  0.00     0.198 A 
ATOM     91  C   UNL A   1      46.252  27.861  34.939  1.00  0.00     0.198 A 
ATOM     92  F   UNL A   1      45.486  29.769  33.795  1.00  0.00    -0.203 F 
ATOM     93  F   UNL A   1      44.420  25.165  36.526  1.00  0.00    -0.200 F 
ATOM     94  C   UNL A   1      45.989  26.688  35.631  1.00  0.00     0.200 A 
ATOM     95  F   UNL A   1      47.519  28.245  34.730  1.00  0.00    -0.200 F 
ATOM     96  F   UNL A   1      47.000  25.948  36.106  1.00  0.00    -0.200 F 
ENDBRANCH  63  86
ENDBRANCH  37  38
ENDBRANCH  29  32
ENDBRANCH  27  28
ENDBRANCH  26  27
ENDBRANCH  25  26
ENDBRANCH   1  25
TORSDOF 18
ENDMDL
MODEL 2
REMARK VINA RESULT:     -11.4      1.083      2.990
REMARK SMILES CC[C@](C)(Nc1ncnc(OC)c1[N+](=O)[O-])C(=O)NCCCCCCNC(=O)c1ccc(-c2c3nc(c(-c4c(F)c(F)c(F)c(F)c4F)c4ccc([nH]4)c(-c4c(F)c(F)c(F)c(F)c4F)c4nc(c(-c5c(F)c(F)c(F)c(F)c5F)c5ccc2[nH]5)C=C4)C=C3)cc1
REMARK SMILES IDX 22 1 21 2 20 3 19 4 17 5 18 6 3 8 4 9 2 10 1 11 5 12 6 14
REMARK SMILES IDX 7 15 13 16 8 17 10 18 9 19 14 20 15 21 16 22 11 23 12 24
REMARK SMILES IDX 23 25 24 26 25 27 26 28 27 29 28 31 29 32 30 33 91 34 31 35
REMARK SMILES IDX 90 36 32 37 33 38 34 39 84 40 35 41 89 42 83 43 85 44 36 45
REMARK SMILES IDX 88 46 82 47 81 48 37 50 69 51 49 52 68 53 50 54 53 55 67 56
REMARK SMILES IDX 86 57 51 58 52 59 66 61 87 62 54 63 38 64 39 65 47 66 40 67
REMARK SMILES IDX 41 68 45 69 48 70 42 71 43 72 46 73 44 74 70 75 71 76 79 77
REMARK SMILES IDX 72 78 73 79 77 80 80 81 74 82 75 83 78 84 76 85 55 86 56 87
REMARK SMILES IDX 64 88 57 89 58 90 62 91 65 92 59 93 60 94 63 95 61 96
REMARK H PARENT 19 7 5 13 26 30 85 49 53 60
REMARK Flexibility Score: inf
ROOT
ATOM      1  C   UNL A   1      33.190  30.088  26.875  1.00  0.00     0.002 C 
ENDROOT
BRANCH   1   2
ATOM      2  C   UNL A   1      33.344  28.617  27.275  1.00  0.00     0.021 C 
BRANCH   2   3
ATOM      3  C   UNL A   1      32.778  27.599  26.287  1.00  0.00     0.116 C 
BRANCH   3   4
ATOM      4  N   UNL A   1      33.440  27.515  24.996  1.00  0.00    -0.354 N 
ATOM      5  C   UNL A   1      33.016  27.297  23.719  1.00  0.00     0.245 C 
ATOM      6  O   UNL A   1      33.799  27.658  22.832  1.00  0.00    -0.272 OA
ATOM      7  H   UNL A   1      34.414  27.644  25.058  1.00  0.00     0.163 HD
BRANCH   5   8
ATOM      8  C   UNL A   1      31.663  26.626  23.348  1.00  0.00     0.115 C 
ATOM      9  C   UNL A   1      31.405  26.704  21.829  1.00  0.00     0.045 C 
BRANCH   8  10
ATOM     10  C   UNL A   1      30.483  27.356  24.054  1.00  0.00     0.035 C 
ATOM     11  C   UNL A   1      30.299  28.819  23.657  1.00  0.00     0.007 C 
ENDBRANCH   8  10
BRANCH   8  12
ATOM     12  N   UNL A   1      31.610  25.207  23.737  1.00  0.00    -0.350 N 
ATOM     13  H   UNL A   1      31.332  24.642  22.979  1.00  0.00     0.163 HD
BRANCH  12  14
ATOM     14  C   UNL A   1      31.837  24.462  24.846  1.00  0.00     0.213 A 
ATOM     15  N   UNL A   1      30.653  24.241  25.468  1.00  0.00    -0.212 NA
ATOM     16  C   UNL A   1      32.985  23.980  25.435  1.00  0.00     0.372 A 
ATOM     17  C   UNL A   1      30.639  23.592  26.645  1.00  0.00     0.228 A 
ATOM     18  C   UNL A   1      32.882  23.380  26.679  1.00  0.00     0.299 A 
ATOM     19  N   UNL A   1      31.714  23.170  27.308  1.00  0.00    -0.196 NA
BRANCH  16  20
ATOM     20  N   UNL A   1      34.290  24.051  24.872  1.00  0.00     0.072 N 
ATOM     21  O   UNL A   1      35.066  24.883  25.357  1.00  0.00    -0.258 OA
ATOM     22  O   UNL A   1      34.509  23.349  23.873  1.00  0.00    -0.258 OA
ENDBRANCH  16  20
BRANCH  18  23
ATOM     23  O   UNL A   1      33.976  22.878  27.339  1.00  0.00    -0.476 OA
ATOM     24  C   UNL A   1      34.028  21.453  27.253  1.00  0.00     0.280 C 
ENDBRANCH  18  23
ENDBRANCH  12  14
ENDBRANCH   8  12
ENDBRANCH   5   8
ENDBRANCH   3   4
ENDBRANCH   2   3
ENDBRANCH   1   2
BRANCH   1  25
ATOM     25  C   UNL A   1      31.775  30.559  26.530  1.00  0.00     0.002 C 
BRANCH  25  26
ATOM     26  C   UNL A   1      31.527  32.053  26.729  1.00  0.00     0.021 C 
BRANCH  26  27
ATOM     27  C   UNL A   1      32.723  32.821  27.279  1.00  0.00     0.116 C 
BRANCH  27  28
ATOM     28  N   UNL A   1      32.406  34.203  27.625  1.00  0.00    -0.352 N 
ATOM     29  C   UNL A   1      32.986  34.978  28.602  1.00  0.00     0.251 C 
ATOM     30  H   UNL A   1      31.694  34.632  27.096  1.00  0.00     0.163 HD
ATOM     31  O   UNL A   1      32.570  36.094  28.868  1.00  0.00    -0.269 OA
BRANCH  29  32
ATOM     32  C   UNL A   1      34.117  34.404  29.362  1.00  0.00     0.039 A 
ATOM     33  C   UNL A   1      33.856  33.648  30.507  1.00  0.00     0.014 A 
ATOM     34  C   UNL A   1      35.420  34.535  28.872  1.00  0.00     0.014 A 
ATOM     35  C   UNL A   1      34.900  32.955  31.122  1.00  0.00     0.010 A 
ATOM     36  C   UNL A   1      36.444  33.794  29.449  1.00  0.00     0.010 A 
ATOM     37  C   UNL A   1      36.192  32.990  30.574  1.00  0.00    -0.014 A 
BRANCH  37  38
ATOM     38  C   UNL A   1      37.308  32.206  31.160  1.00  0.00     0.031 A 
ATOM     39  C   UNL A   1      37.807  32.543  32.536  1.00  0.00     0.074 A 
ATOM     40  C   UNL A   1      37.928  31.262  30.425  1.00  0.00     0.049 A 
ATOM     41  N   UNL A   1      38.848  32.078  33.178  1.00  0.00    -0.248 NA
ATOM     42  C   UNL A   1      37.054  33.568  33.276  1.00  0.00     0.031 C 
ATOM     43  C   UNL A   1      37.570  30.878  29.059  1.00  0.00     0.029 A 
ATOM     44  N   UNL A   1      39.006  30.464  30.721  1.00  0.00    -0.354 N 
ATOM     45  C   UNL A   1      38.893  32.775  34.377  1.00  0.00     0.074 A 
ATOM     46  C   UNL A   1      37.799  33.723  34.361  1.00  0.00     0.031 C 
ATOM     47  C   UNL A   1      38.404  29.911  28.641  1.00  0.00     0.029 A 
ATOM     48  C   UNL A   1      39.375  29.629  29.694  1.00  0.00     0.049 A 
ATOM     49  H   UNL A   1      39.472  30.489  31.588  1.00  0.00     0.167 HD
ATOM     50  C   UNL A   1      39.757  32.625  35.409  1.00  0.00     0.037 A 
ATOM     51  C   UNL A   1      40.386  28.744  29.613  1.00  0.00     0.037 A 
ATOM     52  C   UNL A   1      40.807  31.644  35.447  1.00  0.00     0.049 A 
ATOM     53  C   UNL A   1      41.304  28.566  30.794  1.00  0.00     0.074 A 
ATOM     54  C   UNL A   1      41.690  31.365  36.476  1.00  0.00     0.029 A 
ATOM     55  N   UNL A   1      41.107  30.772  34.413  1.00  0.00    -0.354 N 
ATOM     56  N   UNL A   1      41.298  29.189  31.947  1.00  0.00    -0.248 NA
ATOM     57  C   UNL A   1      42.365  27.555  30.664  1.00  0.00     0.031 C 
ATOM     58  C   UNL A   1      42.542  30.340  36.053  1.00  0.00     0.029 A 
ATOM     59  C   UNL A   1      42.165  29.957  34.775  1.00  0.00     0.049 A 
ATOM     60  H   UNL A   1      40.636  30.737  33.548  1.00  0.00     0.167 HD
ATOM     61  C   UNL A   1      42.325  28.624  32.691  1.00  0.00     0.074 A 
ATOM     62  C   UNL A   1      42.930  27.603  31.862  1.00  0.00     0.031 C 
ATOM     63  C   UNL A   1      42.731  28.925  33.948  1.00  0.00     0.037 A 
BRANCH  50  64
ATOM     64  C   UNL A   1      39.593  33.535  36.590  1.00  0.00     0.064 A 
ATOM     65  C   UNL A   1      40.208  34.793  36.636  1.00  0.00     0.173 A 
ATOM     66  C   UNL A   1      38.776  33.160  37.667  1.00  0.00     0.173 A 
ATOM     67  F   UNL A   1      41.010  35.191  35.636  1.00  0.00    -0.203 F 
ATOM     68  C   UNL A   1      40.031  35.636  37.730  1.00  0.00     0.198 A 
ATOM     69  C   UNL A   1      38.580  34.017  38.747  1.00  0.00     0.198 A 
ATOM     70  F   UNL A   1      38.161  31.967  37.669  1.00  0.00    -0.203 F 
ATOM     71  F   UNL A   1      40.663  36.817  37.773  1.00  0.00    -0.200 F 
ATOM     72  C   UNL A   1      39.211  35.250  38.780  1.00  0.00     0.200 A 
ATOM     73  F   UNL A   1      37.779  33.647  39.757  1.00  0.00    -0.200 F 
ATOM     74  F   UNL A   1      39.035  36.067  39.828  1.00  0.00    -0.200 F 
ENDBRANCH  50  64
BRANCH  51  75
ATOM     75  C   UNL A   1      40.574  27.930  28.383  1.00  0.00     0.064 A 
ATOM     76  C   UNL A   1      40.003  26.654  28.274  1.00  0.00     0.173 A 
ATOM     77  C   UNL A   1      41.346  28.394  27.310  1.00  0.00     0.173 A 
ATOM     78  F   UNL A   1      39.274  26.159  29.284  1.00  0.00    -0.203 F 
ATOM     79  C   UNL A   1      40.219  25.862  27.148  1.00  0.00     0.198 A 
ATOM     80  C   UNL A   1      41.541  27.610  26.173  1.00  0.00     0.198 A 
ATOM     81  F   UNL A   1      41.911  29.609  27.363  1.00  0.00    -0.203 F 
ATOM     82  F   UNL A   1      39.704  24.626  27.093  1.00  0.00    -0.200 F 
ATOM     83  C   UNL A   1      40.986  26.342  26.098  1.00  0.00     0.200 A 
ATOM     84  F   UNL A   1      42.274  28.082  25.154  1.00  0.00    -0.200 F 
ATOM     85  F   UNL A   1      41.199  25.578  25.017  1.00  0.00    -0.200 F 
ENDBRANCH  51  75
BRANCH  63  86
ATOM     86  C   UNL A   1      43.845  28.107  34.528  1.00  0.00     0.064 A 
ATOM     87  C   UNL A   1      45.179  28.531  34.463  1.00  0.00     0.173 A 
ATOM     88  C   UNL A   1      43.562  26.915  35.212  1.00  0.00     0.173 A 
ATOM     89  F   UNL A   1      45.498  29.656  33.808  1.00  0.00    -0.203 F 
ATOM     90  C   UNL A   1      46.194  27.781  35.051  1.00  0.00     0.198 A 
ATOM     91  C   UNL A   1      44.576  26.181  35.818  1.00  0.00     0.198 A 
ATOM     92  F   UNL A   1      42.298  26.472  35.305  1.00  0.00    -0.203 F 
ATOM     93  F   UNL A   1      47.468  28.186  34.948  1.00  0.00    -0.200 F 
ATOM     94  C   UNL A   1      45.891  26.612  35.734  1.00  0.00     0.200 A 
ATOM     95  F   UNL A   1      44.281  25.058  36.487  1.00  0.00    -0.200 F 
ATOM     96  F   UNL A   1      46.869  25.897  36.307  1.00  0.00    -0.200 F 
ENDBRANCH  63  86
ENDBRANCH  37  38
ENDBRANCH  29  32
ENDBRANCH  27  28
ENDBRANCH  26  27
ENDBRANCH  25  26
ENDBRANCH   1  25
TORSDOF 18
ENDMDL
MODEL 3
REMARK VINA RESULT:     -11.4      1.317      7.773
REMARK SMILES CC[C@](C)(Nc1ncnc(OC)c1[N+](=O)[O-])C(=O)NCCCCCCNC(=O)c1ccc(-c2c3nc(c(-c4c(F)c(F)c(F)c(F)c4F)c4ccc([nH]4)c(-c4c(F)c(F)c(F)c(F)c4F)c4nc(c(-c5c(F)c(F)c(F)c(F)c5F)c5ccc2[nH]5)C=C4)C=C3)cc1
REMARK SMILES IDX 22 1 21 2 20 3 19 4 17 5 18 6 3 8 4 9 2 10 1 11 5 12 6 14
REMARK SMILES IDX 7 15 13 16 8 17 10 18 9 19 14 20 15 21 16 22 11 23 12 24
REMARK SMILES IDX 23 25 24 26 25 27 26 28 27 29 28 31 29 32 30 33 91 34 31 35
REMARK SMILES IDX 90 36 32 37 33 38 34 39 84 40 35 41 89 42 83 43 85 44 36 45
REMARK SMILES IDX 88 46 82 47 81 48 37 50 69 51 49 52 68 53 50 54 53 55 67 56
REMARK SMILES IDX 86 57 51 58 52 59 66 61 87 62 54 63 38 64 39 65 47 66 40 67
REMARK SMILES IDX 41 68 45 69 48 70 42 71 43 72 46 73 44 74 70 75 71 76 79 77
REMARK SMILES IDX 72 78 73 79 77 80 80 81 74 82 75 83 78 84 76 85 55 86 56 87
REMARK SMILES IDX 64 88 57 89 58 90 62 91 65 92 59 93 60 94 63 95 61 96
REMARK H PARENT 19 7 5 13 26 30 85 49 53 60
REMARK Flexibility Score: inf
ROOT
ATOM      1  C   UNL A   1      33.559  29.946  26.389  1.00  0.00     0.002 C 
ENDROOT
BRANCH   1   2
ATOM      2  C   UNL A   1      34.180  28.652  26.923  1.00  0.00     0.021 C 
BRANCH   2   3
ATOM      3  C   UNL A   1      33.748  27.369  26.217  1.00  0.00     0.116 C 
BRANCH   3   4
ATOM      4  N   UNL A   1      33.925  27.333  24.775  1.00  0.00    -0.354 N 
ATOM      5  C   UNL A   1      33.087  27.148  23.716  1.00  0.00     0.245 C 
ATOM      6  O   UNL A   1      33.515  27.547  22.626  1.00  0.00    -0.272 OA
ATOM      7  H   UNL A   1      34.860  27.475  24.502  1.00  0.00     0.163 HD
BRANCH   5   8
ATOM      8  C   UNL A   1      31.692  26.468  23.812  1.00  0.00     0.115 C 
ATOM      9  C   UNL A   1      31.245  25.926  22.438  1.00  0.00     0.045 C 
BRANCH   8  10
ATOM     10  C   UNL A   1      30.617  27.496  24.273  1.00  0.00     0.035 C 
ATOM     11  C   UNL A   1      30.520  28.756  23.417  1.00  0.00     0.007 C 
ENDBRANCH   8  10
BRANCH   8  12
ATOM     12  N   UNL A   1      31.675  25.343  24.761  1.00  0.00    -0.350 N 
ATOM     13  H   UNL A   1      31.287  25.614  25.625  1.00  0.00     0.163 HD
BRANCH  12  14
ATOM     14  C   UNL A   1      32.043  24.039  24.777  1.00  0.00     0.213 A 
ATOM     15  N   UNL A   1      31.034  23.311  25.316  1.00  0.00    -0.212 NA
ATOM     16  C   UNL A   1      33.204  23.387  24.424  1.00  0.00     0.372 A 
ATOM     17  C   UNL A   1      31.206  21.993  25.514  1.00  0.00     0.228 A 
ATOM     18  C   UNL A   1      33.316  22.039  24.725  1.00  0.00     0.299 A 
ATOM     19  N   UNL A   1      32.326  21.314  25.271  1.00  0.00    -0.196 NA
BRANCH  16  20
ATOM     20  N   UNL A   1      34.317  23.985  23.772  1.00  0.00     0.072 N 
ATOM     21  O   UNL A   1      35.178  24.504  24.493  1.00  0.00    -0.258 OA
ATOM     22  O   UNL A   1      34.284  24.032  22.533  1.00  0.00    -0.258 OA
ENDBRANCH  16  20
BRANCH  18  23
ATOM     23  O   UNL A   1      34.440  21.314  24.414  1.00  0.00    -0.476 OA
ATOM     24  C   UNL A   1      35.249  21.086  25.569  1.00  0.00     0.280 C 
ENDBRANCH  18  23
ENDBRANCH  12  14
ENDBRANCH   8  12
ENDBRANCH   5   8
ENDBRANCH   3   4
ENDBRANCH   2   3
ENDBRANCH   1   2
BRANCH   1  25
ATOM     25  C   UNL A   1      32.159  30.295  26.901  1.00  0.00     0.002 C 
BRANCH  25  26
ATOM     26  C   UNL A   1      31.821  31.785  26.886  1.00  0.00     0.021 C 
BRANCH  26  27
ATOM     27  C   UNL A   1      32.924  32.685  27.429  1.00  0.00     0.116 C 
BRANCH  27  28
ATOM     28  N   UNL A   1      32.482  34.056  27.665  1.00  0.00    -0.352 N 
ATOM     29  C   UNL A   1      32.983  34.955  28.575  1.00  0.00     0.251 C 
ATOM     30  H   UNL A   1      31.737  34.375  27.104  1.00  0.00     0.163 HD
ATOM     31  O   UNL A   1      32.466  36.047  28.752  1.00  0.00    -0.269 OA
BRANCH  29  32
ATOM     32  C   UNL A   1      34.157  34.550  29.377  1.00  0.00     0.039 A 
ATOM     33  C   UNL A   1      33.959  33.963  30.629  1.00  0.00     0.014 A 
ATOM     34  C   UNL A   1      35.440  34.659  28.833  1.00  0.00     0.014 A 
ATOM     35  C   UNL A   1      35.048  33.413  31.308  1.00  0.00     0.010 A 
ATOM     36  C   UNL A   1      36.511  34.056  29.482  1.00  0.00     0.010 A 
ATOM     37  C   UNL A   1      36.324  33.420  30.721  1.00  0.00    -0.014 A 
BRANCH  37  38
ATOM     38  C   UNL A   1      37.488  32.779  31.382  1.00  0.00     0.031 A 
ATOM     39  C   UNL A   1      38.179  31.627  30.710  1.00  0.00     0.074 A 
ATOM     40  C   UNL A   1      37.862  33.169  32.617  1.00  0.00     0.049 A 
ATOM     41  N   UNL A   1      39.122  30.845  31.168  1.00  0.00    -0.248 NA
ATOM     42  C   UNL A   1      37.722  31.288  29.353  1.00  0.00     0.031 C 
ATOM     43  C   UNL A   1      37.239  34.241  33.394  1.00  0.00     0.029 A 
ATOM     44  N   UNL A   1      38.849  32.692  33.444  1.00  0.00    -0.354 N 
ATOM     45  C   UNL A   1      39.346  29.904  30.172  1.00  0.00     0.074 A 
ATOM     46  C   UNL A   1      38.415  30.187  29.101  1.00  0.00     0.031 C 
ATOM     47  C   UNL A   1      37.865  34.348  34.578  1.00  0.00     0.029 A 
ATOM     48  C   UNL A   1      38.912  33.334  34.657  1.00  0.00     0.049 A 
ATOM     49  H   UNL A   1      39.455  31.958  33.191  1.00  0.00     0.167 HD
ATOM     50  C   UNL A   1      40.260  28.905  30.145  1.00  0.00     0.037 A 
ATOM     51  C   UNL A   1      39.720  33.120  35.713  1.00  0.00     0.037 A 
ATOM     52  C   UNL A   1      41.222  28.661  31.186  1.00  0.00     0.049 A 
ATOM     53  C   UNL A   1      40.757  32.031  35.636  1.00  0.00     0.074 A 
ATOM     54  C   UNL A   1      42.235  27.719  31.221  1.00  0.00     0.029 A 
ATOM     55  N   UNL A   1      41.296  29.375  32.372  1.00  0.00    -0.354 N 
ATOM     56  N   UNL A   1      41.000  31.187  34.664  1.00  0.00    -0.248 NA
ATOM     57  C   UNL A   1      41.639  31.870  36.803  1.00  0.00     0.031 C 
ATOM     58  C   UNL A   1      42.907  27.847  32.441  1.00  0.00     0.029 A 
ATOM     59  C   UNL A   1      42.334  28.892  33.148  1.00  0.00     0.049 A 
ATOM     60  H   UNL A   1      40.698  30.117  32.624  1.00  0.00     0.167 HD
ATOM     61  C   UNL A   1      42.080  30.422  35.083  1.00  0.00     0.074 A 
ATOM     62  C   UNL A   1      42.452  30.905  36.396  1.00  0.00     0.031 C 
ATOM     63  C   UNL A   1      42.707  29.409  34.438  1.00  0.00     0.037 A 
BRANCH  50  64
ATOM     64  C   UNL A   1      40.273  28.008  28.944  1.00  0.00     0.064 A 
ATOM     65  C   UNL A   1      41.010  28.331  27.796  1.00  0.00     0.173 A 
ATOM     66  C   UNL A   1      39.577  26.791  28.959  1.00  0.00     0.173 A 
ATOM     67  F   UNL A   1      41.682  29.491  27.729  1.00  0.00    -0.203 F 
ATOM     68  C   UNL A   1      41.029  27.479  26.695  1.00  0.00     0.198 A 
ATOM     69  C   UNL A   1      39.620  25.928  27.867  1.00  0.00     0.198 A 
ATOM     70  F   UNL A   1      38.860  26.433  30.036  1.00  0.00    -0.203 F 
ATOM     71  F   UNL A   1      41.706  27.828  25.592  1.00  0.00    -0.200 F 
ATOM     72  C   UNL A   1      40.342  26.275  26.735  1.00  0.00     0.200 A 
ATOM     73  F   UNL A   1      38.963  24.760  27.910  1.00  0.00    -0.200 F 
ATOM     74  F   UNL A   1      40.369  25.453  25.677  1.00  0.00    -0.200 F 
ENDBRANCH  50  64
BRANCH  51  75
ATOM     75  C   UNL A   1      39.608  33.970  36.927  1.00  0.00     0.064 A 
ATOM     76  C   UNL A   1      38.824  33.564  38.017  1.00  0.00     0.173 A 
ATOM     77  C   UNL A   1      40.251  35.212  37.014  1.00  0.00     0.173 A 
ATOM     78  F   UNL A   1      38.172  32.394  37.971  1.00  0.00    -0.203 F 
ATOM     79  C   UNL A   1      38.667  34.379  39.135  1.00  0.00     0.198 A 
ATOM     80  C   UNL A   1      40.115  36.016  38.145  1.00  0.00     0.198 A 
ATOM     81  F   UNL A   1      41.016  35.645  36.001  1.00  0.00    -0.203 F 
ATOM     82  F   UNL A   1      37.871  33.988  40.140  1.00  0.00    -0.200 F 
ATOM     83  C   UNL A   1      39.315  35.603  39.199  1.00  0.00     0.200 A 
ATOM     84  F   UNL A   1      40.751  37.194  38.208  1.00  0.00    -0.200 F 
ATOM     85  F   UNL A   1      39.160  36.390  40.273  1.00  0.00    -0.200 F 
ENDBRANCH  51  75
BRANCH  63  86
ATOM     86  C   UNL A   1      43.894  28.790  35.113  1.00  0.00     0.064 A 
ATOM     87  C   UNL A   1      45.190  29.291  34.925  1.00  0.00     0.173 A 
ATOM     88  C   UNL A   1      43.720  27.723  36.007  1.00  0.00     0.173 A 
ATOM     89  F   UNL A   1      45.406  30.300  34.070  1.00  0.00    -0.203 F 
ATOM     90  C   UNL A   1      46.273  28.733  35.598  1.00  0.00     0.198 A 
ATOM     91  C   UNL A   1      44.802  27.184  36.695  1.00  0.00     0.198 A 
ATOM     92  F   UNL A   1      42.497  27.214  36.223  1.00  0.00    -0.203 F 
ATOM     93  F   UNL A   1      47.509  29.204  35.379  1.00  0.00    -0.200 F 
ATOM     94  C   UNL A   1      46.078  27.687  36.488  1.00  0.00     0.200 A 
ATOM     95  F   UNL A   1      44.610  26.181  37.563  1.00  0.00    -0.200 F 
ATOM     96  F   UNL A   1      47.121  27.159  37.142  1.00  0.00    -0.200 F 
ENDBRANCH  63  86
ENDBRANCH  37  38
ENDBRANCH  29  32
ENDBRANCH  27  28
ENDBRANCH  26  27
ENDBRANCH  25  26
ENDBRANCH   1  25
TORSDOF 18
ENDMDL
