MODEL 1
REMARK VINA RESULT:     -11.1      0.000      0.000
REMARK SMILES CC(C)[C@H](Sc1ccncc1)C(=O)NCCCCCCNC(=O)c1ccc(-c2c3nc(c(-c4c(F)c(F)c(F)c(F)c4F)c4ccc([nH]4)c(-c4c(F)c(F)c(F)c(F)c4F)c4nc(c(-c5c(F)c(F)c(F)c(F)c5F)c5ccc2[nH]5)C=C4)C=C3)cc1
REMARK SMILES IDX 17 1 16 2 15 3 14 4 12 5 13 6 4 8 2 9 1 10 3 11 5 12 6 13
REMARK SMILES IDX 7 14 11 15 8 16 10 17 9 18 18 19 19 20 20 21 21 22 22 23
REMARK SMILES IDX 23 25 24 26 25 27 86 28 26 29 85 30 27 31 28 32 29 33 79 34
REMARK SMILES IDX 30 35 84 36 78 37 80 38 31 39 83 40 77 41 76 42 32 44 64 45
REMARK SMILES IDX 44 46 63 47 45 48 48 49 62 50 81 51 46 52 47 53 61 55 82 56
REMARK SMILES IDX 49 57 33 58 34 59 42 60 35 61 36 62 40 63 43 64 37 65 38 66
REMARK SMILES IDX 41 67 39 68 65 69 66 70 74 71 67 72 68 73 72 74 75 75 69 76
REMARK SMILES IDX 70 77 73 78 71 79 50 80 51 81 59 82 52 83 53 84 57 85 60 86
REMARK SMILES IDX 54 87 55 88 58 89 56 90
REMARK H PARENT 14 7 21 24 80 43 48 54
REMARK Flexibility Score: inf
ROOT
ATOM      1  C   UNL A   1      37.570  21.913  24.924  1.00  0.00     0.002 C 
ENDROOT
BRANCH   1   2
ATOM      2  C   UNL A   1      36.820  22.800  23.927  1.00  0.00     0.021 C 
BRANCH   2   3
ATOM      3  C   UNL A   1      35.930  23.854  24.573  1.00  0.00     0.116 C 
BRANCH   3   4
ATOM      4  N   UNL A   1      35.325  23.400  25.809  1.00  0.00    -0.355 N 
ATOM      5  C   UNL A   1      34.260  22.581  26.041  1.00  0.00     0.233 C 
ATOM      6  O   UNL A   1      34.011  22.324  27.226  1.00  0.00    -0.274 OA
ATOM      7  H   UNL A   1      35.759  23.743  26.624  1.00  0.00     0.163 HD
BRANCH   5   8
ATOM      8  C   UNL A   1      33.413  21.935  24.923  1.00  0.00     0.143 C 
BRANCH   8   9
ATOM      9  C   UNL A   1      32.500  22.940  24.166  1.00  0.00     0.006 C 
ATOM     10  C   UNL A   1      31.922  22.503  22.824  1.00  0.00     0.009 C 
ATOM     11  C   UNL A   1      31.345  23.391  25.076  1.00  0.00     0.009 C 
ENDBRANCH   8   9
BRANCH   8  12
ATOM     12  S   UNL A   1      32.668  20.369  25.576  1.00  0.00    -0.112 SA
BRANCH  12  13
ATOM     13  C   UNL A   1      33.004  19.089  24.389  1.00  0.00     0.011 A 
ATOM     14  C   UNL A   1      32.273  18.825  23.237  1.00  0.00     0.035 A 
ATOM     15  C   UNL A   1      34.125  18.297  24.656  1.00  0.00     0.035 A 
ATOM     16  C   UNL A   1      32.653  17.753  22.443  1.00  0.00     0.112 A 
ATOM     17  C   UNL A   1      34.439  17.261  23.795  1.00  0.00     0.112 A 
ATOM     18  N   UNL A   1      33.716  16.962  22.698  1.00  0.00    -0.265 NA
ENDBRANCH  12  13
ENDBRANCH   8  12
ENDBRANCH   5   8
ENDBRANCH   3   4
ENDBRANCH   2   3
ENDBRANCH   1   2
BRANCH   1  19
ATOM     19  C   UNL A   1      37.185  20.429  24.906  1.00  0.00     0.002 C 
BRANCH  19  20
ATOM     20  C   UNL A   1      38.352  19.440  24.993  1.00  0.00     0.021 C 
BRANCH  20  21
ATOM     21  C   UNL A   1      39.512  19.886  25.874  1.00  0.00     0.116 C 
BRANCH  21  22
ATOM     22  N   UNL A   1      40.584  18.907  25.911  1.00  0.00    -0.352 N 
ATOM     23  C   UNL A   1      41.935  19.098  26.042  1.00  0.00     0.251 C 
ATOM     24  H   UNL A   1      40.299  17.968  25.832  1.00  0.00     0.163 HD
ATOM     25  O   UNL A   1      42.708  18.160  25.883  1.00  0.00    -0.269 OA
BRANCH  23  26
ATOM     26  C   UNL A   1      42.464  20.444  26.351  1.00  0.00     0.039 A 
ATOM     27  C   UNL A   1      43.005  21.206  25.312  1.00  0.00     0.014 A 
ATOM     28  C   UNL A   1      42.445  20.948  27.655  1.00  0.00     0.014 A 
ATOM     29  C   UNL A   1      43.475  22.494  25.571  1.00  0.00     0.010 A 
ATOM     30  C   UNL A   1      42.844  22.259  27.898  1.00  0.00     0.010 A 
ATOM     31  C   UNL A   1      43.370  23.043  26.859  1.00  0.00    -0.014 A 
BRANCH  31  32
ATOM     32  C   UNL A   1      43.808  24.434  27.135  1.00  0.00     0.031 A 
ATOM     33  C   UNL A   1      42.822  25.456  27.626  1.00  0.00     0.074 A 
ATOM     34  C   UNL A   1      45.085  24.789  26.891  1.00  0.00     0.049 A 
ATOM     35  N   UNL A   1      43.001  26.728  27.874  1.00  0.00    -0.248 NA
ATOM     36  C   UNL A   1      41.442  24.993  27.844  1.00  0.00     0.031 C 
ATOM     37  C   UNL A   1      46.124  23.900  26.370  1.00  0.00     0.029 A 
ATOM     38  N   UNL A   1      45.725  25.994  27.042  1.00  0.00    -0.354 N 
ATOM     39  C   UNL A   1      41.761  27.218  28.263  1.00  0.00     0.074 A 
ATOM     40  C   UNL A   1      40.824  26.120  28.167  1.00  0.00     0.031 C 
ATOM     41  C   UNL A   1      47.275  24.582  26.266  1.00  0.00     0.029 A 
ATOM     42  C   UNL A   1      47.048  25.964  26.675  1.00  0.00     0.049 A 
ATOM     43  H   UNL A   1      45.278  26.802  27.382  1.00  0.00     0.167 HD
ATOM     44  C   UNL A   1      41.439  28.463  28.688  1.00  0.00     0.037 A 
ATOM     45  C   UNL A   1      47.971  26.944  26.662  1.00  0.00     0.037 A 
ATOM     46  C   UNL A   1      42.380  29.546  28.804  1.00  0.00     0.049 A 
ATOM     47  C   UNL A   1      47.583  28.322  27.128  1.00  0.00     0.074 A 
ATOM     48  C   UNL A   1      42.166  30.828  29.279  1.00  0.00     0.029 A 
ATOM     49  N   UNL A   1      43.715  29.475  28.435  1.00  0.00    -0.354 N 
ATOM     50  N   UNL A   1      46.424  28.754  27.564  1.00  0.00    -0.248 NA
ATOM     51  C   UNL A   1      48.636  29.348  27.108  1.00  0.00     0.031 C 
ATOM     52  C   UNL A   1      43.356  31.549  29.147  1.00  0.00     0.029 A 
ATOM     53  C   UNL A   1      44.331  30.699  28.647  1.00  0.00     0.049 A 
ATOM     54  H   UNL A   1      44.160  28.674  28.075  1.00  0.00     0.167 HD
ATOM     55  C   UNL A   1      46.615  30.088  27.898  1.00  0.00     0.074 A 
ATOM     56  C   UNL A   1      48.005  30.390  27.630  1.00  0.00     0.031 C 
ATOM     57  C   UNL A   1      45.718  30.983  28.383  1.00  0.00     0.037 A 
BRANCH  44  58
ATOM     58  C   UNL A   1      40.007  28.724  29.061  1.00  0.00     0.064 A 
ATOM     59  C   UNL A   1      39.078  29.206  28.127  1.00  0.00     0.173 A 
ATOM     60  C   UNL A   1      39.548  28.447  30.358  1.00  0.00     0.173 A 
ATOM     61  F   UNL A   1      39.467  29.498  26.875  1.00  0.00    -0.203 F 
ATOM     62  C   UNL A   1      37.751  29.428  28.483  1.00  0.00     0.198 A 
ATOM     63  C   UNL A   1      38.212  28.639  30.702  1.00  0.00     0.198 A 
ATOM     64  F   UNL A   1      40.391  27.979  31.289  1.00  0.00    -0.203 F 
ATOM     65  F   UNL A   1      36.893  29.936  27.587  1.00  0.00    -0.200 F 
ATOM     66  C   UNL A   1      37.316  29.137  29.768  1.00  0.00     0.200 A 
ATOM     67  F   UNL A   1      37.791  28.343  31.940  1.00  0.00    -0.200 F 
ATOM     68  F   UNL A   1      36.036  29.342  30.107  1.00  0.00    -0.200 F 
ENDBRANCH  44  58
BRANCH  45  69
ATOM     69  C   UNL A   1      49.358  26.656  26.210  1.00  0.00     0.064 A 
ATOM     70  C   UNL A   1      50.313  26.138  27.095  1.00  0.00     0.173 A 
ATOM     71  C   UNL A   1      49.761  26.901  24.889  1.00  0.00     0.173 A 
ATOM     72  F   UNL A   1      49.982  25.904  28.375  1.00  0.00    -0.203 F 
ATOM     73  C   UNL A   1      51.624  25.902  26.686  1.00  0.00     0.198 A 
ATOM     74  C   UNL A   1      51.063  26.635  24.471  1.00  0.00     0.198 A 
ATOM     75  F   UNL A   1      48.885  27.390  23.999  1.00  0.00    -0.203 F 
ATOM     76  F   UNL A   1      52.529  25.458  27.568  1.00  0.00    -0.200 F 
ATOM     77  C   UNL A   1      51.997  26.146  25.373  1.00  0.00     0.200 A 
ATOM     78  F   UNL A   1      51.414  26.856  23.198  1.00  0.00    -0.200 F 
ATOM     79  F   UNL A   1      53.256  25.917  24.978  1.00  0.00    -0.200 F 
ENDBRANCH  45  69
BRANCH  57  80
ATOM     80  C   UNL A   1      46.222  32.363  28.693  1.00  0.00     0.064 A 
ATOM     81  C   UNL A   1      46.183  33.395  27.743  1.00  0.00     0.173 A 
ATOM     82  C   UNL A   1      46.716  32.667  29.972  1.00  0.00     0.173 A 
ATOM     83  F   UNL A   1      45.734  33.153  26.502  1.00  0.00    -0.203 F 
ATOM     84  C   UNL A   1      46.649  34.671  28.053  1.00  0.00     0.198 A 
ATOM     85  C   UNL A   1      47.148  33.951  30.287  1.00  0.00     0.198 A 
ATOM     86  F   UNL A   1      46.768  31.719  30.919  1.00  0.00    -0.203 F 
ATOM     87  F   UNL A   1      46.652  35.626  27.113  1.00  0.00    -0.200 F 
ATOM     88  C   UNL A   1      47.122  34.950  29.326  1.00  0.00     0.200 A 
ATOM     89  F   UNL A   1      47.591  34.222  31.523  1.00  0.00    -0.200 F 
ATOM     90  F   UNL A   1      47.563  36.179  29.624  1.00  0.00    -0.200 F 
ENDBRANCH  57  80
ENDBRANCH  31  32
ENDBRANCH  23  26
ENDBRANCH  21  22
ENDBRANCH  20  21
ENDBRANCH  19  20
ENDBRANCH   1  19
TORSDOF 16
ENDMDL
MODEL 2
REMARK VINA RESULT:     -11.0      5.810     10.610
REMARK SMILES CC(C)[C@H](Sc1ccncc1)C(=O)NCCCCCCNC(=O)c1ccc(-c2c3nc(c(-c4c(F)c(F)c(F)c(F)c4F)c4ccc([nH]4)c(-c4c(F)c(F)c(F)c(F)c4F)c4nc(c(-c5c(F)c(F)c(F)c(F)c5F)c5ccc2[nH]5)C=C4)C=C3)cc1
REMARK SMILES IDX 17 1 16 2 15 3 14 4 12 5 13 6 4 8 2 9 1 10 3 11 5 12 6 13
REMARK SMILES IDX 7 14 11 15 8 16 10 17 9 18 18 19 19 20 20 21 21 22 22 23
REMARK SMILES IDX 23 25 24 26 25 27 86 28 26 29 85 30 27 31 28 32 29 33 79 34
REMARK SMILES IDX 30 35 84 36 78 37 80 38 31 39 83 40 77 41 76 42 32 44 64 45
REMARK SMILES IDX 44 46 63 47 45 48 48 49 62 50 81 51 46 52 47 53 61 55 82 56
REMARK SMILES IDX 49 57 33 58 34 59 42 60 35 61 36 62 40 63 43 64 37 65 38 66
REMARK SMILES IDX 41 67 39 68 65 69 66 70 74 71 67 72 68 73 72 74 75 75 69 76
REMARK SMILES IDX 70 77 73 78 71 79 50 80 51 81 59 82 52 83 53 84 57 85 60 86
REMARK SMILES IDX 54 87 55 88 58 89 56 90
REMARK H PARENT 14 7 21 24 80 43 48 54
REMARK Flexibility Score: inf
ROOT
ATOM      1  C   UNL A   1      37.005  33.220  28.656  1.00  0.00     0.002 C 
ENDROOT
BRANCH   1   2
ATOM      2  C   UNL A   1      38.189  33.938  29.309  1.00  0.00     0.021 C 
BRANCH   2   3
ATOM      3  C   UNL A   1      38.003  34.235  30.791  1.00  0.00     0.116 C 
BRANCH   3   4
ATOM      4  N   UNL A   1      37.382  33.141  31.511  1.00  0.00    -0.355 N 
ATOM      5  C   UNL A   1      36.819  33.087  32.752  1.00  0.00     0.233 C 
ATOM      6  O   UNL A   1      36.307  32.008  33.077  1.00  0.00    -0.274 OA
ATOM      7  H   UNL A   1      37.363  32.289  31.018  1.00  0.00     0.163 HD
BRANCH   5   8
ATOM      8  C   UNL A   1      36.743  34.291  33.715  1.00  0.00     0.143 C 
BRANCH   8   9
ATOM      9  C   UNL A   1      37.826  34.273  34.830  1.00  0.00     0.006 C 
ATOM     10  C   UNL A   1      37.558  33.423  36.067  1.00  0.00     0.009 C 
ATOM     11  C   UNL A   1      39.185  33.863  34.237  1.00  0.00     0.009 C 
ENDBRANCH   8   9
BRANCH   8  12
ATOM     12  S   UNL A   1      34.973  34.555  34.195  1.00  0.00    -0.112 SA
BRANCH  12  13
ATOM     13  C   UNL A   1      34.216  35.524  32.912  1.00  0.00     0.011 A 
ATOM     14  C   UNL A   1      33.723  35.044  31.704  1.00  0.00     0.035 A 
ATOM     15  C   UNL A   1      34.104  36.893  33.174  1.00  0.00     0.035 A 
ATOM     16  C   UNL A   1      33.202  35.953  30.795  1.00  0.00     0.112 A 
ATOM     17  C   UNL A   1      33.551  37.719  32.214  1.00  0.00     0.112 A 
ATOM     18  N   UNL A   1      33.109  37.280  31.020  1.00  0.00    -0.265 NA
ENDBRANCH  12  13
ENDBRANCH   8  12
ENDBRANCH   5   8
ENDBRANCH   3   4
ENDBRANCH   2   3
ENDBRANCH   1   2
BRANCH   1  19
ATOM     19  C   UNL A   1      35.866  34.128  28.179  1.00  0.00     0.002 C 
BRANCH  19  20
ATOM     20  C   UNL A   1      34.456  33.540  28.293  1.00  0.00     0.021 C 
BRANCH  20  21
ATOM     21  C   UNL A   1      34.358  32.249  29.094  1.00  0.00     0.116 C 
BRANCH  21  22
ATOM     22  N   UNL A   1      33.855  31.143  28.299  1.00  0.00    -0.352 N 
ATOM     23  C   UNL A   1      34.524  30.062  27.785  1.00  0.00     0.251 C 
ATOM     24  H   UNL A   1      32.891  31.173  28.101  1.00  0.00     0.163 HD
ATOM     25  O   UNL A   1      33.965  29.312  26.993  1.00  0.00    -0.269 OA
BRANCH  23  26
ATOM     26  C   UNL A   1      35.930  29.814  28.168  1.00  0.00     0.039 A 
ATOM     27  C   UNL A   1      36.205  29.391  29.471  1.00  0.00     0.014 A 
ATOM     28  C   UNL A   1      36.974  30.009  27.259  1.00  0.00     0.014 A 
ATOM     29  C   UNL A   1      37.520  29.113  29.846  1.00  0.00     0.010 A 
ATOM     30  C   UNL A   1      38.274  29.658  27.609  1.00  0.00     0.010 A 
ATOM     31  C   UNL A   1      38.562  29.214  28.909  1.00  0.00    -0.014 A 
BRANCH  31  32
ATOM     32  C   UNL A   1      39.956  28.860  29.276  1.00  0.00     0.031 A 
ATOM     33  C   UNL A   1      40.776  29.792  30.123  1.00  0.00     0.074 A 
ATOM     34  C   UNL A   1      40.499  27.722  28.800  1.00  0.00     0.049 A 
ATOM     35  N   UNL A   1      42.023  29.682  30.506  1.00  0.00    -0.248 NA
ATOM     36  C   UNL A   1      40.116  31.024  30.582  1.00  0.00     0.031 C 
ATOM     37  C   UNL A   1      39.820  26.760  27.931  1.00  0.00     0.029 A 
ATOM     38  N   UNL A   1      41.751  27.186  28.975  1.00  0.00    -0.354 N 
ATOM     39  C   UNL A   1      42.298  30.831  31.236  1.00  0.00     0.074 A 
ATOM     40  C   UNL A   1      41.107  31.652  31.197  1.00  0.00     0.031 C 
ATOM     41  C   UNL A   1      40.653  25.742  27.667  1.00  0.00     0.029 A 
ATOM     42  C   UNL A   1      41.936  25.996  28.314  1.00  0.00     0.049 A 
ATOM     43  H   UNL A   1      42.449  27.613  29.521  1.00  0.00     0.167 HD
ATOM     44  C   UNL A   1      43.432  31.160  31.899  1.00  0.00     0.037 A 
ATOM     45  C   UNL A   1      43.022  25.205  28.232  1.00  0.00     0.037 A 
ATOM     46  C   UNL A   1      44.607  30.329  31.953  1.00  0.00     0.049 A 
ATOM     47  C   UNL A   1      44.273  25.600  28.970  1.00  0.00     0.074 A 
ATOM     48  C   UNL A   1      45.786  30.545  32.645  1.00  0.00     0.029 A 
ATOM     49  N   UNL A   1      44.754  29.124  31.281  1.00  0.00    -0.354 N 
ATOM     50  N   UNL A   1      44.497  26.653  29.717  1.00  0.00    -0.248 NA
ATOM     51  C   UNL A   1      45.422  24.689  28.858  1.00  0.00     0.031 C 
ATOM     52  C   UNL A   1      46.665  29.500  32.350  1.00  0.00     0.029 A 
ATOM     53  C   UNL A   1      46.014  28.599  31.522  1.00  0.00     0.049 A 
ATOM     54  H   UNL A   1      44.065  28.705  30.716  1.00  0.00     0.167 HD
ATOM     55  C   UNL A   1      45.796  26.518  30.189  1.00  0.00     0.074 A 
ATOM     56  C   UNL A   1      46.305  25.272  29.657  1.00  0.00     0.031 C 
ATOM     57  C   UNL A   1      46.504  27.352  30.991  1.00  0.00     0.037 A 
BRANCH  44  58
ATOM     58  C   UNL A   1      43.460  32.476  32.624  1.00  0.00     0.064 A 
ATOM     59  C   UNL A   1      43.933  33.645  32.010  1.00  0.00     0.173 A 
ATOM     60  C   UNL A   1      42.966  32.577  33.933  1.00  0.00     0.173 A 
ATOM     61  F   UNL A   1      44.426  33.603  30.763  1.00  0.00    -0.203 F 
ATOM     62  C   UNL A   1      43.938  34.861  32.690  1.00  0.00     0.198 A 
ATOM     63  C   UNL A   1      42.942  33.800  34.599  1.00  0.00     0.198 A 
ATOM     64  F   UNL A   1      42.496  31.492  34.566  1.00  0.00    -0.203 F 
ATOM     65  F   UNL A   1      44.441  35.955  32.100  1.00  0.00    -0.200 F 
ATOM     66  C   UNL A   1      43.435  34.940  33.980  1.00  0.00     0.200 A 
ATOM     67  F   UNL A   1      42.442  33.877  35.840  1.00  0.00    -0.200 F 
ATOM     68  F   UNL A   1      43.430  36.112  34.629  1.00  0.00    -0.200 F 
ENDBRANCH  44  58
BRANCH  45  69
ATOM     69  C   UNL A   1      42.971  23.949  27.437  1.00  0.00     0.064 A 
ATOM     70  C   UNL A   1      42.551  22.744  28.017  1.00  0.00     0.173 A 
ATOM     71  C   UNL A   1      43.350  23.923  26.087  1.00  0.00     0.173 A 
ATOM     72  F   UNL A   1      42.197  22.712  29.311  1.00  0.00    -0.203 F 
ATOM     73  C   UNL A   1      42.538  21.557  27.287  1.00  0.00     0.198 A 
ATOM     74  C   UNL A   1      43.307  22.744  25.348  1.00  0.00     0.198 A 
ATOM     75  F   UNL A   1      43.753  25.050  25.481  1.00  0.00    -0.203 F 
ATOM     76  F   UNL A   1      42.184  20.411  27.882  1.00  0.00    -0.200 F 
ATOM     77  C   UNL A   1      42.911  21.559  25.951  1.00  0.00     0.200 A 
ATOM     78  F   UNL A   1      43.651  22.753  24.054  1.00  0.00    -0.200 F 
ATOM     79  F   UNL A   1      42.897  20.419  25.248  1.00  0.00    -0.200 F 
ENDBRANCH  45  69
BRANCH  57  80
ATOM     80  C   UNL A   1      47.891  26.925  31.374  1.00  0.00     0.064 A 
ATOM     81  C   UNL A   1      49.021  27.360  30.665  1.00  0.00     0.173 A 
ATOM     82  C   UNL A   1      48.096  26.099  32.492  1.00  0.00     0.173 A 
ATOM     83  F   UNL A   1      48.880  28.138  29.582  1.00  0.00    -0.203 F 
ATOM     84  C   UNL A   1      50.301  26.958  31.042  1.00  0.00     0.198 A 
ATOM     85  C   UNL A   1      49.377  25.728  32.885  1.00  0.00     0.198 A 
ATOM     86  F   UNL A   1      47.050  25.662  33.210  1.00  0.00    -0.203 F 
ATOM     87  F   UNL A   1      51.360  27.342  30.317  1.00  0.00    -0.200 F 
ATOM     88  C   UNL A   1      50.478  26.151  32.155  1.00  0.00     0.200 A 
ATOM     89  F   UNL A   1      49.548  24.961  33.971  1.00  0.00    -0.200 F 
ATOM     90  F   UNL A   1      51.711  25.772  32.520  1.00  0.00    -0.200 F 
ENDBRANCH  57  80
ENDBRANCH  31  32
ENDBRANCH  23  26
ENDBRANCH  21  22
ENDBRANCH  20  21
ENDBRANCH  19  20
ENDBRANCH   1  19
TORSDOF 16
ENDMDL
MODEL 3
REMARK VINA RESULT:     -11.0      5.985     11.276
REMARK SMILES CC(C)[C@H](Sc1ccncc1)C(=O)NCCCCCCNC(=O)c1ccc(-c2c3nc(c(-c4c(F)c(F)c(F)c(F)c4F)c4ccc([nH]4)c(-c4c(F)c(F)c(F)c(F)c4F)c4nc(c(-c5c(F)c(F)c(F)c(F)c5F)c5ccc2[nH]5)C=C4)C=C3)cc1
REMARK SMILES IDX 17 1 16 2 15 3 14 4 12 5 13 6 4 8 2 9 1 10 3 11 5 12 6 13
REMARK SMILES IDX 7 14 11 15 8 16 10 17 9 18 18 19 19 20 20 21 21 22 22 23
REMARK SMILES IDX 23 25 24 26 25 27 86 28 26 29 85 30 27 31 28 32 29 33 79 34
REMARK SMILES IDX 30 35 84 36 78 37 80 38 31 39 83 40 77 41 76 42 32 44 64 45
REMARK SMILES IDX 44 46 63 47 45 48 48 49 62 50 81 51 46 52 47 53 61 55 82 56
REMARK SMILES IDX 49 57 33 58 34 59 42 60 35 61 36 62 40 63 43 64 37 65 38 66
REMARK SMILES IDX 41 67 39 68 65 69 66 70 74 71 67 72 68 73 72 74 75 75 69 76
REMARK SMILES IDX 70 77 73 78 71 79 50 80 51 81 59 82 52 83 53 84 57 85 60 86
REMARK SMILES IDX 54 87 55 88 58 89 56 90
REMARK H PARENT 14 7 21 24 80 43 48 54
REMARK Flexibility Score: inf
ROOT
ATOM      1  C   UNL A   1      32.560  29.890  27.189  1.00  0.00     0.002 C 
ENDROOT
BRANCH   1   2
ATOM      2  C   UNL A   1      32.173  28.429  27.434  1.00  0.00     0.021 C 
BRANCH   2   3
ATOM      3  C   UNL A   1      31.620  27.714  26.208  1.00  0.00     0.116 C 
BRANCH   3   4
ATOM      4  N   UNL A   1      30.982  26.453  26.532  1.00  0.00    -0.355 N 
ATOM      5  C   UNL A   1      31.405  25.166  26.374  1.00  0.00     0.233 C 
ATOM      6  O   UNL A   1      30.653  24.283  26.807  1.00  0.00    -0.274 OA
ATOM      7  H   UNL A   1      30.089  26.541  26.937  1.00  0.00     0.163 HD
BRANCH   5   8
ATOM      8  C   UNL A   1      32.763  24.777  25.750  1.00  0.00     0.143 C 
BRANCH   8   9
ATOM      9  C   UNL A   1      32.747  24.720  24.197  1.00  0.00     0.006 C 
ATOM     10  C   UNL A   1      31.391  24.713  23.500  1.00  0.00     0.009 C 
ATOM     11  C   UNL A   1      33.591  25.869  23.619  1.00  0.00     0.009 C 
ENDBRANCH   8   9
BRANCH   8  12
ATOM     12  S   UNL A   1      33.455  23.338  26.689  1.00  0.00    -0.112 SA
BRANCH  12  13
ATOM     13  C   UNL A   1      34.965  22.857  25.883  1.00  0.00     0.011 A 
ATOM     14  C   UNL A   1      35.229  21.620  25.307  1.00  0.00     0.035 A 
ATOM     15  C   UNL A   1      35.957  23.840  25.822  1.00  0.00     0.035 A 
ATOM     16  C   UNL A   1      36.484  21.402  24.757  1.00  0.00     0.112 A 
ATOM     17  C   UNL A   1      37.171  23.536  25.235  1.00  0.00     0.112 A 
ATOM     18  N   UNL A   1      37.462  22.330  24.712  1.00  0.00    -0.265 NA
ENDBRANCH  12  13
ENDBRANCH   8  12
ENDBRANCH   5   8
ENDBRANCH   3   4
ENDBRANCH   2   3
ENDBRANCH   1   2
BRANCH   1  19
ATOM     19  C   UNL A   1      31.591  30.691  26.311  1.00  0.00     0.002 C 
BRANCH  19  20
ATOM     20  C   UNL A   1      31.403  32.160  26.700  1.00  0.00     0.021 C 
BRANCH  20  21
ATOM     21  C   UNL A   1      32.675  32.885  27.120  1.00  0.00     0.116 C 
BRANCH  21  22
ATOM     22  N   UNL A   1      32.415  34.242  27.567  1.00  0.00    -0.352 N 
ATOM     23  C   UNL A   1      32.986  34.947  28.595  1.00  0.00     0.251 C 
ATOM     24  H   UNL A   1      31.729  34.729  27.054  1.00  0.00     0.163 HD
ATOM     25  O   UNL A   1      32.520  36.029  28.933  1.00  0.00    -0.269 OA
BRANCH  23  26
ATOM     26  C   UNL A   1      34.150  34.389  29.315  1.00  0.00     0.039 A 
ATOM     27  C   UNL A   1      33.938  33.749  30.539  1.00  0.00     0.014 A 
ATOM     28  C   UNL A   1      35.445  34.509  28.802  1.00  0.00     0.014 A 
ATOM     29  C   UNL A   1      35.015  33.181  31.219  1.00  0.00     0.010 A 
ATOM     30  C   UNL A   1      36.507  33.876  29.442  1.00  0.00     0.010 A 
ATOM     31  C   UNL A   1      36.304  33.212  30.662  1.00  0.00    -0.014 A 
BRANCH  31  32
ATOM     32  C   UNL A   1      37.448  32.556  31.344  1.00  0.00     0.031 A 
ATOM     33  C   UNL A   1      38.143  31.388  30.703  1.00  0.00     0.074 A 
ATOM     34  C   UNL A   1      37.825  32.982  32.566  1.00  0.00     0.049 A 
ATOM     35  N   UNL A   1      39.124  30.654  31.164  1.00  0.00    -0.248 NA
ATOM     36  C   UNL A   1      37.654  30.970  29.380  1.00  0.00     0.031 C 
ATOM     37  C   UNL A   1      37.198  34.076  33.310  1.00  0.00     0.029 A 
ATOM     38  N   UNL A   1      38.822  32.541  33.400  1.00  0.00    -0.354 N 
ATOM     39  C   UNL A   1      39.360  29.686  30.196  1.00  0.00     0.074 A 
ATOM     40  C   UNL A   1      38.384  29.890  29.147  1.00  0.00     0.031 C 
ATOM     41  C   UNL A   1      37.838  34.235  34.478  1.00  0.00     0.029 A 
ATOM     42  C   UNL A   1      38.893  33.232  34.584  1.00  0.00     0.049 A 
ATOM     43  H   UNL A   1      39.427  31.800  33.171  1.00  0.00     0.167 HD
ATOM     44  C   UNL A   1      40.320  28.731  30.172  1.00  0.00     0.037 A 
ATOM     45  C   UNL A   1      39.712  33.069  35.640  1.00  0.00     0.037 A 
ATOM     46  C   UNL A   1      41.304  28.547  31.208  1.00  0.00     0.049 A 
ATOM     47  C   UNL A   1      40.763  31.992  35.592  1.00  0.00     0.074 A 
ATOM     48  C   UNL A   1      42.354  27.647  31.251  1.00  0.00     0.029 A 
ATOM     49  N   UNL A   1      41.353  29.276  32.388  1.00  0.00    -0.354 N 
ATOM     50  N   UNL A   1      41.024  31.131  34.639  1.00  0.00    -0.248 NA
ATOM     51  C   UNL A   1      41.640  31.871  36.767  1.00  0.00     0.031 C 
ATOM     52  C   UNL A   1      43.005  27.793  32.479  1.00  0.00     0.029 A 
ATOM     53  C   UNL A   1      42.401  28.826  33.177  1.00  0.00     0.049 A 
ATOM     54  H   UNL A   1      40.736  30.003  32.630  1.00  0.00     0.167 HD
ATOM     55  C   UNL A   1      42.110  30.388  35.083  1.00  0.00     0.074 A 
ATOM     56  C   UNL A   1      42.470  30.911  36.383  1.00  0.00     0.031 C 
ATOM     57  C   UNL A   1      42.752  29.363  34.468  1.00  0.00     0.037 A 
BRANCH  44  58
ATOM     58  C   UNL A   1      40.357  27.809  28.987  1.00  0.00     0.064 A 
ATOM     59  C   UNL A   1      41.162  28.076  27.870  1.00  0.00     0.173 A 
ATOM     60  C   UNL A   1      39.612  26.620  28.988  1.00  0.00     0.173 A 
ATOM     61  F   UNL A   1      41.887  29.205  27.813  1.00  0.00    -0.203 F 
ATOM     62  C   UNL A   1      41.198  27.203  26.785  1.00  0.00     0.198 A 
ATOM     63  C   UNL A   1      39.675  25.733  27.916  1.00  0.00     0.198 A 
ATOM     64  F   UNL A   1      38.830  26.311  30.032  1.00  0.00    -0.203 F 
ATOM     65  F   UNL A   1      41.936  27.505  25.708  1.00  0.00    -0.200 F 
ATOM     66  C   UNL A   1      40.461  26.029  26.812  1.00  0.00     0.200 A 
ATOM     67  F   UNL A   1      38.974  24.591  27.950  1.00  0.00    -0.200 F 
ATOM     68  F   UNL A   1      40.504  25.185  25.772  1.00  0.00    -0.200 F 
ENDBRANCH  44  58
BRANCH  45  69
ATOM     69  C   UNL A   1      39.586  33.958  36.826  1.00  0.00     0.064 A 
ATOM     70  C   UNL A   1      40.250  35.191  36.877  1.00  0.00     0.173 A 
ATOM     71  C   UNL A   1      38.811  33.590  37.935  1.00  0.00     0.173 A 
ATOM     72  F   UNL A   1      41.019  35.580  35.848  1.00  0.00    -0.203 F 
ATOM     73  C   UNL A   1      40.165  36.010  38.001  1.00  0.00     0.198 A 
ATOM     74  C   UNL A   1      38.701  34.423  39.046  1.00  0.00     0.198 A 
ATOM     75  F   UNL A   1      38.150  32.423  37.935  1.00  0.00    -0.203 F 
ATOM     76  F   UNL A   1      40.853  37.159  38.044  1.00  0.00    -0.200 F 
ATOM     77  C   UNL A   1      39.387  35.628  39.083  1.00  0.00     0.200 A 
ATOM     78  F   UNL A   1      37.934  34.057  40.081  1.00  0.00    -0.200 F 
ATOM     79  F   UNL A   1      39.303  36.416  40.163  1.00  0.00    -0.200 F 
ENDBRANCH  45  69
BRANCH  57  80
ATOM     80  C   UNL A   1      43.934  28.767  35.176  1.00  0.00     0.064 A 
ATOM     81  C   UNL A   1      45.238  29.236  34.961  1.00  0.00     0.173 A 
ATOM     82  C   UNL A   1      43.753  27.736  36.112  1.00  0.00     0.173 A 
ATOM     83  F   UNL A   1      45.466  30.209  34.066  1.00  0.00    -0.203 F 
ATOM     84  C   UNL A   1      46.321  28.674  35.634  1.00  0.00     0.198 A 
ATOM     85  C   UNL A   1      44.833  27.201  36.807  1.00  0.00     0.198 A 
ATOM     86  F   UNL A   1      42.525  27.256  36.362  1.00  0.00    -0.203 F 
ATOM     87  F   UNL A   1      47.563  29.101  35.371  1.00  0.00    -0.200 F 
ATOM     88  C   UNL A   1      46.117  27.664  36.561  1.00  0.00     0.200 A 
ATOM     89  F   UNL A   1      44.632  26.236  37.716  1.00  0.00    -0.200 F 
ATOM     90  F   UNL A   1      47.159  27.130  37.213  1.00  0.00    -0.200 F 
ENDBRANCH  57  80
ENDBRANCH  31  32
ENDBRANCH  23  26
ENDBRANCH  21  22
ENDBRANCH  20  21
ENDBRANCH  19  20
ENDBRANCH   1  19
TORSDOF 16
ENDMDL
