MODEL 1
REMARK VINA RESULT:     -11.5      0.000      0.000
REMARK SMILES C[C@@H]1[C@H](C)CC[C@@H]1NC(=O)N1CCO[C@H](CC(=O)NCCCCCCNC(=O)c2ccc(-c3c4nc(c(-c5c(F)c(F)c(F)c(F)c5F)c5ccc([nH]5)c(-c5c(F)c(F)c(F)c(F)c5F)c5nc(c(-c6c(F)c(F)c(F)c(F)c6F)c6ccc3[nH]6)C=C5)C=C4)cc2)C1
REMARK SMILES IDX 22 1 21 2 20 3 19 4 17 5 18 6 16 8 15 9 11 10 12 11 92 12
REMARK SMILES IDX 13 13 14 14 9 15 8 16 10 18 7 19 1 20 2 21 3 22 4 23 5 24
REMARK SMILES IDX 6 25 23 26 24 27 25 28 26 29 27 30 28 32 29 33 30 34 91 35
REMARK SMILES IDX 31 36 90 37 32 38 33 39 34 40 84 41 35 42 89 43 83 44 85 45
REMARK SMILES IDX 36 46 88 47 82 48 81 49 37 51 69 52 49 53 68 54 50 55 53 56
REMARK SMILES IDX 67 57 86 58 51 59 52 60 66 62 87 63 54 64 38 65 39 66 47 67
REMARK SMILES IDX 40 68 41 69 45 70 48 71 42 72 43 73 46 74 44 75 70 76 71 77
REMARK SMILES IDX 79 78 72 79 73 80 77 81 80 82 74 83 75 84 78 85 76 86 55 87
REMARK SMILES IDX 56 88 64 89 57 90 58 91 62 92 65 93 59 94 60 95 63 96 61 97
REMARK H PARENT 19 7 8 17 26 31 85 50 53 61
REMARK Flexibility Score: inf
ROOT
ATOM      1  C   UNL A   1      34.027  32.163  28.673  1.00  0.00     0.002 C 
ENDROOT
BRANCH   1   2
ATOM      2  C   UNL A   1      34.931  31.235  27.855  1.00  0.00     0.021 C 
BRANCH   2   3
ATOM      3  C   UNL A   1      34.182  30.252  26.957  1.00  0.00     0.116 C 
BRANCH   3   4
ATOM      4  N   UNL A   1      33.052  29.643  27.626  1.00  0.00    -0.356 N 
ATOM      5  C   UNL A   1      32.424  28.475  27.341  1.00  0.00     0.222 C 
ATOM      6  O   UNL A   1      31.426  28.152  27.978  1.00  0.00    -0.275 OA
ATOM      7  H   UNL A   1      32.690  30.144  28.392  1.00  0.00     0.163 HD
BRANCH   5   8
ATOM      8  C   UNL A   1      32.952  27.638  26.215  1.00  0.00     0.133 C 
BRANCH   8   9
ATOM      9  C   UNL A   1      31.905  27.595  25.095  1.00  0.00     0.147 C 
ATOM     10  N   UNL A   1      33.389  26.346  23.616  1.00  0.00    -0.320 N 
ATOM     11  C   UNL A   1      33.563  27.547  22.797  1.00  0.00     0.150 C 
ATOM     12  C   UNL A   1      32.073  26.332  24.252  1.00  0.00     0.154 C 
ATOM     13  C   UNL A   1      33.170  28.859  23.508  1.00  0.00     0.182 C 
ATOM     14  O   UNL A   1      31.952  28.766  24.253  1.00  0.00    -0.374 OA
BRANCH  10  15
ATOM     15  C   UNL A   1      33.950  25.127  23.398  1.00  0.00     0.317 C 
ATOM     16  N   UNL A   1      34.774  24.490  24.241  1.00  0.00    -0.335 N 
ATOM     17  H   UNL A   1      35.364  23.893  23.726  1.00  0.00     0.165 HD
ATOM     18  O   UNL A   1      33.686  24.490  22.371  1.00  0.00    -0.249 OA
BRANCH  16  19
ATOM     19  C   UNL A   1      35.105  24.374  25.676  1.00  0.00     0.087 C 
ATOM     20  C   UNL A   1      37.575  23.701  25.865  1.00  0.00     0.010 C 
ATOM     21  C   UNL A   1      36.129  23.344  26.122  1.00  0.00     0.011 C 
ATOM     22  C   UNL A   1      35.418  21.988  25.864  1.00  0.00    -0.009 C 
ATOM     23  C   UNL A   1      34.943  21.507  24.477  1.00  0.00     0.008 C 
ATOM     24  C   UNL A   1      34.119  22.294  26.645  1.00  0.00     0.006 C 
ATOM     25  C   UNL A   1      33.866  23.810  26.438  1.00  0.00     0.025 C 
ENDBRANCH  16  19
ENDBRANCH  10  15
ENDBRANCH   8   9
ENDBRANCH   5   8
ENDBRANCH   3   4
ENDBRANCH   2   3
ENDBRANCH   1   2
BRANCH   1  26
ATOM     26  C   UNL A   1      34.330  33.657  28.529  1.00  0.00     0.002 C 
BRANCH  26  27
ATOM     27  C   UNL A   1      33.108  34.573  28.586  1.00  0.00     0.021 C 
BRANCH  27  28
ATOM     28  C   UNL A   1      33.363  35.911  29.260  1.00  0.00     0.116 C 
BRANCH  28  29
ATOM     29  N   UNL A   1      32.528  36.088  30.433  1.00  0.00    -0.352 N 
ATOM     30  C   UNL A   1      32.670  35.530  31.676  1.00  0.00     0.251 C 
ATOM     31  H   UNL A   1      31.757  36.689  30.321  1.00  0.00     0.163 HD
ATOM     32  O   UNL A   1      31.763  35.600  32.495  1.00  0.00    -0.269 OA
BRANCH  30  33
ATOM     33  C   UNL A   1      33.925  34.831  32.018  1.00  0.00     0.039 A 
ATOM     34  C   UNL A   1      33.882  33.457  32.257  1.00  0.00     0.014 A 
ATOM     35  C   UNL A   1      35.132  35.531  32.119  1.00  0.00     0.014 A 
ATOM     36  C   UNL A   1      35.058  32.779  32.579  1.00  0.00     0.010 A 
ATOM     37  C   UNL A   1      36.316  34.840  32.354  1.00  0.00     0.010 A 
ATOM     38  C   UNL A   1      36.284  33.463  32.614  1.00  0.00    -0.014 A 
BRANCH  38  39
ATOM     39  C   UNL A   1      37.534  32.751  32.972  1.00  0.00     0.031 A 
ATOM     40  C   UNL A   1      38.233  33.062  34.265  1.00  0.00     0.074 A 
ATOM     41  C   UNL A   1      38.043  31.839  32.123  1.00  0.00     0.049 A 
ATOM     42  N   UNL A   1      39.320  32.532  34.768  1.00  0.00    -0.248 NA
ATOM     43  C   UNL A   1      37.650  34.128  35.095  1.00  0.00     0.031 C 
ATOM     44  C   UNL A   1      37.479  31.491  30.819  1.00  0.00     0.029 A 
ATOM     45  N   UNL A   1      39.146  31.031  32.236  1.00  0.00    -0.354 N 
ATOM     46  C   UNL A   1      39.548  33.201  35.962  1.00  0.00     0.074 A 
ATOM     47  C   UNL A   1      38.532  34.223  36.077  1.00  0.00     0.031 C 
ATOM     48  C   UNL A   1      38.214  30.510  30.271  1.00  0.00     0.029 A 
ATOM     49  C   UNL A   1      39.315  30.181  31.170  1.00  0.00     0.049 A 
ATOM     50  H   UNL A   1      39.758  31.058  33.007  1.00  0.00     0.167 HD
ATOM     51  C   UNL A   1      40.499  32.963  36.897  1.00  0.00     0.037 A 
ATOM     52  C   UNL A   1      40.248  29.237  30.953  1.00  0.00     0.037 A 
ATOM     53  C   UNL A   1      41.496  31.932  36.784  1.00  0.00     0.049 A 
ATOM     54  C   UNL A   1      41.299  28.995  32.004  1.00  0.00     0.074 A 
ATOM     55  C   UNL A   1      42.480  31.577  37.689  1.00  0.00     0.029 A 
ATOM     56  N   UNL A   1      41.635  31.090  35.689  1.00  0.00    -0.354 N 
ATOM     57  N   UNL A   1      41.464  29.585  33.162  1.00  0.00    -0.248 NA
ATOM     58  C   UNL A   1      42.287  27.946  31.717  1.00  0.00     0.031 C 
ATOM     59  C   UNL A   1      43.244  30.550  37.123  1.00  0.00     0.029 A 
ATOM     60  C   UNL A   1      42.702  30.228  35.888  1.00  0.00     0.049 A 
ATOM     61  H   UNL A   1      41.061  31.103  34.889  1.00  0.00     0.167 HD
ATOM     62  C   UNL A   1      42.549  28.958  33.760  1.00  0.00     0.074 A 
ATOM     63  C   UNL A   1      42.996  27.934  32.837  1.00  0.00     0.031 C 
ATOM     64  C   UNL A   1      43.123  29.206  34.962  1.00  0.00     0.037 A 
BRANCH  51  65
ATOM     65  C   UNL A   1      40.497  33.833  38.122  1.00  0.00     0.064 A 
ATOM     66  C   UNL A   1      41.288  34.990  38.206  1.00  0.00     0.173 A 
ATOM     67  C   UNL A   1      39.685  33.516  39.221  1.00  0.00     0.173 A 
ATOM     68  F   UNL A   1      42.093  35.332  37.187  1.00  0.00    -0.203 F 
ATOM     69  C   UNL A   1      41.296  35.773  39.356  1.00  0.00     0.198 A 
ATOM     70  C   UNL A   1      39.670  34.321  40.357  1.00  0.00     0.198 A 
ATOM     71  F   UNL A   1      38.905  32.425  39.194  1.00  0.00    -0.203 F 
ATOM     72  F   UNL A   1      42.107  36.838  39.434  1.00  0.00    -0.200 F 
ATOM     73  C   UNL A   1      40.483  35.442  40.428  1.00  0.00     0.200 A 
ATOM     74  F   UNL A   1      38.873  34.007  41.388  1.00  0.00    -0.200 F 
ATOM     75  F   UNL A   1      40.489  36.199  41.535  1.00  0.00    -0.200 F 
ENDBRANCH  51  65
BRANCH  52  76
ATOM     76  C   UNL A   1      40.196  28.414  29.718  1.00  0.00     0.064 A 
ATOM     77  C   UNL A   1      39.508  27.193  29.698  1.00  0.00     0.173 A 
ATOM     78  C   UNL A   1      40.821  28.830  28.534  1.00  0.00     0.173 A 
ATOM     79  F   UNL A   1      38.907  26.744  30.810  1.00  0.00    -0.203 F 
ATOM     80  C   UNL A   1      39.462  26.411  28.545  1.00  0.00     0.198 A 
ATOM     81  C   UNL A   1      40.751  28.061  27.374  1.00  0.00     0.198 A 
ATOM     82  F   UNL A   1      41.486  29.995  28.498  1.00  0.00    -0.203 F 
ATOM     83  F   UNL A   1      38.832  25.228  28.566  1.00  0.00    -0.200 F 
ATOM     84  C   UNL A   1      40.079  26.848  27.383  1.00  0.00     0.200 A 
ATOM     85  F   UNL A   1      41.335  28.494  26.249  1.00  0.00    -0.200 F 
ATOM     86  F   UNL A   1      40.030  26.098  26.273  1.00  0.00    -0.200 F 
ENDBRANCH  52  76
BRANCH  64  87
ATOM     87  C   UNL A   1      44.268  28.326  35.371  1.00  0.00     0.064 A 
ATOM     88  C   UNL A   1      44.069  27.144  36.099  1.00  0.00     0.173 A 
ATOM     89  C   UNL A   1      45.581  28.654  34.998  1.00  0.00     0.173 A 
ATOM     90  F   UNL A   1      42.835  26.793  36.492  1.00  0.00    -0.203 F 
ATOM     91  C   UNL A   1      45.144  26.337  36.462  1.00  0.00     0.198 A 
ATOM     92  C   UNL A   1      46.650  27.829  35.335  1.00  0.00     0.198 A 
ATOM     93  F   UNL A   1      45.825  29.771  34.294  1.00  0.00    -0.203 F 
ATOM     94  F   UNL A   1      44.936  25.240  37.202  1.00  0.00    -0.200 F 
ATOM     95  C   UNL A   1      46.432  26.677  36.074  1.00  0.00     0.200 A 
ATOM     96  F   UNL A   1      47.891  28.152  34.946  1.00  0.00    -0.200 F 
ATOM     97  F   UNL A   1      47.465  25.897  36.420  1.00  0.00    -0.200 F 
ENDBRANCH  64  87
ENDBRANCH  38  39
ENDBRANCH  30  33
ENDBRANCH  28  29
ENDBRANCH  27  28
ENDBRANCH  26  27
ENDBRANCH   1  26
TORSDOF 16
ENDMDL
MODEL 2
REMARK VINA RESULT:     -11.3      5.897     11.327
REMARK SMILES C[C@@H]1[C@H](C)CC[C@@H]1NC(=O)N1CCO[C@H](CC(=O)NCCCCCCNC(=O)c2ccc(-c3c4nc(c(-c5c(F)c(F)c(F)c(F)c5F)c5ccc([nH]5)c(-c5c(F)c(F)c(F)c(F)c5F)c5nc(c(-c6c(F)c(F)c(F)c(F)c6F)c6ccc3[nH]6)C=C5)C=C4)cc2)C1
REMARK SMILES IDX 22 1 21 2 20 3 19 4 17 5 18 6 16 8 15 9 11 10 12 11 92 12
REMARK SMILES IDX 13 13 14 14 9 15 8 16 10 18 7 19 1 20 2 21 3 22 4 23 5 24
REMARK SMILES IDX 6 25 23 26 24 27 25 28 26 29 27 30 28 32 29 33 30 34 91 35
REMARK SMILES IDX 31 36 90 37 32 38 33 39 34 40 84 41 35 42 89 43 83 44 85 45
REMARK SMILES IDX 36 46 88 47 82 48 81 49 37 51 69 52 49 53 68 54 50 55 53 56
REMARK SMILES IDX 67 57 86 58 51 59 52 60 66 62 87 63 54 64 38 65 39 66 47 67
REMARK SMILES IDX 40 68 41 69 45 70 48 71 42 72 43 73 46 74 44 75 70 76 71 77
REMARK SMILES IDX 79 78 72 79 73 80 77 81 80 82 74 83 75 84 78 85 76 86 55 87
REMARK SMILES IDX 56 88 64 89 57 90 58 91 62 92 65 93 59 94 60 95 63 96 61 97
REMARK H PARENT 19 7 8 17 26 31 85 50 53 61
REMARK Flexibility Score: inf
ROOT
ATOM      1  C   UNL A   1      37.943  22.093  25.380  1.00  0.00     0.002 C 
ENDROOT
BRANCH   1   2
ATOM      2  C   UNL A   1      37.117  23.332  25.019  1.00  0.00     0.021 C 
BRANCH   2   3
ATOM      3  C   UNL A   1      36.201  23.830  26.135  1.00  0.00     0.116 C 
BRANCH   3   4
ATOM      4  N   UNL A   1      35.536  22.747  26.829  1.00  0.00    -0.356 N 
ATOM      5  C   UNL A   1      34.225  22.402  26.806  1.00  0.00     0.222 C 
ATOM      6  O   UNL A   1      33.826  21.489  27.525  1.00  0.00    -0.275 OA
ATOM      7  H   UNL A   1      36.115  22.185  27.394  1.00  0.00     0.163 HD
BRANCH   5   8
ATOM      8  C   UNL A   1      33.295  23.186  25.931  1.00  0.00     0.133 C 
BRANCH   8   9
ATOM      9  C   UNL A   1      33.265  22.544  24.538  1.00  0.00     0.147 C 
ATOM     10  N   UNL A   1      32.844  24.684  23.447  1.00  0.00    -0.320 N 
ATOM     11  C   UNL A   1      31.467  24.263  23.180  1.00  0.00     0.150 C 
ATOM     12  C   UNL A   1      33.746  23.535  23.480  1.00  0.00     0.154 C 
ATOM     13  C   UNL A   1      30.988  23.083  24.052  1.00  0.00     0.182 C 
ATOM     14  O   UNL A   1      31.957  22.041  24.192  1.00  0.00    -0.374 OA
BRANCH  10  15
ATOM     15  C   UNL A   1      33.412  25.869  23.097  1.00  0.00     0.317 C 
ATOM     16  N   UNL A   1      33.445  26.969  23.862  1.00  0.00    -0.335 N 
ATOM     17  H   UNL A   1      33.494  27.763  23.281  1.00  0.00     0.165 HD
ATOM     18  O   UNL A   1      33.993  25.990  22.012  1.00  0.00    -0.249 OA
BRANCH  16  19
ATOM     19  C   UNL A   1      33.433  27.404  25.274  1.00  0.00     0.087 C 
ATOM     20  C   UNL A   1      31.379  26.360  26.404  1.00  0.00     0.010 C 
ATOM     21  C   UNL A   1      32.103  27.616  25.976  1.00  0.00     0.011 C 
ATOM     22  C   UNL A   1      31.513  28.866  25.269  1.00  0.00    -0.009 C 
ATOM     23  C   UNL A   1      31.188  28.939  23.763  1.00  0.00     0.008 C 
ATOM     24  C   UNL A   1      32.735  29.795  25.458  1.00  0.00     0.006 C 
ATOM     25  C   UNL A   1      33.973  28.865  25.359  1.00  0.00     0.025 C 
ENDBRANCH  16  19
ENDBRANCH  10  15
ENDBRANCH   8   9
ENDBRANCH   5   8
ENDBRANCH   3   4
ENDBRANCH   2   3
ENDBRANCH   1   2
BRANCH   1  26
ATOM     26  C   UNL A   1      37.525  20.803  24.669  1.00  0.00     0.002 C 
BRANCH  26  27
ATOM     27  C   UNL A   1      38.416  19.593  24.946  1.00  0.00     0.021 C 
BRANCH  27  28
ATOM     28  C   UNL A   1      39.365  19.773  26.120  1.00  0.00     0.116 C 
BRANCH  28  29
ATOM     29  N   UNL A   1      40.545  18.940  25.987  1.00  0.00    -0.352 N 
ATOM     30  C   UNL A   1      41.861  19.319  25.963  1.00  0.00     0.251 C 
ATOM     31  H   UNL A   1      40.378  17.974  25.904  1.00  0.00     0.163 HD
ATOM     32  O   UNL A   1      42.729  18.526  25.623  1.00  0.00    -0.269 OA
BRANCH  30  33
ATOM     33  C   UNL A   1      42.225  20.700  26.338  1.00  0.00     0.039 A 
ATOM     34  C   UNL A   1      42.329  21.663  25.334  1.00  0.00     0.014 A 
ATOM     35  C   UNL A   1      42.480  21.038  27.672  1.00  0.00     0.014 A 
ATOM     36  C   UNL A   1      42.669  22.972  25.670  1.00  0.00     0.010 A 
ATOM     37  C   UNL A   1      42.733  22.361  28.016  1.00  0.00     0.010 A 
ATOM     38  C   UNL A   1      42.859  23.334  27.014  1.00  0.00    -0.014 A 
BRANCH  38  39
ATOM     39  C   UNL A   1      43.237  24.720  27.376  1.00  0.00     0.031 A 
ATOM     40  C   UNL A   1      44.635  25.208  27.124  1.00  0.00     0.074 A 
ATOM     41  C   UNL A   1      42.324  25.529  27.945  1.00  0.00     0.049 A 
ATOM     42  N   UNL A   1      45.154  26.390  27.346  1.00  0.00    -0.248 NA
ATOM     43  C   UNL A   1      45.590  24.233  26.572  1.00  0.00     0.031 C 
ATOM     44  C   UNL A   1      40.952  25.150  28.282  1.00  0.00     0.029 A 
ATOM     45  N   UNL A   1      42.411  26.843  28.330  1.00  0.00    -0.354 N 
ATOM     46  C   UNL A   1      46.486  26.296  26.966  1.00  0.00     0.074 A 
ATOM     47  C   UNL A   1      46.717  24.926  26.568  1.00  0.00     0.031 C 
ATOM     48  C   UNL A   1      40.312  26.218  28.784  1.00  0.00     0.029 A 
ATOM     49  C   UNL A   1      41.236  27.346  28.831  1.00  0.00     0.049 A 
ATOM     50  H   UNL A   1      43.237  27.373  28.256  1.00  0.00     0.167 HD
ATOM     51  C   UNL A   1      47.424  27.272  26.922  1.00  0.00     0.037 A 
ATOM     52  C   UNL A   1      40.939  28.584  29.267  1.00  0.00     0.037 A 
ATOM     53  C   UNL A   1      47.180  28.638  27.303  1.00  0.00     0.049 A 
ATOM     54  C   UNL A   1      42.000  29.651  29.214  1.00  0.00     0.074 A 
ATOM     55  C   UNL A   1      48.046  29.716  27.258  1.00  0.00     0.029 A 
ATOM     56  N   UNL A   1      45.975  29.111  27.805  1.00  0.00    -0.354 N 
ATOM     57  N   UNL A   1      43.236  29.569  28.787  1.00  0.00    -0.248 NA
ATOM     58  C   UNL A   1      41.616  30.985  29.695  1.00  0.00     0.031 C 
ATOM     59  C   UNL A   1      47.379  30.832  27.776  1.00  0.00     0.029 A 
ATOM     60  C   UNL A   1      46.081  30.463  28.091  1.00  0.00     0.049 A 
ATOM     61  H   UNL A   1      45.166  28.567  27.938  1.00  0.00     0.167 HD
ATOM     62  C   UNL A   1      43.769  30.845  28.912  1.00  0.00     0.074 A 
ATOM     63  C   UNL A   1      42.715  31.684  29.447  1.00  0.00     0.031 C 
ATOM     64  C   UNL A   1      45.016  31.283  28.611  1.00  0.00     0.037 A 
BRANCH  51  65
ATOM     65  C   UNL A   1      48.794  26.891  26.438  1.00  0.00     0.064 A 
ATOM     66  C   UNL A   1      49.168  27.039  25.093  1.00  0.00     0.173 A 
ATOM     67  C   UNL A   1      49.750  26.384  27.330  1.00  0.00     0.173 A 
ATOM     68  F   UNL A   1      48.287  27.508  24.195  1.00  0.00    -0.203 F 
ATOM     69  C   UNL A   1      50.432  26.659  24.653  1.00  0.00     0.198 A 
ATOM     70  C   UNL A   1      51.026  26.035  26.893  1.00  0.00     0.198 A 
ATOM     71  F   UNL A   1      49.449  26.225  28.627  1.00  0.00    -0.203 F 
ATOM     72  F   UNL A   1      50.744  26.753  23.352  1.00  0.00    -0.200 F 
ATOM     73  C   UNL A   1      51.362  26.163  25.553  1.00  0.00     0.200 A 
ATOM     74  F   UNL A   1      51.928  25.569  27.766  1.00  0.00    -0.200 F 
ATOM     75  F   UNL A   1      52.581  25.800  25.129  1.00  0.00    -0.200 F 
ENDBRANCH  51  65
BRANCH  52  76
ATOM     76  C   UNL A   1      39.564  28.893  29.737  1.00  0.00     0.064 A 
ATOM     77  C   UNL A   1      38.607  29.422  28.860  1.00  0.00     0.173 A 
ATOM     78  C   UNL A   1      39.175  28.662  31.064  1.00  0.00     0.173 A 
ATOM     79  F   UNL A   1      38.936  29.677  27.585  1.00  0.00    -0.203 F 
ATOM     80  C   UNL A   1      37.319  29.724  29.296  1.00  0.00     0.198 A 
ATOM     81  C   UNL A   1      37.878  28.937  31.492  1.00  0.00     0.198 A 
ATOM     82  F   UNL A   1      40.050  28.149  31.942  1.00  0.00    -0.203 F 
ATOM     83  F   UNL A   1      36.436  30.266  28.445  1.00  0.00    -0.200 F 
ATOM     84  C   UNL A   1      36.953  29.475  30.610  1.00  0.00     0.200 A 
ATOM     85  F   UNL A   1      37.524  28.681  32.759  1.00  0.00    -0.200 F 
ATOM     86  F   UNL A   1      35.712  29.760  31.028  1.00  0.00    -0.200 F 
ENDBRANCH  52  76
BRANCH  64  87
ATOM     87  C   UNL A   1      45.296  32.744  28.809  1.00  0.00     0.064 A 
ATOM     88  C   UNL A   1      45.900  33.230  29.977  1.00  0.00     0.173 A 
ATOM     89  C   UNL A   1      44.987  33.667  27.797  1.00  0.00     0.173 A 
ATOM     90  F   UNL A   1      46.203  32.391  30.980  1.00  0.00    -0.203 F 
ATOM     91  C   UNL A   1      46.159  34.589  30.138  1.00  0.00     0.198 A 
ATOM     92  C   UNL A   1      45.276  35.020  27.947  1.00  0.00     0.198 A 
ATOM     93  F   UNL A   1      44.415  33.253  26.656  1.00  0.00    -0.203 F 
ATOM     94  F   UNL A   1      46.689  35.037  31.284  1.00  0.00    -0.200 F 
ATOM     95  C   UNL A   1      45.853  35.481  29.120  1.00  0.00     0.200 A 
ATOM     96  F   UNL A   1      44.994  35.877  26.957  1.00  0.00    -0.200 F 
ATOM     97  F   UNL A   1      46.108  36.788  29.273  1.00  0.00    -0.200 F 
ENDBRANCH  64  87
ENDBRANCH  38  39
ENDBRANCH  30  33
ENDBRANCH  28  29
ENDBRANCH  27  28
ENDBRANCH  26  27
ENDBRANCH   1  26
TORSDOF 16
ENDMDL
MODEL 3
REMARK VINA RESULT:     -11.2      6.347     11.990
REMARK SMILES C[C@@H]1[C@H](C)CC[C@@H]1NC(=O)N1CCO[C@H](CC(=O)NCCCCCCNC(=O)c2ccc(-c3c4nc(c(-c5c(F)c(F)c(F)c(F)c5F)c5ccc([nH]5)c(-c5c(F)c(F)c(F)c(F)c5F)c5nc(c(-c6c(F)c(F)c(F)c(F)c6F)c6ccc3[nH]6)C=C5)C=C4)cc2)C1
REMARK SMILES IDX 22 1 21 2 20 3 19 4 17 5 18 6 16 8 15 9 11 10 12 11 92 12
REMARK SMILES IDX 13 13 14 14 9 15 8 16 10 18 7 19 1 20 2 21 3 22 4 23 5 24
REMARK SMILES IDX 6 25 23 26 24 27 25 28 26 29 27 30 28 32 29 33 30 34 91 35
REMARK SMILES IDX 31 36 90 37 32 38 33 39 34 40 84 41 35 42 89 43 83 44 85 45
REMARK SMILES IDX 36 46 88 47 82 48 81 49 37 51 69 52 49 53 68 54 50 55 53 56
REMARK SMILES IDX 67 57 86 58 51 59 52 60 66 62 87 63 54 64 38 65 39 66 47 67
REMARK SMILES IDX 40 68 41 69 45 70 48 71 42 72 43 73 46 74 44 75 70 76 71 77
REMARK SMILES IDX 79 78 72 79 73 80 77 81 80 82 74 83 75 84 78 85 76 86 55 87
REMARK SMILES IDX 56 88 64 89 57 90 58 91 62 92 65 93 59 94 60 95 63 96 61 97
REMARK H PARENT 19 7 8 17 26 31 85 50 53 61
REMARK Flexibility Score: inf
ROOT
ATOM      1  C   UNL A   1      40.595  22.124  26.119  1.00  0.00     0.002 C 
ENDROOT
BRANCH   1   2
ATOM      2  C   UNL A   1      39.278  22.806  26.505  1.00  0.00     0.021 C 
BRANCH   2   3
ATOM      3  C   UNL A   1      38.026  22.120  25.960  1.00  0.00     0.116 C 
BRANCH   3   4
ATOM      4  N   UNL A   1      37.794  22.425  24.564  1.00  0.00    -0.356 N 
ATOM      5  C   UNL A   1      36.657  22.863  23.968  1.00  0.00     0.222 C 
ATOM      6  O   UNL A   1      36.626  22.998  22.748  1.00  0.00    -0.275 OA
ATOM      7  H   UNL A   1      38.565  22.295  23.966  1.00  0.00     0.163 HD
BRANCH   5   8
ATOM      8  C   UNL A   1      35.457  23.126  24.826  1.00  0.00     0.133 C 
BRANCH   8   9
ATOM      9  C   UNL A   1      34.548  21.891  24.800  1.00  0.00     0.147 C 
ATOM     10  N   UNL A   1      32.687  23.112  25.798  1.00  0.00    -0.320 N 
ATOM     11  C   UNL A   1      32.894  22.379  27.049  1.00  0.00     0.150 C 
ATOM     12  C   UNL A   1      33.086  22.305  24.646  1.00  0.00     0.154 C 
ATOM     13  C   UNL A   1      34.281  21.712  27.168  1.00  0.00     0.182 C 
ATOM     14  O   UNL A   1      34.711  21.062  25.969  1.00  0.00    -0.374 OA
BRANCH  10  15
ATOM     15  C   UNL A   1      31.736  24.053  25.557  1.00  0.00     0.317 C 
ATOM     16  N   UNL A   1      31.823  25.348  25.893  1.00  0.00    -0.335 N 
ATOM     17  H   UNL A   1      30.916  25.708  26.022  1.00  0.00     0.165 HD
ATOM     18  O   UNL A   1      30.700  23.757  24.950  1.00  0.00    -0.249 OA
BRANCH  16  19
ATOM     19  C   UNL A   1      32.809  26.421  26.137  1.00  0.00     0.087 C 
ATOM     20  C   UNL A   1      31.710  28.172  27.658  1.00  0.00     0.010 C 
ATOM     21  C   UNL A   1      32.324  27.849  26.315  1.00  0.00     0.011 C 
ATOM     22  C   UNL A   1      31.798  28.235  24.906  1.00  0.00    -0.009 C 
ATOM     23  C   UNL A   1      30.647  27.507  24.180  1.00  0.00     0.008 C 
ATOM     24  C   UNL A   1      33.070  27.858  24.111  1.00  0.00     0.006 C 
ATOM     25  C   UNL A   1      33.662  26.628  24.847  1.00  0.00     0.025 C 
ENDBRANCH  16  19
ENDBRANCH  10  15
ENDBRANCH   8   9
ENDBRANCH   5   8
ENDBRANCH   3   4
ENDBRANCH   2   3
ENDBRANCH   1   2
BRANCH   1  26
ATOM     26  C   UNL A   1      40.942  20.874  26.933  1.00  0.00     0.002 C 
BRANCH  26  27
ATOM     27  C   UNL A   1      41.309  19.644  26.104  1.00  0.00     0.021 C 
BRANCH  27  28
ATOM     28  C   UNL A   1      42.650  19.027  26.464  1.00  0.00     0.116 C 
BRANCH  28  29
ATOM     29  N   UNL A   1      43.450  18.759  25.285  1.00  0.00    -0.352 N 
ATOM     30  C   UNL A   1      44.147  19.643  24.505  1.00  0.00     0.251 C 
ATOM     31  H   UNL A   1      43.499  17.816  25.008  1.00  0.00     0.163 HD
ATOM     32  O   UNL A   1      44.591  19.296  23.417  1.00  0.00    -0.269 OA
BRANCH  30  33
ATOM     33  C   UNL A   1      44.350  21.026  24.980  1.00  0.00     0.039 A 
ATOM     34  C   UNL A   1      45.104  21.234  26.135  1.00  0.00     0.014 A 
ATOM     35  C   UNL A   1      43.782  22.109  24.300  1.00  0.00     0.014 A 
ATOM     36  C   UNL A   1      45.308  22.533  26.598  1.00  0.00     0.010 A 
ATOM     37  C   UNL A   1      44.058  23.408  24.713  1.00  0.00     0.010 A 
ATOM     38  C   UNL A   1      44.799  23.630  25.882  1.00  0.00    -0.014 A 
BRANCH  38  39
ATOM     39  C   UNL A   1      44.999  25.012  26.378  1.00  0.00     0.031 A 
ATOM     40  C   UNL A   1      46.350  25.660  26.274  1.00  0.00     0.074 A 
ATOM     41  C   UNL A   1      43.967  25.672  26.936  1.00  0.00     0.049 A 
ATOM     42  N   UNL A   1      46.721  26.866  26.627  1.00  0.00    -0.248 NA
ATOM     43  C   UNL A   1      47.440  24.839  25.723  1.00  0.00     0.031 C 
ATOM     44  C   UNL A   1      42.625  25.126  27.135  1.00  0.00     0.029 A 
ATOM     45  N   UNL A   1      43.885  26.949  27.428  1.00  0.00    -0.354 N 
ATOM     46  C   UNL A   1      48.078  26.941  26.345  1.00  0.00     0.074 A 
ATOM     47  C   UNL A   1      48.483  25.641  25.860  1.00  0.00     0.031 C 
ATOM     48  C   UNL A   1      41.840  26.076  27.668  1.00  0.00     0.029 A 
ATOM     49  C   UNL A   1      42.630  27.285  27.874  1.00  0.00     0.049 A 
ATOM     50  H   UNL A   1      44.651  27.566  27.459  1.00  0.00     0.167 HD
ATOM     51  C   UNL A   1      48.905  28.009  26.449  1.00  0.00     0.037 A 
ATOM     52  C   UNL A   1      42.171  28.444  28.381  1.00  0.00     0.037 A 
ATOM     53  C   UNL A   1      48.489  29.305  26.915  1.00  0.00     0.049 A 
ATOM     54  C   UNL A   1      43.111  29.614  28.493  1.00  0.00     0.074 A 
ATOM     55  C   UNL A   1      49.234  30.466  27.021  1.00  0.00     0.029 A 
ATOM     56  N   UNL A   1      47.209  29.607  27.358  1.00  0.00    -0.354 N 
ATOM     57  N   UNL A   1      44.375  29.696  28.158  1.00  0.00    -0.248 NA
ATOM     58  C   UNL A   1      42.553  30.856  29.046  1.00  0.00     0.031 C 
ATOM     59  C   UNL A   1      48.417  31.460  27.572  1.00  0.00     0.029 A 
ATOM     60  C   UNL A   1      47.147  30.933  27.756  1.00  0.00     0.049 A 
ATOM     61  H   UNL A   1      46.456  28.974  27.386  1.00  0.00     0.167 HD
ATOM     62  C   UNL A   1      44.757  31.005  28.423  1.00  0.00     0.074 A 
ATOM     63  C   UNL A   1      43.584  31.683  28.938  1.00  0.00     0.031 C 
ATOM     64  C   UNL A   1      45.966  31.593  28.255  1.00  0.00     0.037 A 
BRANCH  51  65
ATOM     65  C   UNL A   1      50.339  27.813  26.044  1.00  0.00     0.064 A 
ATOM     66  C   UNL A   1      50.735  27.844  24.698  1.00  0.00     0.173 A 
ATOM     67  C   UNL A   1      51.332  27.605  27.013  1.00  0.00     0.173 A 
ATOM     68  F   UNL A   1      49.823  28.028  23.730  1.00  0.00    -0.203 F 
ATOM     69  C   UNL A   1      52.063  27.637  24.335  1.00  0.00     0.198 A 
ATOM     70  C   UNL A   1      52.665  27.431  26.649  1.00  0.00     0.198 A 
ATOM     71  F   UNL A   1      51.011  27.570  28.315  1.00  0.00    -0.203 F 
ATOM     72  F   UNL A   1      52.405  27.610  23.039  1.00  0.00    -0.200 F 
ATOM     73  C   UNL A   1      53.027  27.436  25.310  1.00  0.00     0.200 A 
ATOM     74  F   UNL A   1      53.598  27.250  27.593  1.00  0.00    -0.200 F 
ATOM     75  F   UNL A   1      54.306  27.239  24.959  1.00  0.00    -0.200 F 
ENDBRANCH  51  65
BRANCH  52  76
ATOM     76  C   UNL A   1      40.742  28.569  28.766  1.00  0.00     0.064 A 
ATOM     77  C   UNL A   1      40.317  28.249  30.063  1.00  0.00     0.173 A 
ATOM     78  C   UNL A   1      39.775  29.016  27.855  1.00  0.00     0.173 A 
ATOM     79  F   UNL A   1      41.202  27.800  30.966  1.00  0.00    -0.203 F 
ATOM     80  C   UNL A   1      38.976  28.354  30.429  1.00  0.00     0.198 A 
ATOM     81  C   UNL A   1      38.439  29.148  28.230  1.00  0.00     0.198 A 
ATOM     82  F   UNL A   1      40.130  29.343  26.603  1.00  0.00    -0.203 F 
ATOM     83  F   UNL A   1      38.592  28.002  31.663  1.00  0.00    -0.200 F 
ATOM     84  C   UNL A   1      38.040  28.809  29.513  1.00  0.00     0.200 A 
ATOM     85  F   UNL A   1      37.540  29.604  27.347  1.00  0.00    -0.200 F 
ATOM     86  F   UNL A   1      36.751  28.916  29.867  1.00  0.00    -0.200 F 
ENDBRANCH  52  76
BRANCH  64  87
ATOM     87  C   UNL A   1      46.072  33.052  28.587  1.00  0.00     0.064 A 
ATOM     88  C   UNL A   1      46.444  33.495  29.864  1.00  0.00     0.173 A 
ATOM     89  C   UNL A   1      45.833  34.021  27.599  1.00  0.00     0.173 A 
ATOM     90  F   UNL A   1      46.670  32.610  30.847  1.00  0.00    -0.203 F 
ATOM     91  C   UNL A   1      46.544  34.855  30.149  1.00  0.00     0.198 A 
ATOM     92  C   UNL A   1      45.965  35.378  27.879  1.00  0.00     0.198 A 
ATOM     93  F   UNL A   1      45.482  33.650  26.358  1.00  0.00    -0.203 F 
ATOM     94  F   UNL A   1      46.849  35.256  31.390  1.00  0.00    -0.200 F 
ATOM     95  C   UNL A   1      46.311  35.794  29.155  1.00  0.00     0.200 A 
ATOM     96  F   UNL A   1      45.754  36.283  26.913  1.00  0.00    -0.200 F 
ATOM     97  F   UNL A   1      46.413  37.102  29.429  1.00  0.00    -0.200 F 
ENDBRANCH  64  87
ENDBRANCH  38  39
ENDBRANCH  30  33
ENDBRANCH  28  29
ENDBRANCH  27  28
ENDBRANCH  26  27
ENDBRANCH   1  26
TORSDOF 16
ENDMDL
