MODEL 1
REMARK VINA RESULT:     -12.2      0.000      0.000
REMARK SMILES CCOc1cc(/C=C(\CC(=O)NCCCCCCNC(=O)c2ccc(-c3c4nc(c(-c5c(F)c(F)c(F)c(F)c5F)c5ccc([nH]5)c(-c5c(F)c(F)c(F)c(F)c5F)c5nc(c(-c6c(F)c(F)c(F)c(F)c6F)c6ccc3[nH]6)C=C5)C=C4)cc2)c2nc3ccccc3o2)cc(Br)c1OC
REMARK SMILES IDX 14 1 13 2 12 3 10 4 11 5 9 7 8 8 7 9 6 10 4 11 5 12 97 13
REMARK SMILES IDX 95 14 94 15 96 16 3 17 2 18 1 19 98 20 99 21 85 22 86 23
REMARK SMILES IDX 93 24 87 25 92 26 88 27 91 28 89 29 90 30 15 31 16 32 17 33
REMARK SMILES IDX 18 34 19 35 20 36 21 38 22 39 23 40 84 41 24 42 83 43 25 44
REMARK SMILES IDX 26 45 27 46 77 47 28 48 82 49 76 50 78 51 29 52 81 53 75 54
REMARK SMILES IDX 74 55 30 57 62 58 42 59 61 60 43 61 46 62 60 63 79 64 44 65
REMARK SMILES IDX 45 66 59 68 80 69 47 70 31 71 32 72 40 73 33 74 34 75 38 76
REMARK SMILES IDX 41 77 35 78 36 79 39 80 37 81 63 82 64 83 72 84 65 85 66 86
REMARK SMILES IDX 70 87 73 88 67 89 68 90 71 91 69 92 48 93 49 94 57 95 50 96
REMARK SMILES IDX 51 97 55 98 58 99 52 100 53 101 56 102 54 103
REMARK H PARENT 12 6 19 37 78 56 46 67
REMARK Flexibility Score: inf
ROOT
ATOM      1  C   UNL A   1      31.866  28.845  26.020  1.00  0.00     0.021 C 
ENDROOT
BRANCH   1   2
ATOM      2  C   UNL A   1      31.824  27.999  27.289  1.00  0.00     0.116 C 
BRANCH   2   3
ATOM      3  N   UNL A   1      31.068  26.772  27.153  1.00  0.00    -0.356 N 
ATOM      4  C   UNL A   1      31.248  25.652  26.402  1.00  0.00     0.224 C 
ATOM      5  O   UNL A   1      30.464  24.718  26.621  1.00  0.00    -0.275 OA
ATOM      6  H   UNL A   1      30.263  26.742  27.718  1.00  0.00     0.163 HD
BRANCH   4   7
ATOM      7  C   UNL A   1      32.387  25.444  25.393  1.00  0.00     0.141 C 
BRANCH   7   8
ATOM      8  C   UNL A   1      32.019  25.011  23.987  1.00  0.00     0.025 C 
ATOM      9  C   UNL A   1      32.426  23.882  23.349  1.00  0.00     0.018 C 
BRANCH   9  10
ATOM     10  C   UNL A   1      33.444  22.859  23.768  1.00  0.00    -0.020 A 
ATOM     11  C   UNL A   1      34.075  20.602  24.498  1.00  0.00     0.162 A 
ATOM     12  C   UNL A   1      33.133  21.533  24.061  1.00  0.00     0.058 A 
ATOM     13  C   UNL A   1      35.393  20.973  24.786  1.00  0.00     0.174 A 
ATOM     14  C   UNL A   1      35.726  22.319  24.566  1.00  0.00     0.064 A 
ATOM     15  C   UNL A   1      34.765  23.236  24.046  1.00  0.00     0.028 A 
ATOM     16  Br  UNL A   1      37.426  23.098  24.919  1.00  0.00    -0.047 Br
BRANCH  11  17
ATOM     17  O   UNL A   1      33.616  19.339  24.804  1.00  0.00    -0.490 OA
BRANCH  17  18
ATOM     18  C   UNL A   1      32.466  18.961  24.032  1.00  0.00     0.226 C 
ATOM     19  C   UNL A   1      32.802  17.946  22.946  1.00  0.00     0.049 C 
ENDBRANCH  17  18
ENDBRANCH  11  17
BRANCH  13  20
ATOM     20  O   UNL A   1      36.144  19.919  25.215  1.00  0.00    -0.492 OA
ATOM     21  C   UNL A   1      37.489  19.743  24.820  1.00  0.00     0.278 C 
ENDBRANCH  13  20
ENDBRANCH   9  10
BRANCH   8  22
ATOM     22  C   UNL A   1      31.142  25.945  23.322  1.00  0.00     0.223 A 
ATOM     23  N   UNL A   1      31.639  26.985  22.664  1.00  0.00    -0.210 NA
ATOM     24  O   UNL A   1      29.774  26.058  23.524  1.00  0.00    -0.436 OA
ATOM     25  C   UNL A   1      30.641  27.904  22.637  1.00  0.00     0.110 A 
ATOM     26  C   UNL A   1      29.481  27.341  23.130  1.00  0.00     0.155 A 
ATOM     27  C   UNL A   1      30.665  29.251  22.261  1.00  0.00     0.032 A 
ATOM     28  C   UNL A   1      28.280  28.030  23.250  1.00  0.00     0.049 A 
ATOM     29  C   UNL A   1      29.488  29.992  22.410  1.00  0.00     0.003 A 
ATOM     30  C   UNL A   1      28.317  29.387  22.886  1.00  0.00     0.004 A 
ENDBRANCH   8  22
ENDBRANCH   7   8
ENDBRANCH   4   7
ENDBRANCH   2   3
ENDBRANCH   1   2
BRANCH   1  31
ATOM     31  C   UNL A   1      32.181  30.322  26.261  1.00  0.00     0.002 C 
BRANCH  31  32
ATOM     32  C   UNL A   1      31.051  31.294  25.909  1.00  0.00     0.002 C 
BRANCH  32  33
ATOM     33  C   UNL A   1      31.296  32.760  26.281  1.00  0.00     0.021 C 
BRANCH  33  34
ATOM     34  C   UNL A   1      32.446  33.001  27.256  1.00  0.00     0.116 C 
BRANCH  34  35
ATOM     35  N   UNL A   1      32.466  34.364  27.762  1.00  0.00    -0.352 N 
ATOM     36  C   UNL A   1      33.235  34.935  28.738  1.00  0.00     0.251 C 
ATOM     37  H   UNL A   1      31.822  34.973  27.334  1.00  0.00     0.163 HD
ATOM     38  O   UNL A   1      32.966  36.072  29.134  1.00  0.00    -0.269 OA
BRANCH  36  39
ATOM     39  C   UNL A   1      34.376  34.212  29.338  1.00  0.00     0.039 A 
ATOM     40  C   UNL A   1      35.668  34.546  28.920  1.00  0.00     0.014 A 
ATOM     41  C   UNL A   1      34.191  33.175  30.257  1.00  0.00     0.014 A 
ATOM     42  C   UNL A   1      36.770  33.871  29.450  1.00  0.00     0.010 A 
ATOM     43  C   UNL A   1      35.294  32.549  30.838  1.00  0.00     0.010 A 
ATOM     44  C   UNL A   1      36.595  32.882  30.431  1.00  0.00    -0.014 A 
BRANCH  44  45
ATOM     45  C   UNL A   1      37.770  32.198  31.027  1.00  0.00     0.031 A 
ATOM     46  C   UNL A   1      38.246  32.551  32.409  1.00  0.00     0.074 A 
ATOM     47  C   UNL A   1      38.425  31.265  30.309  1.00  0.00     0.049 A 
ATOM     48  N   UNL A   1      39.235  32.039  33.100  1.00  0.00    -0.248 NA
ATOM     49  C   UNL A   1      37.536  33.639  33.098  1.00  0.00     0.031 C 
ATOM     50  C   UNL A   1      38.099  30.877  28.936  1.00  0.00     0.029 A 
ATOM     51  N   UNL A   1      39.498  30.473  30.633  1.00  0.00    -0.354 N 
ATOM     52  C   UNL A   1      39.267  32.744  34.297  1.00  0.00     0.074 A 
ATOM     53  C   UNL A   1      38.238  33.758  34.216  1.00  0.00     0.031 C 
ATOM     54  C   UNL A   1      38.930  29.897  28.547  1.00  0.00     0.029 A 
ATOM     55  C   UNL A   1      39.862  29.606  29.632  1.00  0.00     0.049 A 
ATOM     56  H   UNL A   1      39.962  30.523  31.500  1.00  0.00     0.167 HD
ATOM     57  C   UNL A   1      40.064  32.548  35.375  1.00  0.00     0.037 A 
ATOM     58  C   UNL A   1      40.833  28.674  29.599  1.00  0.00     0.037 A 
ATOM     59  C   UNL A   1      41.076  31.525  35.461  1.00  0.00     0.049 A 
ATOM     60  C   UNL A   1      41.687  28.459  30.818  1.00  0.00     0.074 A 
ATOM     61  C   UNL A   1      41.901  31.212  36.527  1.00  0.00     0.029 A 
ATOM     62  N   UNL A   1      41.401  30.649  34.435  1.00  0.00    -0.354 N 
ATOM     63  N   UNL A   1      41.656  29.081  31.972  1.00  0.00    -0.248 NA
ATOM     64  C   UNL A   1      42.700  27.398  30.734  1.00  0.00     0.031 C 
ATOM     65  C   UNL A   1      42.754  30.174  36.133  1.00  0.00     0.029 A 
ATOM     66  C   UNL A   1      42.425  29.806  34.839  1.00  0.00     0.049 A 
ATOM     67  H   UNL A   1      40.969  30.630  33.551  1.00  0.00     0.167 HD
ATOM     68  C   UNL A   1      42.623  28.470  32.759  1.00  0.00     0.074 A 
ATOM     69  C   UNL A   1      43.207  27.415  31.958  1.00  0.00     0.031 C 
ATOM     70  C   UNL A   1      42.995  28.758  34.032  1.00  0.00     0.037 A 
BRANCH  57  71
ATOM     71  C   UNL A   1      39.870  33.457  36.556  1.00  0.00     0.064 A 
ATOM     72  C   UNL A   1      40.602  34.647  36.696  1.00  0.00     0.173 A 
ATOM     73  C   UNL A   1      38.919  33.154  37.541  1.00  0.00     0.173 A 
ATOM     74  F   UNL A   1      41.532  34.978  35.788  1.00  0.00    -0.203 F 
ATOM     75  C   UNL A   1      40.410  35.483  37.793  1.00  0.00     0.198 A 
ATOM     76  C   UNL A   1      38.707  34.008  38.621  1.00  0.00     0.198 A 
ATOM     77  F   UNL A   1      38.187  32.033  37.454  1.00  0.00    -0.203 F 
ATOM     78  F   UNL A   1      41.156  36.587  37.931  1.00  0.00    -0.200 F 
ATOM     79  C   UNL A   1      39.458  35.167  38.750  1.00  0.00     0.200 A 
ATOM     80  F   UNL A   1      37.777  33.709  39.539  1.00  0.00    -0.200 F 
ATOM     81  F   UNL A   1      39.269  35.976  39.802  1.00  0.00    -0.200 F 
ENDBRANCH  57  71
BRANCH  58  82
ATOM     82  C   UNL A   1      41.017  27.839  28.383  1.00  0.00     0.064 A 
ATOM     83  C   UNL A   1      41.850  28.261  27.338  1.00  0.00     0.173 A 
ATOM     84  C   UNL A   1      40.361  26.607  28.239  1.00  0.00     0.173 A 
ATOM     85  F   UNL A   1      42.484  29.441  27.423  1.00  0.00    -0.203 F 
ATOM     86  C   UNL A   1      42.002  27.496  26.184  1.00  0.00     0.198 A 
ATOM     87  C   UNL A   1      40.537  25.830  27.097  1.00  0.00     0.198 A 
ATOM     88  F   UNL A   1      39.558  26.155  29.212  1.00  0.00    -0.203 F 
ATOM     89  F   UNL A   1      42.767  27.948  25.181  1.00  0.00    -0.200 F 
ATOM     90  C   UNL A   1      41.350  26.278  26.066  1.00  0.00     0.200 A 
ATOM     91  F   UNL A   1      39.916  24.647  26.992  1.00  0.00    -0.200 F 
ATOM     92  F   UNL A   1      41.499  25.542  24.957  1.00  0.00    -0.200 F 
ENDBRANCH  58  82
BRANCH  70  93
ATOM     93  C   UNL A   1      44.061  27.894  34.642  1.00  0.00     0.064 A 
ATOM     94  C   UNL A   1      45.419  28.236  34.570  1.00  0.00     0.173 A 
ATOM     95  C   UNL A   1      43.717  26.709  35.311  1.00  0.00     0.173 A 
ATOM     96  F   UNL A   1      45.803  29.351  33.929  1.00  0.00    -0.203 F 
ATOM     97  C   UNL A   1      46.397  27.402  35.108  1.00  0.00     0.198 A 
ATOM     98  C   UNL A   1      44.694  25.896  35.876  1.00  0.00     0.198 A 
ATOM     99  F   UNL A   1      42.431  26.340  35.416  1.00  0.00    -0.203 F 
ATOM    100  F   UNL A   1      47.693  27.717  34.970  1.00  0.00    -0.200 F 
ATOM    101  C   UNL A   1      46.033  26.235  35.763  1.00  0.00     0.200 A 
ATOM    102  F   UNL A   1      44.340  24.776  36.521  1.00  0.00    -0.200 F 
ATOM    103  F   UNL A   1      46.976  25.433  36.277  1.00  0.00    -0.200 F 
ENDBRANCH  70  93
ENDBRANCH  44  45
ENDBRANCH  36  39
ENDBRANCH  34  35
ENDBRANCH  33  34
ENDBRANCH  32  33
ENDBRANCH  31  32
ENDBRANCH   1  31
TORSDOF 19
ENDMDL
MODEL 2
REMARK VINA RESULT:     -12.1      0.923      7.082
REMARK SMILES CCOc1cc(/C=C(\CC(=O)NCCCCCCNC(=O)c2ccc(-c3c4nc(c(-c5c(F)c(F)c(F)c(F)c5F)c5ccc([nH]5)c(-c5c(F)c(F)c(F)c(F)c5F)c5nc(c(-c6c(F)c(F)c(F)c(F)c6F)c6ccc3[nH]6)C=C5)C=C4)cc2)c2nc3ccccc3o2)cc(Br)c1OC
REMARK SMILES IDX 14 1 13 2 12 3 10 4 11 5 9 7 8 8 7 9 6 10 4 11 5 12 97 13
REMARK SMILES IDX 95 14 94 15 96 16 3 17 2 18 1 19 98 20 99 21 85 22 86 23
REMARK SMILES IDX 93 24 87 25 92 26 88 27 91 28 89 29 90 30 15 31 16 32 17 33
REMARK SMILES IDX 18 34 19 35 20 36 21 38 22 39 23 40 84 41 24 42 83 43 25 44
REMARK SMILES IDX 26 45 27 46 77 47 28 48 82 49 76 50 78 51 29 52 81 53 75 54
REMARK SMILES IDX 74 55 30 57 62 58 42 59 61 60 43 61 46 62 60 63 79 64 44 65
REMARK SMILES IDX 45 66 59 68 80 69 47 70 31 71 32 72 40 73 33 74 34 75 38 76
REMARK SMILES IDX 41 77 35 78 36 79 39 80 37 81 63 82 64 83 72 84 65 85 66 86
REMARK SMILES IDX 70 87 73 88 67 89 68 90 71 91 69 92 48 93 49 94 57 95 50 96
REMARK SMILES IDX 51 97 55 98 58 99 52 100 53 101 56 102 54 103
REMARK H PARENT 12 6 19 37 78 56 46 67
REMARK Flexibility Score: inf
ROOT
ATOM      1  C   UNL A   1      31.988  29.114  26.198  1.00  0.00     0.021 C 
ENDROOT
BRANCH   1   2
ATOM      2  C   UNL A   1      31.802  28.239  27.435  1.00  0.00     0.116 C 
BRANCH   2   3
ATOM      3  N   UNL A   1      30.986  27.065  27.207  1.00  0.00    -0.356 N 
ATOM      4  C   UNL A   1      31.153  25.955  26.438  1.00  0.00     0.224 C 
ATOM      5  O   UNL A   1      30.300  25.067  26.571  1.00  0.00    -0.275 OA
ATOM      6  H   UNL A   1      30.140  27.071  27.710  1.00  0.00     0.163 HD
BRANCH   4   7
ATOM      7  C   UNL A   1      32.351  25.702  25.510  1.00  0.00     0.141 C 
BRANCH   7   8
ATOM      8  C   UNL A   1      32.064  25.293  24.079  1.00  0.00     0.025 C 
ATOM      9  C   UNL A   1      32.543  24.196  23.433  1.00  0.00     0.018 C 
BRANCH   9  10
ATOM     10  C   UNL A   1      33.580  23.202  23.874  1.00  0.00    -0.020 A 
ATOM     11  C   UNL A   1      34.303  20.916  24.405  1.00  0.00     0.162 A 
ATOM     12  C   UNL A   1      33.353  21.828  23.946  1.00  0.00     0.058 A 
ATOM     13  C   UNL A   1      35.525  21.338  24.939  1.00  0.00     0.174 A 
ATOM     14  C   UNL A   1      35.761  22.722  24.945  1.00  0.00     0.064 A 
ATOM     15  C   UNL A   1      34.805  23.630  24.401  1.00  0.00     0.028 A 
ATOM     16  Br  UNL A   1      37.313  23.566  25.655  1.00  0.00    -0.047 Br
BRANCH  11  17
ATOM     17  O   UNL A   1      33.924  19.593  24.473  1.00  0.00    -0.490 OA
BRANCH  17  18
ATOM     18  C   UNL A   1      32.864  19.365  25.414  1.00  0.00     0.226 C 
ATOM     19  C   UNL A   1      32.730  17.896  25.796  1.00  0.00     0.049 C 
ENDBRANCH  17  18
ENDBRANCH  11  17
BRANCH  13  20
ATOM     20  O   UNL A   1      36.301  20.292  25.344  1.00  0.00    -0.492 OA
ATOM     21  C   UNL A   1      37.446  19.881  24.627  1.00  0.00     0.278 C 
ENDBRANCH  13  20
ENDBRANCH   9  10
BRANCH   8  22
ATOM     22  C   UNL A   1      31.183  26.210  23.397  1.00  0.00     0.223 A 
ATOM     23  N   UNL A   1      31.663  27.312  22.833  1.00  0.00    -0.210 NA
ATOM     24  O   UNL A   1      29.800  26.233  23.498  1.00  0.00    -0.436 OA
ATOM     25  C   UNL A   1      30.616  28.172  22.776  1.00  0.00     0.110 A 
ATOM     26  C   UNL A   1      29.459  27.516  23.148  1.00  0.00     0.155 A 
ATOM     27  C   UNL A   1      30.585  29.537  22.472  1.00  0.00     0.032 A 
ATOM     28  C   UNL A   1      28.212  28.127  23.210  1.00  0.00     0.049 A 
ATOM     29  C   UNL A   1      29.356  30.200  22.568  1.00  0.00     0.003 A 
ATOM     30  C   UNL A   1      28.192  29.502  22.920  1.00  0.00     0.004 A 
ENDBRANCH   8  22
ENDBRANCH   7   8
ENDBRANCH   4   7
ENDBRANCH   2   3
ENDBRANCH   1   2
BRANCH   1  31
ATOM     31  C   UNL A   1      32.253  30.588  26.507  1.00  0.00     0.002 C 
BRANCH  31  32
ATOM     32  C   UNL A   1      31.125  31.548  26.117  1.00  0.00     0.002 C 
BRANCH  32  33
ATOM     33  C   UNL A   1      31.392  33.032  26.388  1.00  0.00     0.021 C 
BRANCH  33  34
ATOM     34  C   UNL A   1      32.469  33.320  27.431  1.00  0.00     0.116 C 
BRANCH  34  35
ATOM     35  N   UNL A   1      32.438  34.698  27.893  1.00  0.00    -0.352 N 
ATOM     36  C   UNL A   1      33.146  35.316  28.886  1.00  0.00     0.251 C 
ATOM     37  H   UNL A   1      31.804  35.280  27.415  1.00  0.00     0.163 HD
ATOM     38  O   UNL A   1      32.836  36.458  29.232  1.00  0.00    -0.269 OA
BRANCH  36  39
ATOM     39  C   UNL A   1      34.271  34.636  29.563  1.00  0.00     0.039 A 
ATOM     40  C   UNL A   1      34.029  34.012  30.791  1.00  0.00     0.014 A 
ATOM     41  C   UNL A   1      35.567  34.653  29.038  1.00  0.00     0.014 A 
ATOM     42  C   UNL A   1      35.072  33.377  31.469  1.00  0.00     0.010 A 
ATOM     43  C   UNL A   1      36.592  33.959  29.681  1.00  0.00     0.010 A 
ATOM     44  C   UNL A   1      36.358  33.324  30.909  1.00  0.00    -0.014 A 
BRANCH  44  45
ATOM     45  C   UNL A   1      37.454  32.608  31.610  1.00  0.00     0.031 A 
ATOM     46  C   UNL A   1      38.153  31.447  30.959  1.00  0.00     0.074 A 
ATOM     47  C   UNL A   1      37.808  32.996  32.851  1.00  0.00     0.049 A 
ATOM     48  N   UNL A   1      39.149  30.722  31.407  1.00  0.00    -0.248 NA
ATOM     49  C   UNL A   1      37.654  31.026  29.641  1.00  0.00     0.031 C 
ATOM     50  C   UNL A   1      37.167  34.067  33.614  1.00  0.00     0.029 A 
ATOM     51  N   UNL A   1      38.794  32.535  33.687  1.00  0.00    -0.354 N 
ATOM     52  C   UNL A   1      39.389  29.762  30.433  1.00  0.00     0.074 A 
ATOM     53  C   UNL A   1      38.400  29.958  29.395  1.00  0.00     0.031 C 
ATOM     54  C   UNL A   1      37.797  34.207  34.790  1.00  0.00     0.029 A 
ATOM     55  C   UNL A   1      38.868  33.219  34.876  1.00  0.00     0.049 A 
ATOM     56  H   UNL A   1      39.390  31.786  33.456  1.00  0.00     0.167 HD
ATOM     57  C   UNL A   1      40.362  28.819  30.394  1.00  0.00     0.037 A 
ATOM     58  C   UNL A   1      39.714  33.071  35.913  1.00  0.00     0.037 A 
ATOM     59  C   UNL A   1      41.358  28.639  31.419  1.00  0.00     0.049 A 
ATOM     60  C   UNL A   1      40.800  32.034  35.833  1.00  0.00     0.074 A 
ATOM     61  C   UNL A   1      42.416  27.746  31.449  1.00  0.00     0.029 A 
ATOM     62  N   UNL A   1      41.417  29.365  32.599  1.00  0.00    -0.354 N 
ATOM     63  N   UNL A   1      41.065  31.183  34.872  1.00  0.00    -0.248 NA
ATOM     64  C   UNL A   1      41.717  31.952  36.978  1.00  0.00     0.031 C 
ATOM     65  C   UNL A   1      43.090  27.905  32.666  1.00  0.00     0.029 A 
ATOM     66  C   UNL A   1      42.484  28.931  33.371  1.00  0.00     0.049 A 
ATOM     67  H   UNL A   1      40.792  30.083  32.852  1.00  0.00     0.167 HD
ATOM     68  C   UNL A   1      42.192  30.485  35.282  1.00  0.00     0.074 A 
ATOM     69  C   UNL A   1      42.573  31.027  36.569  1.00  0.00     0.031 C 
ATOM     70  C   UNL A   1      42.853  29.482  34.650  1.00  0.00     0.037 A 
BRANCH  57  71
ATOM     71  C   UNL A   1      40.400  27.911  29.197  1.00  0.00     0.064 A 
ATOM     72  C   UNL A   1      39.664  26.717  29.156  1.00  0.00     0.173 A 
ATOM     73  C   UNL A   1      41.155  28.254  28.065  1.00  0.00     0.173 A 
ATOM     74  F   UNL A   1      38.936  26.337  30.216  1.00  0.00    -0.203 F 
ATOM     75  C   UNL A   1      39.704  25.887  28.039  1.00  0.00     0.198 A 
ATOM     76  C   UNL A   1      41.168  27.436  26.937  1.00  0.00     0.198 A 
ATOM     77  F   UNL A   1      41.872  29.387  28.047  1.00  0.00    -0.203 F 
ATOM     78  F   UNL A   1      39.033  24.727  28.044  1.00  0.00    -0.200 F 
ATOM     79  C   UNL A   1      40.451  26.250  26.929  1.00  0.00     0.200 A 
ATOM     80  F   UNL A   1      41.878  27.796  25.859  1.00  0.00    -0.200 F 
ATOM     81  F   UNL A   1      40.483  25.453  25.852  1.00  0.00    -0.200 F 
ENDBRANCH  57  71
BRANCH  58  82
ATOM     82  C   UNL A   1      39.595  33.962  37.097  1.00  0.00     0.064 A 
ATOM     83  C   UNL A   1      38.842  33.578  38.215  1.00  0.00     0.173 A 
ATOM     84  C   UNL A   1      40.227  35.213  37.134  1.00  0.00     0.173 A 
ATOM     85  F   UNL A   1      38.204  32.397  38.219  1.00  0.00    -0.203 F 
ATOM     86  C   UNL A   1      38.704  34.421  39.315  1.00  0.00     0.198 A 
ATOM     87  C   UNL A   1      40.112  36.044  38.246  1.00  0.00     0.198 A 
ATOM     88  F   UNL A   1      40.965  35.625  36.093  1.00  0.00    -0.203 F 
ATOM     89  F   UNL A   1      37.938  34.049  40.349  1.00  0.00    -0.200 F 
ATOM     90  C   UNL A   1      39.344  35.652  39.333  1.00  0.00     0.200 A 
ATOM     91  F   UNL A   1      40.743  37.225  38.266  1.00  0.00    -0.200 F 
ATOM     92  F   UNL A   1      39.213  36.461  40.392  1.00  0.00    -0.200 F 
ENDBRANCH  58  82
BRANCH  70  93
ATOM     93  C   UNL A   1      44.074  28.935  35.331  1.00  0.00     0.064 A 
ATOM     94  C   UNL A   1      45.353  29.453  35.080  1.00  0.00     0.173 A 
ATOM     95  C   UNL A   1      43.961  27.881  36.251  1.00  0.00     0.173 A 
ATOM     96  F   UNL A   1      45.517  30.451  34.198  1.00  0.00    -0.203 F 
ATOM     97  C   UNL A   1      46.479  28.907  35.691  1.00  0.00     0.198 A 
ATOM     98  C   UNL A   1      45.086  27.360  36.884  1.00  0.00     0.198 A 
ATOM     99  F   UNL A   1      42.760  27.355  36.534  1.00  0.00    -0.203 F 
ATOM    100  F   UNL A   1      47.698  29.375  35.386  1.00  0.00    -0.200 F 
ATOM    101  C   UNL A   1      46.344  27.864  36.596  1.00  0.00     0.200 A 
ATOM    102  F   UNL A   1      44.952  26.362  37.769  1.00  0.00    -0.200 F 
ATOM    103  F   UNL A   1      47.429  27.338  37.180  1.00  0.00    -0.200 F 
ENDBRANCH  70  93
ENDBRANCH  44  45
ENDBRANCH  36  39
ENDBRANCH  34  35
ENDBRANCH  33  34
ENDBRANCH  32  33
ENDBRANCH  31  32
ENDBRANCH   1  31
TORSDOF 19
ENDMDL
MODEL 3
REMARK VINA RESULT:     -11.7      0.894      2.072
REMARK SMILES CCOc1cc(/C=C(\CC(=O)NCCCCCCNC(=O)c2ccc(-c3c4nc(c(-c5c(F)c(F)c(F)c(F)c5F)c5ccc([nH]5)c(-c5c(F)c(F)c(F)c(F)c5F)c5nc(c(-c6c(F)c(F)c(F)c(F)c6F)c6ccc3[nH]6)C=C5)C=C4)cc2)c2nc3ccccc3o2)cc(Br)c1OC
REMARK SMILES IDX 14 1 13 2 12 3 10 4 11 5 9 7 8 8 7 9 6 10 4 11 5 12 97 13
REMARK SMILES IDX 95 14 94 15 96 16 3 17 2 18 1 19 98 20 99 21 85 22 86 23
REMARK SMILES IDX 93 24 87 25 92 26 88 27 91 28 89 29 90 30 15 31 16 32 17 33
REMARK SMILES IDX 18 34 19 35 20 36 21 38 22 39 23 40 84 41 24 42 83 43 25 44
REMARK SMILES IDX 26 45 27 46 77 47 28 48 82 49 76 50 78 51 29 52 81 53 75 54
REMARK SMILES IDX 74 55 30 57 62 58 42 59 61 60 43 61 46 62 60 63 79 64 44 65
REMARK SMILES IDX 45 66 59 68 80 69 47 70 31 71 32 72 40 73 33 74 34 75 38 76
REMARK SMILES IDX 41 77 35 78 36 79 39 80 37 81 63 82 64 83 72 84 65 85 66 86
REMARK SMILES IDX 70 87 73 88 67 89 68 90 71 91 69 92 48 93 49 94 57 95 50 96
REMARK SMILES IDX 51 97 55 98 58 99 52 100 53 101 56 102 54 103
REMARK H PARENT 12 6 19 37 78 56 46 67
REMARK Flexibility Score: inf
ROOT
ATOM      1  C   UNL A   1      31.789  29.060  26.075  1.00  0.00     0.021 C 
ENDROOT
BRANCH   1   2
ATOM      2  C   UNL A   1      32.074  28.052  27.185  1.00  0.00     0.116 C 
BRANCH   2   3
ATOM      3  N   UNL A   1      31.192  26.903  27.176  1.00  0.00    -0.356 N 
ATOM      4  C   UNL A   1      31.221  25.719  26.509  1.00  0.00     0.224 C 
ATOM      5  O   UNL A   1      30.359  24.890  26.832  1.00  0.00    -0.275 OA
ATOM      6  H   UNL A   1      30.417  26.999  27.775  1.00  0.00     0.163 HD
BRANCH   4   7
ATOM      7  C   UNL A   1      32.283  25.319  25.474  1.00  0.00     0.141 C 
BRANCH   7   8
ATOM      8  C   UNL A   1      31.806  24.849  24.113  1.00  0.00     0.025 C 
ATOM      9  C   UNL A   1      32.053  23.643  23.535  1.00  0.00     0.018 C 
BRANCH   9  10
ATOM     10  C   UNL A   1      32.966  22.536  23.981  1.00  0.00    -0.020 A 
ATOM     11  C   UNL A   1      35.199  21.600  24.388  1.00  0.00     0.162 A 
ATOM     12  C   UNL A   1      34.355  22.648  24.022  1.00  0.00     0.058 A 
ATOM     13  C   UNL A   1      34.706  20.314  24.631  1.00  0.00     0.174 A 
ATOM     14  C   UNL A   1      33.316  20.147  24.533  1.00  0.00     0.064 A 
ATOM     15  C   UNL A   1      32.465  21.252  24.231  1.00  0.00     0.028 A 
ATOM     16  Br  UNL A   1      32.391  18.500  24.765  1.00  0.00    -0.047 Br
BRANCH  11  17
ATOM     17  O   UNL A   1      36.555  21.836  24.331  1.00  0.00    -0.490 OA
BRANCH  17  18
ATOM     18  C   UNL A   1      37.096  22.293  25.579  1.00  0.00     0.226 C 
ATOM     19  C   UNL A   1      37.336  23.798  25.594  1.00  0.00     0.049 C 
ENDBRANCH  17  18
ENDBRANCH  11  17
BRANCH  13  20
ATOM     20  O   UNL A   1      35.697  19.434  24.957  1.00  0.00    -0.492 OA
ATOM     21  C   UNL A   1      35.635  18.067  24.609  1.00  0.00     0.278 C 
ENDBRANCH  13  20
ENDBRANCH   9  10
BRANCH   8  22
ATOM     22  C   UNL A   1      31.012  25.836  23.423  1.00  0.00     0.223 A 
ATOM     23  N   UNL A   1      31.594  26.848  22.791  1.00  0.00    -0.210 NA
ATOM     24  O   UNL A   1      29.646  26.031  23.575  1.00  0.00    -0.436 OA
ATOM     25  C   UNL A   1      30.655  27.825  22.733  1.00  0.00     0.110 A 
ATOM     26  C   UNL A   1      29.446  27.330  23.179  1.00  0.00     0.155 A 
ATOM     27  C   UNL A   1      30.774  29.170  22.367  1.00  0.00     0.032 A 
ATOM     28  C   UNL A   1      28.284  28.089  23.259  1.00  0.00     0.049 A 
ATOM     29  C   UNL A   1      29.638  29.979  22.478  1.00  0.00     0.003 A 
ATOM     30  C   UNL A   1      28.416  29.443  22.906  1.00  0.00     0.004 A 
ENDBRANCH   8  22
ENDBRANCH   7   8
ENDBRANCH   4   7
ENDBRANCH   2   3
ENDBRANCH   1   2
BRANCH   1  31
ATOM     31  C   UNL A   1      32.139  30.504  26.434  1.00  0.00     0.002 C 
BRANCH  31  32
ATOM     32  C   UNL A   1      31.016  31.521  26.207  1.00  0.00     0.002 C 
BRANCH  32  33
ATOM     33  C   UNL A   1      31.417  32.994  26.338  1.00  0.00     0.021 C 
BRANCH  33  34
ATOM     34  C   UNL A   1      32.589  33.268  27.278  1.00  0.00     0.116 C 
BRANCH  34  35
ATOM     35  N   UNL A   1      32.503  34.578  27.902  1.00  0.00    -0.352 N 
ATOM     36  C   UNL A   1      33.185  35.098  28.968  1.00  0.00     0.251 C 
ATOM     37  H   UNL A   1      31.847  35.188  27.494  1.00  0.00     0.163 HD
ATOM     38  O   UNL A   1      32.829  36.178  29.447  1.00  0.00    -0.269 OA
BRANCH  36  39
ATOM     39  C   UNL A   1      34.335  34.386  29.565  1.00  0.00     0.039 A 
ATOM     40  C   UNL A   1      35.599  34.568  28.994  1.00  0.00     0.014 A 
ATOM     41  C   UNL A   1      34.178  33.501  30.636  1.00  0.00     0.014 A 
ATOM     42  C   UNL A   1      36.705  33.897  29.519  1.00  0.00     0.010 A 
ATOM     43  C   UNL A   1      35.294  32.885  31.204  1.00  0.00     0.010 A 
ATOM     44  C   UNL A   1      36.567  33.067  30.644  1.00  0.00    -0.014 A 
BRANCH  44  45
ATOM     45  C   UNL A   1      37.752  32.390  31.228  1.00  0.00     0.031 A 
ATOM     46  C   UNL A   1      38.254  32.764  32.596  1.00  0.00     0.074 A 
ATOM     47  C   UNL A   1      38.392  31.445  30.513  1.00  0.00     0.049 A 
ATOM     48  N   UNL A   1      39.255  32.262  33.276  1.00  0.00    -0.248 NA
ATOM     49  C   UNL A   1      37.558  33.865  33.280  1.00  0.00     0.031 C 
ATOM     50  C   UNL A   1      38.041  31.036  29.153  1.00  0.00     0.029 A 
ATOM     51  N   UNL A   1      39.470  30.657  30.829  1.00  0.00    -0.354 N 
ATOM     52  C   UNL A   1      39.310  32.986  34.461  1.00  0.00     0.074 A 
ATOM     53  C   UNL A   1      38.281  34.000  34.383  1.00  0.00     0.031 C 
ATOM     54  C   UNL A   1      38.863  30.049  28.764  1.00  0.00     0.029 A 
ATOM     55  C   UNL A   1      39.815  29.774  29.836  1.00  0.00     0.049 A 
ATOM     56  H   UNL A   1      39.950  30.719  31.687  1.00  0.00     0.167 HD
ATOM     57  C   UNL A   1      40.127  32.806  35.527  1.00  0.00     0.037 A 
ATOM     58  C   UNL A   1      40.783  28.839  29.800  1.00  0.00     0.037 A 
ATOM     59  C   UNL A   1      41.138  31.783  35.610  1.00  0.00     0.049 A 
ATOM     60  C   UNL A   1      41.660  28.642  31.006  1.00  0.00     0.074 A 
ATOM     61  C   UNL A   1      41.982  31.485  36.666  1.00  0.00     0.029 A 
ATOM     62  N   UNL A   1      41.443  30.890  34.593  1.00  0.00    -0.354 N 
ATOM     63  N   UNL A   1      41.651  29.282  32.150  1.00  0.00    -0.248 NA
ATOM     64  C   UNL A   1      42.669  27.579  30.920  1.00  0.00     0.031 C 
ATOM     65  C   UNL A   1      42.826  30.440  36.273  1.00  0.00     0.029 A 
ATOM     66  C   UNL A   1      42.474  30.051  34.991  1.00  0.00     0.049 A 
ATOM     67  H   UNL A   1      40.995  30.858  33.717  1.00  0.00     0.167 HD
ATOM     68  C   UNL A   1      42.631  28.683  32.929  1.00  0.00     0.074 A 
ATOM     69  C   UNL A   1      43.199  27.614  32.134  1.00  0.00     0.031 C 
ATOM     70  C   UNL A   1      43.028  28.990  34.190  1.00  0.00     0.037 A 
BRANCH  57  71
ATOM     71  C   UNL A   1      39.956  33.733  36.697  1.00  0.00     0.064 A 
ATOM     72  C   UNL A   1      39.051  33.452  37.732  1.00  0.00     0.173 A 
ATOM     73  C   UNL A   1      40.729  34.899  36.802  1.00  0.00     0.173 A 
ATOM     74  F   UNL A   1      38.279  32.356  37.674  1.00  0.00    -0.203 F 
ATOM     75  C   UNL A   1      38.905  34.317  38.813  1.00  0.00     0.198 A 
ATOM     76  C   UNL A   1      40.603  35.747  37.900  1.00  0.00     0.198 A 
ATOM     77  F   UNL A   1      41.614  35.214  35.845  1.00  0.00    -0.203 F 
ATOM     78  F   UNL A   1      37.998  34.053  39.763  1.00  0.00    -0.200 F 
ATOM     79  C   UNL A   1      39.685  35.460  38.900  1.00  0.00     0.200 A 
ATOM     80  F   UNL A   1      41.368  36.843  37.990  1.00  0.00    -0.200 F 
ATOM     81  F   UNL A   1      39.549  36.289  39.944  1.00  0.00    -0.200 F 
ENDBRANCH  57  71
BRANCH  58  82
ATOM     82  C   UNL A   1      40.943  27.985  28.594  1.00  0.00     0.064 A 
ATOM     83  C   UNL A   1      41.717  28.412  27.506  1.00  0.00     0.173 A 
ATOM     84  C   UNL A   1      40.325  26.730  28.503  1.00  0.00     0.173 A 
ATOM     85  F   UNL A   1      42.313  29.614  27.539  1.00  0.00    -0.203 F 
ATOM     86  C   UNL A   1      41.846  27.628  26.362  1.00  0.00     0.198 A 
ATOM     87  C   UNL A   1      40.478  25.934  27.370  1.00  0.00     0.198 A 
ATOM     88  F   UNL A   1      39.579  26.272  29.519  1.00  0.00    -0.203 F 
ATOM     89  F   UNL A   1      42.551  28.083  25.317  1.00  0.00    -0.200 F 
ATOM     90  C   UNL A   1      41.231  26.387  26.297  1.00  0.00     0.200 A 
ATOM     91  F   UNL A   1      39.894  24.729  27.316  1.00  0.00    -0.200 F 
ATOM     92  F   UNL A   1      41.357  25.632  25.197  1.00  0.00    -0.200 F 
ENDBRANCH  58  82
BRANCH  70  93
ATOM     93  C   UNL A   1      44.103  28.134  34.794  1.00  0.00     0.064 A 
ATOM     94  C   UNL A   1      43.802  26.960  35.501  1.00  0.00     0.173 A 
ATOM     95  C   UNL A   1      45.454  28.491  34.660  1.00  0.00     0.173 A 
ATOM     96  F   UNL A   1      42.526  26.582  35.670  1.00  0.00    -0.203 F 
ATOM     97  C   UNL A   1      44.810  26.200  36.088  1.00  0.00     0.198 A 
ATOM     98  C   UNL A   1      46.460  27.711  35.220  1.00  0.00     0.198 A 
ATOM     99  F   UNL A   1      45.796  29.599  33.986  1.00  0.00    -0.203 F 
ATOM    100  F   UNL A   1      44.494  25.118  36.815  1.00  0.00    -0.200 F 
ATOM    101  C   UNL A   1      46.138  26.573  35.944  1.00  0.00     0.200 A 
ATOM    102  F   UNL A   1      47.744  28.065  35.067  1.00  0.00    -0.200 F 
ATOM    103  F   UNL A   1      47.106  25.842  36.512  1.00  0.00    -0.200 F 
ENDBRANCH  70  93
ENDBRANCH  44  45
ENDBRANCH  36  39
ENDBRANCH  34  35
ENDBRANCH  33  34
ENDBRANCH  32  33
ENDBRANCH  31  32
ENDBRANCH   1  31
TORSDOF 19
ENDMDL
