MODEL 1
REMARK VINA RESULT:     -12.5      0.000      0.000
REMARK SMILES CC[C@](C)(NC(=O)N1Cc2ccccc2C1)C(=O)NCCCCCCNC(=O)c1ccc(-c2c3nc(c(-c4c(F)c(F)c(F)c(F)c4F)c4ccc([nH]4)c(-c4c(F)c(F)c(F)c(F)c4F)c4nc(c(-c5c(F)c(F)c(F)c(F)c5F)c5ccc2[nH]5)C=C4)C=C3)cc1
REMARK SMILES IDX 23 1 22 2 21 3 20 4 19 5 17 6 18 7 3 9 4 10 2 11 1 12 5 13
REMARK SMILES IDX 6 14 7 16 8 17 9 18 16 19 10 20 15 21 11 22 14 23 12 24
REMARK SMILES IDX 13 25 24 26 25 27 26 28 27 29 28 31 29 32 30 33 91 34 31 35
REMARK SMILES IDX 90 36 32 37 33 38 34 39 84 40 35 41 89 42 83 43 85 44 36 45
REMARK SMILES IDX 88 46 82 47 81 48 37 50 69 51 49 52 68 53 50 54 53 55 67 56
REMARK SMILES IDX 86 57 51 58 52 59 66 61 87 62 54 63 38 64 39 65 47 66 40 67
REMARK SMILES IDX 41 68 45 69 48 70 42 71 43 72 46 73 44 74 70 75 71 76 79 77
REMARK SMILES IDX 72 78 73 79 77 80 80 81 74 82 75 83 78 84 76 85 55 86 56 87
REMARK SMILES IDX 64 88 57 89 58 90 62 91 65 92 59 93 60 94 63 95 61 96
REMARK H PARENT 19 8 5 15 26 30 85 49 53 60
REMARK Flexibility Score: inf
ROOT
ATOM      1  C   UNL A   1      31.811  30.699  26.053  1.00  0.00     0.002 C 
ENDROOT
BRANCH   1   2
ATOM      2  C   UNL A   1      32.321  29.651  27.036  1.00  0.00     0.002 C 
BRANCH   2   3
ATOM      3  C   UNL A   1      31.431  28.424  27.240  1.00  0.00     0.021 C 
BRANCH   3   4
ATOM      4  C   UNL A   1      32.112  27.052  27.285  1.00  0.00     0.116 C 
BRANCH   4   5
ATOM      5  N   UNL A   1      31.314  25.927  26.834  1.00  0.00    -0.354 N 
ATOM      6  C   UNL A   1      31.495  25.009  25.835  1.00  0.00     0.245 C 
ATOM      7  O   UNL A   1      30.650  24.110  25.758  1.00  0.00    -0.272 OA
ATOM      8  H   UNL A   1      30.483  25.799  27.345  1.00  0.00     0.163 HD
BRANCH   6   9
ATOM      9  C   UNL A   1      32.742  25.024  24.909  1.00  0.00     0.117 C 
ATOM     10  C   UNL A   1      32.471  24.428  23.512  1.00  0.00     0.045 C 
BRANCH   9  11
ATOM     11  C   UNL A   1      33.783  24.086  25.615  1.00  0.00     0.035 C 
ATOM     12  C   UNL A   1      35.249  24.450  25.359  1.00  0.00     0.007 C 
ENDBRANCH   9  11
BRANCH   9  13
ATOM     13  N   UNL A   1      33.320  26.380  24.716  1.00  0.00    -0.324 N 
ATOM     14  C   UNL A   1      33.023  27.453  23.940  1.00  0.00     0.318 C 
ATOM     15  H   UNL A   1      34.106  26.537  25.288  1.00  0.00     0.166 HD
ATOM     16  O   UNL A   1      33.952  28.252  23.768  1.00  0.00    -0.249 OA
ATOM     17  N   UNL A   1      31.787  27.703  23.432  1.00  0.00    -0.316 N 
ATOM     18  C   UNL A   1      31.531  28.966  22.710  1.00  0.00     0.157 C 
ATOM     19  C   UNL A   1      30.535  27.006  23.668  1.00  0.00     0.157 C 
ATOM     20  C   UNL A   1      30.034  29.095  22.703  1.00  0.00    -0.023 A 
ATOM     21  C   UNL A   1      29.467  27.953  23.261  1.00  0.00    -0.023 A 
ATOM     22  C   UNL A   1      29.221  30.143  22.309  1.00  0.00     0.006 A 
ATOM     23  C   UNL A   1      28.106  27.831  23.494  1.00  0.00     0.006 A 
ATOM     24  C   UNL A   1      27.839  30.034  22.526  1.00  0.00     0.000 A 
ATOM     25  C   UNL A   1      27.286  28.891  23.126  1.00  0.00     0.000 A 
ENDBRANCH   9  13
ENDBRANCH   6   9
ENDBRANCH   4   5
ENDBRANCH   3   4
ENDBRANCH   2   3
ENDBRANCH   1   2
BRANCH   1  26
ATOM     26  C   UNL A   1      31.464  32.049  26.673  1.00  0.00     0.021 C 
BRANCH  26  27
ATOM     27  C   UNL A   1      32.628  32.753  27.355  1.00  0.00     0.116 C 
BRANCH  27  28
ATOM     28  N   UNL A   1      32.356  34.160  27.611  1.00  0.00    -0.352 N 
ATOM     29  C   UNL A   1      32.937  34.990  28.539  1.00  0.00     0.251 C 
ATOM     30  H   UNL A   1      31.665  34.573  27.044  1.00  0.00     0.163 HD
ATOM     31  O   UNL A   1      32.500  36.106  28.752  1.00  0.00    -0.269 OA
BRANCH  29  32
ATOM     32  C   UNL A   1      34.099  34.488  29.307  1.00  0.00     0.039 A 
ATOM     33  C   UNL A   1      33.878  33.837  30.522  1.00  0.00     0.014 A 
ATOM     34  C   UNL A   1      35.393  34.620  28.795  1.00  0.00     0.014 A 
ATOM     35  C   UNL A   1      34.954  33.261  31.196  1.00  0.00     0.010 A 
ATOM     36  C   UNL A   1      36.452  33.978  29.430  1.00  0.00     0.010 A 
ATOM     37  C   UNL A   1      36.243  33.295  30.638  1.00  0.00    -0.014 A 
BRANCH  37  38
ATOM     38  C   UNL A   1      37.388  32.628  31.307  1.00  0.00     0.031 A 
ATOM     39  C   UNL A   1      38.090  31.485  30.631  1.00  0.00     0.074 A 
ATOM     40  C   UNL A   1      37.755  33.012  32.546  1.00  0.00     0.049 A 
ATOM     41  N   UNL A   1      39.063  30.730  31.075  1.00  0.00    -0.248 NA
ATOM     42  C   UNL A   1      37.617  31.122  29.284  1.00  0.00     0.031 C 
ATOM     43  C   UNL A   1      37.119  34.075  33.325  1.00  0.00     0.029 A 
ATOM     44  N   UNL A   1      38.746  32.543  33.371  1.00  0.00    -0.354 N 
ATOM     45  C   UNL A   1      39.309  29.802  30.071  1.00  0.00     0.074 A 
ATOM     46  C   UNL A   1      38.347  30.049  29.020  1.00  0.00     0.031 C 
ATOM     47  C   UNL A   1      37.749  34.191  34.506  1.00  0.00     0.029 A 
ATOM     48  C   UNL A   1      38.807  33.190  34.583  1.00  0.00     0.049 A 
ATOM     49  H   UNL A   1      39.356  31.813  33.119  1.00  0.00     0.167 HD
ATOM     50  C   UNL A   1      40.269  28.849  30.019  1.00  0.00     0.037 A 
ATOM     51  C   UNL A   1      39.621  32.989  35.636  1.00  0.00     0.037 A 
ATOM     52  C   UNL A   1      41.240  28.624  31.056  1.00  0.00     0.049 A 
ATOM     53  C   UNL A   1      40.676  31.917  35.554  1.00  0.00     0.074 A 
ATOM     54  C   UNL A   1      42.286  27.717  31.076  1.00  0.00     0.029 A 
ATOM     55  N   UNL A   1      41.285  29.314  32.258  1.00  0.00    -0.354 N 
ATOM     56  N   UNL A   1      40.944  31.093  34.570  1.00  0.00    -0.248 NA
ATOM     57  C   UNL A   1      41.548  31.754  36.725  1.00  0.00     0.031 C 
ATOM     58  C   UNL A   1      42.937  27.829  32.309  1.00  0.00     0.029 A 
ATOM     59  C   UNL A   1      42.330  28.840  33.035  1.00  0.00     0.049 A 
ATOM     60  H   UNL A   1      40.667  30.033  32.520  1.00  0.00     0.167 HD
ATOM     61  C   UNL A   1      42.030  30.336  34.990  1.00  0.00     0.074 A 
ATOM     62  C   UNL A   1      42.384  30.813  36.311  1.00  0.00     0.031 C 
ATOM     63  C   UNL A   1      42.676  29.337  34.342  1.00  0.00     0.037 A 
BRANCH  50  64
ATOM     64  C   UNL A   1      40.327  27.985  28.793  1.00  0.00     0.064 A 
ATOM     65  C   UNL A   1      41.093  28.349  27.675  1.00  0.00     0.173 A 
ATOM     66  C   UNL A   1      39.647  26.758  28.752  1.00  0.00     0.173 A 
ATOM     67  F   UNL A   1      41.751  29.517  27.659  1.00  0.00    -0.203 F 
ATOM     68  C   UNL A   1      41.159  27.527  26.553  1.00  0.00     0.198 A 
ATOM     69  C   UNL A   1      39.740  25.925  27.641  1.00  0.00     0.198 A 
ATOM     70  F   UNL A   1      38.903  26.361  29.796  1.00  0.00    -0.203 F 
ATOM     71  F   UNL A   1      41.863  27.915  25.481  1.00  0.00    -0.200 F 
ATOM     72  C   UNL A   1      40.490  26.312  26.540  1.00  0.00     0.200 A 
ATOM     73  F   UNL A   1      39.103  24.745  27.634  1.00  0.00    -0.200 F 
ATOM     74  F   UNL A   1      40.564  25.517  25.464  1.00  0.00    -0.200 F 
ENDBRANCH  50  64
BRANCH  51  75
ATOM     75  C   UNL A   1      39.488  33.829  36.856  1.00  0.00     0.064 A 
ATOM     76  C   UNL A   1      38.729  33.394  37.952  1.00  0.00     0.173 A 
ATOM     77  C   UNL A   1      40.091  35.093  36.943  1.00  0.00     0.173 A 
ATOM     78  F   UNL A   1      38.115  32.202  37.909  1.00  0.00    -0.203 F 
ATOM     79  C   UNL A   1      38.555  34.201  39.074  1.00  0.00     0.198 A 
ATOM     80  C   UNL A   1      39.941  35.886  38.079  1.00  0.00     0.198 A 
ATOM     81  F   UNL A   1      40.832  35.555  35.925  1.00  0.00    -0.203 F 
ATOM     82  F   UNL A   1      37.778  33.782  40.083  1.00  0.00    -0.200 F 
ATOM     83  C   UNL A   1      39.163  35.444  39.139  1.00  0.00     0.200 A 
ATOM     84  F   UNL A   1      40.544  37.081  38.143  1.00  0.00    -0.200 F 
ATOM     85  F   UNL A   1      38.994  36.221  40.217  1.00  0.00    -0.200 F 
ENDBRANCH  51  75
BRANCH  63  86
ATOM     86  C   UNL A   1      43.855  28.717  35.033  1.00  0.00     0.064 A 
ATOM     87  C   UNL A   1      45.151  29.234  34.887  1.00  0.00     0.173 A 
ATOM     88  C   UNL A   1      43.678  27.617  35.886  1.00  0.00     0.173 A 
ATOM     89  F   UNL A   1      45.374  30.276  34.071  1.00  0.00    -0.203 F 
ATOM     90  C   UNL A   1      46.230  28.656  35.550  1.00  0.00     0.198 A 
ATOM     91  C   UNL A   1      44.755  27.061  36.571  1.00  0.00     0.198 A 
ATOM     92  F   UNL A   1      42.458  27.090  36.065  1.00  0.00    -0.203 F 
ATOM     93  F   UNL A   1      47.467  29.135  35.358  1.00  0.00    -0.200 F 
ATOM     94  C   UNL A   1      46.030  27.575  36.396  1.00  0.00     0.200 A 
ATOM     95  F   UNL A   1      44.557  26.027  37.399  1.00  0.00    -0.200 F 
ATOM     96  F   UNL A   1      47.069  27.026  37.039  1.00  0.00    -0.200 F 
ENDBRANCH  63  86
ENDBRANCH  37  38
ENDBRANCH  29  32
ENDBRANCH  27  28
ENDBRANCH  26  27
ENDBRANCH   1  26
TORSDOF 15
ENDMDL
MODEL 2
REMARK VINA RESULT:     -12.5      0.554      7.166
REMARK SMILES CC[C@](C)(NC(=O)N1Cc2ccccc2C1)C(=O)NCCCCCCNC(=O)c1ccc(-c2c3nc(c(-c4c(F)c(F)c(F)c(F)c4F)c4ccc([nH]4)c(-c4c(F)c(F)c(F)c(F)c4F)c4nc(c(-c5c(F)c(F)c(F)c(F)c5F)c5ccc2[nH]5)C=C4)C=C3)cc1
REMARK SMILES IDX 23 1 22 2 21 3 20 4 19 5 17 6 18 7 3 9 4 10 2 11 1 12 5 13
REMARK SMILES IDX 6 14 7 16 8 17 9 18 16 19 10 20 15 21 11 22 14 23 12 24
REMARK SMILES IDX 13 25 24 26 25 27 26 28 27 29 28 31 29 32 30 33 91 34 31 35
REMARK SMILES IDX 90 36 32 37 33 38 34 39 84 40 35 41 89 42 83 43 85 44 36 45
REMARK SMILES IDX 88 46 82 47 81 48 37 50 69 51 49 52 68 53 50 54 53 55 67 56
REMARK SMILES IDX 86 57 51 58 52 59 66 61 87 62 54 63 38 64 39 65 47 66 40 67
REMARK SMILES IDX 41 68 45 69 48 70 42 71 43 72 46 73 44 74 70 75 71 76 79 77
REMARK SMILES IDX 72 78 73 79 77 80 80 81 74 82 75 83 78 84 76 85 55 86 56 87
REMARK SMILES IDX 64 88 57 89 58 90 62 91 65 92 59 93 60 94 63 95 61 96
REMARK H PARENT 19 8 5 15 26 30 85 49 53 60
REMARK Flexibility Score: inf
ROOT
ATOM      1  C   UNL A   1      31.664  30.865  25.980  1.00  0.00     0.002 C 
ENDROOT
BRANCH   1   2
ATOM      2  C   UNL A   1      32.307  29.787  26.845  1.00  0.00     0.002 C 
BRANCH   2   3
ATOM      3  C   UNL A   1      31.437  28.572  27.171  1.00  0.00     0.021 C 
BRANCH   3   4
ATOM      4  C   UNL A   1      32.133  27.214  27.306  1.00  0.00     0.116 C 
BRANCH   4   5
ATOM      5  N   UNL A   1      31.371  26.057  26.875  1.00  0.00    -0.354 N 
ATOM      6  C   UNL A   1      31.590  25.118  25.905  1.00  0.00     0.245 C 
ATOM      7  O   UNL A   1      30.769  24.196  25.840  1.00  0.00    -0.272 OA
ATOM      8  H   UNL A   1      30.535  25.922  27.377  1.00  0.00     0.163 HD
BRANCH   6   9
ATOM      9  C   UNL A   1      32.850  25.139  24.996  1.00  0.00     0.117 C 
ATOM     10  C   UNL A   1      32.617  24.493  23.615  1.00  0.00     0.045 C 
BRANCH   9  11
ATOM     11  C   UNL A   1      33.905  24.251  25.747  1.00  0.00     0.035 C 
ATOM     12  C   UNL A   1      35.353  24.455  25.289  1.00  0.00     0.007 C 
ENDBRANCH   9  11
BRANCH   9  13
ATOM     13  N   UNL A   1      33.394  26.504  24.770  1.00  0.00    -0.324 N 
ATOM     14  C   UNL A   1      33.072  27.549  23.967  1.00  0.00     0.318 C 
ATOM     15  H   UNL A   1      34.175  26.695  25.339  1.00  0.00     0.166 HD
ATOM     16  O   UNL A   1      33.980  28.366  23.776  1.00  0.00    -0.249 OA
ATOM     17  N   UNL A   1      31.830  27.754  23.450  1.00  0.00    -0.316 N 
ATOM     18  C   UNL A   1      31.544  28.991  22.696  1.00  0.00     0.157 C 
ATOM     19  C   UNL A   1      30.596  27.031  23.702  1.00  0.00     0.157 C 
ATOM     20  C   UNL A   1      30.045  29.082  22.683  1.00  0.00    -0.023 A 
ATOM     21  C   UNL A   1      29.505  27.940  23.269  1.00  0.00    -0.023 A 
ATOM     22  C   UNL A   1      29.206  30.098  22.261  1.00  0.00     0.006 A 
ATOM     23  C   UNL A   1      28.148  27.790  23.503  1.00  0.00     0.006 A 
ATOM     24  C   UNL A   1      27.827  29.960  22.479  1.00  0.00     0.000 A 
ATOM     25  C   UNL A   1      27.301  28.819  23.107  1.00  0.00     0.000 A 
ENDBRANCH   9  13
ENDBRANCH   6   9
ENDBRANCH   4   5
ENDBRANCH   3   4
ENDBRANCH   2   3
ENDBRANCH   1   2
BRANCH   1  26
ATOM     26  C   UNL A   1      31.414  32.193  26.686  1.00  0.00     0.021 C 
BRANCH  26  27
ATOM     27  C   UNL A   1      32.663  32.862  27.243  1.00  0.00     0.116 C 
BRANCH  27  28
ATOM     28  N   UNL A   1      32.426  34.241  27.644  1.00  0.00    -0.352 N 
ATOM     29  C   UNL A   1      33.031  34.957  28.649  1.00  0.00     0.251 C 
ATOM     30  H   UNL A   1      31.743  34.726  27.127  1.00  0.00     0.163 HD
ATOM     31  O   UNL A   1      32.621  36.056  28.978  1.00  0.00    -0.269 OA
BRANCH  29  32
ATOM     32  C   UNL A   1      34.183  34.351  29.354  1.00  0.00     0.039 A 
ATOM     33  C   UNL A   1      33.946  33.533  30.460  1.00  0.00     0.014 A 
ATOM     34  C   UNL A   1      35.484  34.557  28.885  1.00  0.00     0.014 A 
ATOM     35  C   UNL A   1      35.015  32.867  31.060  1.00  0.00     0.010 A 
ATOM     36  C   UNL A   1      36.535  33.832  29.437  1.00  0.00     0.010 A 
ATOM     37  C   UNL A   1      36.312  32.982  30.531  1.00  0.00    -0.014 A 
BRANCH  37  38
ATOM     38  C   UNL A   1      37.449  32.228  31.116  1.00  0.00     0.031 A 
ATOM     39  C   UNL A   1      37.953  32.577  32.488  1.00  0.00     0.074 A 
ATOM     40  C   UNL A   1      38.064  31.275  30.389  1.00  0.00     0.049 A 
ATOM     41  N   UNL A   1      38.973  32.085  33.146  1.00  0.00    -0.248 NA
ATOM     42  C   UNL A   1      37.232  33.639  33.208  1.00  0.00     0.031 C 
ATOM     43  C   UNL A   1      37.699  30.882  29.027  1.00  0.00     0.029 A 
ATOM     44  N   UNL A   1      39.134  30.471  30.690  1.00  0.00    -0.354 N 
ATOM     45  C   UNL A   1      39.020  32.783  34.345  1.00  0.00     0.074 A 
ATOM     46  C   UNL A   1      37.965  33.772  34.303  1.00  0.00     0.031 C 
ATOM     47  C   UNL A   1      38.517  29.898  28.619  1.00  0.00     0.029 A 
ATOM     48  C   UNL A   1      39.486  29.616  29.673  1.00  0.00     0.049 A 
ATOM     49  H   UNL A   1      39.606  30.503  31.554  1.00  0.00     0.167 HD
ATOM     50  C   UNL A   1      39.849  32.598  35.398  1.00  0.00     0.037 A 
ATOM     51  C   UNL A   1      40.482  28.712  29.601  1.00  0.00     0.037 A 
ATOM     52  C   UNL A   1      40.881  31.596  35.447  1.00  0.00     0.049 A 
ATOM     53  C   UNL A   1      41.395  28.531  30.785  1.00  0.00     0.074 A 
ATOM     54  C   UNL A   1      41.741  31.293  36.488  1.00  0.00     0.029 A 
ATOM     55  N   UNL A   1      41.192  30.732  34.407  1.00  0.00    -0.354 N 
ATOM     56  N   UNL A   1      41.384  29.149  31.941  1.00  0.00    -0.248 NA
ATOM     57  C   UNL A   1      42.453  27.519  30.657  1.00  0.00     0.031 C 
ATOM     58  C   UNL A   1      42.601  30.276  36.063  1.00  0.00     0.029 A 
ATOM     59  C   UNL A   1      42.243  29.909  34.776  1.00  0.00     0.049 A 
ATOM     60  H   UNL A   1      40.733  30.708  33.536  1.00  0.00     0.167 HD
ATOM     61  C   UNL A   1      42.409  28.583  32.686  1.00  0.00     0.074 A 
ATOM     62  C   UNL A   1      43.010  27.558  31.859  1.00  0.00     0.031 C 
ATOM     63  C   UNL A   1      42.818  28.884  33.943  1.00  0.00     0.037 A 
BRANCH  50  64
ATOM     64  C   UNL A   1      39.668  33.487  36.594  1.00  0.00     0.064 A 
ATOM     65  C   UNL A   1      40.318  34.727  36.690  1.00  0.00     0.173 A 
ATOM     66  C   UNL A   1      38.798  33.119  37.632  1.00  0.00     0.173 A 
ATOM     67  F   UNL A   1      41.168  35.120  35.731  1.00  0.00    -0.203 F 
ATOM     68  C   UNL A   1      40.122  35.555  37.793  1.00  0.00     0.198 A 
ATOM     69  C   UNL A   1      38.582  33.962  38.718  1.00  0.00     0.198 A 
ATOM     70  F   UNL A   1      38.149  31.946  37.587  1.00  0.00    -0.203 F 
ATOM     71  F   UNL A   1      40.787  36.715  37.884  1.00  0.00    -0.200 F 
ATOM     72  C   UNL A   1      39.247  35.176  38.801  1.00  0.00     0.200 A 
ATOM     73  F   UNL A   1      37.728  33.601  39.685  1.00  0.00    -0.200 F 
ATOM     74  F   UNL A   1      39.052  35.979  39.856  1.00  0.00    -0.200 F 
ENDBRANCH  50  64
BRANCH  51  75
ATOM     75  C   UNL A   1      40.663  27.894  28.372  1.00  0.00     0.064 A 
ATOM     76  C   UNL A   1      40.069  26.629  28.254  1.00  0.00     0.173 A 
ATOM     77  C   UNL A   1      41.452  28.345  27.303  1.00  0.00     0.173 A 
ATOM     78  F   UNL A   1      39.323  26.145  29.258  1.00  0.00    -0.203 F 
ATOM     79  C   UNL A   1      40.281  25.835  27.129  1.00  0.00     0.198 A 
ATOM     80  C   UNL A   1      41.637  27.563  26.165  1.00  0.00     0.198 A 
ATOM     81  F   UNL A   1      42.038  29.550  27.362  1.00  0.00    -0.203 F 
ATOM     82  F   UNL A   1      39.747  24.607  27.068  1.00  0.00    -0.200 F 
ATOM     83  C   UNL A   1      41.061  26.304  26.084  1.00  0.00     0.200 A 
ATOM     84  F   UNL A   1      42.380  28.026  25.151  1.00  0.00    -0.200 F 
ATOM     85  F   UNL A   1      41.267  25.540  25.003  1.00  0.00    -0.200 F 
ENDBRANCH  51  75
BRANCH  63  86
ATOM     86  C   UNL A   1      43.942  28.071  34.515  1.00  0.00     0.064 A 
ATOM     87  C   UNL A   1      45.275  28.506  34.448  1.00  0.00     0.173 A 
ATOM     88  C   UNL A   1      43.677  26.861  35.175  1.00  0.00     0.173 A 
ATOM     89  F   UNL A   1      45.581  29.648  33.814  1.00  0.00    -0.203 F 
ATOM     90  C   UNL A   1      46.303  27.745  34.998  1.00  0.00     0.198 A 
ATOM     91  C   UNL A   1      44.705  26.120  35.751  1.00  0.00     0.198 A 
ATOM     92  F   UNL A   1      42.420  26.406  35.272  1.00  0.00    -0.203 F 
ATOM     93  F   UNL A   1      47.573  28.155  34.880  1.00  0.00    -0.200 F 
ATOM     94  C   UNL A   1      46.016  26.558  35.655  1.00  0.00     0.200 A 
ATOM     95  F   UNL A   1      44.424  24.980  36.398  1.00  0.00    -0.200 F 
ATOM     96  F   UNL A   1      47.007  25.832  36.191  1.00  0.00    -0.200 F 
ENDBRANCH  63  86
ENDBRANCH  37  38
ENDBRANCH  29  32
ENDBRANCH  27  28
ENDBRANCH  26  27
ENDBRANCH   1  26
TORSDOF 15
ENDMDL
MODEL 3
REMARK VINA RESULT:     -12.5      0.451      7.333
REMARK SMILES CC[C@](C)(NC(=O)N1Cc2ccccc2C1)C(=O)NCCCCCCNC(=O)c1ccc(-c2c3nc(c(-c4c(F)c(F)c(F)c(F)c4F)c4ccc([nH]4)c(-c4c(F)c(F)c(F)c(F)c4F)c4nc(c(-c5c(F)c(F)c(F)c(F)c5F)c5ccc2[nH]5)C=C4)C=C3)cc1
REMARK SMILES IDX 23 1 22 2 21 3 20 4 19 5 17 6 18 7 3 9 4 10 2 11 1 12 5 13
REMARK SMILES IDX 6 14 7 16 8 17 9 18 16 19 10 20 15 21 11 22 14 23 12 24
REMARK SMILES IDX 13 25 24 26 25 27 26 28 27 29 28 31 29 32 30 33 91 34 31 35
REMARK SMILES IDX 90 36 32 37 33 38 34 39 84 40 35 41 89 42 83 43 85 44 36 45
REMARK SMILES IDX 88 46 82 47 81 48 37 50 69 51 49 52 68 53 50 54 53 55 67 56
REMARK SMILES IDX 86 57 51 58 52 59 66 61 87 62 54 63 38 64 39 65 47 66 40 67
REMARK SMILES IDX 41 68 45 69 48 70 42 71 43 72 46 73 44 74 70 75 71 76 79 77
REMARK SMILES IDX 72 78 73 79 77 80 80 81 74 82 75 83 78 84 76 85 55 86 56 87
REMARK SMILES IDX 64 88 57 89 58 90 62 91 65 92 59 93 60 94 63 95 61 96
REMARK H PARENT 19 8 5 15 26 30 85 49 53 60
REMARK Flexibility Score: inf
ROOT
ATOM      1  C   UNL A   1      31.691  30.763  26.074  1.00  0.00     0.002 C 
ENDROOT
BRANCH   1   2
ATOM      2  C   UNL A   1      32.317  29.743  27.019  1.00  0.00     0.002 C 
BRANCH   2   3
ATOM      3  C   UNL A   1      31.521  28.458  27.252  1.00  0.00     0.021 C 
BRANCH   3   4
ATOM      4  C   UNL A   1      32.285  27.131  27.214  1.00  0.00     0.116 C 
BRANCH   4   5
ATOM      5  N   UNL A   1      31.563  25.991  26.681  1.00  0.00    -0.354 N 
ATOM      6  C   UNL A   1      31.818  25.143  25.638  1.00  0.00     0.245 C 
ATOM      7  O   UNL A   1      31.027  24.205  25.489  1.00  0.00    -0.272 OA
ATOM      8  H   UNL A   1      30.729  25.789  27.163  1.00  0.00     0.163 HD
BRANCH   6   9
ATOM      9  C   UNL A   1      33.082  25.279  24.746  1.00  0.00     0.117 C 
ATOM     10  C   UNL A   1      32.906  24.669  23.340  1.00  0.00     0.045 C 
BRANCH   9  11
ATOM     11  C   UNL A   1      34.186  24.437  25.477  1.00  0.00     0.035 C 
ATOM     12  C   UNL A   1      34.327  22.995  24.976  1.00  0.00     0.007 C 
ENDBRANCH   9  11
BRANCH   9  13
ATOM     13  N   UNL A   1      33.537  26.684  24.574  1.00  0.00    -0.324 N 
ATOM     14  C   UNL A   1      33.136  27.742  23.823  1.00  0.00     0.318 C 
ATOM     15  H   UNL A   1      34.314  26.899  25.138  1.00  0.00     0.166 HD
ATOM     16  O   UNL A   1      33.989  28.621  23.656  1.00  0.00    -0.249 OA
ATOM     17  N   UNL A   1      31.876  27.891  23.336  1.00  0.00    -0.316 N 
ATOM     18  C   UNL A   1      31.501  29.141  22.643  1.00  0.00     0.157 C 
ATOM     19  C   UNL A   1      30.693  27.083  23.573  1.00  0.00     0.157 C 
ATOM     20  C   UNL A   1      29.998  29.138  22.656  1.00  0.00    -0.023 A 
ATOM     21  C   UNL A   1      29.541  27.940  23.198  1.00  0.00    -0.023 A 
ATOM     22  C   UNL A   1      29.091  30.118  22.293  1.00  0.00     0.006 A 
ATOM     23  C   UNL A   1      28.199  27.695  23.445  1.00  0.00     0.006 A 
ATOM     24  C   UNL A   1      27.727  29.884  22.526  1.00  0.00     0.000 A 
ATOM     25  C   UNL A   1      27.284  28.686  23.109  1.00  0.00     0.000 A 
ENDBRANCH   9  13
ENDBRANCH   6   9
ENDBRANCH   4   5
ENDBRANCH   3   4
ENDBRANCH   2   3
ENDBRANCH   1   2
BRANCH   1  26
ATOM     26  C   UNL A   1      31.429  32.134  26.688  1.00  0.00     0.021 C 
BRANCH  26  27
ATOM     27  C   UNL A   1      32.665  32.829  27.241  1.00  0.00     0.116 C 
BRANCH  27  28
ATOM     28  N   UNL A   1      32.408  34.213  27.613  1.00  0.00    -0.352 N 
ATOM     29  C   UNL A   1      33.000  34.957  28.604  1.00  0.00     0.251 C 
ATOM     30  H   UNL A   1      31.719  34.677  27.084  1.00  0.00     0.163 HD
ATOM     31  O   UNL A   1      32.574  36.057  28.910  1.00  0.00    -0.269 OA
BRANCH  29  32
ATOM     32  C   UNL A   1      34.159  34.382  29.323  1.00  0.00     0.039 A 
ATOM     33  C   UNL A   1      33.934  33.623  30.473  1.00  0.00     0.014 A 
ATOM     34  C   UNL A   1      35.455  34.557  28.828  1.00  0.00     0.014 A 
ATOM     35  C   UNL A   1      35.007  32.983  31.092  1.00  0.00     0.010 A 
ATOM     36  C   UNL A   1      36.510  33.857  29.402  1.00  0.00     0.010 A 
ATOM     37  C   UNL A   1      36.297  33.065  30.541  1.00  0.00    -0.014 A 
BRANCH  37  38
ATOM     38  C   UNL A   1      37.439  32.336  31.147  1.00  0.00     0.031 A 
ATOM     39  C   UNL A   1      37.935  32.722  32.513  1.00  0.00     0.074 A 
ATOM     40  C   UNL A   1      38.066  31.371  30.446  1.00  0.00     0.049 A 
ATOM     41  N   UNL A   1      38.957  32.257  33.186  1.00  0.00    -0.248 NA
ATOM     42  C   UNL A   1      37.201  33.796  33.204  1.00  0.00     0.031 C 
ATOM     43  C   UNL A   1      37.710  30.940  29.094  1.00  0.00     0.029 A 
ATOM     44  N   UNL A   1      39.142  30.583  30.772  1.00  0.00    -0.354 N 
ATOM     45  C   UNL A   1      38.993  32.984  34.368  1.00  0.00     0.074 A 
ATOM     46  C   UNL A   1      37.929  33.961  34.298  1.00  0.00     0.031 C 
ATOM     47  C   UNL A   1      38.538  29.954  28.713  1.00  0.00     0.029 A 
ATOM     48  C   UNL A   1      39.505  29.707  29.777  1.00  0.00     0.049 A 
ATOM     49  H   UNL A   1      39.610  30.642  31.636  1.00  0.00     0.167 HD
ATOM     50  C   UNL A   1      39.820  32.832  35.428  1.00  0.00     0.037 A 
ATOM     51  C   UNL A   1      40.509  28.811  29.731  1.00  0.00     0.037 A 
ATOM     52  C   UNL A   1      40.861  31.842  35.505  1.00  0.00     0.049 A 
ATOM     53  C   UNL A   1      41.419  28.667  30.922  1.00  0.00     0.074 A 
ATOM     54  C   UNL A   1      41.720  31.572  36.557  1.00  0.00     0.029 A 
ATOM     55  N   UNL A   1      41.183  30.955  34.488  1.00  0.00    -0.354 N 
ATOM     56  N   UNL A   1      41.399  29.314  32.062  1.00  0.00    -0.248 NA
ATOM     57  C   UNL A   1      42.487  27.662  30.823  1.00  0.00     0.031 C 
ATOM     58  C   UNL A   1      42.590  30.552  36.160  1.00  0.00     0.029 A 
ATOM     59  C   UNL A   1      42.240  30.151  34.881  1.00  0.00     0.049 A 
ATOM     60  H   UNL A   1      40.728  30.906  33.616  1.00  0.00     0.167 HD
ATOM     61  C   UNL A   1      42.426  28.775  32.825  1.00  0.00     0.074 A 
ATOM     62  C   UNL A   1      43.039  27.736  32.025  1.00  0.00     0.031 C 
ATOM     63  C   UNL A   1      42.827  29.111  34.076  1.00  0.00     0.037 A 
BRANCH  50  64
ATOM     64  C   UNL A   1      39.626  33.749  36.601  1.00  0.00     0.064 A 
ATOM     65  C   UNL A   1      38.822  33.384  37.691  1.00  0.00     0.173 A 
ATOM     66  C   UNL A   1      40.286  34.986  36.657  1.00  0.00     0.173 A 
ATOM     67  F   UNL A   1      38.160  32.218  37.682  1.00  0.00    -0.203 F 
ATOM     68  C   UNL A   1      38.669  34.232  38.785  1.00  0.00     0.198 A 
ATOM     69  C   UNL A   1      40.156  35.818  37.765  1.00  0.00     0.198 A 
ATOM     70  F   UNL A   1      41.070  35.381  35.642  1.00  0.00    -0.203 F 
ATOM     71  F   UNL A   1      37.863  33.880  39.797  1.00  0.00    -0.200 F 
ATOM     72  C   UNL A   1      39.343  35.444  38.825  1.00  0.00     0.200 A 
ATOM     73  F   UNL A   1      40.816  36.983  37.809  1.00  0.00    -0.200 F 
ATOM     74  F   UNL A   1      39.204  36.254  39.884  1.00  0.00    -0.200 F 
ENDBRANCH  50  64
BRANCH  51  75
ATOM     75  C   UNL A   1      40.702  27.965  28.523  1.00  0.00     0.064 A 
ATOM     76  C   UNL A   1      41.484  28.412  27.447  1.00  0.00     0.173 A 
ATOM     77  C   UNL A   1      40.091  26.708  28.404  1.00  0.00     0.173 A 
ATOM     78  F   UNL A   1      42.072  29.616  27.503  1.00  0.00    -0.203 F 
ATOM     79  C   UNL A   1      41.622  27.648  26.290  1.00  0.00     0.198 A 
ATOM     80  C   UNL A   1      40.256  25.932  27.259  1.00  0.00     0.198 A 
ATOM     81  F   UNL A   1      39.337  26.231  29.406  1.00  0.00    -0.203 F 
ATOM     82  F   UNL A   1      42.329  28.125  25.256  1.00  0.00    -0.200 F 
ATOM     83  C   UNL A   1      41.012  26.408  26.199  1.00  0.00     0.200 A 
ATOM     84  F   UNL A   1      39.675  24.727  27.181  1.00  0.00    -0.200 F 
ATOM     85  F   UNL A   1      41.142  25.674  25.085  1.00  0.00    -0.200 F 
ENDBRANCH  51  75
BRANCH  63  86
ATOM     86  C   UNL A   1      43.957  28.323  34.671  1.00  0.00     0.064 A 
ATOM     87  C   UNL A   1      45.290  28.747  34.563  1.00  0.00     0.173 A 
ATOM     88  C   UNL A   1      43.697  27.149  35.394  1.00  0.00     0.173 A 
ATOM     89  F   UNL A   1      45.591  29.855  33.869  1.00  0.00    -0.203 F 
ATOM     90  C   UNL A   1      46.323  28.011  35.137  1.00  0.00     0.198 A 
ATOM     91  C   UNL A   1      44.730  26.432  35.992  1.00  0.00     0.198 A 
ATOM     92  F   UNL A   1      42.439  26.704  35.533  1.00  0.00    -0.203 F 
ATOM     93  F   UNL A   1      47.593  28.408  34.980  1.00  0.00    -0.200 F 
ATOM     94  C   UNL A   1      46.041  26.859  35.856  1.00  0.00     0.200 A 
ATOM     95  F   UNL A   1      44.454  25.328  36.699  1.00  0.00    -0.200 F 
ATOM     96  F   UNL A   1      47.037  26.157  36.414  1.00  0.00    -0.200 F 
ENDBRANCH  63  86
ENDBRANCH  37  38
ENDBRANCH  29  32
ENDBRANCH  27  28
ENDBRANCH  26  27
ENDBRANCH   1  26
TORSDOF 15
ENDMDL
