MODEL 1
REMARK VINA RESULT:     -13.4      0.000      0.000
REMARK SMILES O=C(NCCCCCCNC(=O)c1ccc(-c2c3nc(c(-c4c(F)c(F)c(F)c(F)c4F)c4ccc([nH]4)c(-c4c(F)c(F)c(F)c(F)c4F)c4nc(c(-c5c(F)c(F)c(F)c(F)c5F)c5ccc2[nH]5)C=C4)C=C3)cc1)C1=Cc2cc(Cl)cc(-c3ccc(Cl)cc3)c2O[C@@H]1C(F)(F)F
REMARK SMILES IDX 7 1 6 2 5 3 4 4 3 5 1 6 2 7 76 9 77 10 93 11 78 12 92 13
REMARK SMILES IDX 79 14 91 15 80 16 83 17 81 18 82 19 94 20 95 21 96 22 97 23
REMARK SMILES IDX 84 24 85 25 90 26 86 27 89 28 87 29 88 30 8 31 9 32 10 33
REMARK SMILES IDX 11 34 12 36 13 37 14 38 75 39 15 40 74 41 16 42 17 43 18 44
REMARK SMILES IDX 68 45 19 46 73 47 67 48 69 49 20 50 72 51 66 52 65 53 21 55
REMARK SMILES IDX 53 56 33 57 52 58 34 59 37 60 51 61 70 62 35 63 36 64 50 66
REMARK SMILES IDX 71 67 38 68 22 69 23 70 31 71 24 72 25 73 29 74 32 75 26 76
REMARK SMILES IDX 27 77 30 78 28 79 54 80 55 81 63 82 56 83 57 84 61 85 64 86
REMARK SMILES IDX 58 87 59 88 62 89 60 90 39 91 40 92 48 93 41 94 42 95 46 96
REMARK SMILES IDX 49 97 43 98 44 99 47 100 45 101
REMARK H PARENT 3 8 10 35 69 54 37 65
REMARK Flexibility Score: inf
ROOT
ATOM      1  C   UNL A   1      31.985  27.736  23.163  1.00  0.00     0.002 C 
ENDROOT
BRANCH   1   2
ATOM      2  C   UNL A   1      30.688  27.819  23.979  1.00  0.00     0.002 C 
BRANCH   2   3
ATOM      3  C   UNL A   1      30.415  26.679  24.962  1.00  0.00     0.021 C 
BRANCH   3   4
ATOM      4  C   UNL A   1      31.227  26.678  26.255  1.00  0.00     0.116 C 
BRANCH   4   5
ATOM      5  N   UNL A   1      31.397  25.376  26.876  1.00  0.00    -0.352 N 
ATOM      6  O   UNL A   1      32.263  23.338  27.235  1.00  0.00    -0.270 OA
ATOM      7  C   UNL A   1      32.169  24.313  26.490  1.00  0.00     0.251 C 
ATOM      8  H   UNL A   1      30.879  25.237  27.700  1.00  0.00     0.163 HD
BRANCH   7   9
ATOM      9  C   UNL A   1      32.980  24.317  25.234  1.00  0.00     0.067 C 
ATOM     10  C   UNL A   1      34.298  24.576  25.235  1.00  0.00     0.025 C 
ATOM     11  C   UNL A   1      32.453  23.330  24.217  1.00  0.00     0.314 C 
ATOM     12  C   UNL A   1      35.115  23.359  24.994  1.00  0.00     0.019 A 
ATOM     13  O   UNL A   1      33.159  22.066  24.326  1.00  0.00    -0.475 OA
ATOM     14  C   UNL A   1      36.461  23.399  25.369  1.00  0.00     0.032 A 
ATOM     15  C   UNL A   1      34.485  22.130  24.696  1.00  0.00     0.135 A 
ATOM     16  C   UNL A   1      37.157  22.208  25.524  1.00  0.00     0.042 A 
ATOM     17  C   UNL A   1      35.167  20.918  24.918  1.00  0.00     0.026 A 
ATOM     18  Cl  UNL A   1      38.764  22.236  26.134  1.00  0.00    -0.084 Cl
ATOM     19  C   UNL A   1      36.520  20.985  25.314  1.00  0.00     0.033 A 
BRANCH  11  20
ATOM     20  C   UNL A   1      32.480  23.903  22.787  1.00  0.00     0.429 C 
ATOM     21  F   UNL A   1      33.424  24.864  22.655  1.00  0.00    -0.167 F 
ATOM     22  F   UNL A   1      32.762  22.943  21.873  1.00  0.00    -0.167 F 
ATOM     23  F   UNL A   1      31.296  24.455  22.424  1.00  0.00    -0.167 F 
ENDBRANCH  11  20
BRANCH  17  24
ATOM     24  C   UNL A   1      34.477  19.612  24.966  1.00  0.00    -0.015 A 
ATOM     25  C   UNL A   1      35.144  18.470  24.483  1.00  0.00     0.010 A 
ATOM     26  C   UNL A   1      33.190  19.438  25.485  1.00  0.00     0.010 A 
ATOM     27  C   UNL A   1      34.560  17.204  24.496  1.00  0.00     0.021 A 
ATOM     28  C   UNL A   1      32.590  18.169  25.497  1.00  0.00     0.021 A 
ATOM     29  C   UNL A   1      33.276  17.061  24.999  1.00  0.00     0.041 A 
ATOM     30  Cl  UNL A   1      32.535  15.510  25.001  1.00  0.00    -0.084 Cl
ENDBRANCH  17  24
ENDBRANCH   7   9
ENDBRANCH   4   5
ENDBRANCH   3   4
ENDBRANCH   2   3
ENDBRANCH   1   2
BRANCH   1  31
ATOM     31  C   UNL A   1      32.980  28.887  23.330  1.00  0.00     0.021 C 
BRANCH  31  32
ATOM     32  C   UNL A   1      33.497  29.137  24.740  1.00  0.00     0.116 C 
BRANCH  32  33
ATOM     33  N   UNL A   1      32.812  30.245  25.383  1.00  0.00    -0.352 N 
ATOM     34  C   UNL A   1      33.028  30.858  26.593  1.00  0.00     0.251 C 
ATOM     35  H   UNL A   1      32.066  30.621  24.863  1.00  0.00     0.163 HD
ATOM     36  O   UNL A   1      32.185  31.640  27.024  1.00  0.00    -0.269 OA
BRANCH  34  37
ATOM     37  C   UNL A   1      34.249  30.595  27.396  1.00  0.00     0.039 A 
ATOM     38  C   UNL A   1      35.140  31.652  27.625  1.00  0.00     0.014 A 
ATOM     39  C   UNL A   1      34.569  29.320  27.864  1.00  0.00     0.014 A 
ATOM     40  C   UNL A   1      36.317  31.438  28.351  1.00  0.00     0.010 A 
ATOM     41  C   UNL A   1      35.694  29.125  28.665  1.00  0.00     0.010 A 
ATOM     42  C   UNL A   1      36.594  30.176  28.899  1.00  0.00    -0.014 A 
BRANCH  42  43
ATOM     43  C   UNL A   1      37.830  29.923  29.685  1.00  0.00     0.031 A 
ATOM     44  C   UNL A   1      38.904  29.024  29.130  1.00  0.00     0.074 A 
ATOM     45  C   UNL A   1      37.961  30.444  30.920  1.00  0.00     0.049 A 
ATOM     46  N   UNL A   1      40.010  28.605  29.694  1.00  0.00    -0.248 NA
ATOM     47  C   UNL A   1      38.693  28.501  27.771  1.00  0.00     0.031 C 
ATOM     48  C   UNL A   1      36.975  31.295  31.589  1.00  0.00     0.029 A 
ATOM     49  N   UNL A   1      38.974  30.326  31.841  1.00  0.00    -0.354 N 
ATOM     50  C   UNL A   1      40.604  27.749  28.775  1.00  0.00     0.074 A 
ATOM     51  C   UNL A   1      39.716  27.671  27.635  1.00  0.00     0.031 C 
ATOM     52  C   UNL A   1      37.441  31.643  32.799  1.00  0.00     0.029 A 
ATOM     53  C   UNL A   1      38.739  31.008  33.010  1.00  0.00     0.049 A 
ATOM     54  H   UNL A   1      39.791  29.802  31.677  1.00  0.00     0.167 HD
ATOM     55  C   UNL A   1      41.791  27.103  28.862  1.00  0.00     0.037 A 
ATOM     56  C   UNL A   1      39.485  31.104  34.127  1.00  0.00     0.037 A 
ATOM     57  C   UNL A   1      42.696  27.225  29.974  1.00  0.00     0.049 A 
ATOM     58  C   UNL A   1      40.806  30.387  34.193  1.00  0.00     0.074 A 
ATOM     59  C   UNL A   1      43.960  26.681  30.122  1.00  0.00     0.029 A 
ATOM     60  N   UNL A   1      42.432  27.945  31.130  1.00  0.00    -0.354 N 
ATOM     61  N   UNL A   1      41.388  29.638  33.287  1.00  0.00    -0.248 NA
ATOM     62  C   UNL A   1      41.577  30.531  35.436  1.00  0.00     0.031 C 
ATOM     63  C   UNL A   1      44.444  27.034  31.386  1.00  0.00     0.029 A 
ATOM     64  C   UNL A   1      43.501  27.839  32.006  1.00  0.00     0.049 A 
ATOM     65  H   UNL A   1      41.608  28.455  31.303  1.00  0.00     0.167 HD
ATOM     66  C   UNL A   1      42.603  29.252  33.837  1.00  0.00     0.074 A 
ATOM     67  C   UNL A   1      42.682  29.858  35.148  1.00  0.00     0.031 C 
ATOM     68  C   UNL A   1      43.569  28.464  33.302  1.00  0.00     0.037 A 
BRANCH  55  69
ATOM     69  C   UNL A   1      42.188  26.208  27.724  1.00  0.00     0.064 A 
ATOM     70  C   UNL A   1      43.011  26.660  26.680  1.00  0.00     0.173 A 
ATOM     71  C   UNL A   1      41.776  24.867  27.698  1.00  0.00     0.173 A 
ATOM     72  F   UNL A   1      43.424  27.936  26.651  1.00  0.00    -0.203 F 
ATOM     73  C   UNL A   1      43.384  25.811  25.641  1.00  0.00     0.198 A 
ATOM     74  C   UNL A   1      42.175  24.012  26.674  1.00  0.00     0.198 A 
ATOM     75  F   UNL A   1      40.994  24.381  28.673  1.00  0.00    -0.203 F 
ATOM     76  F   UNL A   1      44.131  26.278  24.631  1.00  0.00    -0.200 F 
ATOM     77  C   UNL A   1      42.972  24.487  25.643  1.00  0.00     0.200 A 
ATOM     78  F   UNL A   1      41.788  22.729  26.683  1.00  0.00    -0.200 F 
ATOM     79  F   UNL A   1      43.339  23.668  24.646  1.00  0.00    -0.200 F 
ENDBRANCH  55  69
BRANCH  56  80
ATOM     80  C   UNL A   1      39.016  31.935  35.268  1.00  0.00     0.064 A 
ATOM     81  C   UNL A   1      39.311  33.305  35.324  1.00  0.00     0.173 A 
ATOM     82  C   UNL A   1      38.282  31.383  36.326  1.00  0.00     0.173 A 
ATOM     83  F   UNL A   1      40.030  33.875  34.346  1.00  0.00    -0.203 F 
ATOM     84  C   UNL A   1      38.910  34.084  36.407  1.00  0.00     0.198 A 
ATOM     85  C   UNL A   1      37.856  32.169  37.395  1.00  0.00     0.198 A 
ATOM     86  F   UNL A   1      37.969  30.078  36.319  1.00  0.00    -0.203 F 
ATOM     87  F   UNL A   1      39.250  35.380  36.459  1.00  0.00    -0.200 F 
ATOM     88  C   UNL A   1      38.178  33.517  37.439  1.00  0.00     0.200 A 
ATOM     89  F   UNL A   1      37.137  31.620  38.384  1.00  0.00    -0.200 F 
ATOM     90  F   UNL A   1      37.792  34.268  38.480  1.00  0.00    -0.200 F 
ENDBRANCH  56  80
BRANCH  68  91
ATOM     91  C   UNL A   1      44.810  28.248  34.116  1.00  0.00     0.064 A 
ATOM     92  C   UNL A   1      45.898  29.132  34.048  1.00  0.00     0.173 A 
ATOM     93  C   UNL A   1      44.893  27.168  35.007  1.00  0.00     0.173 A 
ATOM     94  F   UNL A   1      45.872  30.171  33.201  1.00  0.00    -0.203 F 
ATOM     95  C   UNL A   1      47.034  28.925  34.825  1.00  0.00     0.198 A 
ATOM     96  C   UNL A   1      46.019  26.981  35.804  1.00  0.00     0.198 A 
ATOM     97  F   UNL A   1      43.877  26.298  35.114  1.00  0.00    -0.203 F 
ATOM     98  F   UNL A   1      48.082  29.754  34.710  1.00  0.00    -0.200 F 
ATOM     99  C   UNL A   1      47.092  27.855  35.707  1.00  0.00     0.200 A 
ATOM    100  F   UNL A   1      46.066  25.956  36.665  1.00  0.00    -0.200 F 
ATOM    101  F   UNL A   1      48.184  27.664  36.459  1.00  0.00    -0.200 F 
ENDBRANCH  68  91
ENDBRANCH  42  43
ENDBRANCH  34  37
ENDBRANCH  32  33
ENDBRANCH  31  32
ENDBRANCH   1  31
TORSDOF 15
ENDMDL
MODEL 2
REMARK VINA RESULT:     -13.2      2.422      7.464
REMARK SMILES O=C(NCCCCCCNC(=O)c1ccc(-c2c3nc(c(-c4c(F)c(F)c(F)c(F)c4F)c4ccc([nH]4)c(-c4c(F)c(F)c(F)c(F)c4F)c4nc(c(-c5c(F)c(F)c(F)c(F)c5F)c5ccc2[nH]5)C=C4)C=C3)cc1)C1=Cc2cc(Cl)cc(-c3ccc(Cl)cc3)c2O[C@@H]1C(F)(F)F
REMARK SMILES IDX 7 1 6 2 5 3 4 4 3 5 1 6 2 7 76 9 77 10 93 11 78 12 92 13
REMARK SMILES IDX 79 14 91 15 80 16 83 17 81 18 82 19 94 20 95 21 96 22 97 23
REMARK SMILES IDX 84 24 85 25 90 26 86 27 89 28 87 29 88 30 8 31 9 32 10 33
REMARK SMILES IDX 11 34 12 36 13 37 14 38 75 39 15 40 74 41 16 42 17 43 18 44
REMARK SMILES IDX 68 45 19 46 73 47 67 48 69 49 20 50 72 51 66 52 65 53 21 55
REMARK SMILES IDX 53 56 33 57 52 58 34 59 37 60 51 61 70 62 35 63 36 64 50 66
REMARK SMILES IDX 71 67 38 68 22 69 23 70 31 71 24 72 25 73 29 74 32 75 26 76
REMARK SMILES IDX 27 77 30 78 28 79 54 80 55 81 63 82 56 83 57 84 61 85 64 86
REMARK SMILES IDX 58 87 59 88 62 89 60 90 39 91 40 92 48 93 41 94 42 95 46 96
REMARK SMILES IDX 49 97 43 98 44 99 47 100 45 101
REMARK H PARENT 3 8 10 35 69 54 37 65
REMARK Flexibility Score: inf
ROOT
ATOM      1  C   UNL A   1      32.189  28.556  24.370  1.00  0.00     0.002 C 
ENDROOT
BRANCH   1   2
ATOM      2  C   UNL A   1      31.181  27.401  24.437  1.00  0.00     0.002 C 
BRANCH   2   3
ATOM      3  C   UNL A   1      30.704  26.979  25.827  1.00  0.00     0.021 C 
BRANCH   3   4
ATOM      4  C   UNL A   1      30.107  25.578  25.952  1.00  0.00     0.116 C 
BRANCH   4   5
ATOM      5  N   UNL A   1      30.816  24.684  26.852  1.00  0.00    -0.352 N 
ATOM      6  O   UNL A   1      32.486  23.403  27.626  1.00  0.00    -0.270 OA
ATOM      7  C   UNL A   1      31.999  24.019  26.678  1.00  0.00     0.251 C 
ATOM      8  H   UNL A   1      30.377  24.534  27.719  1.00  0.00     0.163 HD
BRANCH   7   9
ATOM      9  C   UNL A   1      32.780  24.078  25.404  1.00  0.00     0.067 C 
ATOM     10  C   UNL A   1      34.088  24.384  25.381  1.00  0.00     0.025 C 
ATOM     11  C   UNL A   1      32.265  23.094  24.378  1.00  0.00     0.314 C 
ATOM     12  C   UNL A   1      34.942  23.204  25.095  1.00  0.00     0.019 A 
ATOM     13  O   UNL A   1      33.018  21.855  24.444  1.00  0.00    -0.475 OA
ATOM     14  C   UNL A   1      36.294  23.284  25.440  1.00  0.00     0.032 A 
ATOM     15  C   UNL A   1      34.349  21.959  24.785  1.00  0.00     0.135 A 
ATOM     16  C   UNL A   1      37.035  22.116  25.553  1.00  0.00     0.042 A 
ATOM     17  C   UNL A   1      35.079  20.768  24.965  1.00  0.00     0.026 A 
ATOM     18  Cl  UNL A   1      38.655  22.189  26.127  1.00  0.00    -0.084 Cl
ATOM     19  C   UNL A   1      36.437  20.875  25.331  1.00  0.00     0.033 A 
BRANCH  11  20
ATOM     20  C   UNL A   1      32.237  23.698  22.961  1.00  0.00     0.429 C 
ATOM     21  F   UNL A   1      31.021  24.213  22.665  1.00  0.00    -0.167 F 
ATOM     22  F   UNL A   1      33.135  24.704  22.833  1.00  0.00    -0.167 F 
ATOM     23  F   UNL A   1      32.528  22.787  22.001  1.00  0.00    -0.167 F 
ENDBRANCH  11  20
BRANCH  17  24
ATOM     24  C   UNL A   1      34.438  19.437  25.001  1.00  0.00    -0.015 A 
ATOM     25  C   UNL A   1      35.183  18.310  24.605  1.00  0.00     0.010 A 
ATOM     26  C   UNL A   1      33.121  19.226  25.425  1.00  0.00     0.010 A 
ATOM     27  C   UNL A   1      34.647  17.023  24.612  1.00  0.00     0.021 A 
ATOM     28  C   UNL A   1      32.571  17.934  25.431  1.00  0.00     0.021 A 
ATOM     29  C   UNL A   1      33.335  16.842  25.021  1.00  0.00     0.041 A 
ATOM     30  Cl  UNL A   1      32.655  15.263  25.014  1.00  0.00    -0.084 Cl
ENDBRANCH  17  24
ENDBRANCH   7   9
ENDBRANCH   4   5
ENDBRANCH   3   4
ENDBRANCH   2   3
ENDBRANCH   1   2
BRANCH   1  31
ATOM     31  C   UNL A   1      33.625  28.244  24.800  1.00  0.00     0.021 C 
BRANCH  31  32
ATOM     32  C   UNL A   1      33.924  28.348  26.289  1.00  0.00     0.116 C 
BRANCH  32  33
ATOM     33  N   UNL A   1      33.775  29.706  26.781  1.00  0.00    -0.352 N 
ATOM     34  C   UNL A   1      34.553  30.445  27.639  1.00  0.00     0.251 C 
ATOM     35  H   UNL A   1      32.981  30.178  26.442  1.00  0.00     0.163 HD
ATOM     36  O   UNL A   1      34.114  31.503  28.080  1.00  0.00    -0.269 OA
BRANCH  34  37
ATOM     37  C   UNL A   1      35.906  29.994  28.052  1.00  0.00     0.039 A 
ATOM     38  C   UNL A   1      36.062  29.416  29.318  1.00  0.00     0.014 A 
ATOM     39  C   UNL A   1      37.031  30.195  27.251  1.00  0.00     0.014 A 
ATOM     40  C   UNL A   1      37.326  29.006  29.757  1.00  0.00     0.010 A 
ATOM     41  C   UNL A   1      38.275  29.704  27.648  1.00  0.00     0.010 A 
ATOM     42  C   UNL A   1      38.442  29.124  28.915  1.00  0.00    -0.014 A 
BRANCH  42  43
ATOM     43  C   UNL A   1      39.794  28.686  29.349  1.00  0.00     0.031 A 
ATOM     44  C   UNL A   1      40.603  29.549  30.283  1.00  0.00     0.074 A 
ATOM     45  C   UNL A   1      40.324  27.550  28.856  1.00  0.00     0.049 A 
ATOM     46  N   UNL A   1      41.833  29.391  30.705  1.00  0.00    -0.248 NA
ATOM     47  C   UNL A   1      39.952  30.770  30.784  1.00  0.00     0.031 C 
ATOM     48  C   UNL A   1      39.663  26.646  27.913  1.00  0.00     0.029 A 
ATOM     49  N   UNL A   1      41.548  26.963  29.073  1.00  0.00    -0.354 N 
ATOM     50  C   UNL A   1      42.110  30.503  31.491  1.00  0.00     0.074 A 
ATOM     51  C   UNL A   1      40.938  31.351  31.451  1.00  0.00     0.031 C 
ATOM     52  C   UNL A   1      40.474  25.610  27.652  1.00  0.00     0.029 A 
ATOM     53  C   UNL A   1      41.729  25.792  28.376  1.00  0.00     0.049 A 
ATOM     54  H   UNL A   1      42.229  27.345  29.671  1.00  0.00     0.167 HD
ATOM     55  C   UNL A   1      43.230  30.783  32.198  1.00  0.00     0.037 A 
ATOM     56  C   UNL A   1      42.791  24.966  28.323  1.00  0.00     0.037 A 
ATOM     57  C   UNL A   1      44.373  29.912  32.278  1.00  0.00     0.049 A 
ATOM     58  C   UNL A   1      44.018  25.293  29.130  1.00  0.00     0.074 A 
ATOM     59  C   UNL A   1      45.521  30.062  33.035  1.00  0.00     0.029 A 
ATOM     60  N   UNL A   1      44.509  28.723  31.576  1.00  0.00    -0.354 N 
ATOM     61  N   UNL A   1      44.239  26.313  29.924  1.00  0.00    -0.248 NA
ATOM     62  C   UNL A   1      45.143  24.353  29.035  1.00  0.00     0.031 C 
ATOM     63  C   UNL A   1      46.373  28.988  32.757  1.00  0.00     0.029 A 
ATOM     64  C   UNL A   1      45.734  28.143  31.864  1.00  0.00     0.049 A 
ATOM     65  H   UNL A   1      43.836  28.348  30.963  1.00  0.00     0.167 HD
ATOM     66  C   UNL A   1      45.510  26.119  30.447  1.00  0.00     0.074 A 
ATOM     67  C   UNL A   1      46.008  24.879  29.891  1.00  0.00     0.031 C 
ATOM     68  C   UNL A   1      46.205  26.899  31.313  1.00  0.00     0.037 A 
BRANCH  55  69
ATOM     69  C   UNL A   1      43.279  32.082  32.950  1.00  0.00     0.064 A 
ATOM     70  C   UNL A   1      42.829  32.186  34.276  1.00  0.00     0.173 A 
ATOM     71  C   UNL A   1      43.823  33.228  32.352  1.00  0.00     0.173 A 
ATOM     72  F   UNL A   1      42.290  31.122  34.891  1.00  0.00    -0.203 F 
ATOM     73  C   UNL A   1      42.898  33.395  34.964  1.00  0.00     0.198 A 
ATOM     74  C   UNL A   1      43.919  34.428  33.053  1.00  0.00     0.198 A 
ATOM     75  F   UNL A   1      44.273  33.183  31.090  1.00  0.00    -0.203 F 
ATOM     76  F   UNL A   1      42.418  33.481  36.213  1.00  0.00    -0.200 F 
ATOM     77  C   UNL A   1      43.449  34.511  34.355  1.00  0.00     0.200 A 
ATOM     78  F   UNL A   1      44.464  35.503  32.469  1.00  0.00    -0.200 F 
ATOM     79  F   UNL A   1      43.522  35.672  35.022  1.00  0.00    -0.200 F 
ENDBRANCH  55  69
BRANCH  56  80
ATOM     80  C   UNL A   1      42.734  23.729  27.498  1.00  0.00     0.064 A 
ATOM     81  C   UNL A   1      42.276  22.524  28.048  1.00  0.00     0.173 A 
ATOM     82  C   UNL A   1      43.144  23.721  26.159  1.00  0.00     0.173 A 
ATOM     83  F   UNL A   1      41.894  22.476  29.332  1.00  0.00    -0.203 F 
ATOM     84  C   UNL A   1      42.255  21.351  27.296  1.00  0.00     0.198 A 
ATOM     85  C   UNL A   1      43.095  22.554  25.398  1.00  0.00     0.198 A 
ATOM     86  F   UNL A   1      43.586  24.849  25.583  1.00  0.00    -0.203 F 
ATOM     87  F   UNL A   1      41.861  20.202  27.862  1.00  0.00    -0.200 F 
ATOM     88  C   UNL A   1      42.659  21.368  25.969  1.00  0.00     0.200 A 
ATOM     89  F   UNL A   1      43.474  22.578  24.112  1.00  0.00    -0.200 F 
ATOM     90  F   UNL A   1      42.638  20.240  25.246  1.00  0.00    -0.200 F 
ENDBRANCH  56  80
BRANCH  68  91
ATOM     91  C   UNL A   1      47.557  26.413  31.743  1.00  0.00     0.064 A 
ATOM     92  C   UNL A   1      47.721  25.590  32.868  1.00  0.00     0.173 A 
ATOM     93  C   UNL A   1      48.698  26.740  30.996  1.00  0.00     0.173 A 
ATOM     94  F   UNL A   1      46.662  25.262  33.624  1.00  0.00    -0.203 F 
ATOM     95  C   UNL A   1      48.982  25.135  33.242  1.00  0.00     0.198 A 
ATOM     96  C   UNL A   1      49.953  26.258  31.355  1.00  0.00     0.198 A 
ATOM     97  F   UNL A   1      48.594  27.518  29.908  1.00  0.00    -0.203 F 
ATOM     98  F   UNL A   1      49.122  24.389  34.347  1.00  0.00    -0.200 F 
ATOM     99  C   UNL A   1      50.096  25.463  32.482  1.00  0.00     0.200 A 
ATOM    100  F   UNL A   1      51.026  26.564  30.612  1.00  0.00    -0.200 F 
ATOM    101  F   UNL A   1      51.307  25.016  32.840  1.00  0.00    -0.200 F 
ENDBRANCH  68  91
ENDBRANCH  42  43
ENDBRANCH  34  37
ENDBRANCH  32  33
ENDBRANCH  31  32
ENDBRANCH   1  31
TORSDOF 15
ENDMDL
MODEL 3
REMARK VINA RESULT:     -13.0      0.760      7.154
REMARK SMILES O=C(NCCCCCCNC(=O)c1ccc(-c2c3nc(c(-c4c(F)c(F)c(F)c(F)c4F)c4ccc([nH]4)c(-c4c(F)c(F)c(F)c(F)c4F)c4nc(c(-c5c(F)c(F)c(F)c(F)c5F)c5ccc2[nH]5)C=C4)C=C3)cc1)C1=Cc2cc(Cl)cc(-c3ccc(Cl)cc3)c2O[C@@H]1C(F)(F)F
REMARK SMILES IDX 7 1 6 2 5 3 4 4 3 5 1 6 2 7 76 9 77 10 93 11 78 12 92 13
REMARK SMILES IDX 79 14 91 15 80 16 83 17 81 18 82 19 94 20 95 21 96 22 97 23
REMARK SMILES IDX 84 24 85 25 90 26 86 27 89 28 87 29 88 30 8 31 9 32 10 33
REMARK SMILES IDX 11 34 12 36 13 37 14 38 75 39 15 40 74 41 16 42 17 43 18 44
REMARK SMILES IDX 68 45 19 46 73 47 67 48 69 49 20 50 72 51 66 52 65 53 21 55
REMARK SMILES IDX 53 56 33 57 52 58 34 59 37 60 51 61 70 62 35 63 36 64 50 66
REMARK SMILES IDX 71 67 38 68 22 69 23 70 31 71 24 72 25 73 29 74 32 75 26 76
REMARK SMILES IDX 27 77 30 78 28 79 54 80 55 81 63 82 56 83 57 84 61 85 64 86
REMARK SMILES IDX 58 87 59 88 62 89 60 90 39 91 40 92 48 93 41 94 42 95 46 96
REMARK SMILES IDX 49 97 43 98 44 99 47 100 45 101
REMARK H PARENT 3 8 10 35 69 54 37 65
REMARK Flexibility Score: inf
ROOT
ATOM      1  C   UNL A   1      32.497  27.464  24.037  1.00  0.00     0.002 C 
ENDROOT
BRANCH   1   2
ATOM      2  C   UNL A   1      31.059  27.019  24.334  1.00  0.00     0.002 C 
BRANCH   2   3
ATOM      3  C   UNL A   1      30.734  26.650  25.782  1.00  0.00     0.021 C 
BRANCH   3   4
ATOM      4  C   UNL A   1      30.085  25.288  26.014  1.00  0.00     0.116 C 
BRANCH   4   5
ATOM      5  N   UNL A   1      30.822  24.395  26.892  1.00  0.00    -0.352 N 
ATOM      6  O   UNL A   1      32.525  23.133  27.624  1.00  0.00    -0.270 OA
ATOM      7  C   UNL A   1      32.013  23.751  26.692  1.00  0.00     0.251 C 
ATOM      8  H   UNL A   1      30.399  24.227  27.764  1.00  0.00     0.163 HD
BRANCH   7   9
ATOM      9  C   UNL A   1      32.773  23.839  25.407  1.00  0.00     0.067 C 
ATOM     10  C   UNL A   1      34.075  24.169  25.367  1.00  0.00     0.025 C 
ATOM     11  C   UNL A   1      32.260  22.856  24.378  1.00  0.00     0.314 C 
ATOM     12  C   UNL A   1      34.945  23.007  25.055  1.00  0.00     0.019 A 
ATOM     13  O   UNL A   1      33.036  21.630  24.419  1.00  0.00    -0.475 OA
ATOM     14  C   UNL A   1      36.300  23.108  25.380  1.00  0.00     0.032 A 
ATOM     15  C   UNL A   1      34.371  21.755  24.741  1.00  0.00     0.135 A 
ATOM     16  C   UNL A   1      37.065  21.954  25.469  1.00  0.00     0.042 A 
ATOM     17  C   UNL A   1      35.125  20.576  24.896  1.00  0.00     0.026 A 
ATOM     18  Cl  UNL A   1      38.691  22.050  26.019  1.00  0.00    -0.084 Cl
ATOM     19  C   UNL A   1      36.486  20.704  25.242  1.00  0.00     0.033 A 
BRANCH  11  20
ATOM     20  C   UNL A   1      32.199  23.474  22.968  1.00  0.00     0.429 C 
ATOM     21  F   UNL A   1      32.368  22.535  22.008  1.00  0.00    -0.167 F 
ATOM     22  F   UNL A   1      31.002  24.065  22.737  1.00  0.00    -0.167 F 
ATOM     23  F   UNL A   1      33.149  24.420  22.772  1.00  0.00    -0.167 F 
ENDBRANCH  11  20
BRANCH  17  24
ATOM     24  C   UNL A   1      34.508  19.234  24.927  1.00  0.00    -0.015 A 
ATOM     25  C   UNL A   1      33.262  19.070  25.562  1.00  0.00     0.010 A 
ATOM     26  C   UNL A   1      35.089  18.104  24.340  1.00  0.00     0.010 A 
ATOM     27  C   UNL A   1      32.617  17.835  25.631  1.00  0.00     0.021 A 
ATOM     28  C   UNL A   1      34.450  16.855  24.409  1.00  0.00     0.021 A 
ATOM     29  C   UNL A   1      33.222  16.727  25.057  1.00  0.00     0.041 A 
ATOM     30  Cl  UNL A   1      32.448  15.195  25.153  1.00  0.00    -0.084 Cl
ENDBRANCH  17  24
ENDBRANCH   7   9
ENDBRANCH   4   5
ENDBRANCH   3   4
ENDBRANCH   2   3
ENDBRANCH   1   2
BRANCH   1  31
ATOM     31  C   UNL A   1      32.841  28.928  24.324  1.00  0.00     0.021 C 
BRANCH  31  32
ATOM     32  C   UNL A   1      33.355  29.242  25.722  1.00  0.00     0.116 C 
BRANCH  32  33
ATOM     33  N   UNL A   1      33.091  30.619  26.103  1.00  0.00    -0.352 N 
ATOM     34  C   UNL A   1      33.631  31.398  27.097  1.00  0.00     0.251 C 
ATOM     35  H   UNL A   1      32.410  31.071  25.555  1.00  0.00     0.163 HD
ATOM     36  O   UNL A   1      33.099  32.471  27.368  1.00  0.00    -0.269 OA
BRANCH  34  37
ATOM     37  C   UNL A   1      34.836  30.975  27.856  1.00  0.00     0.039 A 
ATOM     38  C   UNL A   1      35.904  31.873  27.970  1.00  0.00     0.014 A 
ATOM     39  C   UNL A   1      34.961  29.692  28.392  1.00  0.00     0.014 A 
ATOM     40  C   UNL A   1      37.069  31.500  28.651  1.00  0.00     0.010 A 
ATOM     41  C   UNL A   1      36.082  29.352  29.148  1.00  0.00     0.010 A 
ATOM     42  C   UNL A   1      37.160  30.243  29.268  1.00  0.00    -0.014 A 
BRANCH  42  43
ATOM     43  C   UNL A   1      38.379  29.825  30.008  1.00  0.00     0.031 A 
ATOM     44  C   UNL A   1      38.636  30.353  31.396  1.00  0.00     0.074 A 
ATOM     45  C   UNL A   1      39.287  29.028  29.414  1.00  0.00     0.049 A 
ATOM     46  N   UNL A   1      39.680  30.183  32.170  1.00  0.00    -0.248 NA
ATOM     47  C   UNL A   1      37.594  31.211  31.981  1.00  0.00     0.031 C 
ATOM     48  C   UNL A   1      39.178  28.483  28.059  1.00  0.00     0.029 A 
ATOM     49  N   UNL A   1      40.489  28.542  29.869  1.00  0.00    -0.354 N 
ATOM     50  C   UNL A   1      39.432  30.937  33.310  1.00  0.00     0.074 A 
ATOM     51  C   UNL A   1      38.163  31.601  33.111  1.00  0.00     0.031 C 
ATOM     52  C   UNL A   1      40.252  27.720  27.803  1.00  0.00     0.029 A 
ATOM     53  C   UNL A   1      41.146  27.752  28.957  1.00  0.00     0.049 A 
ATOM     54  H   UNL A   1      40.845  28.741  30.764  1.00  0.00     0.167 HD
ATOM     55  C   UNL A   1      40.184  31.049  34.431  1.00  0.00     0.037 A 
ATOM     56  C   UNL A   1      42.338  27.131  29.041  1.00  0.00     0.037 A 
ATOM     57  C   UNL A   1      41.421  30.346  34.647  1.00  0.00     0.049 A 
ATOM     58  C   UNL A   1      43.147  27.261  30.303  1.00  0.00     0.074 A 
ATOM     59  C   UNL A   1      42.215  30.324  35.781  1.00  0.00     0.029 A 
ATOM     60  N   UNL A   1      42.042  29.536  33.708  1.00  0.00    -0.354 N 
ATOM     61  N   UNL A   1      42.868  27.920  31.402  1.00  0.00    -0.248 NA
ATOM     62  C   UNL A   1      44.437  26.558  30.338  1.00  0.00     0.031 C 
ATOM     63  C   UNL A   1      43.339  29.537  35.512  1.00  0.00     0.029 A 
ATOM     64  C   UNL A   1      43.222  29.029  34.228  1.00  0.00     0.049 A 
ATOM     65  H   UNL A   1      41.696  29.350  32.805  1.00  0.00     0.167 HD
ATOM     66  C   UNL A   1      43.927  27.683  32.267  1.00  0.00     0.074 A 
ATOM     67  C   UNL A   1      44.849  26.811  31.572  1.00  0.00     0.031 C 
ATOM     68  C   UNL A   1      44.119  28.148  33.527  1.00  0.00     0.037 A 
BRANCH  55  69
ATOM     69  C   UNL A   1      39.692  31.962  35.518  1.00  0.00     0.064 A 
ATOM     70  C   UNL A   1      38.755  31.537  36.472  1.00  0.00     0.173 A 
ATOM     71  C   UNL A   1      40.198  33.265  35.633  1.00  0.00     0.173 A 
ATOM     72  F   UNL A   1      38.232  30.304  36.401  1.00  0.00    -0.203 F 
ATOM     73  C   UNL A   1      38.323  32.392  37.483  1.00  0.00     0.198 A 
ATOM     74  C   UNL A   1      39.787  34.108  36.663  1.00  0.00     0.198 A 
ATOM     75  F   UNL A   1      41.101  33.721  34.751  1.00  0.00    -0.203 F 
ATOM     76  F   UNL A   1      37.391  31.979  38.354  1.00  0.00    -0.200 F 
ATOM     77  C   UNL A   1      38.845  33.672  37.582  1.00  0.00     0.200 A 
ATOM     78  F   UNL A   1      40.301  35.340  36.766  1.00  0.00    -0.200 F 
ATOM     79  F   UNL A   1      38.433  34.491  38.561  1.00  0.00    -0.200 F 
ENDBRANCH  55  69
BRANCH  56  80
ATOM     80  C   UNL A   1      42.829  26.302  27.908  1.00  0.00     0.064 A 
ATOM     81  C   UNL A   1      43.680  26.849  26.937  1.00  0.00     0.173 A 
ATOM     82  C   UNL A   1      42.453  24.960  27.763  1.00  0.00     0.173 A 
ATOM     83  F   UNL A   1      44.050  28.135  27.020  1.00  0.00    -0.203 F 
ATOM     84  C   UNL A   1      44.115  26.092  25.852  1.00  0.00     0.198 A 
ATOM     85  C   UNL A   1      42.912  24.194  26.693  1.00  0.00     0.198 A 
ATOM     86  F   UNL A   1      41.644  24.387  28.667  1.00  0.00    -0.203 F 
ATOM     87  F   UNL A   1      44.887  26.655  24.911  1.00  0.00    -0.200 F 
ATOM     88  C   UNL A   1      43.735  24.763  25.733  1.00  0.00     0.200 A 
ATOM     89  F   UNL A   1      42.554  22.907  26.589  1.00  0.00    -0.200 F 
ATOM     90  F   UNL A   1      44.155  24.036  24.689  1.00  0.00    -0.200 F 
ENDBRANCH  56  80
BRANCH  68  91
ATOM     91  C   UNL A   1      45.351  27.688  34.249  1.00  0.00     0.064 A 
ATOM     92  C   UNL A   1      45.364  26.506  35.005  1.00  0.00     0.173 A 
ATOM     93  C   UNL A   1      46.545  28.417  34.147  1.00  0.00     0.173 A 
ATOM     94  F   UNL A   1      44.243  25.782  35.145  1.00  0.00    -0.203 F 
ATOM     95  C   UNL A   1      46.521  26.086  35.654  1.00  0.00     0.198 A 
ATOM     96  C   UNL A   1      47.709  27.979  34.773  1.00  0.00     0.198 A 
ATOM     97  F   UNL A   1      46.587  29.551  33.430  1.00  0.00    -0.203 F 
ATOM     98  F   UNL A   1      46.499  24.980  36.410  1.00  0.00    -0.200 F 
ATOM     99  C   UNL A   1      47.694  26.818  35.531  1.00  0.00     0.200 A 
ATOM    100  F   UNL A   1      48.844  28.679  34.641  1.00  0.00    -0.200 F 
ATOM    101  F   UNL A   1      48.809  26.407  36.150  1.00  0.00    -0.200 F 
ENDBRANCH  68  91
ENDBRANCH  42  43
ENDBRANCH  34  37
ENDBRANCH  32  33
ENDBRANCH  31  32
ENDBRANCH   1  31
TORSDOF 15
ENDMDL
