MODEL 1
REMARK VINA RESULT:     -10.8      0.000      0.000
REMARK SMILES C=CCN1C(=O)/C(=C/c2ccc(OCC(=O)NCCCCCCNC(=O)c3ccc(-c4c5nc(c(-c6c(F)c(F)c(F)c(F)c6F)c6ccc([nH]6)c(-c6c(F)c(F)c(F)c(F)c6F)c6nc(c(-c7c(F)c(F)c(F)c(F)c7F)c7ccc4[nH]7)C=C6)C=C5)cc3)c(OC)c2)C(=O)[NH+]=C1S
REMARK SMILES IDX 19 1 18 2 17 3 15 4 16 5 14 7 13 8 12 9 9 10 10 11 93 12
REMARK SMILES IDX 11 13 90 14 8 15 4 16 5 17 97 18 6 19 7 20 96 21 94 22 95 24
REMARK SMILES IDX 3 25 2 26 1 27 98 28 91 30 92 31 20 32 21 33 22 34 23 35
REMARK SMILES IDX 24 36 25 37 26 39 27 40 28 41 89 42 29 43 88 44 30 45 31 46
REMARK SMILES IDX 32 47 82 48 33 49 87 50 81 51 83 52 34 53 86 54 80 55 79 56
REMARK SMILES IDX 35 58 67 59 47 60 66 61 48 62 51 63 65 64 84 65 49 66 50 67
REMARK SMILES IDX 64 69 85 70 52 71 36 72 37 73 45 74 38 75 39 76 43 77 46 78
REMARK SMILES IDX 40 79 41 80 44 81 42 82 68 83 69 84 77 85 70 86 71 87 75 88
REMARK SMILES IDX 78 89 72 90 73 91 76 92 74 93 53 94 54 95 62 96 55 97 56 98
REMARK SMILES IDX 60 99 63 100 57 101 58 102 61 103 59 104
REMARK H PARENT 17 6 96 23 98 29 24 38 83 57 51 68
REMARK Flexibility Score: inf
ROOT
ATOM      1  C   UNL A   1      44.759  21.616  24.932  1.00  0.00     0.021 C 
ENDROOT
BRANCH   1   2
ATOM      2  C   UNL A   1      43.802  21.884  26.093  1.00  0.00     0.116 C 
BRANCH   2   3
ATOM      3  N   UNL A   1      43.359  20.661  26.724  1.00  0.00    -0.353 N 
ATOM      4  C   UNL A   1      42.115  20.097  26.719  1.00  0.00     0.257 C 
ATOM      5  O   UNL A   1      41.986  18.981  27.228  1.00  0.00    -0.271 OA
ATOM      6  H   UNL A   1      44.048  20.166  27.225  1.00  0.00     0.163 HD
BRANCH   4   7
ATOM      7  C   UNL A   1      40.959  20.814  26.002  1.00  0.00     0.329 C 
BRANCH   7   8
ATOM      8  O   UNL A   1      40.079  21.632  26.756  1.00  0.00    -0.480 OA
BRANCH   8   9
ATOM      9  C   UNL A   1      38.936  22.109  26.173  1.00  0.00     0.161 A 
ATOM     10  C   UNL A   1      36.625  23.407  25.234  1.00  0.00    -0.021 A 
ATOM     11  C   UNL A   1      37.516  24.092  26.054  1.00  0.00     0.012 A 
ATOM     12  C   UNL A   1      36.922  22.096  24.838  1.00  0.00     0.058 A 
ATOM     13  C   UNL A   1      38.665  23.444  26.515  1.00  0.00     0.051 A 
ATOM     14  C   UNL A   1      38.065  21.436  25.306  1.00  0.00     0.161 A 
BRANCH  10  15
ATOM     15  C   UNL A   1      35.403  24.046  24.738  1.00  0.00     0.032 C 
ATOM     16  N   UNL A   1      31.787  24.332  25.014  1.00  0.00    -0.183 N 
ATOM     17  C   UNL A   1      33.055  24.546  24.505  1.00  0.00     0.349 C 
ATOM     18  C   UNL A   1      31.623  23.612  26.173  1.00  0.00     0.318 C 
ATOM     19  O   UNL A   1      33.270  25.153  23.455  1.00  0.00    -0.240 OA
ATOM     20  C   UNL A   1      34.170  23.951  25.282  1.00  0.00     0.154 C 
ATOM     21  N   UNL A   1      32.564  23.115  26.887  1.00  0.00    -0.200 N 
ATOM     22  C   UNL A   1      33.877  23.284  26.573  1.00  0.00     0.347 C 
ATOM     23  H   UNL A   1      32.329  22.595  27.690  1.00  0.00     0.316 HD
ATOM     24  O   UNL A   1      34.758  22.914  27.340  1.00  0.00    -0.241 OA
BRANCH  16  25
ATOM     25  C   UNL A   1      30.676  24.889  24.237  1.00  0.00     0.275 C 
BRANCH  25  26
ATOM     26  C   UNL A   1      30.255  26.195  24.853  1.00  0.00     0.011 C 
ATOM     27  C   UNL A   1      31.110  27.131  25.284  1.00  0.00     0.008 C 
ENDBRANCH  25  26
ENDBRANCH  16  25
BRANCH  18  28
ATOM     28  S   UNL A   1      30.012  23.315  26.785  1.00  0.00    -0.055 SA
ATOM     29  H   UNL A   1      29.795  24.084  27.885  1.00  0.00     0.116 HD
ENDBRANCH  18  28
ENDBRANCH  10  15
BRANCH  14  30
ATOM     30  O   UNL A   1      38.397  20.184  24.867  1.00  0.00    -0.493 OA
ATOM     31  C   UNL A   1      37.391  19.183  25.002  1.00  0.00     0.278 C 
ENDBRANCH  14  30
ENDBRANCH   8   9
ENDBRANCH   7   8
ENDBRANCH   4   7
ENDBRANCH   2   3
ENDBRANCH   1   2
BRANCH   1  32
ATOM     32  C   UNL A   1      46.204  22.077  25.169  1.00  0.00     0.002 C 
BRANCH  32  33
ATOM     33  C   UNL A   1      46.568  23.438  24.568  1.00  0.00     0.002 C 
BRANCH  33  34
ATOM     34  C   UNL A   1      46.725  24.578  25.575  1.00  0.00     0.021 C 
BRANCH  34  35
ATOM     35  C   UNL A   1      45.607  25.615  25.555  1.00  0.00     0.116 C 
BRANCH  35  36
ATOM     36  N   UNL A   1      44.475  25.190  24.749  1.00  0.00    -0.352 N 
ATOM     37  C   UNL A   1      43.129  25.293  24.992  1.00  0.00     0.251 C 
ATOM     38  H   UNL A   1      44.711  24.760  23.895  1.00  0.00     0.163 HD
ATOM     39  O   UNL A   1      42.333  24.702  24.269  1.00  0.00    -0.269 OA
BRANCH  37  40
ATOM     40  C   UNL A   1      42.626  26.094  26.130  1.00  0.00     0.039 A 
ATOM     41  C   UNL A   1      41.894  25.445  27.127  1.00  0.00     0.014 A 
ATOM     42  C   UNL A   1      42.832  27.475  26.208  1.00  0.00     0.014 A 
ATOM     43  C   UNL A   1      41.416  26.166  28.221  1.00  0.00     0.010 A 
ATOM     44  C   UNL A   1      42.426  28.180  27.341  1.00  0.00     0.010 A 
ATOM     45  C   UNL A   1      41.707  27.535  28.357  1.00  0.00    -0.014 A 
BRANCH  45  46
ATOM     46  C   UNL A   1      41.277  28.278  29.571  1.00  0.00     0.031 A 
ATOM     47  C   UNL A   1      40.069  29.174  29.541  1.00  0.00     0.074 A 
ATOM     48  C   UNL A   1      41.994  28.155  30.705  1.00  0.00     0.049 A 
ATOM     49  N   UNL A   1      39.531  29.869  30.514  1.00  0.00    -0.248 NA
ATOM     50  C   UNL A   1      39.386  29.329  28.249  1.00  0.00     0.031 C 
ATOM     51  C   UNL A   1      43.217  27.362  30.845  1.00  0.00     0.029 A 
ATOM     52  N   UNL A   1      41.798  28.686  31.955  1.00  0.00    -0.354 N 
ATOM     53  C   UNL A   1      38.453  30.540  29.950  1.00  0.00     0.074 A 
ATOM     54  C   UNL A   1      38.449  30.219  28.540  1.00  0.00     0.031 C 
ATOM     55  C   UNL A   1      43.637  27.424  32.118  1.00  0.00     0.029 A 
ATOM     56  C   UNL A   1      42.741  28.292  32.874  1.00  0.00     0.049 A 
ATOM     57  H   UNL A   1      41.053  29.292  32.173  1.00  0.00     0.167 HD
ATOM     58  C   UNL A   1      37.535  31.329  30.560  1.00  0.00     0.037 A 
ATOM     59  C   UNL A   1      42.868  28.596  34.179  1.00  0.00     0.037 A 
ATOM     60  C   UNL A   1      37.539  31.641  31.967  1.00  0.00     0.049 A 
ATOM     61  C   UNL A   1      41.842  29.486  34.826  1.00  0.00     0.074 A 
ATOM     62  C   UNL A   1      36.624  32.387  32.689  1.00  0.00     0.029 A 
ATOM     63  N   UNL A   1      38.514  31.229  32.866  1.00  0.00    -0.354 N 
ATOM     64  N   UNL A   1      40.779  30.046  34.301  1.00  0.00    -0.248 NA
ATOM     65  C   UNL A   1      42.027  29.776  36.255  1.00  0.00     0.031 C 
ATOM     66  C   UNL A   1      37.077  32.480  34.009  1.00  0.00     0.029 A 
ATOM     67  C   UNL A   1      38.238  31.734  34.128  1.00  0.00     0.049 A 
ATOM     68  H   UNL A   1      39.287  30.663  32.640  1.00  0.00     0.167 HD
ATOM     69  C   UNL A   1      40.157  30.731  35.337  1.00  0.00     0.074 A 
ATOM     70  C   UNL A   1      40.946  30.490  36.527  1.00  0.00     0.031 C 
ATOM     71  C   UNL A   1      39.035  31.493  35.304  1.00  0.00     0.037 A 
BRANCH  58  72
ATOM     72  C   UNL A   1      36.443  31.916  29.707  1.00  0.00     0.064 A 
ATOM     73  C   UNL A   1      35.407  31.125  29.187  1.00  0.00     0.173 A 
ATOM     74  C   UNL A   1      36.407  33.294  29.445  1.00  0.00     0.173 A 
ATOM     75  F   UNL A   1      35.397  29.800  29.399  1.00  0.00    -0.203 F 
ATOM     76  C   UNL A   1      34.393  31.687  28.413  1.00  0.00     0.198 A 
ATOM     77  C   UNL A   1      35.374  33.858  28.701  1.00  0.00     0.198 A 
ATOM     78  F   UNL A   1      37.367  34.101  29.923  1.00  0.00    -0.203 F 
ATOM     79  F   UNL A   1      33.443  30.902  27.886  1.00  0.00    -0.200 F 
ATOM     80  C   UNL A   1      34.372  33.053  28.178  1.00  0.00     0.200 A 
ATOM     81  F   UNL A   1      35.346  35.181  28.488  1.00  0.00    -0.200 F 
ATOM     82  F   UNL A   1      33.391  33.593  27.443  1.00  0.00    -0.200 F 
ENDBRANCH  58  72
BRANCH  59  83
ATOM     83  C   UNL A   1      43.998  28.037  34.968  1.00  0.00     0.064 A 
ATOM     84  C   UNL A   1      43.873  26.818  35.650  1.00  0.00     0.173 A 
ATOM     85  C   UNL A   1      45.222  28.716  35.071  1.00  0.00     0.173 A 
ATOM     86  F   UNL A   1      42.717  26.139  35.600  1.00  0.00    -0.203 F 
ATOM     87  C   UNL A   1      44.914  26.315  36.427  1.00  0.00     0.198 A 
ATOM     88  C   UNL A   1      46.274  28.196  35.820  1.00  0.00     0.198 A 
ATOM     89  F   UNL A   1      45.397  29.884  34.434  1.00  0.00    -0.203 F 
ATOM     90  F   UNL A   1      44.745  25.178  37.116  1.00  0.00    -0.200 F 
ATOM     91  C   UNL A   1      46.116  27.001  36.507  1.00  0.00     0.200 A 
ATOM     92  F   UNL A   1      47.441  28.853  35.879  1.00  0.00    -0.200 F 
ATOM     93  F   UNL A   1      47.119  26.518  37.252  1.00  0.00    -0.200 F 
ENDBRANCH  59  83
BRANCH  71  94
ATOM     94  C   UNL A   1      38.582  32.096  36.605  1.00  0.00     0.064 A 
ATOM     95  C   UNL A   1      37.791  31.380  37.518  1.00  0.00     0.173 A 
ATOM     96  C   UNL A   1      38.947  33.408  36.946  1.00  0.00     0.173 A 
ATOM     97  F   UNL A   1      37.403  30.127  37.238  1.00  0.00    -0.203 F 
ATOM     98  C   UNL A   1      37.344  31.971  38.698  1.00  0.00     0.198 A 
ATOM     99  C   UNL A   1      38.531  33.981  38.145  1.00  0.00     0.198 A 
ATOM    100  F   UNL A   1      39.710  34.136  36.117  1.00  0.00    -0.203 F 
ATOM    101  F   UNL A   1      36.529  31.291  39.517  1.00  0.00    -0.200 F 
ATOM    102  C   UNL A   1      37.718  33.267  39.012  1.00  0.00     0.200 A 
ATOM    103  F   UNL A   1      38.909  35.229  38.456  1.00  0.00    -0.200 F 
ATOM    104  F   UNL A   1      37.286  33.835  40.147  1.00  0.00    -0.200 F 
ENDBRANCH  71  94
ENDBRANCH  45  46
ENDBRANCH  37  40
ENDBRANCH  35  36
ENDBRANCH  34  35
ENDBRANCH  33  34
ENDBRANCH  32  33
ENDBRANCH   1  32
TORSDOF 20
ENDMDL
MODEL 2
REMARK VINA RESULT:     -10.6      5.388     11.186
REMARK SMILES C=CCN1C(=O)/C(=C/c2ccc(OCC(=O)NCCCCCCNC(=O)c3ccc(-c4c5nc(c(-c6c(F)c(F)c(F)c(F)c6F)c6ccc([nH]6)c(-c6c(F)c(F)c(F)c(F)c6F)c6nc(c(-c7c(F)c(F)c(F)c(F)c7F)c7ccc4[nH]7)C=C6)C=C5)cc3)c(OC)c2)C(=O)[NH+]=C1S
REMARK SMILES IDX 19 1 18 2 17 3 15 4 16 5 14 7 13 8 12 9 9 10 10 11 93 12
REMARK SMILES IDX 11 13 90 14 8 15 4 16 5 17 97 18 6 19 7 20 96 21 94 22 95 24
REMARK SMILES IDX 3 25 2 26 1 27 98 28 91 30 92 31 20 32 21 33 22 34 23 35
REMARK SMILES IDX 24 36 25 37 26 39 27 40 28 41 89 42 29 43 88 44 30 45 31 46
REMARK SMILES IDX 32 47 82 48 33 49 87 50 81 51 83 52 34 53 86 54 80 55 79 56
REMARK SMILES IDX 35 58 67 59 47 60 66 61 48 62 51 63 65 64 84 65 49 66 50 67
REMARK SMILES IDX 64 69 85 70 52 71 36 72 37 73 45 74 38 75 39 76 43 77 46 78
REMARK SMILES IDX 40 79 41 80 44 81 42 82 68 83 69 84 77 85 70 86 71 87 75 88
REMARK SMILES IDX 78 89 72 90 73 91 76 92 74 93 53 94 54 95 62 96 55 97 56 98
REMARK SMILES IDX 60 99 63 100 57 101 58 102 61 103 59 104
REMARK H PARENT 17 6 96 23 98 29 24 38 83 57 51 68
REMARK Flexibility Score: inf
ROOT
ATOM      1  C   UNL A   1      34.728  34.693  32.106  1.00  0.00     0.021 C 
ENDROOT
BRANCH   1   2
ATOM      2  C   UNL A   1      34.612  33.256  31.601  1.00  0.00     0.116 C 
BRANCH   2   3
ATOM      3  N   UNL A   1      34.045  33.192  30.271  1.00  0.00    -0.353 N 
ATOM      4  C   UNL A   1      34.571  32.631  29.143  1.00  0.00     0.257 C 
ATOM      5  O   UNL A   1      33.860  32.587  28.136  1.00  0.00    -0.271 OA
ATOM      6  H   UNL A   1      33.159  33.609  30.166  1.00  0.00     0.163 HD
BRANCH   4   7
ATOM      7  C   UNL A   1      35.970  31.994  29.192  1.00  0.00     0.329 C 
BRANCH   7   8
ATOM      8  O   UNL A   1      36.097  30.593  29.006  1.00  0.00    -0.480 OA
BRANCH   8   9
ATOM      9  C   UNL A   1      37.291  29.982  29.283  1.00  0.00     0.161 A 
ATOM     10  C   UNL A   1      39.840  28.809  29.462  1.00  0.00    -0.021 A 
ATOM     11  C   UNL A   1      39.521  29.604  28.365  1.00  0.00     0.012 A 
ATOM     12  C   UNL A   1      38.906  28.652  30.493  1.00  0.00     0.058 A 
ATOM     13  C   UNL A   1      38.254  30.188  28.283  1.00  0.00     0.051 A 
ATOM     14  C   UNL A   1      37.629  29.224  30.412  1.00  0.00     0.161 A 
BRANCH  10  15
ATOM     15  C   UNL A   1      41.154  28.170  29.581  1.00  0.00     0.032 C 
ATOM     16  N   UNL A   1      43.097  25.114  29.231  1.00  0.00    -0.183 N 
ATOM     17  C   UNL A   1      42.826  26.432  29.553  1.00  0.00     0.349 C 
ATOM     18  C   UNL A   1      42.149  24.353  28.592  1.00  0.00     0.318 C 
ATOM     19  O   UNL A   1      43.617  27.159  30.154  1.00  0.00    -0.240 OA
ATOM     20  C   UNL A   1      41.480  26.925  29.169  1.00  0.00     0.154 C 
ATOM     21  N   UNL A   1      40.992  24.756  28.215  1.00  0.00    -0.200 N 
ATOM     22  C   UNL A   1      40.581  26.042  28.390  1.00  0.00     0.347 C 
ATOM     23  H   UNL A   1      40.381  24.115  27.784  1.00  0.00     0.316 HD
ATOM     24  O   UNL A   1      39.527  26.435  27.904  1.00  0.00    -0.241 OA
BRANCH  16  25
ATOM     25  C   UNL A   1      44.412  24.609  29.635  1.00  0.00     0.275 C 
BRANCH  25  26
ATOM     26  C   UNL A   1      45.412  24.934  28.558  1.00  0.00     0.011 C 
ATOM     27  C   UNL A   1      45.979  24.019  27.761  1.00  0.00     0.008 C 
ENDBRANCH  25  26
ENDBRANCH  16  25
BRANCH  18  28
ATOM     28  S   UNL A   1      42.489  22.677  28.227  1.00  0.00    -0.055 SA
ATOM     29  H   UNL A   1      42.786  22.552  26.906  1.00  0.00     0.116 HD
ENDBRANCH  18  28
ENDBRANCH  10  15
BRANCH  14  30
ATOM     30  O   UNL A   1      36.739  29.135  31.446  1.00  0.00    -0.493 OA
ATOM     31  C   UNL A   1      36.593  30.301  32.253  1.00  0.00     0.278 C 
ENDBRANCH  14  30
ENDBRANCH   8   9
ENDBRANCH   7   8
ENDBRANCH   4   7
ENDBRANCH   2   3
ENDBRANCH   1   2
BRANCH   1  32
ATOM     32  C   UNL A   1      34.843  34.832  33.630  1.00  0.00     0.002 C 
BRANCH  32  33
ATOM     33  C   UNL A   1      35.615  33.713  34.337  1.00  0.00     0.002 C 
BRANCH  33  34
ATOM     34  C   UNL A   1      37.132  33.743  34.146  1.00  0.00     0.021 C 
BRANCH  34  35
ATOM     35  C   UNL A   1      37.942  33.869  35.432  1.00  0.00     0.116 C 
BRANCH  35  36
ATOM     36  N   UNL A   1      37.666  32.790  36.365  1.00  0.00    -0.352 N 
ATOM     37  C   UNL A   1      38.152  31.508  36.401  1.00  0.00     0.251 C 
ATOM     38  H   UNL A   1      37.032  33.014  37.085  1.00  0.00     0.163 HD
ATOM     39  O   UNL A   1      37.651  30.688  37.165  1.00  0.00    -0.269 OA
BRANCH  37  40
ATOM     40  C   UNL A   1      39.262  31.095  35.513  1.00  0.00     0.039 A 
ATOM     41  C   UNL A   1      40.560  31.485  35.848  1.00  0.00     0.014 A 
ATOM     42  C   UNL A   1      39.036  30.364  34.343  1.00  0.00     0.014 A 
ATOM     43  C   UNL A   1      41.632  31.102  35.041  1.00  0.00     0.010 A 
ATOM     44  C   UNL A   1      40.114  29.912  33.581  1.00  0.00     0.010 A 
ATOM     45  C   UNL A   1      41.424  30.282  33.918  1.00  0.00    -0.014 A 
BRANCH  45  46
ATOM     46  C   UNL A   1      42.579  29.798  33.117  1.00  0.00     0.031 A 
ATOM     47  C   UNL A   1      43.077  30.578  31.931  1.00  0.00     0.074 A 
ATOM     48  C   UNL A   1      43.171  28.635  33.453  1.00  0.00     0.049 A 
ATOM     49  N   UNL A   1      44.091  30.323  31.140  1.00  0.00    -0.248 NA
ATOM     50  C   UNL A   1      42.329  31.791  31.569  1.00  0.00     0.031 C 
ATOM     51  C   UNL A   1      42.745  27.759  34.546  1.00  0.00     0.029 A 
ATOM     52  N   UNL A   1      44.260  27.993  32.918  1.00  0.00    -0.354 N 
ATOM     53  C   UNL A   1      44.100  31.339  30.194  1.00  0.00     0.074 A 
ATOM     54  C   UNL A   1      42.956  32.180  30.468  1.00  0.00     0.031 C 
ATOM     55  C   UNL A   1      43.587  26.717  34.628  1.00  0.00     0.029 A 
ATOM     56  C   UNL A   1      44.586  26.829  33.571  1.00  0.00     0.049 A 
ATOM     57  H   UNL A   1      44.759  28.334  32.141  1.00  0.00     0.167 HD
ATOM     58  C   UNL A   1      44.998  31.565  29.203  1.00  0.00     0.037 A 
ATOM     59  C   UNL A   1      45.579  25.949  33.342  1.00  0.00     0.037 A 
ATOM     60  C   UNL A   1      46.141  30.728  28.937  1.00  0.00     0.049 A 
ATOM     61  C   UNL A   1      46.552  26.218  32.227  1.00  0.00     0.074 A 
ATOM     62  C   UNL A   1      47.136  30.901  27.991  1.00  0.00     0.029 A 
ATOM     63  N   UNL A   1      46.435  29.552  29.614  1.00  0.00    -0.354 N 
ATOM     64  N   UNL A   1      46.599  27.228  31.391  1.00  0.00    -0.248 NA
ATOM     65  C   UNL A   1      47.620  25.229  32.031  1.00  0.00     0.031 C 
ATOM     66  C   UNL A   1      47.997  29.800  28.053  1.00  0.00     0.029 A 
ATOM     67  C   UNL A   1      47.580  28.974  29.084  1.00  0.00     0.049 A 
ATOM     68  H   UNL A   1      45.910  29.184  30.361  1.00  0.00     0.167 HD
ATOM     69  C   UNL A   1      47.713  27.010  30.591  1.00  0.00     0.074 A 
ATOM     70  C   UNL A   1      48.329  25.786  31.061  1.00  0.00     0.031 C 
ATOM     71  C   UNL A   1      48.180  27.752  29.557  1.00  0.00     0.037 A 
BRANCH  58  72
ATOM     72  C   UNL A   1      44.781  32.768  28.327  1.00  0.00     0.064 A 
ATOM     73  C   UNL A   1      44.180  32.663  27.063  1.00  0.00     0.173 A 
ATOM     74  C   UNL A   1      45.137  34.050  28.775  1.00  0.00     0.173 A 
ATOM     75  F   UNL A   1      43.828  31.461  26.581  1.00  0.00    -0.203 F 
ATOM     76  C   UNL A   1      43.969  33.789  26.270  1.00  0.00     0.198 A 
ATOM     77  C   UNL A   1      44.894  35.178  27.995  1.00  0.00     0.198 A 
ATOM     78  F   UNL A   1      45.709  34.213  29.978  1.00  0.00    -0.203 F 
ATOM     79  F   UNL A   1      43.440  33.655  25.047  1.00  0.00    -0.200 F 
ATOM     80  C   UNL A   1      44.318  35.046  26.740  1.00  0.00     0.200 A 
ATOM     81  F   UNL A   1      45.217  36.394  28.458  1.00  0.00    -0.200 F 
ATOM     82  F   UNL A   1      44.105  36.129  25.981  1.00  0.00    -0.200 F 
ENDBRANCH  58  72
BRANCH  59  83
ATOM     83  C   UNL A   1      45.718  24.742  34.200  1.00  0.00     0.064 A 
ATOM     84  C   UNL A   1      45.011  23.566  33.915  1.00  0.00     0.173 A 
ATOM     85  C   UNL A   1      46.547  24.744  35.332  1.00  0.00     0.173 A 
ATOM     86  F   UNL A   1      44.189  23.518  32.856  1.00  0.00    -0.203 F 
ATOM     87  C   UNL A   1      45.103  22.449  34.744  1.00  0.00     0.198 A 
ATOM     88  C   UNL A   1      46.665  23.616  36.141  1.00  0.00     0.198 A 
ATOM     89  F   UNL A   1      47.251  25.842  35.647  1.00  0.00    -0.203 F 
ATOM     90  F   UNL A   1      44.369  21.359  34.481  1.00  0.00    -0.200 F 
ATOM     91  C   UNL A   1      45.935  22.473  35.853  1.00  0.00     0.200 A 
ATOM     92  F   UNL A   1      47.486  23.638  37.201  1.00  0.00    -0.200 F 
ATOM     93  F   UNL A   1      46.026  21.400  36.649  1.00  0.00    -0.200 F 
ENDBRANCH  59  83
BRANCH  71  94
ATOM     94  C   UNL A   1      49.438  27.274  28.886  1.00  0.00     0.064 A 
ATOM     95  C   UNL A   1      50.708  27.520  29.430  1.00  0.00     0.173 A 
ATOM     96  C   UNL A   1      49.372  26.555  27.682  1.00  0.00     0.173 A 
ATOM     97  F   UNL A   1      50.830  28.213  30.572  1.00  0.00    -0.203 F 
ATOM     98  C   UNL A   1      51.864  27.107  28.771  1.00  0.00     0.198 A 
ATOM     99  C   UNL A   1      50.528  26.108  27.046  1.00  0.00     0.198 A 
ATOM    100  F   UNL A   1      48.184  26.281  27.120  1.00  0.00    -0.203 F 
ATOM    101  F   UNL A   1      53.066  27.419  29.274  1.00  0.00    -0.200 F 
ATOM    102  C   UNL A   1      51.772  26.398  27.584  1.00  0.00     0.200 A 
ATOM    103  F   UNL A   1      50.436  25.406  25.908  1.00  0.00    -0.200 F 
ATOM    104  F   UNL A   1      52.885  26.002  26.951  1.00  0.00    -0.200 F 
ENDBRANCH  71  94
ENDBRANCH  45  46
ENDBRANCH  37  40
ENDBRANCH  35  36
ENDBRANCH  34  35
ENDBRANCH  33  34
ENDBRANCH  32  33
ENDBRANCH   1  32
TORSDOF 20
ENDMDL
MODEL 3
REMARK VINA RESULT:     -10.5      5.249     12.395
REMARK SMILES C=CCN1C(=O)/C(=C/c2ccc(OCC(=O)NCCCCCCNC(=O)c3ccc(-c4c5nc(c(-c6c(F)c(F)c(F)c(F)c6F)c6ccc([nH]6)c(-c6c(F)c(F)c(F)c(F)c6F)c6nc(c(-c7c(F)c(F)c(F)c(F)c7F)c7ccc4[nH]7)C=C6)C=C5)cc3)c(OC)c2)C(=O)[NH+]=C1S
REMARK SMILES IDX 19 1 18 2 17 3 15 4 16 5 14 7 13 8 12 9 9 10 10 11 93 12
REMARK SMILES IDX 11 13 90 14 8 15 4 16 5 17 97 18 6 19 7 20 96 21 94 22 95 24
REMARK SMILES IDX 3 25 2 26 1 27 98 28 91 30 92 31 20 32 21 33 22 34 23 35
REMARK SMILES IDX 24 36 25 37 26 39 27 40 28 41 89 42 29 43 88 44 30 45 31 46
REMARK SMILES IDX 32 47 82 48 33 49 87 50 81 51 83 52 34 53 86 54 80 55 79 56
REMARK SMILES IDX 35 58 67 59 47 60 66 61 48 62 51 63 65 64 84 65 49 66 50 67
REMARK SMILES IDX 64 69 85 70 52 71 36 72 37 73 45 74 38 75 39 76 43 77 46 78
REMARK SMILES IDX 40 79 41 80 44 81 42 82 68 83 69 84 77 85 70 86 71 87 75 88
REMARK SMILES IDX 78 89 72 90 73 91 76 92 74 93 53 94 54 95 62 96 55 97 56 98
REMARK SMILES IDX 60 99 63 100 57 101 58 102 61 103 59 104
REMARK H PARENT 17 6 96 23 98 29 24 38 83 57 51 68
REMARK Flexibility Score: inf
ROOT
ATOM      1  C   UNL A   1      38.470  34.461  30.862  1.00  0.00     0.021 C 
ENDROOT
BRANCH   1   2
ATOM      2  C   UNL A   1      38.026  33.246  30.049  1.00  0.00     0.116 C 
BRANCH   2   3
ATOM      3  N   UNL A   1      37.148  33.614  28.959  1.00  0.00    -0.353 N 
ATOM      4  C   UNL A   1      36.045  32.961  28.491  1.00  0.00     0.257 C 
ATOM      5  O   UNL A   1      35.371  33.518  27.620  1.00  0.00    -0.271 OA
ATOM      6  H   UNL A   1      37.379  34.450  28.491  1.00  0.00     0.163 HD
BRANCH   4   7
ATOM      7  C   UNL A   1      35.627  31.624  29.124  1.00  0.00     0.329 C 
BRANCH   7   8
ATOM      8  O   UNL A   1      35.960  30.413  28.465  1.00  0.00    -0.480 OA
BRANCH   8   9
ATOM      9  C   UNL A   1      37.155  29.804  28.736  1.00  0.00     0.161 A 
ATOM     10  C   UNL A   1      39.707  28.635  28.900  1.00  0.00    -0.021 A 
ATOM     11  C   UNL A   1      39.379  29.422  27.801  1.00  0.00     0.012 A 
ATOM     12  C   UNL A   1      38.782  28.484  29.940  1.00  0.00     0.058 A 
ATOM     13  C   UNL A   1      38.110  30.005  27.726  1.00  0.00     0.051 A 
ATOM     14  C   UNL A   1      37.504  29.054  29.866  1.00  0.00     0.161 A 
BRANCH  10  15
ATOM     15  C   UNL A   1      41.023  27.997  29.012  1.00  0.00     0.032 C 
ATOM     16  N   UNL A   1      42.928  24.901  28.875  1.00  0.00    -0.183 N 
ATOM     17  C   UNL A   1      42.682  26.248  29.072  1.00  0.00     0.349 C 
ATOM     18  C   UNL A   1      41.942  24.088  28.372  1.00  0.00     0.318 C 
ATOM     19  O   UNL A   1      43.509  27.025  29.549  1.00  0.00    -0.240 OA
ATOM     20  C   UNL A   1      41.319  26.713  28.714  1.00  0.00     0.154 C 
ATOM     21  N   UNL A   1      40.767  24.462  28.020  1.00  0.00    -0.200 N 
ATOM     22  C   UNL A   1      40.373  25.763  28.082  1.00  0.00     0.347 C 
ATOM     23  H   UNL A   1      40.130  23.786  27.693  1.00  0.00     0.316 HD
ATOM     24  O   UNL A   1      39.295  26.115  27.618  1.00  0.00    -0.241 OA
BRANCH  16  25
ATOM     25  C   UNL A   1      44.261  24.426  29.255  1.00  0.00     0.275 C 
BRANCH  25  26
ATOM     26  C   UNL A   1      45.212  24.674  28.115  1.00  0.00     0.011 C 
ATOM     27  C   UNL A   1      45.967  23.724  27.549  1.00  0.00     0.008 C 
ENDBRANCH  25  26
ENDBRANCH  16  25
BRANCH  18  28
ATOM     28  S   UNL A   1      42.252  22.379  28.165  1.00  0.00    -0.055 SA
ATOM     29  H   UNL A   1      41.456  21.668  29.007  1.00  0.00     0.116 HD
ENDBRANCH  18  28
ENDBRANCH  10  15
BRANCH  14  30
ATOM     30  O   UNL A   1      36.623  28.970  30.909  1.00  0.00    -0.493 OA
ATOM     31  C   UNL A   1      36.804  29.915  31.962  1.00  0.00     0.278 C 
ENDBRANCH  14  30
ENDBRANCH   8   9
ENDBRANCH   7   8
ENDBRANCH   4   7
ENDBRANCH   2   3
ENDBRANCH   1   2
BRANCH   1  32
ATOM     32  C   UNL A   1      38.535  34.230  32.379  1.00  0.00     0.002 C 
BRANCH  32  33
ATOM     33  C   UNL A   1      37.434  33.334  32.956  1.00  0.00     0.002 C 
BRANCH  33  34
ATOM     34  C   UNL A   1      36.799  33.833  34.255  1.00  0.00     0.021 C 
BRANCH  34  35
ATOM     35  C   UNL A   1      37.764  33.991  35.426  1.00  0.00     0.116 C 
BRANCH  35  36
ATOM     36  N   UNL A   1      37.610  32.936  36.413  1.00  0.00    -0.352 N 
ATOM     37  C   UNL A   1      38.186  31.692  36.474  1.00  0.00     0.251 C 
ATOM     38  H   UNL A   1      36.998  33.147  37.155  1.00  0.00     0.163 HD
ATOM     39  O   UNL A   1      37.780  30.874  37.294  1.00  0.00    -0.269 OA
BRANCH  37  40
ATOM     40  C   UNL A   1      39.277  31.318  35.547  1.00  0.00     0.039 A 
ATOM     41  C   UNL A   1      40.555  31.828  35.786  1.00  0.00     0.014 A 
ATOM     42  C   UNL A   1      39.050  30.507  34.431  1.00  0.00     0.014 A 
ATOM     43  C   UNL A   1      41.611  31.485  34.940  1.00  0.00     0.010 A 
ATOM     44  C   UNL A   1      40.120  30.098  33.634  1.00  0.00     0.010 A 
ATOM     45  C   UNL A   1      41.411  30.589  33.876  1.00  0.00    -0.014 A 
BRANCH  45  46
ATOM     46  C   UNL A   1      42.558  30.152  33.036  1.00  0.00     0.031 A 
ATOM     47  C   UNL A   1      43.255  28.846  33.299  1.00  0.00     0.074 A 
ATOM     48  C   UNL A   1      42.983  30.953  32.039  1.00  0.00     0.049 A 
ATOM     49  N   UNL A   1      44.249  28.293  32.647  1.00  0.00    -0.248 NA
ATOM     50  C   UNL A   1      42.795  28.066  34.457  1.00  0.00     0.031 C 
ATOM     51  C   UNL A   1      42.428  32.269  31.720  1.00  0.00     0.029 A 
ATOM     52  N   UNL A   1      43.974  30.776  31.105  1.00  0.00    -0.354 N 
ATOM     53  C   UNL A   1      44.529  27.108  33.314  1.00  0.00     0.074 A 
ATOM     54  C   UNL A   1      43.645  27.049  34.457  1.00  0.00     0.031 C 
ATOM     55  C   UNL A   1      43.054  32.761  30.641  1.00  0.00     0.029 A 
ATOM     56  C   UNL A   1      44.082  31.818  30.216  1.00  0.00     0.049 A 
ATOM     57  H   UNL A   1      44.551  29.979  31.075  1.00  0.00     0.167 HD
ATOM     58  C   UNL A   1      45.423  26.143  32.986  1.00  0.00     0.037 A 
ATOM     59  C   UNL A   1      44.917  31.993  29.174  1.00  0.00     0.037 A 
ATOM     60  C   UNL A   1      46.297  26.202  31.842  1.00  0.00     0.049 A 
ATOM     61  C   UNL A   1      45.909  30.911  28.842  1.00  0.00     0.074 A 
ATOM     62  C   UNL A   1      47.201  25.252  31.395  1.00  0.00     0.029 A 
ATOM     63  N   UNL A   1      46.385  27.276  30.967  1.00  0.00    -0.354 N 
ATOM     64  N   UNL A   1      46.106  29.756  29.431  1.00  0.00    -0.248 NA
ATOM     65  C   UNL A   1      46.787  31.154  27.690  1.00  0.00     0.031 C 
ATOM     66  C   UNL A   1      47.878  25.777  30.289  1.00  0.00     0.029 A 
ATOM     67  C   UNL A   1      47.349  27.025  30.002  1.00  0.00     0.049 A 
ATOM     68  H   UNL A   1      45.841  28.095  31.023  1.00  0.00     0.167 HD
ATOM     69  C   UNL A   1      47.110  29.125  28.707  1.00  0.00     0.074 A 
ATOM     70  C   UNL A   1      47.459  30.015  27.619  1.00  0.00     0.031 C 
ATOM     71  C   UNL A   1      47.692  27.921  28.927  1.00  0.00     0.037 A 
BRANCH  58  72
ATOM     72  C   UNL A   1      45.504  24.935  33.879  1.00  0.00     0.064 A 
ATOM     73  C   UNL A   1      46.382  24.883  34.972  1.00  0.00     0.173 A 
ATOM     74  C   UNL A   1      44.661  23.833  33.666  1.00  0.00     0.173 A 
ATOM     75  F   UNL A   1      47.217  25.904  35.217  1.00  0.00    -0.203 F 
ATOM     76  C   UNL A   1      46.433  23.763  35.801  1.00  0.00     0.198 A 
ATOM     77  C   UNL A   1      44.690  22.731  34.516  1.00  0.00     0.198 A 
ATOM     78  F   UNL A   1      43.796  23.830  32.640  1.00  0.00    -0.203 F 
ATOM     79  F   UNL A   1      47.315  23.718  36.808  1.00  0.00    -0.200 F 
ATOM     80  C   UNL A   1      45.581  22.693  35.578  1.00  0.00     0.200 A 
ATOM     81  F   UNL A   1      43.854  21.703  34.308  1.00  0.00    -0.200 F 
ATOM     82  F   UNL A   1      45.624  21.622  36.382  1.00  0.00    -0.200 F 
ENDBRANCH  58  72
BRANCH  59  83
ATOM     83  C   UNL A   1      44.838  33.232  28.355  1.00  0.00     0.064 A 
ATOM     84  C   UNL A   1      45.420  34.430  28.795  1.00  0.00     0.173 A 
ATOM     85  C   UNL A   1      44.164  33.250  27.125  1.00  0.00     0.173 A 
ATOM     86  F   UNL A   1      46.059  34.471  29.974  1.00  0.00    -0.203 F 
ATOM     87  C   UNL A   1      45.306  35.603  28.052  1.00  0.00     0.198 A 
ATOM     88  C   UNL A   1      44.081  34.415  26.366  1.00  0.00     0.198 A 
ATOM     89  F   UNL A   1      43.594  32.131  26.655  1.00  0.00    -0.203 F 
ATOM     90  F   UNL A   1      45.821  36.746  28.525  1.00  0.00    -0.200 F 
ATOM     91  C   UNL A   1      44.642  35.594  26.835  1.00  0.00     0.200 A 
ATOM     92  F   UNL A   1      43.454  34.397  25.181  1.00  0.00    -0.200 F 
ATOM     93  F   UNL A   1      44.534  36.720  26.118  1.00  0.00    -0.200 F 
ENDBRANCH  59  83
BRANCH  71  94
ATOM     94  C   UNL A   1      48.748  27.484  27.948  1.00  0.00     0.064 A 
ATOM     95  C   UNL A   1      50.117  27.632  28.221  1.00  0.00     0.173 A 
ATOM     96  C   UNL A   1      48.385  26.906  26.722  1.00  0.00     0.173 A 
ATOM     97  F   UNL A   1      50.520  28.190  29.373  1.00  0.00    -0.203 F 
ATOM     98  C   UNL A   1      51.079  27.262  27.284  1.00  0.00     0.198 A 
ATOM     99  C   UNL A   1      49.351  26.501  25.804  1.00  0.00     0.198 A 
ATOM    100  F   UNL A   1      47.091  26.730  26.412  1.00  0.00    -0.203 F 
ATOM    101  F   UNL A   1      52.377  27.482  27.538  1.00  0.00    -0.200 F 
ATOM    102  C   UNL A   1      50.696  26.693  26.080  1.00  0.00     0.200 A 
ATOM    103  F   UNL A   1      48.979  25.933  24.648  1.00  0.00    -0.200 F 
ATOM    104  F   UNL A   1      51.623  26.339  25.179  1.00  0.00    -0.200 F 
ENDBRANCH  71  94
ENDBRANCH  45  46
ENDBRANCH  37  40
ENDBRANCH  35  36
ENDBRANCH  34  35
ENDBRANCH  33  34
ENDBRANCH  32  33
ENDBRANCH   1  32
TORSDOF 20
ENDMDL
