MODEL 1
REMARK VINA RESULT:     -12.8      0.000      0.000
REMARK SMILES O=C(NCCCCCCNC(=O)[C@H](c1ccccc1)N1C(=O)/C(=C\c2ccc(Br)cc2)SC1=S)c1ccc(-c2c3nc(c(-c4c(F)c(F)c(F)c(F)c4F)c4ccc([nH]4)c(-c4c(F)c(F)c(F)c(F)c4F)c4nc(c(-c5c(F)c(F)c(F)c(F)c5F)c5ccc2[nH]5)C=C4)C=C3)cc1
REMARK SMILES IDX 6 1 5 2 4 3 3 4 1 5 2 6 35 8 36 9 97 10 37 11 96 12 38 13
REMARK SMILES IDX 39 14 40 15 90 16 41 17 95 18 89 19 91 20 42 21 94 22 88 23
REMARK SMILES IDX 87 24 43 26 75 27 55 28 74 29 56 30 59 31 73 32 92 33 57 34
REMARK SMILES IDX 58 35 72 37 93 38 60 39 44 40 45 41 53 42 46 43 47 44 51 45
REMARK SMILES IDX 54 46 48 47 49 48 52 49 50 50 76 51 77 52 85 53 78 54 79 55
REMARK SMILES IDX 83 56 86 57 80 58 81 59 84 60 82 61 61 62 62 63 70 64 63 65
REMARK SMILES IDX 64 66 68 67 71 68 65 69 66 70 69 71 67 72 7 73 8 74 9 75
REMARK SMILES IDX 10 76 11 77 12 79 13 80 20 81 21 82 33 83 22 84 23 85 32 86
REMARK SMILES IDX 34 87 24 88 25 89 26 90 31 91 27 92 30 93 28 94 29 95 14 96
REMARK SMILES IDX 15 97 19 98 16 99 18 100 17 101
REMARK H PARENT 3 7 91 25 59 36 10 78
REMARK Flexibility Score: inf
ROOT
ATOM      1  C   UNL A   1      31.402  30.859  26.064  1.00  0.00     0.002 C 
ENDROOT
BRANCH   1   2
ATOM      2  C   UNL A   1      31.314  32.324  26.500  1.00  0.00     0.021 C 
BRANCH   2   3
ATOM      3  C   UNL A   1      32.540  32.832  27.251  1.00  0.00     0.116 C 
BRANCH   3   4
ATOM      4  N   UNL A   1      32.398  34.229  27.627  1.00  0.00    -0.352 N 
ATOM      5  O   UNL A   1      32.561  36.021  28.986  1.00  0.00    -0.269 OA
ATOM      6  C   UNL A   1      32.983  34.916  28.659  1.00  0.00     0.251 C 
ATOM      7  H   UNL A   1      31.793  34.758  27.059  1.00  0.00     0.163 HD
BRANCH   6   8
ATOM      8  C   UNL A   1      34.129  34.325  29.379  1.00  0.00     0.039 A 
ATOM      9  C   UNL A   1      33.921  33.542  30.518  1.00  0.00     0.014 A 
ATOM     10  C   UNL A   1      35.421  34.511  28.877  1.00  0.00     0.014 A 
ATOM     11  C   UNL A   1      35.011  33.031  31.215  1.00  0.00     0.010 A 
ATOM     12  C   UNL A   1      36.508  33.933  29.534  1.00  0.00     0.010 A 
ATOM     13  C   UNL A   1      36.312  33.200  30.715  1.00  0.00    -0.014 A 
BRANCH  13  14
ATOM     14  C   UNL A   1      37.442  32.522  31.392  1.00  0.00     0.031 A 
ATOM     15  C   UNL A   1      38.168  31.383  30.741  1.00  0.00     0.074 A 
ATOM     16  C   UNL A   1      37.803  32.949  32.617  1.00  0.00     0.049 A 
ATOM     17  N   UNL A   1      39.167  30.672  31.199  1.00  0.00    -0.248 NA
ATOM     18  C   UNL A   1      37.707  30.979  29.404  1.00  0.00     0.031 C 
ATOM     19  C   UNL A   1      37.149  34.032  33.354  1.00  0.00     0.029 A 
ATOM     20  N   UNL A   1      38.804  32.531  33.457  1.00  0.00    -0.354 N 
ATOM     21  C   UNL A   1      39.443  29.729  30.220  1.00  0.00     0.074 A 
ATOM     22  C   UNL A   1      38.490  29.940  29.150  1.00  0.00     0.031 C 
ATOM     23  C   UNL A   1      37.778  34.211  34.524  1.00  0.00     0.029 A 
ATOM     24  C   UNL A   1      38.841  33.220  34.644  1.00  0.00     0.049 A 
ATOM     25  H   UNL A   1      39.433  31.810  33.230  1.00  0.00     0.167 HD
ATOM     26  C   UNL A   1      40.410  28.779  30.216  1.00  0.00     0.037 A 
ATOM     27  C   UNL A   1      39.626  33.055  35.723  1.00  0.00     0.037 A 
ATOM     28  C   UNL A   1      41.358  28.585  31.284  1.00  0.00     0.049 A 
ATOM     29  C   UNL A   1      40.680  31.986  35.698  1.00  0.00     0.074 A 
ATOM     30  C   UNL A   1      42.410  27.688  31.353  1.00  0.00     0.029 A 
ATOM     31  N   UNL A   1      41.361  29.295  32.477  1.00  0.00    -0.354 N 
ATOM     32  N   UNL A   1      40.969  31.136  34.744  1.00  0.00    -0.248 NA
ATOM     33  C   UNL A   1      41.517  31.855  36.897  1.00  0.00     0.031 C 
ATOM     34  C   UNL A   1      43.017  27.820  32.607  1.00  0.00     0.029 A 
ATOM     35  C   UNL A   1      42.378  28.836  33.301  1.00  0.00     0.049 A 
ATOM     36  H   UNL A   1      40.735  30.020  32.705  1.00  0.00     0.167 HD
ATOM     37  C   UNL A   1      42.025  30.373  35.218  1.00  0.00     0.074 A 
ATOM     38  C   UNL A   1      42.341  30.880  36.540  1.00  0.00     0.031 C 
ATOM     39  C   UNL A   1      42.672  29.346  34.616  1.00  0.00     0.037 A 
BRANCH  26  40
ATOM     40  C   UNL A   1      40.476  27.857  29.032  1.00  0.00     0.064 A 
ATOM     41  C   UNL A   1      39.702  26.689  28.958  1.00  0.00     0.173 A 
ATOM     42  C   UNL A   1      41.302  28.165  27.940  1.00  0.00     0.173 A 
ATOM     43  F   UNL A   1      38.905  26.342  29.980  1.00  0.00    -0.203 F 
ATOM     44  C   UNL A   1      39.776  25.849  27.849  1.00  0.00     0.198 A 
ATOM     45  C   UNL A   1      41.351  27.339  26.820  1.00  0.00     0.198 A 
ATOM     46  F   UNL A   1      42.058  29.274  27.953  1.00  0.00    -0.203 F 
ATOM     47  F   UNL A   1      39.063  24.714  27.822  1.00  0.00    -0.200 F 
ATOM     48  C   UNL A   1      40.594  26.178  26.779  1.00  0.00     0.200 A 
ATOM     49  F   UNL A   1      42.134  27.664  25.782  1.00  0.00    -0.200 F 
ATOM     50  F   UNL A   1      40.660  25.371  25.711  1.00  0.00    -0.200 F 
ENDBRANCH  26  40
BRANCH  27  51
ATOM     51  C   UNL A   1      39.425  33.923  36.910  1.00  0.00     0.064 A 
ATOM     52  C   UNL A   1      38.676  33.487  38.009  1.00  0.00     0.173 A 
ATOM     53  C   UNL A   1      40.018  35.194  36.984  1.00  0.00     0.173 A 
ATOM     54  F   UNL A   1      38.077  32.287  37.977  1.00  0.00    -0.203 F 
ATOM     55  C   UNL A   1      38.519  34.290  39.136  1.00  0.00     0.198 A 
ATOM     56  C   UNL A   1      39.886  35.984  38.122  1.00  0.00     0.198 A 
ATOM     57  F   UNL A   1      40.753  35.652  35.960  1.00  0.00    -0.203 F 
ATOM     58  F   UNL A   1      37.773  33.863  40.163  1.00  0.00    -0.200 F 
ATOM     59  C   UNL A   1      39.132  35.534  39.196  1.00  0.00     0.200 A 
ATOM     60  F   UNL A   1      40.496  37.175  38.184  1.00  0.00    -0.200 F 
ATOM     61  F   UNL A   1      38.996  36.299  40.288  1.00  0.00    -0.200 F 
ENDBRANCH  27  51
BRANCH  39  62
ATOM     62  C   UNL A   1      43.797  28.711  35.378  1.00  0.00     0.064 A 
ATOM     63  C   UNL A   1      45.122  29.149  35.231  1.00  0.00     0.173 A 
ATOM     64  C   UNL A   1      43.543  27.674  36.288  1.00  0.00     0.173 A 
ATOM     65  F   UNL A   1      45.416  30.125  34.359  1.00  0.00    -0.203 F 
ATOM     66  C   UNL A   1      46.154  28.557  35.954  1.00  0.00     0.198 A 
ATOM     67  C   UNL A   1      44.575  27.104  37.029  1.00  0.00     0.198 A 
ATOM     68  F   UNL A   1      42.293  27.222  36.467  1.00  0.00    -0.203 F 
ATOM     69  F   UNL A   1      47.418  28.961  35.764  1.00  0.00    -0.200 F 
ATOM     70  C   UNL A   1      45.879  27.541  36.857  1.00  0.00     0.200 A 
ATOM     71  F   UNL A   1      44.305  26.130  37.909  1.00  0.00    -0.200 F 
ATOM     72  F   UNL A   1      46.874  26.977  37.555  1.00  0.00    -0.200 F 
ENDBRANCH  39  62
ENDBRANCH  13  14
ENDBRANCH   6   8
ENDBRANCH   3   4
ENDBRANCH   2   3
ENDBRANCH   1   2
BRANCH   1  73
ATOM     73  C   UNL A   1      32.372  29.989  26.875  1.00  0.00     0.002 C 
BRANCH  73  74
ATOM     74  C   UNL A   1      31.779  28.692  27.435  1.00  0.00     0.021 C 
BRANCH  74  75
ATOM     75  C   UNL A   1      32.591  27.438  27.115  1.00  0.00     0.116 C 
BRANCH  75  76
ATOM     76  N   UNL A   1      31.753  26.301  26.787  1.00  0.00    -0.354 N 
ATOM     77  C   UNL A   1      31.008  25.998  25.690  1.00  0.00     0.247 C 
ATOM     78  H   UNL A   1      31.718  25.616  27.494  1.00  0.00     0.163 HD
ATOM     79  O   UNL A   1      30.525  24.855  25.677  1.00  0.00    -0.272 OA
BRANCH  77  80
ATOM     80  C   UNL A   1      30.788  26.923  24.470  1.00  0.00     0.211 C 
BRANCH  80  81
ATOM     81  N   UNL A   1      31.563  26.560  23.264  1.00  0.00    -0.276 N 
ATOM     82  C   UNL A   1      31.525  25.217  22.915  1.00  0.00     0.267 C 
ATOM     83  C   UNL A   1      32.497  27.326  22.598  1.00  0.00     0.149 C 
ATOM     84  O   UNL A   1      30.681  24.412  23.280  1.00  0.00    -0.268 OA
ATOM     85  C   UNL A   1      32.691  24.886  22.054  1.00  0.00     0.081 C 
ATOM     86  S   UNL A   1      33.279  26.345  21.349  1.00  0.00    -0.054 SA
ATOM     87  S   UNL A   1      32.967  28.908  22.847  1.00  0.00    -0.052 S 
ATOM     88  C   UNL A   1      33.371  23.730  21.996  1.00  0.00     0.029 C 
BRANCH  88  89
ATOM     89  C   UNL A   1      33.129  22.567  22.861  1.00  0.00    -0.024 A 
ATOM     90  C   UNL A   1      32.347  21.514  22.361  1.00  0.00     0.009 A 
ATOM     91  C   UNL A   1      33.672  22.463  24.143  1.00  0.00     0.009 A 
ATOM     92  C   UNL A   1      32.153  20.355  23.117  1.00  0.00     0.016 A 
ATOM     93  C   UNL A   1      33.492  21.299  24.895  1.00  0.00     0.016 A 
ATOM     94  C   UNL A   1      32.740  20.248  24.375  1.00  0.00     0.018 A 
ATOM     95  Br  UNL A   1      32.528  18.659  25.377  1.00  0.00    -0.051 Br
ENDBRANCH  88  89
ENDBRANCH  80  81
BRANCH  80  96
ATOM     96  C   UNL A   1      29.388  27.393  24.077  1.00  0.00    -0.016 A 
ATOM     97  C   UNL A   1      28.242  26.610  24.276  1.00  0.00     0.006 A 
ATOM     98  C   UNL A   1      29.240  28.631  23.419  1.00  0.00     0.006 A 
ATOM     99  C   UNL A   1      26.985  27.070  23.876  1.00  0.00     0.000 A 
ATOM    100  C   UNL A   1      27.984  29.092  23.028  1.00  0.00     0.000 A 
ATOM    101  C   UNL A   1      26.855  28.313  23.262  1.00  0.00     0.000 A 
ENDBRANCH  80  96
ENDBRANCH  77  80
ENDBRANCH  75  76
ENDBRANCH  74  75
ENDBRANCH  73  74
ENDBRANCH   1  73
TORSDOF 16
ENDMDL
MODEL 2
REMARK VINA RESULT:     -12.7      2.018      3.702
REMARK SMILES O=C(NCCCCCCNC(=O)[C@H](c1ccccc1)N1C(=O)/C(=C\c2ccc(Br)cc2)SC1=S)c1ccc(-c2c3nc(c(-c4c(F)c(F)c(F)c(F)c4F)c4ccc([nH]4)c(-c4c(F)c(F)c(F)c(F)c4F)c4nc(c(-c5c(F)c(F)c(F)c(F)c5F)c5ccc2[nH]5)C=C4)C=C3)cc1
REMARK SMILES IDX 6 1 5 2 4 3 3 4 1 5 2 6 35 8 36 9 97 10 37 11 96 12 38 13
REMARK SMILES IDX 39 14 40 15 90 16 41 17 95 18 89 19 91 20 42 21 94 22 88 23
REMARK SMILES IDX 87 24 43 26 75 27 55 28 74 29 56 30 59 31 73 32 92 33 57 34
REMARK SMILES IDX 58 35 72 37 93 38 60 39 44 40 45 41 53 42 46 43 47 44 51 45
REMARK SMILES IDX 54 46 48 47 49 48 52 49 50 50 76 51 77 52 85 53 78 54 79 55
REMARK SMILES IDX 83 56 86 57 80 58 81 59 84 60 82 61 61 62 62 63 70 64 63 65
REMARK SMILES IDX 64 66 68 67 71 68 65 69 66 70 69 71 67 72 7 73 8 74 9 75
REMARK SMILES IDX 10 76 11 77 12 79 13 80 20 81 21 82 33 83 22 84 23 85 32 86
REMARK SMILES IDX 34 87 24 88 25 89 26 90 31 91 27 92 30 93 28 94 29 95 14 96
REMARK SMILES IDX 15 97 19 98 16 99 18 100 17 101
REMARK H PARENT 3 7 91 25 59 36 10 78
REMARK Flexibility Score: inf
ROOT
ATOM      1  C   UNL A   1      31.361  31.162  26.092  1.00  0.00     0.002 C 
ENDROOT
BRANCH   1   2
ATOM      2  C   UNL A   1      31.341  32.645  26.476  1.00  0.00     0.021 C 
BRANCH   2   3
ATOM      3  C   UNL A   1      32.521  33.088  27.335  1.00  0.00     0.116 C 
BRANCH   3   4
ATOM      4  N   UNL A   1      32.401  34.482  27.732  1.00  0.00    -0.352 N 
ATOM      5  O   UNL A   1      32.606  36.253  29.112  1.00  0.00    -0.269 OA
ATOM      6  C   UNL A   1      33.010  35.148  28.764  1.00  0.00     0.251 C 
ATOM      7  H   UNL A   1      31.795  35.026  27.179  1.00  0.00     0.163 HD
BRANCH   6   8
ATOM      8  C   UNL A   1      34.159  34.533  29.460  1.00  0.00     0.039 A 
ATOM      9  C   UNL A   1      33.985  33.909  30.697  1.00  0.00     0.014 A 
ATOM     10  C   UNL A   1      35.412  34.534  28.840  1.00  0.00     0.014 A 
ATOM     11  C   UNL A   1      35.082  33.376  31.365  1.00  0.00     0.010 A 
ATOM     12  C   UNL A   1      36.498  33.931  29.476  1.00  0.00     0.010 A 
ATOM     13  C   UNL A   1      36.344  33.360  30.749  1.00  0.00    -0.014 A 
BRANCH  13  14
ATOM     14  C   UNL A   1      37.466  32.655  31.413  1.00  0.00     0.031 A 
ATOM     15  C   UNL A   1      38.157  31.499  30.754  1.00  0.00     0.074 A 
ATOM     16  C   UNL A   1      37.851  33.075  32.633  1.00  0.00     0.049 A 
ATOM     17  N   UNL A   1      39.144  30.765  31.202  1.00  0.00    -0.248 NA
ATOM     18  C   UNL A   1      37.671  31.105  29.424  1.00  0.00     0.031 C 
ATOM     19  C   UNL A   1      37.231  34.173  33.377  1.00  0.00     0.029 A 
ATOM     20  N   UNL A   1      38.851  32.634  33.462  1.00  0.00    -0.354 N 
ATOM     21  C   UNL A   1      39.387  29.815  30.221  1.00  0.00     0.074 A 
ATOM     22  C   UNL A   1      38.427  30.048  29.162  1.00  0.00     0.031 C 
ATOM     23  C   UNL A   1      37.877  34.338  34.539  1.00  0.00     0.029 A 
ATOM     24  C   UNL A   1      38.918  33.322  34.648  1.00  0.00     0.049 A 
ATOM     25  H   UNL A   1      39.461  31.898  33.229  1.00  0.00     0.167 HD
ATOM     26  C   UNL A   1      40.330  28.842  30.207  1.00  0.00     0.037 A 
ATOM     27  C   UNL A   1      39.712  33.140  35.718  1.00  0.00     0.037 A 
ATOM     28  C   UNL A   1      41.286  28.627  31.264  1.00  0.00     0.049 A 
ATOM     29  C   UNL A   1      40.740  32.046  35.682  1.00  0.00     0.074 A 
ATOM     30  C   UNL A   1      42.318  27.706  31.321  1.00  0.00     0.029 A 
ATOM     31  N   UNL A   1      41.320  29.338  32.456  1.00  0.00    -0.354 N 
ATOM     32  N   UNL A   1      40.997  31.189  34.725  1.00  0.00    -0.248 NA
ATOM     33  C   UNL A   1      41.587  31.896  36.871  1.00  0.00     0.031 C 
ATOM     34  C   UNL A   1      42.942  27.824  32.568  1.00  0.00     0.029 A 
ATOM     35  C   UNL A   1      42.335  28.855  33.268  1.00  0.00     0.049 A 
ATOM     36  H   UNL A   1      40.713  30.077  32.690  1.00  0.00     0.167 HD
ATOM     37  C   UNL A   1      42.040  30.402  35.188  1.00  0.00     0.074 A 
ATOM     38  C   UNL A   1      42.384  30.902  36.506  1.00  0.00     0.031 C 
ATOM     39  C   UNL A   1      42.656  29.359  34.580  1.00  0.00     0.037 A 
BRANCH  26  40
ATOM     40  C   UNL A   1      40.361  27.919  29.022  1.00  0.00     0.064 A 
ATOM     41  C   UNL A   1      39.606  26.738  28.985  1.00  0.00     0.173 A 
ATOM     42  C   UNL A   1      41.134  28.238  27.895  1.00  0.00     0.173 A 
ATOM     43  F   UNL A   1      38.859  26.380  30.041  1.00  0.00    -0.203 F 
ATOM     44  C   UNL A   1      39.645  25.896  27.875  1.00  0.00     0.198 A 
ATOM     45  C   UNL A   1      41.149  27.409  26.776  1.00  0.00     0.198 A 
ATOM     46  F   UNL A   1      41.871  29.359  27.874  1.00  0.00    -0.203 F 
ATOM     47  F   UNL A   1      38.952  24.749  27.882  1.00  0.00    -0.200 F 
ATOM     48  C   UNL A   1      40.410  26.235  26.770  1.00  0.00     0.200 A 
ATOM     49  F   UNL A   1      41.880  27.745  25.704  1.00  0.00    -0.200 F 
ATOM     50  F   UNL A   1      40.444  25.426  25.702  1.00  0.00    -0.200 F 
ENDBRANCH  26  40
BRANCH  27  51
ATOM     51  C   UNL A   1      39.545  34.014  36.906  1.00  0.00     0.064 A 
ATOM     52  C   UNL A   1      38.764  33.612  37.997  1.00  0.00     0.173 A 
ATOM     53  C   UNL A   1      40.201  35.252  36.990  1.00  0.00     0.173 A 
ATOM     54  F   UNL A   1      38.105  32.445  37.956  1.00  0.00    -0.203 F 
ATOM     55  C   UNL A   1      38.640  34.419  39.126  1.00  0.00     0.198 A 
ATOM     56  C   UNL A   1      40.100  36.044  38.130  1.00  0.00     0.198 A 
ATOM     57  F   UNL A   1      40.968  35.675  35.974  1.00  0.00    -0.203 F 
ATOM     58  F   UNL A   1      37.864  34.027  40.145  1.00  0.00    -0.200 F 
ATOM     59  C   UNL A   1      39.315  35.630  39.196  1.00  0.00     0.200 A 
ATOM     60  F   UNL A   1      40.770  37.202  38.201  1.00  0.00    -0.200 F 
ATOM     61  F   UNL A   1      39.208  36.397  40.289  1.00  0.00    -0.200 F 
ENDBRANCH  27  51
BRANCH  39  62
ATOM     62  C   UNL A   1      43.775  28.698  35.329  1.00  0.00     0.064 A 
ATOM     63  C   UNL A   1      45.111  29.086  35.145  1.00  0.00     0.173 A 
ATOM     64  C   UNL A   1      43.505  27.688  36.264  1.00  0.00     0.173 A 
ATOM     65  F   UNL A   1      45.420  30.036  34.249  1.00  0.00    -0.203 F 
ATOM     66  C   UNL A   1      46.137  28.471  35.857  1.00  0.00     0.198 A 
ATOM     67  C   UNL A   1      44.532  27.095  36.993  1.00  0.00     0.198 A 
ATOM     68  F   UNL A   1      42.244  27.284  36.478  1.00  0.00    -0.203 F 
ATOM     69  F   UNL A   1      47.410  28.826  35.632  1.00  0.00    -0.200 F 
ATOM     70  C   UNL A   1      45.847  27.482  36.785  1.00  0.00     0.200 A 
ATOM     71  F   UNL A   1      44.247  26.147  37.897  1.00  0.00    -0.200 F 
ATOM     72  F   UNL A   1      46.836  26.896  37.472  1.00  0.00    -0.200 F 
ENDBRANCH  39  62
ENDBRANCH  13  14
ENDBRANCH   6   8
ENDBRANCH   3   4
ENDBRANCH   2   3
ENDBRANCH   1   2
BRANCH   1  73
ATOM     73  C   UNL A   1      32.333  30.288  26.896  1.00  0.00     0.002 C 
BRANCH  73  74
ATOM     74  C   UNL A   1      31.774  28.939  27.358  1.00  0.00     0.021 C 
BRANCH  74  75
ATOM     75  C   UNL A   1      32.723  27.760  27.152  1.00  0.00     0.116 C 
BRANCH  75  76
ATOM     76  N   UNL A   1      33.446  27.839  25.898  1.00  0.00    -0.354 N 
ATOM     77  C   UNL A   1      33.942  26.885  25.065  1.00  0.00     0.247 C 
ATOM     78  H   UNL A   1      33.608  28.760  25.590  1.00  0.00     0.163 HD
ATOM     79  O   UNL A   1      34.383  27.304  23.983  1.00  0.00    -0.272 OA
BRANCH  77  80
ATOM     80  C   UNL A   1      33.930  25.362  25.334  1.00  0.00     0.211 C 
BRANCH  80  81
ATOM     81  N   UNL A   1      32.598  24.725  25.256  1.00  0.00    -0.276 N 
ATOM     82  C   UNL A   1      31.726  25.281  24.330  1.00  0.00     0.267 C 
ATOM     83  C   UNL A   1      32.039  23.825  26.138  1.00  0.00     0.149 C 
ATOM     84  O   UNL A   1      32.050  25.981  23.381  1.00  0.00    -0.268 OA
ATOM     85  C   UNL A   1      30.325  24.932  24.682  1.00  0.00     0.081 C 
ATOM     86  S   UNL A   1      30.349  23.538  25.694  1.00  0.00    -0.054 SA
ATOM     87  S   UNL A   1      32.696  23.085  27.482  1.00  0.00    -0.052 S 
ATOM     88  C   UNL A   1      29.220  25.671  24.495  1.00  0.00     0.029 C 
BRANCH  88  89
ATOM     89  C   UNL A   1      29.203  27.040  23.964  1.00  0.00    -0.024 A 
ATOM     90  C   UNL A   1      28.023  27.511  23.368  1.00  0.00     0.009 A 
ATOM     91  C   UNL A   1      30.305  27.893  24.059  1.00  0.00     0.009 A 
ATOM     92  C   UNL A   1      27.933  28.831  22.917  1.00  0.00     0.016 A 
ATOM     93  C   UNL A   1      30.214  29.218  23.623  1.00  0.00     0.016 A 
ATOM     94  C   UNL A   1      29.026  29.682  23.061  1.00  0.00     0.018 A 
ATOM     95  Br  UNL A   1      28.892  31.483  22.505  1.00  0.00    -0.051 Br
ENDBRANCH  88  89
ENDBRANCH  80  81
BRANCH  80  96
ATOM     96  C   UNL A   1      34.991  24.444  24.729  1.00  0.00    -0.016 A 
ATOM     97  C   UNL A   1      34.858  23.864  23.460  1.00  0.00     0.006 A 
ATOM     98  C   UNL A   1      36.121  24.101  25.500  1.00  0.00     0.006 A 
ATOM     99  C   UNL A   1      35.842  23.009  22.959  1.00  0.00     0.000 A 
ATOM    100  C   UNL A   1      37.107  23.254  24.995  1.00  0.00     0.000 A 
ATOM    101  C   UNL A   1      36.969  22.713  23.721  1.00  0.00     0.000 A 
ENDBRANCH  80  96
ENDBRANCH  77  80
ENDBRANCH  75  76
ENDBRANCH  74  75
ENDBRANCH  73  74
ENDBRANCH   1  73
TORSDOF 16
ENDMDL
MODEL 3
REMARK VINA RESULT:     -12.6      5.510     10.860
REMARK SMILES O=C(NCCCCCCNC(=O)[C@H](c1ccccc1)N1C(=O)/C(=C\c2ccc(Br)cc2)SC1=S)c1ccc(-c2c3nc(c(-c4c(F)c(F)c(F)c(F)c4F)c4ccc([nH]4)c(-c4c(F)c(F)c(F)c(F)c4F)c4nc(c(-c5c(F)c(F)c(F)c(F)c5F)c5ccc2[nH]5)C=C4)C=C3)cc1
REMARK SMILES IDX 6 1 5 2 4 3 3 4 1 5 2 6 35 8 36 9 97 10 37 11 96 12 38 13
REMARK SMILES IDX 39 14 40 15 90 16 41 17 95 18 89 19 91 20 42 21 94 22 88 23
REMARK SMILES IDX 87 24 43 26 75 27 55 28 74 29 56 30 59 31 73 32 92 33 57 34
REMARK SMILES IDX 58 35 72 37 93 38 60 39 44 40 45 41 53 42 46 43 47 44 51 45
REMARK SMILES IDX 54 46 48 47 49 48 52 49 50 50 76 51 77 52 85 53 78 54 79 55
REMARK SMILES IDX 83 56 86 57 80 58 81 59 84 60 82 61 61 62 62 63 70 64 63 65
REMARK SMILES IDX 64 66 68 67 71 68 65 69 66 70 69 71 67 72 7 73 8 74 9 75
REMARK SMILES IDX 10 76 11 77 12 79 13 80 20 81 21 82 33 83 22 84 23 85 32 86
REMARK SMILES IDX 34 87 24 88 25 89 26 90 31 91 27 92 30 93 28 94 29 95 14 96
REMARK SMILES IDX 15 97 19 98 16 99 18 100 17 101
REMARK H PARENT 3 7 91 25 59 36 10 78
REMARK Flexibility Score: inf
ROOT
ATOM      1  C   UNL A   1      36.979  21.056  24.637  1.00  0.00     0.002 C 
ENDROOT
BRANCH   1   2
ATOM      2  C   UNL A   1      37.970  19.918  24.901  1.00  0.00     0.021 C 
BRANCH   2   3
ATOM      3  C   UNL A   1      39.003  20.222  25.981  1.00  0.00     0.116 C 
BRANCH   3   4
ATOM      4  N   UNL A   1      40.080  19.245  25.982  1.00  0.00    -0.352 N 
ATOM      5  O   UNL A   1      42.205  18.525  25.757  1.00  0.00    -0.269 OA
ATOM      6  C   UNL A   1      41.436  19.445  26.017  1.00  0.00     0.251 C 
ATOM      7  H   UNL A   1      39.794  18.304  25.953  1.00  0.00     0.163 HD
BRANCH   6   8
ATOM      8  C   UNL A   1      41.974  20.774  26.373  1.00  0.00     0.039 A 
ATOM      9  C   UNL A   1      42.171  21.744  25.386  1.00  0.00     0.014 A 
ATOM     10  C   UNL A   1      42.231  21.070  27.714  1.00  0.00     0.014 A 
ATOM     11  C   UNL A   1      42.723  22.974  25.725  1.00  0.00     0.010 A 
ATOM     12  C   UNL A   1      42.713  22.332  28.064  1.00  0.00     0.010 A 
ATOM     13  C   UNL A   1      42.975  23.289  27.070  1.00  0.00    -0.014 A 
BRANCH  13  14
ATOM     14  C   UNL A   1      43.422  24.657  27.423  1.00  0.00     0.031 A 
ATOM     15  C   UNL A   1      42.473  25.658  28.008  1.00  0.00     0.074 A 
ATOM     16  C   UNL A   1      44.709  24.986  27.201  1.00  0.00     0.049 A 
ATOM     17  N   UNL A   1      42.697  26.900  28.360  1.00  0.00    -0.248 NA
ATOM     18  C   UNL A   1      41.086  25.217  28.215  1.00  0.00     0.031 C 
ATOM     19  C   UNL A   1      45.712  24.097  26.612  1.00  0.00     0.029 A 
ATOM     20  N   UNL A   1      45.394  26.149  27.441  1.00  0.00    -0.354 N 
ATOM     21  C   UNL A   1      41.481  27.392  28.813  1.00  0.00     0.074 A 
ATOM     22  C   UNL A   1      40.514  26.324  28.669  1.00  0.00     0.031 C 
ATOM     23  C   UNL A   1      46.890  24.735  26.559  1.00  0.00     0.029 A 
ATOM     24  C   UNL A   1      46.711  26.095  27.056  1.00  0.00     0.049 A 
ATOM     25  H   UNL A   1      44.983  26.944  27.851  1.00  0.00     0.167 HD
ATOM     26  C   UNL A   1      41.205  28.622  29.309  1.00  0.00     0.037 A 
ATOM     27  C   UNL A   1      47.665  27.043  27.074  1.00  0.00     0.037 A 
ATOM     28  C   UNL A   1      42.180  29.674  29.455  1.00  0.00     0.049 A 
ATOM     29  C   UNL A   1      47.328  28.401  27.616  1.00  0.00     0.074 A 
ATOM     30  C   UNL A   1      42.013  30.936  29.998  1.00  0.00     0.029 A 
ATOM     31  N   UNL A   1      43.504  29.587  29.046  1.00  0.00    -0.354 N 
ATOM     32  N   UNL A   1      46.189  28.839  28.094  1.00  0.00    -0.248 NA
ATOM     33  C   UNL A   1      48.407  29.396  27.623  1.00  0.00     0.031 C 
ATOM     34  C   UNL A   1      43.222  31.631  29.870  1.00  0.00     0.029 A 
ATOM     35  C   UNL A   1      44.157  30.784  29.296  1.00  0.00     0.049 A 
ATOM     36  H   UNL A   1      43.918  28.792  28.639  1.00  0.00     0.167 HD
ATOM     37  C   UNL A   1      46.412  30.155  28.468  1.00  0.00     0.074 A 
ATOM     38  C   UNL A   1      47.806  30.437  28.182  1.00  0.00     0.031 C 
ATOM     39  C   UNL A   1      45.542  31.049  28.997  1.00  0.00     0.037 A 
BRANCH  26  40
ATOM     40  C   UNL A   1      39.785  28.909  29.708  1.00  0.00     0.064 A 
ATOM     41  C   UNL A   1      39.328  28.703  31.018  1.00  0.00     0.173 A 
ATOM     42  C   UNL A   1      38.878  29.430  28.772  1.00  0.00     0.173 A 
ATOM     43  F   UNL A   1      40.150  28.195  31.948  1.00  0.00    -0.203 F 
ATOM     44  C   UNL A   1      38.007  28.979  31.368  1.00  0.00     0.198 A 
ATOM     45  C   UNL A   1      37.567  29.733  29.133  1.00  0.00     0.198 A 
ATOM     46  F   UNL A   1      39.264  29.655  27.506  1.00  0.00    -0.203 F 
ATOM     47  F   UNL A   1      37.581  28.728  32.614  1.00  0.00    -0.200 F 
ATOM     48  C   UNL A   1      37.131  29.499  30.428  1.00  0.00     0.200 A 
ATOM     49  F   UNL A   1      36.725  30.246  28.226  1.00  0.00    -0.200 F 
ATOM     50  F   UNL A   1      35.863  29.767  30.768  1.00  0.00    -0.200 F 
ENDBRANCH  26  40
BRANCH  27  51
ATOM     51  C   UNL A   1      49.017  26.726  26.551  1.00  0.00     0.064 A 
ATOM     52  C   UNL A   1      49.335  26.918  25.201  1.00  0.00     0.173 A 
ATOM     53  C   UNL A   1      50.032  26.264  27.404  1.00  0.00     0.173 A 
ATOM     54  F   UNL A   1      48.394  27.341  24.345  1.00  0.00    -0.203 F 
ATOM     55  C   UNL A   1      50.616  26.653  24.721  1.00  0.00     0.198 A 
ATOM     56  C   UNL A   1      51.319  26.029  26.930  1.00  0.00     0.198 A 
ATOM     57  F   UNL A   1      49.778  26.074  28.707  1.00  0.00    -0.203 F 
ATOM     58  F   UNL A   1      50.888  26.817  23.420  1.00  0.00    -0.200 F 
ATOM     59  C   UNL A   1      51.609  26.219  25.587  1.00  0.00     0.200 A 
ATOM     60  F   UNL A   1      52.279  25.629  27.773  1.00  0.00    -0.200 F 
ATOM     61  F   UNL A   1      52.845  25.982  25.128  1.00  0.00    -0.200 F 
ENDBRANCH  27  51
BRANCH  39  62
ATOM     62  C   UNL A   1      46.078  32.414  29.314  1.00  0.00     0.064 A 
ATOM     63  C   UNL A   1      46.042  33.453  28.373  1.00  0.00     0.173 A 
ATOM     64  C   UNL A   1      46.604  32.692  30.584  1.00  0.00     0.173 A 
ATOM     65  F   UNL A   1      45.565  33.230  27.138  1.00  0.00    -0.203 F 
ATOM     66  C   UNL A   1      46.534  34.718  28.686  1.00  0.00     0.198 A 
ATOM     67  C   UNL A   1      47.069  33.966  30.902  1.00  0.00     0.198 A 
ATOM     68  F   UNL A   1      46.658  31.734  31.520  1.00  0.00    -0.203 F 
ATOM     69  F   UNL A   1      46.531  35.683  27.757  1.00  0.00    -0.200 F 
ATOM     70  C   UNL A   1      47.039  34.975  29.951  1.00  0.00     0.200 A 
ATOM     71  F   UNL A   1      47.548  34.215  32.129  1.00  0.00    -0.200 F 
ATOM     72  F   UNL A   1      47.507  36.194  30.252  1.00  0.00    -0.200 F 
ENDBRANCH  39  62
ENDBRANCH  13  14
ENDBRANCH   6   8
ENDBRANCH   3   4
ENDBRANCH   2   3
ENDBRANCH   1   2
BRANCH   1  73
ATOM     73  C   UNL A   1      37.072  22.246  25.601  1.00  0.00     0.002 C 
BRANCH  73  74
ATOM     74  C   UNL A   1      37.004  23.629  24.946  1.00  0.00     0.021 C 
BRANCH  74  75
ATOM     75  C   UNL A   1      35.635  24.302  25.035  1.00  0.00     0.116 C 
BRANCH  75  76
ATOM     76  N   UNL A   1      34.912  24.261  23.780  1.00  0.00    -0.354 N 
ATOM     77  C   UNL A   1      33.915  23.456  23.322  1.00  0.00     0.247 C 
ATOM     78  H   UNL A   1      35.196  24.949  23.135  1.00  0.00     0.163 HD
ATOM     79  O   UNL A   1      33.415  23.797  22.239  1.00  0.00    -0.272 OA
BRANCH  77  80
ATOM     80  C   UNL A   1      33.338  22.230  24.067  1.00  0.00     0.211 C 
BRANCH  80  81
ATOM     81  N   UNL A   1      32.377  22.550  25.144  1.00  0.00    -0.276 N 
ATOM     82  C   UNL A   1      31.355  23.420  24.790  1.00  0.00     0.267 C 
ATOM     83  C   UNL A   1      32.504  22.294  26.493  1.00  0.00     0.149 C 
ATOM     84  O   UNL A   1      30.989  23.659  23.648  1.00  0.00    -0.268 OA
ATOM     85  C   UNL A   1      30.787  24.054  26.009  1.00  0.00     0.081 C 
ATOM     86  S   UNL A   1      31.173  23.067  27.367  1.00  0.00    -0.054 SA
ATOM     87  S   UNL A   1      33.688  21.460  27.323  1.00  0.00    -0.052 S 
ATOM     88  C   UNL A   1      30.283  25.292  26.134  1.00  0.00     0.029 C 
BRANCH  88  89
ATOM     89  C   UNL A   1      30.274  26.309  25.074  1.00  0.00    -0.024 A 
ATOM     90  C   UNL A   1      29.113  26.458  24.300  1.00  0.00     0.009 A 
ATOM     91  C   UNL A   1      31.366  27.146  24.833  1.00  0.00     0.009 A 
ATOM     92  C   UNL A   1      29.030  27.463  23.332  1.00  0.00     0.016 A 
ATOM     93  C   UNL A   1      31.280  28.162  23.875  1.00  0.00     0.016 A 
ATOM     94  C   UNL A   1      30.110  28.319  23.136  1.00  0.00     0.018 A 
ATOM     95  Br  UNL A   1      29.982  29.715  21.868  1.00  0.00    -0.051 Br
ENDBRANCH  88  89
ENDBRANCH  80  81
BRANCH  80  96
ATOM     96  C   UNL A   1      32.883  20.985  23.305  1.00  0.00    -0.016 A 
ATOM     97  C   UNL A   1      32.229  21.051  22.067  1.00  0.00     0.006 A 
ATOM     98  C   UNL A   1      33.056  19.717  23.898  1.00  0.00     0.006 A 
ATOM     99  C   UNL A   1      31.807  19.887  21.420  1.00  0.00     0.000 A 
ATOM    100  C   UNL A   1      32.641  18.556  23.247  1.00  0.00     0.000 A 
ATOM    101  C   UNL A   1      32.022  18.642  22.005  1.00  0.00     0.000 A 
ENDBRANCH  80  96
ENDBRANCH  77  80
ENDBRANCH  75  76
ENDBRANCH  74  75
ENDBRANCH  73  74
ENDBRANCH   1  73
TORSDOF 16
ENDMDL
