MODEL 1
REMARK VINA RESULT:     -12.0      0.000      0.000
REMARK SMILES Cc1ccc(NC(=O)CN2C(=O)S/C(=C\c3cc(Cl)c(OCC(=O)NCCCCCCNC(=O)c4ccc(-c5c6nc(c(-c7c(F)c(F)c(F)c(F)c7F)c7ccc([nH]7)c(-c7c(F)c(F)c(F)c(F)c7F)c7nc(c(-c8c(F)c(F)c(F)c(F)c8F)c8ccc5[nH]8)C=C7)C=C6)cc4)c(Cl)c3)C2=O)cc1
REMARK SMILES IDX 26 1 25 2 23 3 24 4 22 6 21 7 20 8 16 9 17 10 100 11 18 12
REMARK SMILES IDX 98 13 19 14 99 15 15 16 10 17 11 18 101 19 12 20 13 21 14 22
REMARK SMILES IDX 102 23 9 24 7 25 6 26 8 28 5 29 1 30 2 31 3 32 104 33 4 34
REMARK SMILES IDX 103 35 27 36 28 37 29 38 30 39 31 40 32 41 33 42 34 44 35 45
REMARK SMILES IDX 36 46 97 47 37 48 96 49 38 50 39 51 40 52 90 53 41 54 95 55
REMARK SMILES IDX 89 56 91 57 42 58 94 59 88 60 87 61 43 63 75 64 55 65 74 66
REMARK SMILES IDX 56 67 59 68 73 69 92 70 57 71 58 72 72 74 93 75 60 76 44 77
REMARK SMILES IDX 45 78 53 79 46 80 47 81 51 82 54 83 48 84 49 85 52 86 50 87
REMARK SMILES IDX 76 88 77 89 85 90 78 91 79 92 83 93 86 94 80 95 81 96 84 97
REMARK SMILES IDX 82 98 61 99 62 100 70 101 63 102 64 103 68 104 71 105 65 106
REMARK SMILES IDX 66 107 69 108 67 109
REMARK H PARENT 25 5 6 27 32 43 91 62 59 73
REMARK Flexibility Score: inf
ROOT
ATOM      1  C   UNL A   1      43.703  22.985  30.634  1.00  0.00     0.116 C 
ENDROOT
BRANCH   1   2
ATOM      2  N   UNL A   1      43.948  22.505  29.293  1.00  0.00    -0.353 N 
ATOM      3  C   UNL A   1      43.083  22.439  28.242  1.00  0.00     0.257 C 
ATOM      4  O   UNL A   1      43.560  22.226  27.127  1.00  0.00    -0.271 OA
ATOM      5  H   UNL A   1      44.861  22.184  29.115  1.00  0.00     0.163 HD
BRANCH   3   6
ATOM      6  C   UNL A   1      41.584  22.694  28.467  1.00  0.00     0.329 C 
BRANCH   6   7
ATOM      7  O   UNL A   1      40.908  23.535  27.551  1.00  0.00    -0.481 OA
BRANCH   7   8
ATOM      8  C   UNL A   1      39.832  23.133  26.807  1.00  0.00     0.157 A 
ATOM      9  C   UNL A   1      37.424  22.656  25.330  1.00  0.00    -0.021 A 
ATOM     10  C   UNL A   1      37.656  23.903  25.895  1.00  0.00     0.032 A 
ATOM     11  C   UNL A   1      38.377  21.656  25.550  1.00  0.00     0.032 A 
ATOM     12  C   UNL A   1      38.837  24.128  26.631  1.00  0.00     0.085 A 
ATOM     13  C   UNL A   1      39.592  21.894  26.209  1.00  0.00     0.085 A 
ATOM     14  Cl  UNL A   1      39.033  25.711  27.325  1.00  0.00    -0.080 Cl
ATOM     15  Cl  UNL A   1      40.695  20.575  26.086  1.00  0.00    -0.080 Cl
BRANCH   9  16
ATOM     16  C   UNL A   1      36.191  22.319  24.588  1.00  0.00     0.029 C 
ATOM     17  N   UNL A   1      32.982  23.842  24.423  1.00  0.00    -0.259 N 
ATOM     18  C   UNL A   1      33.333  24.440  25.601  1.00  0.00     0.294 C 
ATOM     19  C   UNL A   1      33.839  22.852  23.977  1.00  0.00     0.268 C 
ATOM     20  O   UNL A   1      32.990  25.541  26.019  1.00  0.00    -0.261 OA
ATOM     21  S   UNL A   1      34.492  23.446  26.445  1.00  0.00    -0.022 SA
ATOM     22  C   UNL A   1      34.955  22.696  24.963  1.00  0.00     0.083 C 
ATOM     23  O   UNL A   1      33.810  22.304  22.887  1.00  0.00    -0.268 OA
BRANCH  17  24
ATOM     24  C   UNL A   1      32.087  24.529  23.503  1.00  0.00     0.230 C 
BRANCH  24  25
ATOM     25  C   UNL A   1      32.818  25.224  22.352  1.00  0.00     0.244 C 
ATOM     26  N   UNL A   1      33.393  26.451  22.516  1.00  0.00    -0.325 N 
ATOM     27  H   UNL A   1      34.187  26.607  21.955  1.00  0.00     0.169 HD
ATOM     28  O   UNL A   1      32.918  24.669  21.253  1.00  0.00    -0.273 OA
BRANCH  26  29
ATOM     29  C   UNL A   1      33.047  27.526  23.345  1.00  0.00     0.041 A 
ATOM     30  C   UNL A   1      31.701  30.557  26.106  1.00  0.00     0.044 C 
ATOM     31  C   UNL A   1      32.158  29.512  25.133  1.00  0.00    -0.051 A 
ATOM     32  C   UNL A   1      33.490  29.088  25.143  1.00  0.00     0.005 A 
ATOM     33  C   UNL A   1      31.271  28.934  24.220  1.00  0.00     0.005 A 
ATOM     34  C   UNL A   1      33.931  28.102  24.255  1.00  0.00     0.026 A 
ATOM     35  C   UNL A   1      31.710  27.938  23.344  1.00  0.00     0.026 A 
ENDBRANCH  26  29
ENDBRANCH  24  25
ENDBRANCH  17  24
ENDBRANCH   9  16
ENDBRANCH   7   8
ENDBRANCH   6   7
ENDBRANCH   3   6
ENDBRANCH   1   2
BRANCH   1  36
ATOM     36  C   UNL A   1      44.567  24.190  30.999  1.00  0.00     0.021 C 
BRANCH  36  37
ATOM     37  C   UNL A   1      45.207  24.954  29.830  1.00  0.00     0.002 C 
BRANCH  37  38
ATOM     38  C   UNL A   1      44.484  26.208  29.317  1.00  0.00     0.002 C 
BRANCH  38  39
ATOM     39  C   UNL A   1      43.056  26.427  29.813  1.00  0.00     0.021 C 
BRANCH  39  40
ATOM     40  C   UNL A   1      41.976  26.261  28.753  1.00  0.00     0.116 C 
BRANCH  40  41
ATOM     41  N   UNL A   1      42.461  26.421  27.382  1.00  0.00    -0.352 N 
ATOM     42  C   UNL A   1      42.276  27.477  26.505  1.00  0.00     0.251 C 
ATOM     43  H   UNL A   1      42.995  25.672  27.033  1.00  0.00     0.163 HD
ATOM     44  O   UNL A   1      42.740  27.443  25.371  1.00  0.00    -0.269 OA
BRANCH  42  45
ATOM     45  C   UNL A   1      41.653  28.722  27.010  1.00  0.00     0.039 A 
ATOM     46  C   UNL A   1      42.443  29.537  27.829  1.00  0.00     0.014 A 
ATOM     47  C   UNL A   1      40.271  28.873  26.972  1.00  0.00     0.014 A 
ATOM     48  C   UNL A   1      41.830  30.262  28.841  1.00  0.00     0.010 A 
ATOM     49  C   UNL A   1      39.667  29.493  28.042  1.00  0.00     0.010 A 
ATOM     50  C   UNL A   1      40.460  30.102  29.022  1.00  0.00    -0.014 A 
BRANCH  50  51
ATOM     51  C   UNL A   1      39.775  30.437  30.258  1.00  0.00     0.031 A 
ATOM     52  C   UNL A   1      38.990  31.679  30.330  1.00  0.00     0.074 A 
ATOM     53  C   UNL A   1      39.785  29.540  31.271  1.00  0.00     0.049 A 
ATOM     54  N   UNL A   1      38.586  32.207  31.431  1.00  0.00    -0.248 NA
ATOM     55  C   UNL A   1      38.665  32.483  29.155  1.00  0.00     0.031 C 
ATOM     56  C   UNL A   1      38.932  29.518  32.457  1.00  0.00     0.029 A 
ATOM     57  N   UNL A   1      40.746  28.543  31.519  1.00  0.00    -0.354 N 
ATOM     58  C   UNL A   1      37.718  33.223  31.110  1.00  0.00     0.074 A 
ATOM     59  C   UNL A   1      37.915  33.445  29.701  1.00  0.00     0.031 C 
ATOM     60  C   UNL A   1      39.541  28.803  33.417  1.00  0.00     0.029 A 
ATOM     61  C   UNL A   1      40.871  28.485  32.928  1.00  0.00     0.049 A 
ATOM     62  H   UNL A   1      41.229  28.001  30.855  1.00  0.00     0.167 HD
ATOM     63  C   UNL A   1      36.843  33.641  32.066  1.00  0.00     0.037 A 
ATOM     64  C   UNL A   1      42.032  28.845  33.550  1.00  0.00     0.037 A 
ATOM     65  C   UNL A   1      37.248  33.123  33.376  1.00  0.00     0.049 A 
ATOM     66  C   UNL A   1      41.864  30.002  34.510  1.00  0.00     0.074 A 
ATOM     67  C   UNL A   1      36.783  32.096  34.176  1.00  0.00     0.029 A 
ATOM     68  N   UNL A   1      38.491  33.493  33.887  1.00  0.00    -0.354 N 
ATOM     69  N   UNL A   1      40.882  30.860  34.449  1.00  0.00    -0.248 NA
ATOM     70  C   UNL A   1      42.789  30.285  35.603  1.00  0.00     0.031 C 
ATOM     71  C   UNL A   1      37.805  31.783  35.114  1.00  0.00     0.029 A 
ATOM     72  C   UNL A   1      38.866  32.651  34.916  1.00  0.00     0.049 A 
ATOM     73  H   UNL A   1      39.028  34.250  33.559  1.00  0.00     0.167 HD
ATOM     74  C   UNL A   1      41.024  31.791  35.446  1.00  0.00     0.074 A 
ATOM     75  C   UNL A   1      42.225  31.377  36.149  1.00  0.00     0.031 C 
ATOM     76  C   UNL A   1      40.144  32.826  35.597  1.00  0.00     0.037 A 
BRANCH  63  77
ATOM     77  C   UNL A   1      35.512  34.326  31.819  1.00  0.00     0.064 A 
ATOM     78  C   UNL A   1      34.766  34.013  30.657  1.00  0.00     0.173 A 
ATOM     79  C   UNL A   1      34.971  35.384  32.584  1.00  0.00     0.173 A 
ATOM     80  F   UNL A   1      35.147  33.026  29.833  1.00  0.00    -0.203 F 
ATOM     81  C   UNL A   1      33.617  34.719  30.283  1.00  0.00     0.198 A 
ATOM     82  C   UNL A   1      33.799  36.060  32.229  1.00  0.00     0.198 A 
ATOM     83  F   UNL A   1      35.567  35.856  33.680  1.00  0.00    -0.203 F 
ATOM     84  F   UNL A   1      32.991  34.413  29.137  1.00  0.00    -0.200 F 
ATOM     85  C   UNL A   1      33.130  35.740  31.071  1.00  0.00     0.200 A 
ATOM     86  F   UNL A   1      33.347  37.049  33.014  1.00  0.00    -0.200 F 
ATOM     87  F   UNL A   1      32.036  36.424  30.711  1.00  0.00    -0.200 F 
ENDBRANCH  63  77
BRANCH  64  88
ATOM     88  C   UNL A   1      43.237  28.575  32.719  1.00  0.00     0.064 A 
ATOM     89  C   UNL A   1      43.787  29.648  31.986  1.00  0.00     0.173 A 
ATOM     90  C   UNL A   1      44.059  27.466  32.953  1.00  0.00     0.173 A 
ATOM     91  F   UNL A   1      43.039  30.732  31.727  1.00  0.00    -0.203 F 
ATOM     92  C   UNL A   1      45.135  29.674  31.638  1.00  0.00     0.198 A 
ATOM     93  C   UNL A   1      45.405  27.486  32.578  1.00  0.00     0.198 A 
ATOM     94  F   UNL A   1      43.601  26.417  33.649  1.00  0.00    -0.203 F 
ATOM     95  F   UNL A   1      45.657  30.771  31.069  1.00  0.00    -0.200 F 
ATOM     96  C   UNL A   1      45.950  28.605  31.962  1.00  0.00     0.200 A 
ATOM     97  F   UNL A   1      46.204  26.463  32.914  1.00  0.00    -0.200 F 
ATOM     98  F   UNL A   1      47.268  28.669  31.727  1.00  0.00    -0.200 F 
ENDBRANCH  64  88
BRANCH  76  99
ATOM     99  C   UNL A   1      40.350  34.057  36.456  1.00  0.00     0.064 A 
ATOM    100  C   UNL A   1      41.245  35.097  36.151  1.00  0.00     0.173 A 
ATOM    101  C   UNL A   1      39.512  34.298  37.576  1.00  0.00     0.173 A 
ATOM    102  F   UNL A   1      42.000  35.070  35.045  1.00  0.00    -0.203 F 
ATOM    103  C   UNL A   1      41.349  36.246  36.941  1.00  0.00     0.198 A 
ATOM    104  C   UNL A   1      39.570  35.475  38.321  1.00  0.00     0.198 A 
ATOM    105  F   UNL A   1      38.586  33.410  37.965  1.00  0.00    -0.203 F 
ATOM    106  F   UNL A   1      42.257  37.183  36.631  1.00  0.00    -0.200 F 
ATOM    107  C   UNL A   1      40.504  36.442  38.017  1.00  0.00     0.200 A 
ATOM    108  F   UNL A   1      38.700  35.674  39.320  1.00  0.00    -0.200 F 
ATOM    109  F   UNL A   1      40.573  37.567  38.740  1.00  0.00    -0.200 F 
ENDBRANCH  76  99
ENDBRANCH  50  51
ENDBRANCH  42  45
ENDBRANCH  40  41
ENDBRANCH  39  40
ENDBRANCH  38  39
ENDBRANCH  37  38
ENDBRANCH  36  37
ENDBRANCH   1  36
TORSDOF 19
ENDMDL
MODEL 2
REMARK VINA RESULT:     -12.0      9.037     14.499
REMARK SMILES Cc1ccc(NC(=O)CN2C(=O)S/C(=C\c3cc(Cl)c(OCC(=O)NCCCCCCNC(=O)c4ccc(-c5c6nc(c(-c7c(F)c(F)c(F)c(F)c7F)c7ccc([nH]7)c(-c7c(F)c(F)c(F)c(F)c7F)c7nc(c(-c8c(F)c(F)c(F)c(F)c8F)c8ccc5[nH]8)C=C7)C=C6)cc4)c(Cl)c3)C2=O)cc1
REMARK SMILES IDX 26 1 25 2 23 3 24 4 22 6 21 7 20 8 16 9 17 10 100 11 18 12
REMARK SMILES IDX 98 13 19 14 99 15 15 16 10 17 11 18 101 19 12 20 13 21 14 22
REMARK SMILES IDX 102 23 9 24 7 25 6 26 8 28 5 29 1 30 2 31 3 32 104 33 4 34
REMARK SMILES IDX 103 35 27 36 28 37 29 38 30 39 31 40 32 41 33 42 34 44 35 45
REMARK SMILES IDX 36 46 97 47 37 48 96 49 38 50 39 51 40 52 90 53 41 54 95 55
REMARK SMILES IDX 89 56 91 57 42 58 94 59 88 60 87 61 43 63 75 64 55 65 74 66
REMARK SMILES IDX 56 67 59 68 73 69 92 70 57 71 58 72 72 74 93 75 60 76 44 77
REMARK SMILES IDX 45 78 53 79 46 80 47 81 51 82 54 83 48 84 49 85 52 86 50 87
REMARK SMILES IDX 76 88 77 89 85 90 78 91 79 92 83 93 86 94 80 95 81 96 84 97
REMARK SMILES IDX 82 98 61 99 62 100 70 101 63 102 64 103 68 104 71 105 65 106
REMARK SMILES IDX 66 107 69 108 67 109
REMARK H PARENT 25 5 6 27 32 43 91 62 59 73
REMARK Flexibility Score: inf
ROOT
ATOM      1  C   UNL A   1      43.026  35.440  29.253  1.00  0.00     0.116 C 
ENDROOT
BRANCH   1   2
ATOM      2  N   UNL A   1      43.012  34.998  27.877  1.00  0.00    -0.353 N 
ATOM      3  C   UNL A   1      42.869  35.744  26.746  1.00  0.00     0.257 C 
ATOM      4  O   UNL A   1      43.129  35.200  25.671  1.00  0.00    -0.271 OA
ATOM      5  H   UNL A   1      43.121  34.030  27.739  1.00  0.00     0.163 HD
BRANCH   3   6
ATOM      6  C   UNL A   1      42.465  37.223  26.849  1.00  0.00     0.329 C 
BRANCH   6   7
ATOM      7  O   UNL A   1      43.455  38.157  27.238  1.00  0.00    -0.481 OA
BRANCH   7   8
ATOM      8  C   UNL A   1      43.661  39.350  26.601  1.00  0.00     0.157 A 
ATOM      9  C   UNL A   1      44.487  41.765  25.298  1.00  0.00    -0.021 A 
ATOM     10  C   UNL A   1      45.432  40.817  25.666  1.00  0.00     0.032 A 
ATOM     11  C   UNL A   1      43.150  41.511  25.627  1.00  0.00     0.032 A 
ATOM     12  C   UNL A   1      45.021  39.636  26.318  1.00  0.00     0.085 A 
ATOM     13  C   UNL A   1      42.724  40.304  26.198  1.00  0.00     0.085 A 
ATOM     14  Cl  UNL A   1      46.274  38.517  26.766  1.00  0.00    -0.080 Cl
ATOM     15  Cl  UNL A   1      41.007  40.143  26.229  1.00  0.00    -0.080 Cl
BRANCH   9  16
ATOM     16  C   UNL A   1      44.834  43.051  24.659  1.00  0.00     0.029 C 
ATOM     17  N   UNL A   1      46.034  43.886  21.416  1.00  0.00    -0.259 N 
ATOM     18  C   UNL A   1      46.414  42.575  21.346  1.00  0.00     0.294 C 
ATOM     19  C   UNL A   1      45.600  44.316  22.658  1.00  0.00     0.268 C 
ATOM     20  O   UNL A   1      46.478  41.861  20.350  1.00  0.00    -0.261 OA
ATOM     21  S   UNL A   1      46.704  41.957  22.952  1.00  0.00    -0.022 SA
ATOM     22  C   UNL A   1      45.686  43.176  23.624  1.00  0.00     0.083 C 
ATOM     23  O   UNL A   1      45.069  45.386  22.910  1.00  0.00    -0.268 OA
BRANCH  17  24
ATOM     24  C   UNL A   1      45.653  44.594  20.203  1.00  0.00     0.230 C 
BRANCH  24  25
ATOM     25  C   UNL A   1      46.766  45.487  19.647  1.00  0.00     0.244 C 
ATOM     26  N   UNL A   1      46.488  46.712  19.112  1.00  0.00    -0.325 N 
ATOM     27  H   UNL A   1      47.209  47.374  19.218  1.00  0.00     0.169 HD
ATOM     28  O   UNL A   1      47.943  45.117  19.696  1.00  0.00    -0.273 OA
BRANCH  26  29
ATOM     29  C   UNL A   1      45.356  47.188  18.439  1.00  0.00     0.041 A 
ATOM     30  C   UNL A   1      41.654  48.292  16.517  1.00  0.00     0.044 C 
ATOM     31  C   UNL A   1      42.947  47.902  17.168  1.00  0.00    -0.051 A 
ATOM     32  C   UNL A   1      43.485  48.704  18.179  1.00  0.00     0.005 A 
ATOM     33  C   UNL A   1      43.624  46.738  16.796  1.00  0.00     0.005 A 
ATOM     34  C   UNL A   1      44.681  48.349  18.810  1.00  0.00     0.026 A 
ATOM     35  C   UNL A   1      44.812  46.376  17.439  1.00  0.00     0.026 A 
ENDBRANCH  26  29
ENDBRANCH  24  25
ENDBRANCH  17  24
ENDBRANCH   9  16
ENDBRANCH   7   8
ENDBRANCH   6   7
ENDBRANCH   3   6
ENDBRANCH   1   2
BRANCH   1  36
ATOM     36  C   UNL A   1      41.954  34.764  30.104  1.00  0.00     0.021 C 
BRANCH  36  37
ATOM     37  C   UNL A   1      40.592  34.530  29.432  1.00  0.00     0.002 C 
BRANCH  37  38
ATOM     38  C   UNL A   1      39.332  34.701  30.294  1.00  0.00     0.002 C 
BRANCH  38  39
ATOM     39  C   UNL A   1      38.381  33.508  30.360  1.00  0.00     0.021 C 
BRANCH  39  40
ATOM     40  C   UNL A   1      37.757  33.111  29.029  1.00  0.00     0.116 C 
BRANCH  40  41
ATOM     41  N   UNL A   1      36.304  32.952  29.078  1.00  0.00    -0.352 N 
ATOM     42  C   UNL A   1      35.540  31.813  28.886  1.00  0.00     0.251 C 
ATOM     43  H   UNL A   1      35.797  33.772  29.277  1.00  0.00     0.163 HD
ATOM     44  O   UNL A   1      34.317  31.858  28.945  1.00  0.00    -0.269 OA
BRANCH  42  45
ATOM     45  C   UNL A   1      36.225  30.506  28.776  1.00  0.00     0.039 A 
ATOM     46  C   UNL A   1      36.527  29.847  29.974  1.00  0.00     0.014 A 
ATOM     47  C   UNL A   1      36.850  30.145  27.587  1.00  0.00     0.014 A 
ATOM     48  C   UNL A   1      37.676  29.071  30.040  1.00  0.00     0.010 A 
ATOM     49  C   UNL A   1      38.049  29.476  27.672  1.00  0.00     0.010 A 
ATOM     50  C   UNL A   1      38.500  29.027  28.919  1.00  0.00    -0.014 A 
BRANCH  50  51
ATOM     51  C   UNL A   1      39.896  28.633  28.972  1.00  0.00     0.031 A 
ATOM     52  C   UNL A   1      40.263  27.244  28.654  1.00  0.00     0.074 A 
ATOM     53  C   UNL A   1      40.832  29.582  29.200  1.00  0.00     0.049 A 
ATOM     54  N   UNL A   1      41.404  26.722  28.936  1.00  0.00    -0.248 NA
ATOM     55  C   UNL A   1      39.329  26.292  28.058  1.00  0.00     0.031 C 
ATOM     56  C   UNL A   1      42.275  29.486  28.994  1.00  0.00     0.029 A 
ATOM     57  N   UNL A   1      40.661  30.805  29.877  1.00  0.00    -0.354 N 
ATOM     58  C   UNL A   1      41.468  25.499  28.314  1.00  0.00     0.074 A 
ATOM     59  C   UNL A   1      40.114  25.221  27.910  1.00  0.00     0.031 C 
ATOM     60  C   UNL A   1      42.886  30.406  29.760  1.00  0.00     0.029 A 
ATOM     61  C   UNL A   1      41.862  31.005  30.598  1.00  0.00     0.049 A 
ATOM     62  H   UNL A   1      39.874  31.394  29.853  1.00  0.00     0.167 HD
ATOM     63  C   UNL A   1      42.697  24.955  28.100  1.00  0.00     0.037 A 
ATOM     64  C   UNL A   1      41.876  30.999  31.963  1.00  0.00     0.037 A 
ATOM     65  C   UNL A   1      43.702  25.661  28.898  1.00  0.00     0.049 A 
ATOM     66  C   UNL A   1      42.758  29.918  32.548  1.00  0.00     0.074 A 
ATOM     67  C   UNL A   1      44.670  26.601  28.591  1.00  0.00     0.029 A 
ATOM     68  N   UNL A   1      43.580  25.657  30.286  1.00  0.00    -0.354 N 
ATOM     69  N   UNL A   1      43.112  28.840  31.903  1.00  0.00    -0.248 NA
ATOM     70  C   UNL A   1      43.301  29.964  33.902  1.00  0.00     0.031 C 
ATOM     71  C   UNL A   1      45.056  27.235  29.804  1.00  0.00     0.029 A 
ATOM     72  C   UNL A   1      44.363  26.645  30.849  1.00  0.00     0.049 A 
ATOM     73  H   UNL A   1      43.013  25.033  30.796  1.00  0.00     0.167 HD
ATOM     74  C   UNL A   1      43.896  28.058  32.711  1.00  0.00     0.074 A 
ATOM     75  C   UNL A   1      43.997  28.814  33.946  1.00  0.00     0.031 C 
ATOM     76  C   UNL A   1      44.384  26.851  32.293  1.00  0.00     0.037 A 
BRANCH  63  77
ATOM     77  C   UNL A   1      43.050  23.942  27.027  1.00  0.00     0.064 A 
ATOM     78  C   UNL A   1      42.721  22.578  27.213  1.00  0.00     0.173 A 
ATOM     79  C   UNL A   1      43.821  24.196  25.871  1.00  0.00     0.173 A 
ATOM     80  F   UNL A   1      41.985  22.178  28.259  1.00  0.00    -0.203 F 
ATOM     81  C   UNL A   1      43.157  21.569  26.345  1.00  0.00     0.198 A 
ATOM     82  C   UNL A   1      44.221  23.192  24.984  1.00  0.00     0.198 A 
ATOM     83  F   UNL A   1      44.274  25.413  25.562  1.00  0.00    -0.203 F 
ATOM     84  F   UNL A   1      42.862  20.289  26.612  1.00  0.00    -0.200 F 
ATOM     85  C   UNL A   1      43.904  21.876  25.228  1.00  0.00     0.200 A 
ATOM     86  F   UNL A   1      44.947  23.518  23.904  1.00  0.00    -0.200 F 
ATOM     87  F   UNL A   1      44.331  20.912  24.401  1.00  0.00    -0.200 F 
ENDBRANCH  63  77
BRANCH  64  88
ATOM     88  C   UNL A   1      40.602  31.493  32.553  1.00  0.00     0.064 A 
ATOM     89  C   UNL A   1      39.626  30.539  32.910  1.00  0.00     0.173 A 
ATOM     90  C   UNL A   1      40.504  32.763  33.135  1.00  0.00     0.173 A 
ATOM     91  F   UNL A   1      39.669  29.308  32.375  1.00  0.00    -0.203 F 
ATOM     92  C   UNL A   1      38.692  30.794  33.911  1.00  0.00     0.198 A 
ATOM     93  C   UNL A   1      39.548  33.022  34.120  1.00  0.00     0.198 A 
ATOM     94  F   UNL A   1      41.404  33.713  32.846  1.00  0.00    -0.203 F 
ATOM     95  F   UNL A   1      37.872  29.817  34.325  1.00  0.00    -0.200 F 
ATOM     96  C   UNL A   1      38.674  32.027  34.537  1.00  0.00     0.200 A 
ATOM     97  F   UNL A   1      39.545  34.208  34.747  1.00  0.00    -0.200 F 
ATOM     98  F   UNL A   1      37.851  32.243  35.573  1.00  0.00    -0.200 F 
ENDBRANCH  64  88
BRANCH  76  99
ATOM     99  C   UNL A   1      45.004  25.784  33.173  1.00  0.00     0.064 A 
ATOM    100  C   UNL A   1      46.365  25.434  33.155  1.00  0.00     0.173 A 
ATOM    101  C   UNL A   1      44.241  25.166  34.197  1.00  0.00     0.173 A 
ATOM    102  F   UNL A   1      47.234  26.039  32.333  1.00  0.00    -0.203 F 
ATOM    103  C   UNL A   1      46.903  24.490  34.035  1.00  0.00     0.198 A 
ATOM    104  C   UNL A   1      44.796  24.278  35.118  1.00  0.00     0.198 A 
ATOM    105  F   UNL A   1      42.937  25.431  34.360  1.00  0.00    -0.203 F 
ATOM    106  F   UNL A   1      48.198  24.157  33.937  1.00  0.00    -0.200 F 
ATOM    107  C   UNL A   1      46.124  23.922  35.024  1.00  0.00     0.200 A 
ATOM    108  F   UNL A   1      44.039  23.788  36.109  1.00  0.00    -0.200 F 
ATOM    109  F   UNL A   1      46.656  23.057  35.896  1.00  0.00    -0.200 F 
ENDBRANCH  76  99
ENDBRANCH  50  51
ENDBRANCH  42  45
ENDBRANCH  40  41
ENDBRANCH  39  40
ENDBRANCH  38  39
ENDBRANCH  37  38
ENDBRANCH  36  37
ENDBRANCH   1  36
TORSDOF 19
ENDMDL
MODEL 3
REMARK VINA RESULT:     -11.8      3.693     10.519
REMARK SMILES Cc1ccc(NC(=O)CN2C(=O)S/C(=C\c3cc(Cl)c(OCC(=O)NCCCCCCNC(=O)c4ccc(-c5c6nc(c(-c7c(F)c(F)c(F)c(F)c7F)c7ccc([nH]7)c(-c7c(F)c(F)c(F)c(F)c7F)c7nc(c(-c8c(F)c(F)c(F)c(F)c8F)c8ccc5[nH]8)C=C7)C=C6)cc4)c(Cl)c3)C2=O)cc1
REMARK SMILES IDX 26 1 25 2 23 3 24 4 22 6 21 7 20 8 16 9 17 10 100 11 18 12
REMARK SMILES IDX 98 13 19 14 99 15 15 16 10 17 11 18 101 19 12 20 13 21 14 22
REMARK SMILES IDX 102 23 9 24 7 25 6 26 8 28 5 29 1 30 2 31 3 32 104 33 4 34
REMARK SMILES IDX 103 35 27 36 28 37 29 38 30 39 31 40 32 41 33 42 34 44 35 45
REMARK SMILES IDX 36 46 97 47 37 48 96 49 38 50 39 51 40 52 90 53 41 54 95 55
REMARK SMILES IDX 89 56 91 57 42 58 94 59 88 60 87 61 43 63 75 64 55 65 74 66
REMARK SMILES IDX 56 67 59 68 73 69 92 70 57 71 58 72 72 74 93 75 60 76 44 77
REMARK SMILES IDX 45 78 53 79 46 80 47 81 51 82 54 83 48 84 49 85 52 86 50 87
REMARK SMILES IDX 76 88 77 89 85 90 78 91 79 92 83 93 86 94 80 95 81 96 84 97
REMARK SMILES IDX 82 98 61 99 62 100 70 101 63 102 64 103 68 104 71 105 65 106
REMARK SMILES IDX 66 107 69 108 67 109
REMARK H PARENT 25 5 6 27 32 43 91 62 59 73
REMARK Flexibility Score: inf
ROOT
ATOM      1  C   UNL A   1      34.366  33.525  31.598  1.00  0.00     0.116 C 
ENDROOT
BRANCH   1   2
ATOM      2  N   UNL A   1      33.716  34.224  30.514  1.00  0.00    -0.353 N 
ATOM      3  C   UNL A   1      33.726  33.927  29.184  1.00  0.00     0.257 C 
ATOM      4  O   UNL A   1      32.910  34.509  28.466  1.00  0.00    -0.271 OA
ATOM      5  H   UNL A   1      33.196  35.020  30.770  1.00  0.00     0.163 HD
BRANCH   3   6
ATOM      6  C   UNL A   1      34.683  32.852  28.646  1.00  0.00     0.329 C 
BRANCH   6   7
ATOM      7  O   UNL A   1      34.420  32.307  27.367  1.00  0.00    -0.481 OA
BRANCH   7   8
ATOM      8  C   UNL A   1      33.781  31.112  27.171  1.00  0.00     0.157 A 
ATOM      9  C   UNL A   1      32.812  28.442  26.797  1.00  0.00    -0.021 A 
ATOM     10  C   UNL A   1      34.150  28.658  27.099  1.00  0.00     0.032 A 
ATOM     11  C   UNL A   1      31.991  29.565  26.643  1.00  0.00     0.032 A 
ATOM     12  C   UNL A   1      34.624  29.975  27.269  1.00  0.00     0.085 A 
ATOM     13  C   UNL A   1      32.434  30.871  26.893  1.00  0.00     0.085 A 
ATOM     14  Cl  UNL A   1      36.318  30.154  27.618  1.00  0.00    -0.080 Cl
ATOM     15  Cl  UNL A   1      31.154  32.026  26.910  1.00  0.00    -0.080 Cl
BRANCH   9  16
ATOM     16  C   UNL A   1      32.243  27.101  26.552  1.00  0.00     0.029 C 
ATOM     17  N   UNL A   1      31.083  25.473  23.610  1.00  0.00    -0.259 N 
ATOM     18  C   UNL A   1      30.987  26.733  23.091  1.00  0.00     0.294 C 
ATOM     19  C   UNL A   1      31.347  25.405  24.967  1.00  0.00     0.268 C 
ATOM     20  O   UNL A   1      31.128  27.079  21.922  1.00  0.00    -0.261 OA
ATOM     21  S   UNL A   1      30.740  27.886  24.377  1.00  0.00    -0.022 SA
ATOM     22  C   UNL A   1      31.444  26.795  25.512  1.00  0.00     0.083 C 
ATOM     23  O   UNL A   1      31.630  24.401  25.601  1.00  0.00    -0.268 OA
BRANCH  17  24
ATOM     24  C   UNL A   1      31.377  24.350  22.732  1.00  0.00     0.230 C 
BRANCH  24  25
ATOM     25  C   UNL A   1      32.872  24.175  22.452  1.00  0.00     0.244 C 
ATOM     26  N   UNL A   1      33.471  22.951  22.546  1.00  0.00    -0.325 N 
ATOM     27  H   UNL A   1      34.235  22.825  21.938  1.00  0.00     0.169 HD
ATOM     28  O   UNL A   1      33.560  25.143  22.114  1.00  0.00    -0.273 OA
BRANCH  26  29
ATOM     29  C   UNL A   1      33.185  21.845  23.356  1.00  0.00     0.041 A 
ATOM     30  C   UNL A   1      32.528  18.192  25.556  1.00  0.00     0.044 C 
ATOM     31  C   UNL A   1      32.738  19.460  24.785  1.00  0.00    -0.051 A 
ATOM     32  C   UNL A   1      33.491  20.496  25.344  1.00  0.00     0.005 A 
ATOM     33  C   UNL A   1      32.208  19.626  23.503  1.00  0.00     0.005 A 
ATOM     34  C   UNL A   1      33.713  21.680  24.634  1.00  0.00     0.026 A 
ATOM     35  C   UNL A   1      32.443  20.804  22.789  1.00  0.00     0.026 A 
ENDBRANCH  26  29
ENDBRANCH  24  25
ENDBRANCH  17  24
ENDBRANCH   9  16
ENDBRANCH   7   8
ENDBRANCH   6   7
ENDBRANCH   3   6
ENDBRANCH   1   2
BRANCH   1  36
ATOM     36  C   UNL A   1      34.857  34.464  32.698  1.00  0.00     0.021 C 
BRANCH  36  37
ATOM     37  C   UNL A   1      36.313  34.943  32.590  1.00  0.00     0.002 C 
BRANCH  37  38
ATOM     38  C   UNL A   1      37.061  34.663  31.278  1.00  0.00     0.002 C 
BRANCH  38  39
ATOM     39  C   UNL A   1      38.516  34.214  31.401  1.00  0.00     0.021 C 
BRANCH  39  40
ATOM     40  C   UNL A   1      38.706  32.728  31.673  1.00  0.00     0.116 C 
BRANCH  40  41
ATOM     41  N   UNL A   1      37.463  32.012  31.953  1.00  0.00    -0.352 N 
ATOM     42  C   UNL A   1      36.987  30.833  31.401  1.00  0.00     0.251 C 
ATOM     43  H   UNL A   1      36.881  32.425  32.631  1.00  0.00     0.163 HD
ATOM     44  O   UNL A   1      35.902  30.373  31.738  1.00  0.00    -0.269 OA
BRANCH  42  45
ATOM     45  C   UNL A   1      37.880  30.047  30.521  1.00  0.00     0.039 A 
ATOM     46  C   UNL A   1      37.905  28.662  30.720  1.00  0.00     0.014 A 
ATOM     47  C   UNL A   1      38.891  30.683  29.808  1.00  0.00     0.014 A 
ATOM     48  C   UNL A   1      39.091  27.975  30.499  1.00  0.00     0.010 A 
ATOM     49  C   UNL A   1      40.100  30.036  29.697  1.00  0.00     0.010 A 
ATOM     50  C   UNL A   1      40.214  28.711  30.134  1.00  0.00    -0.014 A 
BRANCH  50  51
ATOM     51  C   UNL A   1      41.572  28.220  30.286  1.00  0.00     0.031 A 
ATOM     52  C   UNL A   1      41.978  27.000  29.571  1.00  0.00     0.074 A 
ATOM     53  C   UNL A   1      42.457  28.961  30.991  1.00  0.00     0.049 A 
ATOM     54  N   UNL A   1      43.041  26.330  29.846  1.00  0.00    -0.248 NA
ATOM     55  C   UNL A   1      41.164  26.382  28.528  1.00  0.00     0.031 C 
ATOM     56  C   UNL A   1      43.912  28.834  31.017  1.00  0.00     0.029 A 
ATOM     57  N   UNL A   1      42.174  29.888  32.012  1.00  0.00    -0.354 N 
ATOM     58  C   UNL A   1      43.209  25.392  28.855  1.00  0.00     0.074 A 
ATOM     59  C   UNL A   1      41.952  25.371  28.152  1.00  0.00     0.031 C 
ATOM     60  C   UNL A   1      44.377  29.388  32.149  1.00  0.00     0.029 A 
ATOM     61  C   UNL A   1      43.220  29.739  32.954  1.00  0.00     0.049 A 
ATOM     62  H   UNL A   1      41.411  30.507  32.060  1.00  0.00     0.167 HD
ATOM     63  C   UNL A   1      44.451  24.863  28.681  1.00  0.00     0.037 A 
ATOM     64  C   UNL A   1      42.976  29.265  34.210  1.00  0.00     0.037 A 
ATOM     65  C   UNL A   1      45.295  25.178  29.836  1.00  0.00     0.049 A 
ATOM     66  C   UNL A   1      43.722  27.987  34.524  1.00  0.00     0.074 A 
ATOM     67  C   UNL A   1      46.312  26.090  30.050  1.00  0.00     0.029 A 
ATOM     68  N   UNL A   1      44.914  24.707  31.092  1.00  0.00    -0.354 N 
ATOM     69  N   UNL A   1      44.181  27.171  33.613  1.00  0.00    -0.248 NA
ATOM     70  C   UNL A   1      44.001  27.526  35.880  1.00  0.00     0.031 C 
ATOM     71  C   UNL A   1      46.470  26.240  31.455  1.00  0.00     0.029 A 
ATOM     72  C   UNL A   1      45.587  25.383  32.091  1.00  0.00     0.049 A 
ATOM     73  H   UNL A   1      44.256  23.991  31.245  1.00  0.00     0.167 HD
ATOM     74  C   UNL A   1      44.791  26.104  34.219  1.00  0.00     0.074 A 
ATOM     75  C   UNL A   1      44.666  26.382  35.638  1.00  0.00     0.031 C 
ATOM     76  C   UNL A   1      45.338  25.080  33.496  1.00  0.00     0.037 A 
BRANCH  63  77
ATOM     77  C   UNL A   1      44.990  24.255  27.399  1.00  0.00     0.064 A 
ATOM     78  C   UNL A   1      44.593  22.951  27.019  1.00  0.00     0.173 A 
ATOM     79  C   UNL A   1      45.989  24.817  26.573  1.00  0.00     0.173 A 
ATOM     80  F   UNL A   1      43.647  22.288  27.700  1.00  0.00    -0.203 F 
ATOM     81  C   UNL A   1      45.170  22.268  25.943  1.00  0.00     0.198 A 
ATOM     82  C   UNL A   1      46.535  24.148  25.473  1.00  0.00     0.198 A 
ATOM     83  F   UNL A   1      46.528  26.015  26.810  1.00  0.00    -0.203 F 
ATOM     84  F   UNL A   1      44.793  21.010  25.673  1.00  0.00    -0.200 F 
ATOM     85  C   UNL A   1      46.140  22.867  25.166  1.00  0.00     0.200 A 
ATOM     86  F   UNL A   1      47.476  24.755  24.734  1.00  0.00    -0.200 F 
ATOM     87  F   UNL A   1      46.701  22.212  24.142  1.00  0.00    -0.200 F 
ENDBRANCH  63  77
BRANCH  64  88
ATOM     88  C   UNL A   1      41.619  29.621  34.707  1.00  0.00     0.064 A 
ATOM     89  C   UNL A   1      41.466  30.850  35.385  1.00  0.00     0.173 A 
ATOM     90  C   UNL A   1      40.465  29.024  34.188  1.00  0.00     0.173 A 
ATOM     91  F   UNL A   1      42.541  31.461  35.909  1.00  0.00    -0.203 F 
ATOM     92  C   UNL A   1      40.246  31.519  35.407  1.00  0.00     0.198 A 
ATOM     93  C   UNL A   1      39.236  29.688  34.236  1.00  0.00     0.198 A 
ATOM     94  F   UNL A   1      40.541  27.861  33.526  1.00  0.00    -0.203 F 
ATOM     95  F   UNL A   1      40.169  32.750  35.935  1.00  0.00    -0.200 F 
ATOM     96  C   UNL A   1      39.138  30.951  34.805  1.00  0.00     0.200 A 
ATOM     97  F   UNL A   1      38.166  29.152  33.632  1.00  0.00    -0.200 F 
ATOM     98  F   UNL A   1      37.989  31.636  34.730  1.00  0.00    -0.200 F 
ENDBRANCH  64  88
BRANCH  76  99
ATOM     99  C   UNL A   1      45.772  23.733  34.040  1.00  0.00     0.064 A 
ATOM    100  C   UNL A   1      44.926  22.617  34.162  1.00  0.00     0.173 A 
ATOM    101  C   UNL A   1      47.139  23.482  34.325  1.00  0.00     0.173 A 
ATOM    102  F   UNL A   1      43.638  22.670  33.795  1.00  0.00    -0.203 F 
ATOM    103  C   UNL A   1      45.391  21.375  34.605  1.00  0.00     0.198 A 
ATOM    104  C   UNL A   1      47.611  22.225  34.700  1.00  0.00     0.198 A 
ATOM    105  F   UNL A   1      48.068  24.443  34.218  1.00  0.00    -0.203 F 
ATOM    106  F   UNL A   1      44.528  20.360  34.752  1.00  0.00    -0.200 F 
ATOM    107  C   UNL A   1      46.734  21.175  34.861  1.00  0.00     0.200 A 
ATOM    108  F   UNL A   1      48.925  22.035  34.881  1.00  0.00    -0.200 F 
ATOM    109  F   UNL A   1      47.182  19.970  35.237  1.00  0.00    -0.200 F 
ENDBRANCH  76  99
ENDBRANCH  50  51
ENDBRANCH  42  45
ENDBRANCH  40  41
ENDBRANCH  39  40
ENDBRANCH  38  39
ENDBRANCH  37  38
ENDBRANCH  36  37
ENDBRANCH   1  36
TORSDOF 19
ENDMDL
