MODEL 1
REMARK VINA RESULT:     -12.9      0.000      0.000
REMARK SMILES COc1ccc(NC(=O)[C@@H]2[C@@H](C(=O)NCCCCCCNC(=O)c3ccc(-c4c5nc(c(-c6c(F)c(F)c(F)c(F)c6F)c6ccc([nH]6)c(-c6c(F)c(F)c(F)c(F)c6F)c6nc(c(-c7c(F)c(F)c(F)c(F)c7F)c7ccc4[nH]7)C=C6)C=C5)cc3)[C@@H]3CC[C@H]2C3=C(C)C)cc1
REMARK SMILES IDX 17 1 16 2 15 3 14 4 12 5 13 6 11 8 10 9 90 10 87 11 89 12
REMARK SMILES IDX 91 13 88 14 92 15 93 16 94 17 8 18 7 19 9 21 6 22 3 23 4 24
REMARK SMILES IDX 96 25 5 26 95 27 2 28 1 29 18 30 19 31 20 32 21 33 22 34
REMARK SMILES IDX 23 36 24 37 25 38 86 39 26 40 85 41 27 42 28 43 29 44 79 45
REMARK SMILES IDX 30 46 84 47 78 48 80 49 31 50 83 51 77 52 76 53 32 55 64 56
REMARK SMILES IDX 44 57 63 58 45 59 48 60 62 61 81 62 46 63 47 64 61 66 82 67
REMARK SMILES IDX 49 68 33 69 34 70 42 71 35 72 36 73 40 74 43 75 37 76 38 77
REMARK SMILES IDX 41 78 39 79 65 80 66 81 74 82 67 83 68 84 72 85 75 86 69 87
REMARK SMILES IDX 70 88 73 89 71 90 50 91 51 92 59 93 52 94 53 95 57 96 60 97
REMARK SMILES IDX 54 98 55 99 58 100 56 101
REMARK H PARENT 14 7 7 20 21 35 80 54 48 65
REMARK Flexibility Score: inf
ROOT
ATOM      1  C   UNL A   1      31.606  26.260  26.414  1.00  0.00     0.002 C 
ENDROOT
BRANCH   1   2
ATOM      2  C   UNL A   1      30.856  25.122  25.720  1.00  0.00     0.021 C 
BRANCH   2   3
ATOM      3  C   UNL A   1      30.546  23.942  26.634  1.00  0.00     0.116 C 
BRANCH   3   4
ATOM      4  N   UNL A   1      31.751  23.426  27.249  1.00  0.00    -0.356 N 
ATOM      5  C   UNL A   1      32.961  23.057  26.764  1.00  0.00     0.224 C 
ATOM      6  O   UNL A   1      33.752  22.591  27.595  1.00  0.00    -0.275 OA
ATOM      7  H   UNL A   1      31.676  23.321  28.224  1.00  0.00     0.163 HD
BRANCH   5   8
ATOM      8  C   UNL A   1      33.388  23.108  25.302  1.00  0.00     0.098 C 
ATOM      9  C   UNL A   1      33.731  21.803  24.547  1.00  0.00     0.099 C 
ATOM     10  C   UNL A   1      35.076  22.182  23.861  1.00  0.00     0.028 C 
ATOM     11  C   UNL A   1      34.640  24.006  25.130  1.00  0.00     0.028 C 
ATOM     12  C   UNL A   1      34.950  23.340  22.842  1.00  0.00     0.009 C 
ATOM     13  C   UNL A   1      35.734  22.989  24.956  1.00  0.00    -0.064 C 
ATOM     14  C   UNL A   1      34.641  24.575  23.707  1.00  0.00     0.009 C 
ATOM     15  C   UNL A   1      36.959  22.890  25.503  1.00  0.00    -0.077 C 
ATOM     16  C   UNL A   1      37.529  23.922  26.440  1.00  0.00     0.039 C 
ATOM     17  C   UNL A   1      37.883  21.745  25.189  1.00  0.00     0.039 C 
BRANCH   9  18
ATOM     18  C   UNL A   1      32.678  21.336  23.540  1.00  0.00     0.228 C 
ATOM     19  N   UNL A   1      32.236  20.047  23.473  1.00  0.00    -0.326 N 
ATOM     20  H   UNL A   1      31.401  19.953  22.960  1.00  0.00     0.169 HD
ATOM     21  O   UNL A   1      32.170  22.123  22.735  1.00  0.00    -0.274 OA
BRANCH  19  22
ATOM     22  C   UNL A   1      32.711  18.825  23.973  1.00  0.00     0.041 A 
ATOM     23  C   UNL A   1      33.608  16.299  24.789  1.00  0.00     0.119 A 
ATOM     24  C   UNL A   1      33.113  17.198  25.725  1.00  0.00     0.048 A 
ATOM     25  C   UNL A   1      33.712  16.666  23.453  1.00  0.00     0.048 A 
ATOM     26  C   UNL A   1      32.698  18.471  25.319  1.00  0.00     0.030 A 
ATOM     27  C   UNL A   1      33.279  17.935  23.051  1.00  0.00     0.030 A 
BRANCH  23  28
ATOM     28  O   UNL A   1      33.888  15.026  25.195  1.00  0.00    -0.497 OA
ATOM     29  C   UNL A   1      32.714  14.365  25.659  1.00  0.00     0.278 C 
ENDBRANCH  23  28
ENDBRANCH  19  22
ENDBRANCH   9  18
ENDBRANCH   5   8
ENDBRANCH   3   4
ENDBRANCH   2   3
ENDBRANCH   1   2
BRANCH   1  30
ATOM     30  C   UNL A   1      31.536  27.610  25.687  1.00  0.00     0.002 C 
BRANCH  30  31
ATOM     31  C   UNL A   1      32.609  27.853  24.620  1.00  0.00     0.021 C 
BRANCH  31  32
ATOM     32  C   UNL A   1      33.543  29.031  24.889  1.00  0.00     0.116 C 
BRANCH  32  33
ATOM     33  N   UNL A   1      32.832  30.183  25.416  1.00  0.00    -0.352 N 
ATOM     34  C   UNL A   1      33.036  30.888  26.574  1.00  0.00     0.251 C 
ATOM     35  H   UNL A   1      32.090  30.506  24.855  1.00  0.00     0.163 HD
ATOM     36  O   UNL A   1      32.205  31.706  26.952  1.00  0.00    -0.269 OA
BRANCH  34  37
ATOM     37  C   UNL A   1      34.254  30.659  27.381  1.00  0.00     0.039 A 
ATOM     38  C   UNL A   1      34.460  29.395  27.942  1.00  0.00     0.014 A 
ATOM     39  C   UNL A   1      35.167  31.689  27.621  1.00  0.00     0.014 A 
ATOM     40  C   UNL A   1      35.609  29.149  28.697  1.00  0.00     0.010 A 
ATOM     41  C   UNL A   1      36.342  31.427  28.322  1.00  0.00     0.010 A 
ATOM     42  C   UNL A   1      36.573  30.155  28.871  1.00  0.00    -0.014 A 
BRANCH  42  43
ATOM     43  C   UNL A   1      37.827  29.896  29.621  1.00  0.00     0.031 A 
ATOM     44  C   UNL A   1      38.850  28.939  29.079  1.00  0.00     0.074 A 
ATOM     45  C   UNL A   1      38.013  30.471  30.825  1.00  0.00     0.049 A 
ATOM     46  N   UNL A   1      39.966  28.521  29.623  1.00  0.00    -0.248 NA
ATOM     47  C   UNL A   1      38.571  28.353  27.758  1.00  0.00     0.031 C 
ATOM     48  C   UNL A   1      37.074  31.384  31.479  1.00  0.00     0.029 A 
ATOM     49  N   UNL A   1      39.047  30.360  31.721  1.00  0.00    -0.354 N 
ATOM     50  C   UNL A   1      40.509  27.614  28.724  1.00  0.00     0.074 A 
ATOM     51  C   UNL A   1      39.582  27.508  27.617  1.00  0.00     0.031 C 
ATOM     52  C   UNL A   1      37.579  31.757  32.666  1.00  0.00     0.029 A 
ATOM     53  C   UNL A   1      38.858  31.085  32.872  1.00  0.00     0.049 A 
ATOM     54  H   UNL A   1      39.848  29.812  31.555  1.00  0.00     0.167 HD
ATOM     55  C   UNL A   1      41.684  26.944  28.807  1.00  0.00     0.037 A 
ATOM     56  C   UNL A   1      39.624  31.186  33.975  1.00  0.00     0.037 A 
ATOM     57  C   UNL A   1      42.618  27.074  29.894  1.00  0.00     0.049 A 
ATOM     58  C   UNL A   1      40.927  30.435  34.038  1.00  0.00     0.074 A 
ATOM     59  C   UNL A   1      43.866  26.495  30.033  1.00  0.00     0.029 A 
ATOM     60  N   UNL A   1      42.403  27.840  31.031  1.00  0.00    -0.354 N 
ATOM     61  N   UNL A   1      41.464  29.635  33.150  1.00  0.00    -0.248 NA
ATOM     62  C   UNL A   1      41.731  30.606  35.256  1.00  0.00     0.031 C 
ATOM     63  C   UNL A   1      44.390  26.873  31.274  1.00  0.00     0.029 A 
ATOM     64  C   UNL A   1      43.487  27.727  31.888  1.00  0.00     0.049 A 
ATOM     65  H   UNL A   1      41.600  28.382  31.204  1.00  0.00     0.167 HD
ATOM     66  C   UNL A   1      42.677  29.228  33.687  1.00  0.00     0.074 A 
ATOM     67  C   UNL A   1      42.805  29.881  34.973  1.00  0.00     0.031 C 
ATOM     68  C   UNL A   1      43.602  28.389  33.162  1.00  0.00     0.037 A 
BRANCH  55  69
ATOM     69  C   UNL A   1      42.029  26.005  27.688  1.00  0.00     0.064 A 
ATOM     70  C   UNL A   1      42.981  26.340  26.713  1.00  0.00     0.173 A 
ATOM     71  C   UNL A   1      41.436  24.734  27.616  1.00  0.00     0.173 A 
ATOM     72  F   UNL A   1      43.570  27.545  26.731  1.00  0.00    -0.203 F 
ATOM     73  C   UNL A   1      43.306  25.449  25.693  1.00  0.00     0.198 A 
ATOM     74  C   UNL A   1      41.784  23.836  26.611  1.00  0.00     0.198 A 
ATOM     75  F   UNL A   1      40.525  24.362  28.528  1.00  0.00    -0.203 F 
ATOM     76  F   UNL A   1      44.185  25.808  24.747  1.00  0.00    -0.200 F 
ATOM     77  C   UNL A   1      42.714  24.196  25.647  1.00  0.00     0.200 A 
ATOM     78  F   UNL A   1      41.220  22.620  26.576  1.00  0.00    -0.200 F 
ATOM     79  F   UNL A   1      43.034  23.337  24.670  1.00  0.00    -0.200 F 
ENDBRANCH  55  69
BRANCH  56  80
ATOM     80  C   UNL A   1      39.187  32.047  35.103  1.00  0.00     0.064 A 
ATOM     81  C   UNL A   1      38.507  31.503  36.202  1.00  0.00     0.173 A 
ATOM     82  C   UNL A   1      39.436  33.427  35.108  1.00  0.00     0.173 A 
ATOM     83  F   UNL A   1      38.227  30.192  36.234  1.00  0.00    -0.203 F 
ATOM     84  C   UNL A   1      38.077  32.310  37.253  1.00  0.00     0.198 A 
ATOM     85  C   UNL A   1      39.029  34.228  36.172  1.00  0.00     0.198 A 
ATOM     86  F   UNL A   1      40.087  33.995  34.082  1.00  0.00    -0.203 F 
ATOM     87  F   UNL A   1      37.391  31.771  38.271  1.00  0.00    -0.200 F 
ATOM     88  C   UNL A   1      38.343  33.671  37.240  1.00  0.00     0.200 A 
ATOM     89  F   UNL A   1      39.301  35.541  36.162  1.00  0.00    -0.200 F 
ATOM     90  F   UNL A   1      37.932  34.446  38.253  1.00  0.00    -0.200 F 
ENDBRANCH  56  80
BRANCH  68  91
ATOM     91  C   UNL A   1      44.849  28.151  33.962  1.00  0.00     0.064 A 
ATOM     92  C   UNL A   1      45.964  28.994  33.853  1.00  0.00     0.173 A 
ATOM     93  C   UNL A   1      44.911  27.092  34.881  1.00  0.00     0.173 A 
ATOM     94  F   UNL A   1      45.959  30.010  32.977  1.00  0.00    -0.203 F 
ATOM     95  C   UNL A   1      47.105  28.772  34.619  1.00  0.00     0.198 A 
ATOM     96  C   UNL A   1      46.043  26.890  35.664  1.00  0.00     0.198 A 
ATOM     97  F   UNL A   1      43.868  26.260  35.026  1.00  0.00    -0.203 F 
ATOM     98  F   UNL A   1      48.176  29.563  34.467  1.00  0.00    -0.200 F 
ATOM     99  C   UNL A   1      47.141  27.725  35.529  1.00  0.00     0.200 A 
ATOM    100  F   UNL A   1      46.072  25.886  36.551  1.00  0.00    -0.200 F 
ATOM    101  F   UNL A   1      48.238  27.519  36.271  1.00  0.00    -0.200 F 
ENDBRANCH  68  91
ENDBRANCH  42  43
ENDBRANCH  34  37
ENDBRANCH  32  33
ENDBRANCH  31  32
ENDBRANCH  30  31
ENDBRANCH   1  30
TORSDOF 16
ENDMDL
MODEL 2
REMARK VINA RESULT:     -12.9      2.598      7.483
REMARK SMILES COc1ccc(NC(=O)[C@@H]2[C@@H](C(=O)NCCCCCCNC(=O)c3ccc(-c4c5nc(c(-c6c(F)c(F)c(F)c(F)c6F)c6ccc([nH]6)c(-c6c(F)c(F)c(F)c(F)c6F)c6nc(c(-c7c(F)c(F)c(F)c(F)c7F)c7ccc4[nH]7)C=C6)C=C5)cc3)[C@@H]3CC[C@H]2C3=C(C)C)cc1
REMARK SMILES IDX 17 1 16 2 15 3 14 4 12 5 13 6 11 8 10 9 90 10 87 11 89 12
REMARK SMILES IDX 91 13 88 14 92 15 93 16 94 17 8 18 7 19 9 21 6 22 3 23 4 24
REMARK SMILES IDX 96 25 5 26 95 27 2 28 1 29 18 30 19 31 20 32 21 33 22 34
REMARK SMILES IDX 23 36 24 37 25 38 86 39 26 40 85 41 27 42 28 43 29 44 79 45
REMARK SMILES IDX 30 46 84 47 78 48 80 49 31 50 83 51 77 52 76 53 32 55 64 56
REMARK SMILES IDX 44 57 63 58 45 59 48 60 62 61 81 62 46 63 47 64 61 66 82 67
REMARK SMILES IDX 49 68 33 69 34 70 42 71 35 72 36 73 40 74 43 75 37 76 38 77
REMARK SMILES IDX 41 78 39 79 65 80 66 81 74 82 67 83 68 84 72 85 75 86 69 87
REMARK SMILES IDX 70 88 73 89 71 90 50 91 51 92 59 93 52 94 53 95 57 96 60 97
REMARK SMILES IDX 54 98 55 99 58 100 56 101
REMARK H PARENT 14 7 7 20 21 35 80 54 48 65
REMARK Flexibility Score: inf
ROOT
ATOM      1  C   UNL A   1      31.072  26.230  24.904  1.00  0.00     0.002 C 
ENDROOT
BRANCH   1   2
ATOM      2  C   UNL A   1      30.431  25.763  26.213  1.00  0.00     0.021 C 
BRANCH   2   3
ATOM      3  C   UNL A   1      30.406  24.248  26.378  1.00  0.00     0.116 C 
BRANCH   3   4
ATOM      4  N   UNL A   1      31.590  23.777  27.066  1.00  0.00    -0.356 N 
ATOM      5  C   UNL A   1      32.811  23.366  26.648  1.00  0.00     0.224 C 
ATOM      6  O   UNL A   1      33.576  22.965  27.535  1.00  0.00    -0.275 OA
ATOM      7  H   UNL A   1      31.487  23.751  28.044  1.00  0.00     0.163 HD
BRANCH   5   8
ATOM      8  C   UNL A   1      33.280  23.299  25.199  1.00  0.00     0.098 C 
ATOM      9  C   UNL A   1      33.566  21.931  24.538  1.00  0.00     0.099 C 
ATOM     10  C   UNL A   1      34.949  22.189  23.870  1.00  0.00     0.028 C 
ATOM     11  C   UNL A   1      34.585  24.112  25.008  1.00  0.00     0.028 C 
ATOM     12  C   UNL A   1      34.918  23.284  22.778  1.00  0.00     0.009 C 
ATOM     13  C   UNL A   1      35.623  23.026  24.932  1.00  0.00    -0.064 C 
ATOM     14  C   UNL A   1      34.658  24.588  23.553  1.00  0.00     0.009 C 
ATOM     15  C   UNL A   1      36.824  22.894  25.522  1.00  0.00    -0.077 C 
ATOM     16  C   UNL A   1      37.428  23.950  26.409  1.00  0.00     0.039 C 
ATOM     17  C   UNL A   1      37.688  21.681  25.308  1.00  0.00     0.039 C 
BRANCH   9  18
ATOM     18  C   UNL A   1      32.515  21.460  23.531  1.00  0.00     0.228 C 
ATOM     19  N   UNL A   1      32.098  20.164  23.445  1.00  0.00    -0.326 N 
ATOM     20  H   UNL A   1      31.261  20.063  22.937  1.00  0.00     0.169 HD
ATOM     21  O   UNL A   1      31.986  22.251  22.742  1.00  0.00    -0.274 OA
BRANCH  19  22
ATOM     22  C   UNL A   1      32.599  18.944  23.922  1.00  0.00     0.041 A 
ATOM     23  C   UNL A   1      33.557  16.424  24.689  1.00  0.00     0.119 A 
ATOM     24  C   UNL A   1      33.002  17.276  25.635  1.00  0.00     0.048 A 
ATOM     25  C   UNL A   1      33.690  16.837  23.368  1.00  0.00     0.048 A 
ATOM     26  C   UNL A   1      32.556  18.547  25.256  1.00  0.00     0.030 A 
ATOM     27  C   UNL A   1      33.226  18.103  22.992  1.00  0.00     0.030 A 
BRANCH  23  28
ATOM     28  O   UNL A   1      33.869  15.149  25.064  1.00  0.00    -0.497 OA
ATOM     29  C   UNL A   1      32.728  14.477  25.591  1.00  0.00     0.278 C 
ENDBRANCH  23  28
ENDBRANCH  19  22
ENDBRANCH   9  18
ENDBRANCH   5   8
ENDBRANCH   3   4
ENDBRANCH   2   3
ENDBRANCH   1   2
BRANCH   1  30
ATOM     30  C   UNL A   1      32.156  27.304  25.069  1.00  0.00     0.002 C 
BRANCH  30  31
ATOM     31  C   UNL A   1      32.696  27.498  26.491  1.00  0.00     0.021 C 
BRANCH  31  32
ATOM     32  C   UNL A   1      34.016  28.259  26.589  1.00  0.00     0.116 C 
BRANCH  32  33
ATOM     33  N   UNL A   1      33.826  29.630  27.031  1.00  0.00    -0.352 N 
ATOM     34  C   UNL A   1      34.615  30.413  27.834  1.00  0.00     0.251 C 
ATOM     35  H   UNL A   1      33.004  30.063  26.704  1.00  0.00     0.163 HD
ATOM     36  O   UNL A   1      34.189  31.478  28.266  1.00  0.00    -0.269 OA
BRANCH  34  37
ATOM     37  C   UNL A   1      35.980  29.972  28.195  1.00  0.00     0.039 A 
ATOM     38  C   UNL A   1      37.005  30.122  27.257  1.00  0.00     0.014 A 
ATOM     39  C   UNL A   1      36.243  29.376  29.432  1.00  0.00     0.014 A 
ATOM     40  C   UNL A   1      38.305  29.726  27.579  1.00  0.00     0.010 A 
ATOM     41  C   UNL A   1      37.550  29.038  29.775  1.00  0.00     0.010 A 
ATOM     42  C   UNL A   1      38.593  29.205  28.851  1.00  0.00    -0.014 A 
BRANCH  42  43
ATOM     43  C   UNL A   1      39.979  28.833  29.233  1.00  0.00     0.031 A 
ATOM     44  C   UNL A   1      40.818  29.772  30.051  1.00  0.00     0.074 A 
ATOM     45  C   UNL A   1      40.504  27.677  28.781  1.00  0.00     0.049 A 
ATOM     46  N   UNL A   1      42.072  29.662  30.414  1.00  0.00    -0.248 NA
ATOM     47  C   UNL A   1      40.169  31.014  30.502  1.00  0.00     0.031 C 
ATOM     48  C   UNL A   1      39.806  26.701  27.943  1.00  0.00     0.029 A 
ATOM     49  N   UNL A   1      41.753  27.134  28.953  1.00  0.00    -0.354 N 
ATOM     50  C   UNL A   1      42.365  30.824  31.116  1.00  0.00     0.074 A 
ATOM     51  C   UNL A   1      41.173  31.644  31.094  1.00  0.00     0.031 C 
ATOM     52  C   UNL A   1      40.632  25.676  27.681  1.00  0.00     0.029 A 
ATOM     53  C   UNL A   1      41.927  25.937  28.303  1.00  0.00     0.049 A 
ATOM     54  H   UNL A   1      42.459  27.563  29.490  1.00  0.00     0.167 HD
ATOM     55  C   UNL A   1      43.520  31.164  31.738  1.00  0.00     0.037 A 
ATOM     56  C   UNL A   1      43.012  25.145  28.208  1.00  0.00     0.037 A 
ATOM     57  C   UNL A   1      44.693  30.332  31.785  1.00  0.00     0.049 A 
ATOM     58  C   UNL A   1      44.279  25.545  28.914  1.00  0.00     0.074 A 
ATOM     59  C   UNL A   1      45.884  30.557  32.451  1.00  0.00     0.029 A 
ATOM     60  N   UNL A   1      44.822  29.113  31.136  1.00  0.00    -0.354 N 
ATOM     61  N   UNL A   1      44.523  26.612  29.634  1.00  0.00    -0.248 NA
ATOM     62  C   UNL A   1      45.421  24.628  28.795  1.00  0.00     0.031 C 
ATOM     63  C   UNL A   1      46.751  29.496  32.170  1.00  0.00     0.029 A 
ATOM     64  C   UNL A   1      46.083  28.586  31.367  1.00  0.00     0.049 A 
ATOM     65  H   UNL A   1      44.122  28.685  30.592  1.00  0.00     0.167 HD
ATOM     66  C   UNL A   1      45.832  26.484  30.077  1.00  0.00     0.074 A 
ATOM     67  C   UNL A   1      46.329  25.227  29.555  1.00  0.00     0.031 C 
ATOM     68  C   UNL A   1      46.558  27.330  30.845  1.00  0.00     0.037 A 
BRANCH  55  69
ATOM     69  C   UNL A   1      43.573  32.499  32.423  1.00  0.00     0.064 A 
ATOM     70  C   UNL A   1      43.218  32.649  33.772  1.00  0.00     0.173 A 
ATOM     71  C   UNL A   1      44.029  33.634  31.735  1.00  0.00     0.173 A 
ATOM     72  F   UNL A   1      42.766  31.597  34.472  1.00  0.00    -0.203 F 
ATOM     73  C   UNL A   1      43.292  33.890  34.399  1.00  0.00     0.198 A 
ATOM     74  C   UNL A   1      44.129  34.868  32.373  1.00  0.00     0.198 A 
ATOM     75  F   UNL A   1      44.388  33.544  30.445  1.00  0.00    -0.203 F 
ATOM     76  F   UNL A   1      42.905  34.018  35.676  1.00  0.00    -0.200 F 
ATOM     77  C   UNL A   1      43.755  34.996  33.702  1.00  0.00     0.200 A 
ATOM     78  F   UNL A   1      44.589  35.933  31.701  1.00  0.00    -0.200 F 
ATOM     79  F   UNL A   1      43.834  36.187  34.310  1.00  0.00    -0.200 F 
ENDBRANCH  55  69
BRANCH  56  80
ATOM     80  C   UNL A   1      42.941  23.883  27.428  1.00  0.00     0.064 A 
ATOM     81  C   UNL A   1      42.478  22.698  28.017  1.00  0.00     0.173 A 
ATOM     82  C   UNL A   1      43.335  23.833  26.083  1.00  0.00     0.173 A 
ATOM     83  F   UNL A   1      42.110  22.691  29.307  1.00  0.00    -0.203 F 
ATOM     84  C   UNL A   1      42.429  21.508  27.295  1.00  0.00     0.198 A 
ATOM     85  C   UNL A   1      43.259  22.648  25.356  1.00  0.00     0.198 A 
ATOM     86  F   UNL A   1      43.780  24.941  25.472  1.00  0.00    -0.203 F 
ATOM     87  F   UNL A   1      42.023  20.380  27.895  1.00  0.00    -0.200 F 
ATOM     88  C   UNL A   1      42.814  21.484  25.964  1.00  0.00     0.200 A 
ATOM     89  F   UNL A   1      43.619  22.633  24.064  1.00  0.00    -0.200 F 
ATOM     90  F   UNL A   1      42.763  20.340  25.269  1.00  0.00    -0.200 F 
ENDBRANCH  56  80
BRANCH  68  91
ATOM     91  C   UNL A   1      47.957  26.914  31.196  1.00  0.00     0.064 A 
ATOM     92  C   UNL A   1      48.219  26.046  32.266  1.00  0.00     0.173 A 
ATOM     93  C   UNL A   1      49.043  27.355  30.424  1.00  0.00     0.173 A 
ATOM     94  F   UNL A   1      47.216  25.611  33.043  1.00  0.00    -0.203 F 
ATOM     95  C   UNL A   1      49.520  25.653  32.565  1.00  0.00     0.198 A 
ATOM     96  C   UNL A   1      50.340  26.937  30.709  1.00  0.00     0.198 A 
ATOM     97  F   UNL A   1      48.844  28.182  29.387  1.00  0.00    -0.203 F 
ATOM     98  F   UNL A   1      49.754  24.858  33.618  1.00  0.00    -0.200 F 
ATOM     99  C   UNL A   1      50.579  26.093  31.781  1.00  0.00     0.200 A 
ATOM    100  F   UNL A   1      51.359  27.353  29.945  1.00  0.00    -0.200 F 
ATOM    101  F   UNL A   1      51.830  25.705  32.066  1.00  0.00    -0.200 F 
ENDBRANCH  68  91
ENDBRANCH  42  43
ENDBRANCH  34  37
ENDBRANCH  32  33
ENDBRANCH  31  32
ENDBRANCH  30  31
ENDBRANCH   1  30
TORSDOF 16
ENDMDL
MODEL 3
REMARK VINA RESULT:     -12.9      4.545      9.705
REMARK SMILES COc1ccc(NC(=O)[C@@H]2[C@@H](C(=O)NCCCCCCNC(=O)c3ccc(-c4c5nc(c(-c6c(F)c(F)c(F)c(F)c6F)c6ccc([nH]6)c(-c6c(F)c(F)c(F)c(F)c6F)c6nc(c(-c7c(F)c(F)c(F)c(F)c7F)c7ccc4[nH]7)C=C6)C=C5)cc3)[C@@H]3CC[C@H]2C3=C(C)C)cc1
REMARK SMILES IDX 17 1 16 2 15 3 14 4 12 5 13 6 11 8 10 9 90 10 87 11 89 12
REMARK SMILES IDX 91 13 88 14 92 15 93 16 94 17 8 18 7 19 9 21 6 22 3 23 4 24
REMARK SMILES IDX 96 25 5 26 95 27 2 28 1 29 18 30 19 31 20 32 21 33 22 34
REMARK SMILES IDX 23 36 24 37 25 38 86 39 26 40 85 41 27 42 28 43 29 44 79 45
REMARK SMILES IDX 30 46 84 47 78 48 80 49 31 50 83 51 77 52 76 53 32 55 64 56
REMARK SMILES IDX 44 57 63 58 45 59 48 60 62 61 81 62 46 63 47 64 61 66 82 67
REMARK SMILES IDX 49 68 33 69 34 70 42 71 35 72 36 73 40 74 43 75 37 76 38 77
REMARK SMILES IDX 41 78 39 79 65 80 66 81 74 82 67 83 68 84 72 85 75 86 69 87
REMARK SMILES IDX 70 88 73 89 71 90 50 91 51 92 59 93 52 94 53 95 57 96 60 97
REMARK SMILES IDX 54 98 55 99 58 100 56 101
REMARK H PARENT 14 7 7 20 21 35 80 54 48 65
REMARK Flexibility Score: inf
ROOT
ATOM      1  C   UNL A   1      37.808  22.329  25.751  1.00  0.00     0.002 C 
ENDROOT
BRANCH   1   2
ATOM      2  C   UNL A   1      37.317  23.703  25.291  1.00  0.00     0.021 C 
BRANCH   2   3
ATOM      3  C   UNL A   1      35.880  24.011  25.696  1.00  0.00     0.116 C 
BRANCH   3   4
ATOM      4  N   UNL A   1      34.997  23.987  24.549  1.00  0.00    -0.356 N 
ATOM      5  C   UNL A   1      33.786  24.537  24.291  1.00  0.00     0.224 C 
ATOM      6  O   UNL A   1      33.287  24.247  23.196  1.00  0.00    -0.275 OA
ATOM      7  H   UNL A   1      35.350  23.460  23.797  1.00  0.00     0.163 HD
BRANCH   5   8
ATOM      8  C   UNL A   1      32.983  25.411  25.248  1.00  0.00     0.098 C 
ATOM      9  C   UNL A   1      31.443  25.479  25.130  1.00  0.00     0.099 C 
ATOM     10  C   UNL A   1      31.192  27.014  25.188  1.00  0.00     0.028 C 
ATOM     11  C   UNL A   1      33.452  26.885  25.166  1.00  0.00     0.028 C 
ATOM     12  C   UNL A   1      31.628  27.667  26.521  1.00  0.00     0.009 C 
ATOM     13  C   UNL A   1      32.351  27.521  24.362  1.00  0.00    -0.064 C 
ATOM     14  C   UNL A   1      33.164  27.566  26.509  1.00  0.00     0.009 C 
ATOM     15  C   UNL A   1      32.380  28.368  23.319  1.00  0.00    -0.077 C 
ATOM     16  C   UNL A   1      33.655  28.934  22.751  1.00  0.00     0.039 C 
ATOM     17  C   UNL A   1      31.123  28.855  22.651  1.00  0.00     0.039 C 
BRANCH   9  18
ATOM     18  C   UNL A   1      30.672  24.724  26.215  1.00  0.00     0.228 C 
ATOM     19  N   UNL A   1      31.017  23.472  26.635  1.00  0.00    -0.326 N 
ATOM     20  H   UNL A   1      30.594  23.223  27.488  1.00  0.00     0.169 HD
ATOM     21  O   UNL A   1      29.690  25.228  26.771  1.00  0.00    -0.274 OA
BRANCH  19  22
ATOM     22  C   UNL A   1      31.841  22.461  26.117  1.00  0.00     0.041 A 
ATOM     23  C   UNL A   1      33.647  20.534  25.180  1.00  0.00     0.119 A 
ATOM     24  C   UNL A   1      32.528  20.866  24.426  1.00  0.00     0.048 A 
ATOM     25  C   UNL A   1      33.848  21.115  26.426  1.00  0.00     0.048 A 
ATOM     26  C   UNL A   1      31.611  21.803  24.912  1.00  0.00     0.030 A 
ATOM     27  C   UNL A   1      32.935  22.065  26.899  1.00  0.00     0.030 A 
BRANCH  23  28
ATOM     28  O   UNL A   1      34.585  19.711  24.626  1.00  0.00    -0.497 OA
ATOM     29  C   UNL A   1      34.024  18.440  24.304  1.00  0.00     0.278 C 
ENDBRANCH  23  28
ENDBRANCH  19  22
ENDBRANCH   9  18
ENDBRANCH   5   8
ENDBRANCH   3   4
ENDBRANCH   2   3
ENDBRANCH   1   2
BRANCH   1  30
ATOM     30  C   UNL A   1      37.584  21.197  24.738  1.00  0.00     0.002 C 
BRANCH  30  31
ATOM     31  C   UNL A   1      38.396  19.919  24.974  1.00  0.00     0.021 C 
BRANCH  31  32
ATOM     32  C   UNL A   1      39.279  19.927  26.220  1.00  0.00     0.116 C 
BRANCH  32  33
ATOM     33  N   UNL A   1      40.394  19.003  26.107  1.00  0.00    -0.352 N 
ATOM     34  C   UNL A   1      41.741  19.252  26.055  1.00  0.00     0.251 C 
ATOM     35  H   UNL A   1      40.143  18.052  26.062  1.00  0.00     0.163 HD
ATOM     36  O   UNL A   1      42.522  18.357  25.751  1.00  0.00    -0.269 OA
BRANCH  34  37
ATOM     37  C   UNL A   1      42.261  20.605  26.349  1.00  0.00     0.039 A 
ATOM     38  C   UNL A   1      42.517  21.473  25.285  1.00  0.00     0.014 A 
ATOM     39  C   UNL A   1      42.534  21.004  27.661  1.00  0.00     0.014 A 
ATOM     40  C   UNL A   1      42.995  22.761  25.538  1.00  0.00     0.010 A 
ATOM     41  C   UNL A   1      42.952  22.308  27.917  1.00  0.00     0.010 A 
ATOM     42  C   UNL A   1      43.191  23.199  26.858  1.00  0.00    -0.014 A 
BRANCH  42  43
ATOM     43  C   UNL A   1      43.642  24.582  27.150  1.00  0.00     0.031 A 
ATOM     44  C   UNL A   1      42.666  25.609  27.649  1.00  0.00     0.074 A 
ATOM     45  C   UNL A   1      44.919  24.932  26.898  1.00  0.00     0.049 A 
ATOM     46  N   UNL A   1      42.850  26.885  27.881  1.00  0.00    -0.248 NA
ATOM     47  C   UNL A   1      41.291  25.146  27.896  1.00  0.00     0.031 C 
ATOM     48  C   UNL A   1      45.952  24.038  26.372  1.00  0.00     0.029 A 
ATOM     49  N   UNL A   1      45.562  26.136  27.038  1.00  0.00    -0.354 N 
ATOM     50  C   UNL A   1      41.615  27.378  28.282  1.00  0.00     0.074 A 
ATOM     51  C   UNL A   1      40.679  26.276  28.222  1.00  0.00     0.031 C 
ATOM     52  C   UNL A   1      47.100  24.722  26.242  1.00  0.00     0.029 A 
ATOM     53  C   UNL A   1      46.877  26.108  26.642  1.00  0.00     0.049 A 
ATOM     54  H   UNL A   1      45.122  26.945  27.388  1.00  0.00     0.167 HD
ATOM     55  C   UNL A   1      41.297  28.633  28.682  1.00  0.00     0.037 A 
ATOM     56  C   UNL A   1      47.795  27.091  26.596  1.00  0.00     0.037 A 
ATOM     57  C   UNL A   1      42.238  29.719  28.771  1.00  0.00     0.049 A 
ATOM     58  C   UNL A   1      47.417  28.474  27.051  1.00  0.00     0.074 A 
ATOM     59  C   UNL A   1      42.028  31.005  29.234  1.00  0.00     0.029 A 
ATOM     60  N   UNL A   1      43.568  29.644  28.386  1.00  0.00    -0.354 N 
ATOM     61  N   UNL A   1      46.264  28.913  27.495  1.00  0.00    -0.248 NA
ATOM     62  C   UNL A   1      48.469  29.499  27.001  1.00  0.00     0.031 C 
ATOM     63  C   UNL A   1      43.220  31.724  29.089  1.00  0.00     0.029 A 
ATOM     64  C   UNL A   1      44.186  30.871  28.579  1.00  0.00     0.049 A 
ATOM     65  H   UNL A   1      44.009  28.840  28.029  1.00  0.00     0.167 HD
ATOM     66  C   UNL A   1      46.457  30.252  27.803  1.00  0.00     0.074 A 
ATOM     67  C   UNL A   1      47.843  30.553  27.508  1.00  0.00     0.031 C 
ATOM     68  C   UNL A   1      45.567  31.151  28.286  1.00  0.00     0.037 A 
BRANCH  55  69
ATOM     69  C   UNL A   1      39.870  28.903  29.056  1.00  0.00     0.064 A 
ATOM     70  C   UNL A   1      38.927  29.326  28.107  1.00  0.00     0.173 A 
ATOM     71  C   UNL A   1      39.425  28.690  30.371  1.00  0.00     0.173 A 
ATOM     72  F   UNL A   1      39.302  29.554  26.839  1.00  0.00    -0.203 F 
ATOM     73  C   UNL A   1      37.601  29.553  28.465  1.00  0.00     0.198 A 
ATOM     74  C   UNL A   1      38.092  28.889  30.719  1.00  0.00     0.198 A 
ATOM     75  F   UNL A   1      40.285  28.277  31.315  1.00  0.00    -0.203 F 
ATOM     76  F   UNL A   1      36.728  30.001  27.552  1.00  0.00    -0.200 F 
ATOM     77  C   UNL A   1      37.183  29.327  29.768  1.00  0.00     0.200 A 
ATOM     78  F   UNL A   1      37.688  28.658  31.976  1.00  0.00    -0.200 F 
ATOM     79  F   UNL A   1      35.904  29.537  30.110  1.00  0.00    -0.200 F 
ENDBRANCH  55  69
BRANCH  56  80
ATOM     80  C   UNL A   1      49.170  26.798  26.115  1.00  0.00     0.064 A 
ATOM     81  C   UNL A   1      49.522  26.998  24.773  1.00  0.00     0.173 A 
ATOM     82  C   UNL A   1      50.158  26.310  26.983  1.00  0.00     0.173 A 
ATOM     83  F   UNL A   1      48.605  27.443  23.901  1.00  0.00    -0.203 F 
ATOM     84  C   UNL A   1      50.804  26.705  24.314  1.00  0.00     0.198 A 
ATOM     85  C   UNL A   1      51.446  26.043  26.528  1.00  0.00     0.198 A 
ATOM     86  F   UNL A   1      49.872  26.106  28.278  1.00  0.00    -0.203 F 
ATOM     87  F   UNL A   1      51.101  26.865  23.017  1.00  0.00    -0.200 F 
ATOM     88  C   UNL A   1      51.767  26.233  25.193  1.00  0.00     0.200 A 
ATOM     89  F   UNL A   1      52.379  25.600  27.384  1.00  0.00    -0.200 F 
ATOM     90  F   UNL A   1      53.001  25.955  24.751  1.00  0.00    -0.200 F 
ENDBRANCH  56  80
BRANCH  68  91
ATOM     91  C   UNL A   1      46.069  32.540  28.556  1.00  0.00     0.064 A 
ATOM     92  C   UNL A   1      46.642  32.888  29.788  1.00  0.00     0.173 A 
ATOM     93  C   UNL A   1      46.015  33.521  27.554  1.00  0.00     0.173 A 
ATOM     94  F   UNL A   1      46.701  31.990  30.782  1.00  0.00    -0.203 F 
ATOM     95  C   UNL A   1      47.122  34.175  30.014  1.00  0.00     0.198 A 
ATOM     96  C   UNL A   1      46.522  34.798  27.775  1.00  0.00     0.198 A 
ATOM     97  F   UNL A   1      45.482  33.236  26.356  1.00  0.00    -0.203 F 
ATOM     98  F   UNL A   1      47.626  34.499  31.213  1.00  0.00    -0.200 F 
ATOM     99  C   UNL A   1      47.069  35.126  29.005  1.00  0.00     0.200 A 
ATOM    100  F   UNL A   1      46.481  35.713  26.796  1.00  0.00    -0.200 F 
ATOM    101  F   UNL A   1      47.540  36.362  29.223  1.00  0.00    -0.200 F 
ENDBRANCH  68  91
ENDBRANCH  42  43
ENDBRANCH  34  37
ENDBRANCH  32  33
ENDBRANCH  31  32
ENDBRANCH  30  31
ENDBRANCH   1  30
TORSDOF 16
ENDMDL
