MODEL 1
REMARK VINA RESULT:     -12.9      0.000      0.000
REMARK SMILES O=C(NCCCCCCNC(=O)c1cc2nn[nH]n2n1)c1ccc(-c2c3nc(c(-c4c(F)c(F)c(F)c(F)c4F)c4ccc([nH]4)c(-c4c(F)c(F)c(F)c(F)c4F)c4nc(c(-c5c(F)c(F)c(F)c(F)c5F)c5ccc2[nH]5)C=C4)C=C3)cc1
REMARK SMILES IDX 5 1 4 2 3 3 1 4 2 5 21 7 22 8 83 9 23 10 82 11 24 12 25 13
REMARK SMILES IDX 26 14 76 15 27 16 81 17 75 18 77 19 28 20 80 21 74 22 73 23
REMARK SMILES IDX 29 25 61 26 41 27 60 28 42 29 45 30 59 31 78 32 43 33 44 34
REMARK SMILES IDX 58 36 79 37 46 38 30 39 31 40 39 41 32 42 33 43 37 44 40 45
REMARK SMILES IDX 34 46 35 47 38 48 36 49 62 50 63 51 71 52 64 53 65 54 69 55
REMARK SMILES IDX 72 56 66 57 67 58 70 59 68 60 47 61 48 62 56 63 49 64 50 65
REMARK SMILES IDX 54 66 57 67 51 68 52 69 55 70 53 71 6 72 7 73 8 74 9 75
REMARK SMILES IDX 10 76 11 77 12 79 13 80 14 81 20 82 15 83 19 84 16 85 18 86
REMARK SMILES IDX 17 87
REMARK H PARENT 3 6 77 24 45 35 10 78 18 88
REMARK Flexibility Score: inf
ROOT
ATOM      1  C   UNL A   1      32.186  30.788  26.775  1.00  0.00     0.021 C 
ENDROOT
BRANCH   1   2
ATOM      2  C   UNL A   1      33.643  30.690  27.224  1.00  0.00     0.116 C 
BRANCH   2   3
ATOM      3  N   UNL A   1      33.980  31.589  28.308  1.00  0.00    -0.352 N 
ATOM      4  O   UNL A   1      35.004  32.807  29.829  1.00  0.00    -0.269 OA
ATOM      5  C   UNL A   1      35.091  31.846  29.058  1.00  0.00     0.251 C 
ATOM      6  H   UNL A   1      33.219  32.157  28.568  1.00  0.00     0.163 HD
BRANCH   5   7
ATOM      7  C   UNL A   1      36.351  31.050  29.068  1.00  0.00     0.039 A 
ATOM      8  C   UNL A   1      36.463  29.668  28.909  1.00  0.00     0.014 A 
ATOM      9  C   UNL A   1      37.532  31.792  29.281  1.00  0.00     0.014 A 
ATOM     10  C   UNL A   1      37.708  29.044  29.032  1.00  0.00     0.010 A 
ATOM     11  C   UNL A   1      38.774  31.176  29.398  1.00  0.00     0.010 A 
ATOM     12  C   UNL A   1      38.860  29.793  29.309  1.00  0.00    -0.014 A 
BRANCH  12  13
ATOM     13  C   UNL A   1      40.156  29.111  29.347  1.00  0.00     0.031 A 
ATOM     14  C   UNL A   1      40.698  28.886  30.722  1.00  0.00     0.074 A 
ATOM     15  C   UNL A   1      40.778  28.583  28.270  1.00  0.00     0.049 A 
ATOM     16  N   UNL A   1      41.806  29.323  31.227  1.00  0.00    -0.248 NA
ATOM     17  C   UNL A   1      39.854  28.156  31.682  1.00  0.00     0.031 C 
ATOM     18  C   UNL A   1      40.274  28.440  26.903  1.00  0.00     0.029 A 
ATOM     19  N   UNL A   1      42.001  27.979  28.202  1.00  0.00    -0.354 N 
ATOM     20  C   UNL A   1      41.877  28.806  32.521  1.00  0.00     0.074 A 
ATOM     21  C   UNL A   1      40.603  28.190  32.785  1.00  0.00     0.031 C 
ATOM     22  C   UNL A   1      41.086  27.613  26.204  1.00  0.00     0.029 A 
ATOM     23  C   UNL A   1      42.242  27.284  27.022  1.00  0.00     0.049 A 
ATOM     24  H   UNL A   1      42.661  28.031  28.931  1.00  0.00     0.167 HD
ATOM     25  C   UNL A   1      43.049  28.771  33.217  1.00  0.00     0.037 A 
ATOM     26  C   UNL A   1      43.297  26.470  26.753  1.00  0.00     0.037 A 
ATOM     27  C   UNL A   1      44.009  29.693  32.675  1.00  0.00     0.049 A 
ATOM     28  C   UNL A   1      44.379  26.811  27.706  1.00  0.00     0.074 A 
ATOM     29  C   UNL A   1      44.055  31.065  32.528  1.00  0.00     0.029 A 
ATOM     30  N   UNL A   1      44.993  29.204  31.853  1.00  0.00    -0.354 N 
ATOM     31  N   UNL A   1      45.038  27.934  27.689  1.00  0.00    -0.248 NA
ATOM     32  C   UNL A   1      44.423  26.072  28.959  1.00  0.00     0.031 C 
ATOM     33  C   UNL A   1      44.683  31.277  31.264  1.00  0.00     0.029 A 
ATOM     34  C   UNL A   1      45.040  30.027  30.758  1.00  0.00     0.049 A 
ATOM     35  H   UNL A   1      45.556  28.414  32.018  1.00  0.00     0.167 HD
ATOM     36  C   UNL A   1      45.200  28.260  29.025  1.00  0.00     0.074 A 
ATOM     37  C   UNL A   1      44.871  27.041  29.760  1.00  0.00     0.031 C 
ATOM     38  C   UNL A   1      45.315  29.559  29.422  1.00  0.00     0.037 A 
BRANCH  25  39
ATOM     39  C   UNL A   1      43.440  27.677  34.178  1.00  0.00     0.064 A 
ATOM     40  C   UNL A   1      43.650  26.368  33.698  1.00  0.00     0.173 A 
ATOM     41  C   UNL A   1      43.317  27.796  35.579  1.00  0.00     0.173 A 
ATOM     42  F   UNL A   1      43.759  26.132  32.382  1.00  0.00    -0.203 F 
ATOM     43  C   UNL A   1      43.657  25.259  34.550  1.00  0.00     0.198 A 
ATOM     44  C   UNL A   1      43.375  26.694  36.431  1.00  0.00     0.198 A 
ATOM     45  F   UNL A   1      43.023  28.962  36.168  1.00  0.00    -0.203 F 
ATOM     46  F   UNL A   1      43.735  24.024  34.035  1.00  0.00    -0.200 F 
ATOM     47  C   UNL A   1      43.513  25.422  35.914  1.00  0.00     0.200 A 
ATOM     48  F   UNL A   1      43.213  26.871  37.749  1.00  0.00    -0.200 F 
ATOM     49  F   UNL A   1      43.456  24.358  36.726  1.00  0.00    -0.200 F 
ENDBRANCH  25  39
BRANCH  26  50
ATOM     50  C   UNL A   1      43.335  25.215  25.962  1.00  0.00     0.064 A 
ATOM     51  C   UNL A   1      44.409  24.921  25.104  1.00  0.00     0.173 A 
ATOM     52  C   UNL A   1      42.472  24.145  26.271  1.00  0.00     0.173 A 
ATOM     53  F   UNL A   1      45.309  25.867  24.799  1.00  0.00    -0.203 F 
ATOM     54  C   UNL A   1      44.622  23.629  24.608  1.00  0.00     0.198 A 
ATOM     55  C   UNL A   1      42.685  22.858  25.775  1.00  0.00     0.198 A 
ATOM     56  F   UNL A   1      41.469  24.309  27.144  1.00  0.00    -0.203 F 
ATOM     57  F   UNL A   1      45.695  23.371  23.846  1.00  0.00    -0.200 F 
ATOM     58  C   UNL A   1      43.767  22.596  24.954  1.00  0.00     0.200 A 
ATOM     59  F   UNL A   1      41.875  21.859  26.151  1.00  0.00    -0.200 F 
ATOM     60  F   UNL A   1      44.007  21.345  24.536  1.00  0.00    -0.200 F 
ENDBRANCH  26  50
BRANCH  38  61
ATOM     61  C   UNL A   1      45.507  30.605  28.362  1.00  0.00     0.064 A 
ATOM     62  C   UNL A   1      44.456  31.213  27.651  1.00  0.00     0.173 A 
ATOM     63  C   UNL A   1      46.795  31.120  28.168  1.00  0.00     0.173 A 
ATOM     64  F   UNL A   1      43.184  30.847  27.851  1.00  0.00    -0.203 F 
ATOM     65  C   UNL A   1      44.695  32.260  26.762  1.00  0.00     0.198 A 
ATOM     66  C   UNL A   1      47.026  32.190  27.308  1.00  0.00     0.198 A 
ATOM     67  F   UNL A   1      47.831  30.617  28.859  1.00  0.00    -0.203 F 
ATOM     68  F   UNL A   1      43.675  32.820  26.092  1.00  0.00    -0.200 F 
ATOM     69  C   UNL A   1      45.977  32.754  26.599  1.00  0.00     0.200 A 
ATOM     70  F   UNL A   1      48.261  32.697  27.194  1.00  0.00    -0.200 F 
ATOM     71  F   UNL A   1      46.201  33.793  25.782  1.00  0.00    -0.200 F 
ENDBRANCH  38  61
ENDBRANCH  12  13
ENDBRANCH   5   7
ENDBRANCH   2   3
ENDBRANCH   1   2
BRANCH   1  72
ATOM     72  C   UNL A   1      31.801  29.860  25.613  1.00  0.00     0.002 C 
BRANCH  72  73
ATOM     73  C   UNL A   1      32.952  29.390  24.713  1.00  0.00     0.002 C 
BRANCH  73  74
ATOM     74  C   UNL A   1      32.579  28.367  23.634  1.00  0.00     0.021 C 
BRANCH  74  75
ATOM     75  C   UNL A   1      31.448  28.794  22.698  1.00  0.00     0.116 C 
BRANCH  75  76
ATOM     76  N   UNL A   1      30.227  28.047  22.942  1.00  0.00    -0.351 N 
ATOM     77  C   UNL A   1      28.924  28.486  22.927  1.00  0.00     0.271 C 
ATOM     78  H   UNL A   1      30.349  27.091  23.146  1.00  0.00     0.163 HD
ATOM     79  O   UNL A   1      28.041  27.728  23.341  1.00  0.00    -0.267 OA
BRANCH  77  80
ATOM     80  C   UNL A   1      28.635  29.825  22.403  1.00  0.00     0.154 A 
ATOM     81  C   UNL A   1      28.666  31.070  23.135  1.00  0.00     0.089 A 
ATOM     82  N   UNL A   1      28.290  30.025  21.104  1.00  0.00    -0.143 NA
ATOM     83  C   UNL A   1      28.276  31.999  22.215  1.00  0.00     0.199 A 
ATOM     84  N   UNL A   1      28.118  31.331  21.071  1.00  0.00    -0.135 N 
ATOM     85  N   UNL A   1      27.983  33.304  22.014  1.00  0.00    -0.109 NA
ATOM     86  N   UNL A   1      27.671  32.202  20.188  1.00  0.00    -0.177 N 
ATOM     87  N   UNL A   1      27.658  33.450  20.783  1.00  0.00    -0.050 NA
ATOM     88  H   UNL A   1      27.394  31.999  19.265  1.00  0.00     0.216 HD
ENDBRANCH  77  80
ENDBRANCH  75  76
ENDBRANCH  74  75
ENDBRANCH  73  74
ENDBRANCH  72  73
ENDBRANCH   1  72
TORSDOF 13
ENDMDL
MODEL 2
REMARK VINA RESULT:     -12.8      5.409     10.371
REMARK SMILES O=C(NCCCCCCNC(=O)c1cc2nn[nH]n2n1)c1ccc(-c2c3nc(c(-c4c(F)c(F)c(F)c(F)c4F)c4ccc([nH]4)c(-c4c(F)c(F)c(F)c(F)c4F)c4nc(c(-c5c(F)c(F)c(F)c(F)c5F)c5ccc2[nH]5)C=C4)C=C3)cc1
REMARK SMILES IDX 5 1 4 2 3 3 1 4 2 5 21 7 22 8 83 9 23 10 82 11 24 12 25 13
REMARK SMILES IDX 26 14 76 15 27 16 81 17 75 18 77 19 28 20 80 21 74 22 73 23
REMARK SMILES IDX 29 25 61 26 41 27 60 28 42 29 45 30 59 31 78 32 43 33 44 34
REMARK SMILES IDX 58 36 79 37 46 38 30 39 31 40 39 41 32 42 33 43 37 44 40 45
REMARK SMILES IDX 34 46 35 47 38 48 36 49 62 50 63 51 71 52 64 53 65 54 69 55
REMARK SMILES IDX 72 56 66 57 67 58 70 59 68 60 47 61 48 62 56 63 49 64 50 65
REMARK SMILES IDX 54 66 57 67 51 68 52 69 55 70 53 71 6 72 7 73 8 74 9 75
REMARK SMILES IDX 10 76 11 77 12 79 13 80 14 81 20 82 15 83 19 84 16 85 18 86
REMARK SMILES IDX 17 87
REMARK H PARENT 3 6 77 24 45 35 10 78 18 88
REMARK Flexibility Score: inf
ROOT
ATOM      1  C   UNL A   1      38.357  22.194  25.708  1.00  0.00     0.021 C 
ENDROOT
BRANCH   1   2
ATOM      2  C   UNL A   1      39.576  21.724  26.502  1.00  0.00     0.116 C 
BRANCH   2   3
ATOM      3  N   UNL A   1      40.834  21.939  25.817  1.00  0.00    -0.352 N 
ATOM      4  O   UNL A   1      42.826  22.626  25.180  1.00  0.00    -0.269 OA
ATOM      5  C   UNL A   1      41.827  22.875  25.863  1.00  0.00     0.251 C 
ATOM      6  H   UNL A   1      41.019  21.236  25.153  1.00  0.00     0.163 HD
BRANCH   5   7
ATOM      7  C   UNL A   1      41.786  24.167  26.604  1.00  0.00     0.039 A 
ATOM      8  C   UNL A   1      42.415  24.451  27.817  1.00  0.00     0.014 A 
ATOM      9  C   UNL A   1      41.008  25.181  26.005  1.00  0.00     0.014 A 
ATOM     10  C   UNL A   1      42.213  25.684  28.443  1.00  0.00     0.010 A 
ATOM     11  C   UNL A   1      40.809  26.412  26.622  1.00  0.00     0.010 A 
ATOM     12  C   UNL A   1      41.383  26.654  27.863  1.00  0.00    -0.014 A 
BRANCH  12  13
ATOM     13  C   UNL A   1      41.264  27.963  28.510  1.00  0.00     0.031 A 
ATOM     14  C   UNL A   1      42.376  28.912  28.197  1.00  0.00     0.074 A 
ATOM     15  C   UNL A   1      40.190  28.375  29.218  1.00  0.00     0.049 A 
ATOM     16  N   UNL A   1      43.209  29.467  29.017  1.00  0.00    -0.248 NA
ATOM     17  C   UNL A   1      42.648  29.208  26.781  1.00  0.00     0.031 C 
ATOM     18  C   UNL A   1      38.895  27.712  29.384  1.00  0.00     0.029 A 
ATOM     19  N   UNL A   1      40.012  29.549  29.894  1.00  0.00    -0.354 N 
ATOM     20  C   UNL A   1      44.021  30.298  28.245  1.00  0.00     0.074 A 
ATOM     21  C   UNL A   1      43.705  30.017  26.869  1.00  0.00     0.031 C 
ATOM     22  C   UNL A   1      38.008  28.579  29.926  1.00  0.00     0.029 A 
ATOM     23  C   UNL A   1      38.702  29.805  30.281  1.00  0.00     0.049 A 
ATOM     24  H   UNL A   1      40.754  30.167  30.092  1.00  0.00     0.167 HD
ATOM     25  C   UNL A   1      44.773  31.289  28.805  1.00  0.00     0.037 A 
ATOM     26  C   UNL A   1      38.218  30.955  30.821  1.00  0.00     0.037 A 
ATOM     27  C   UNL A   1      44.970  31.066  30.212  1.00  0.00     0.049 A 
ATOM     28  C   UNL A   1      39.368  31.708  31.374  1.00  0.00     0.074 A 
ATOM     29  C   UNL A   1      45.584  30.081  30.958  1.00  0.00     0.029 A 
ATOM     30  N   UNL A   1      44.187  31.762  31.099  1.00  0.00    -0.354 N 
ATOM     31  N   UNL A   1      40.059  31.326  32.410  1.00  0.00    -0.248 NA
ATOM     32  C   UNL A   1      40.025  32.665  30.496  1.00  0.00     0.031 C 
ATOM     33  C   UNL A   1      44.749  29.914  32.102  1.00  0.00     0.029 A 
ATOM     34  C   UNL A   1      43.723  30.854  32.014  1.00  0.00     0.049 A 
ATOM     35  H   UNL A   1      43.997  32.727  31.081  1.00  0.00     0.167 HD
ATOM     36  C   UNL A   1      41.369  31.635  32.085  1.00  0.00     0.074 A 
ATOM     37  C   UNL A   1      41.279  32.527  30.931  1.00  0.00     0.031 C 
ATOM     38  C   UNL A   1      42.409  30.921  32.604  1.00  0.00     0.037 A 
BRANCH  25  39
ATOM     39  C   UNL A   1      45.055  32.620  28.156  1.00  0.00     0.064 A 
ATOM     40  C   UNL A   1      44.009  33.552  27.993  1.00  0.00     0.173 A 
ATOM     41  C   UNL A   1      46.227  32.889  27.418  1.00  0.00     0.173 A 
ATOM     42  F   UNL A   1      42.839  33.386  28.628  1.00  0.00    -0.203 F 
ATOM     43  C   UNL A   1      44.106  34.625  27.101  1.00  0.00     0.198 A 
ATOM     44  C   UNL A   1      46.339  33.988  26.567  1.00  0.00     0.198 A 
ATOM     45  F   UNL A   1      47.264  32.043  27.402  1.00  0.00    -0.203 F 
ATOM     46  F   UNL A   1      43.042  35.411  26.887  1.00  0.00    -0.200 F 
ATOM     47  C   UNL A   1      45.268  34.838  26.384  1.00  0.00     0.200 A 
ATOM     48  F   UNL A   1      47.466  34.166  25.865  1.00  0.00    -0.200 F 
ATOM     49  F   UNL A   1      45.341  35.827  25.483  1.00  0.00    -0.200 F 
ENDBRANCH  25  39
BRANCH  26  50
ATOM     50  C   UNL A   1      36.900  31.605  30.616  1.00  0.00     0.064 A 
ATOM     51  C   UNL A   1      36.015  31.822  31.686  1.00  0.00     0.173 A 
ATOM     52  C   UNL A   1      36.621  32.303  29.424  1.00  0.00     0.173 A 
ATOM     53  F   UNL A   1      36.235  31.239  32.873  1.00  0.00    -0.203 F 
ATOM     54  C   UNL A   1      34.932  32.704  31.579  1.00  0.00     0.198 A 
ATOM     55  C   UNL A   1      35.541  33.180  29.318  1.00  0.00     0.198 A 
ATOM     56  F   UNL A   1      37.454  32.224  28.377  1.00  0.00    -0.203 F 
ATOM     57  F   UNL A   1      34.147  32.936  32.641  1.00  0.00    -0.200 F 
ATOM     58  C   UNL A   1      34.704  33.392  30.399  1.00  0.00     0.200 A 
ATOM     59  F   UNL A   1      35.357  33.873  28.185  1.00  0.00    -0.200 F 
ATOM     60  F   UNL A   1      33.710  34.287  30.315  1.00  0.00    -0.200 F 
ENDBRANCH  26  50
BRANCH  38  61
ATOM     61  C   UNL A   1      42.114  29.958  33.719  1.00  0.00     0.064 A 
ATOM     62  C   UNL A   1      41.700  28.628  33.526  1.00  0.00     0.173 A 
ATOM     63  C   UNL A   1      42.411  30.355  35.029  1.00  0.00     0.173 A 
ATOM     64  F   UNL A   1      41.491  28.140  32.297  1.00  0.00    -0.203 F 
ATOM     65  C   UNL A   1      41.557  27.752  34.601  1.00  0.00     0.198 A 
ATOM     66  C   UNL A   1      42.303  29.469  36.097  1.00  0.00     0.198 A 
ATOM     67  F   UNL A   1      42.863  31.597  35.269  1.00  0.00    -0.203 F 
ATOM     68  F   UNL A   1      41.156  26.489  34.391  1.00  0.00    -0.200 F 
ATOM     69  C   UNL A   1      41.867  28.171  35.884  1.00  0.00     0.200 A 
ATOM     70  F   UNL A   1      42.654  29.864  37.328  1.00  0.00    -0.200 F 
ATOM     71  F   UNL A   1      41.776  27.315  36.912  1.00  0.00    -0.200 F 
ENDBRANCH  38  61
ENDBRANCH  12  13
ENDBRANCH   5   7
ENDBRANCH   2   3
ENDBRANCH   1   2
BRANCH   1  72
ATOM     72  C   UNL A   1      37.778  21.157  24.735  1.00  0.00     0.002 C 
BRANCH  72  73
ATOM     73  C   UNL A   1      36.388  20.607  25.078  1.00  0.00     0.002 C 
BRANCH  73  74
ATOM     74  C   UNL A   1      35.430  21.592  25.758  1.00  0.00     0.021 C 
BRANCH  74  75
ATOM     75  C   UNL A   1      34.032  21.044  26.044  1.00  0.00     0.116 C 
BRANCH  75  76
ATOM     76  N   UNL A   1      33.161  21.136  24.885  1.00  0.00    -0.351 N 
ATOM     77  C   UNL A   1      32.749  20.143  24.029  1.00  0.00     0.271 C 
ATOM     78  H   UNL A   1      32.817  22.038  24.685  1.00  0.00     0.163 HD
ATOM     79  O   UNL A   1      32.153  20.464  22.995  1.00  0.00    -0.267 OA
BRANCH  77  80
ATOM     80  C   UNL A   1      33.015  18.746  24.386  1.00  0.00     0.154 A 
ATOM     81  C   UNL A   1      34.163  17.956  24.006  1.00  0.00     0.089 A 
ATOM     82  N   UNL A   1      32.153  18.027  25.151  1.00  0.00    -0.143 NA
ATOM     83  C   UNL A   1      33.907  16.729  24.545  1.00  0.00     0.199 A 
ATOM     84  N   UNL A   1      32.761  16.859  25.215  1.00  0.00    -0.135 N 
ATOM     85  N   UNL A   1      34.345  15.453  24.654  1.00  0.00    -0.109 NA
ATOM     86  N   UNL A   1      32.461  15.664  25.682  1.00  0.00    -0.177 N 
ATOM     87  N   UNL A   1      33.504  14.808  25.376  1.00  0.00    -0.050 NA
ATOM     88  H   UNL A   1      31.638  15.421  26.164  1.00  0.00     0.216 HD
ENDBRANCH  77  80
ENDBRANCH  75  76
ENDBRANCH  74  75
ENDBRANCH  73  74
ENDBRANCH  72  73
ENDBRANCH   1  72
TORSDOF 13
ENDMDL
MODEL 3
REMARK VINA RESULT:     -12.8      5.438     10.349
REMARK SMILES O=C(NCCCCCCNC(=O)c1cc2nn[nH]n2n1)c1ccc(-c2c3nc(c(-c4c(F)c(F)c(F)c(F)c4F)c4ccc([nH]4)c(-c4c(F)c(F)c(F)c(F)c4F)c4nc(c(-c5c(F)c(F)c(F)c(F)c5F)c5ccc2[nH]5)C=C4)C=C3)cc1
REMARK SMILES IDX 5 1 4 2 3 3 1 4 2 5 21 7 22 8 83 9 23 10 82 11 24 12 25 13
REMARK SMILES IDX 26 14 76 15 27 16 81 17 75 18 77 19 28 20 80 21 74 22 73 23
REMARK SMILES IDX 29 25 61 26 41 27 60 28 42 29 45 30 59 31 78 32 43 33 44 34
REMARK SMILES IDX 58 36 79 37 46 38 30 39 31 40 39 41 32 42 33 43 37 44 40 45
REMARK SMILES IDX 34 46 35 47 38 48 36 49 62 50 63 51 71 52 64 53 65 54 69 55
REMARK SMILES IDX 72 56 66 57 67 58 70 59 68 60 47 61 48 62 56 63 49 64 50 65
REMARK SMILES IDX 54 66 57 67 51 68 52 69 55 70 53 71 6 72 7 73 8 74 9 75
REMARK SMILES IDX 10 76 11 77 12 79 13 80 14 81 20 82 15 83 19 84 16 85 18 86
REMARK SMILES IDX 17 87
REMARK H PARENT 3 6 77 24 45 35 10 78 18 88
REMARK Flexibility Score: inf
ROOT
ATOM      1  C   UNL A   1      37.815  21.325  24.864  1.00  0.00     0.021 C 
ENDROOT
BRANCH   1   2
ATOM      2  C   UNL A   1      38.524  21.817  26.125  1.00  0.00     0.116 C 
BRANCH   2   3
ATOM      3  N   UNL A   1      39.968  21.808  26.023  1.00  0.00    -0.352 N 
ATOM      4  O   UNL A   1      42.123  22.208  26.222  1.00  0.00    -0.269 OA
ATOM      5  C   UNL A   1      40.981  22.650  26.381  1.00  0.00     0.251 C 
ATOM      6  H   UNL A   1      40.303  20.992  25.586  1.00  0.00     0.163 HD
BRANCH   5   7
ATOM      7  C   UNL A   1      40.830  24.046  26.881  1.00  0.00     0.039 A 
ATOM      8  C   UNL A   1      39.992  25.031  26.358  1.00  0.00     0.014 A 
ATOM      9  C   UNL A   1      41.645  24.383  27.982  1.00  0.00     0.014 A 
ATOM     10  C   UNL A   1      40.022  26.329  26.876  1.00  0.00     0.010 A 
ATOM     11  C   UNL A   1      41.675  25.672  28.505  1.00  0.00     0.010 A 
ATOM     12  C   UNL A   1      40.888  26.660  27.928  1.00  0.00    -0.014 A 
BRANCH  12  13
ATOM     13  C   UNL A   1      40.828  28.008  28.497  1.00  0.00     0.031 A 
ATOM     14  C   UNL A   1      41.923  28.920  28.044  1.00  0.00     0.074 A 
ATOM     15  C   UNL A   1      39.813  28.480  29.254  1.00  0.00     0.049 A 
ATOM     16  N   UNL A   1      42.820  29.514  28.764  1.00  0.00    -0.248 NA
ATOM     17  C   UNL A   1      42.093  29.123  26.596  1.00  0.00     0.031 C 
ATOM     18  C   UNL A   1      38.528  27.845  29.555  1.00  0.00     0.029 A 
ATOM     19  N   UNL A   1      39.696  29.696  29.864  1.00  0.00    -0.354 N 
ATOM     20  C   UNL A   1      43.581  30.284  27.884  1.00  0.00     0.074 A 
ATOM     21  C   UNL A   1      43.162  29.921  26.556  1.00  0.00     0.031 C 
ATOM     22  C   UNL A   1      37.691  28.757  30.104  1.00  0.00     0.029 A 
ATOM     23  C   UNL A   1      38.420  29.994  30.329  1.00  0.00     0.049 A 
ATOM     24  H   UNL A   1      40.456  30.314  29.968  1.00  0.00     0.167 HD
ATOM     25  C   UNL A   1      44.380  31.297  28.323  1.00  0.00     0.037 A 
ATOM     26  C   UNL A   1      37.988  31.182  30.827  1.00  0.00     0.037 A 
ATOM     27  C   UNL A   1      44.678  31.162  29.723  1.00  0.00     0.049 A 
ATOM     28  C   UNL A   1      39.183  31.953  31.246  1.00  0.00     0.074 A 
ATOM     29  C   UNL A   1      45.336  30.217  30.484  1.00  0.00     0.029 A 
ATOM     30  N   UNL A   1      43.969  31.923  30.619  1.00  0.00    -0.354 N 
ATOM     31  N   UNL A   1      39.944  31.626  32.251  1.00  0.00    -0.248 NA
ATOM     32  C   UNL A   1      39.781  32.843  30.264  1.00  0.00     0.031 C 
ATOM     33  C   UNL A   1      44.585  30.134  31.695  1.00  0.00     0.029 A 
ATOM     34  C   UNL A   1      43.565  31.081  31.621  1.00  0.00     0.049 A 
ATOM     35  H   UNL A   1      43.787  32.887  30.553  1.00  0.00     0.167 HD
ATOM     36  C   UNL A   1      41.230  31.896  31.813  1.00  0.00     0.074 A 
ATOM     37  C   UNL A   1      41.063  32.715  30.614  1.00  0.00     0.031 C 
ATOM     38  C   UNL A   1      42.298  31.203  32.300  1.00  0.00     0.037 A 
BRANCH  25  39
ATOM     39  C   UNL A   1      44.626  32.581  27.571  1.00  0.00     0.064 A 
ATOM     40  C   UNL A   1      45.806  32.731  26.815  1.00  0.00     0.173 A 
ATOM     41  C   UNL A   1      43.905  33.771  27.812  1.00  0.00     0.173 A 
ATOM     42  F   UNL A   1      46.584  31.672  26.543  1.00  0.00    -0.203 F 
ATOM     43  C   UNL A   1      46.265  33.985  26.400  1.00  0.00     0.198 A 
ATOM     44  C   UNL A   1      44.339  35.013  27.354  1.00  0.00     0.198 A 
ATOM     45  F   UNL A   1      42.818  33.794  28.593  1.00  0.00    -0.203 F 
ATOM     46  F   UNL A   1      47.455  34.091  25.792  1.00  0.00    -0.200 F 
ATOM     47  C   UNL A   1      45.535  35.126  26.675  1.00  0.00     0.200 A 
ATOM     48  F   UNL A   1      43.628  36.110  27.650  1.00  0.00    -0.200 F 
ATOM     49  F   UNL A   1      46.003  36.334  26.335  1.00  0.00    -0.200 F 
ENDBRANCH  25  39
BRANCH  26  50
ATOM     50  C   UNL A   1      36.664  31.836  30.677  1.00  0.00     0.064 A 
ATOM     51  C   UNL A   1      35.857  32.121  31.792  1.00  0.00     0.173 A 
ATOM     52  C   UNL A   1      36.311  32.472  29.472  1.00  0.00     0.173 A 
ATOM     53  F   UNL A   1      36.152  31.599  32.991  1.00  0.00    -0.203 F 
ATOM     54  C   UNL A   1      34.777  33.009  31.711  1.00  0.00     0.198 A 
ATOM     55  C   UNL A   1      35.233  33.356  29.392  1.00  0.00     0.198 A 
ATOM     56  F   UNL A   1      37.069  32.328  28.376  1.00  0.00    -0.203 F 
ATOM     57  F   UNL A   1      34.068  33.306  32.811  1.00  0.00    -0.200 F 
ATOM     58  C   UNL A   1      34.474  33.635  30.514  1.00  0.00     0.200 A 
ATOM     59  F   UNL A   1      34.977  33.989  28.238  1.00  0.00    -0.200 F 
ATOM     60  F   UNL A   1      33.484  34.536  30.450  1.00  0.00    -0.200 F 
ENDBRANCH  26  50
BRANCH  38  61
ATOM     61  C   UNL A   1      42.077  30.316  33.492  1.00  0.00     0.064 A 
ATOM     62  C   UNL A   1      41.647  28.979  33.415  1.00  0.00     0.173 A 
ATOM     63  C   UNL A   1      42.465  30.795  34.751  1.00  0.00     0.173 A 
ATOM     64  F   UNL A   1      41.352  28.415  32.237  1.00  0.00    -0.203 F 
ATOM     65  C   UNL A   1      41.574  28.176  34.552  1.00  0.00     0.198 A 
ATOM     66  C   UNL A   1      42.426  29.980  35.879  1.00  0.00     0.198 A 
ATOM     67  F   UNL A   1      42.935  32.046  34.878  1.00  0.00    -0.203 F 
ATOM     68  F   UNL A   1      41.155  26.905  34.452  1.00  0.00    -0.200 F 
ATOM     69  C   UNL A   1      41.973  28.674  35.780  1.00  0.00     0.200 A 
ATOM     70  F   UNL A   1      42.862  30.451  37.055  1.00  0.00    -0.200 F 
ATOM     71  F   UNL A   1      41.950  27.887  36.866  1.00  0.00    -0.200 F 
ENDBRANCH  38  61
ENDBRANCH  12  13
ENDBRANCH   5   7
ENDBRANCH   2   3
ENDBRANCH   1   2
BRANCH   1  72
ATOM     72  C   UNL A   1      36.293  21.167  24.995  1.00  0.00     0.002 C 
BRANCH  72  73
ATOM     73  C   UNL A   1      35.526  22.393  25.507  1.00  0.00     0.002 C 
BRANCH  73  74
ATOM     74  C   UNL A   1      34.515  22.128  26.627  1.00  0.00     0.021 C 
BRANCH  74  75
ATOM     75  C   UNL A   1      33.613  20.912  26.413  1.00  0.00     0.116 C 
BRANCH  75  76
ATOM     76  N   UNL A   1      32.873  20.993  25.165  1.00  0.00    -0.351 N 
ATOM     77  C   UNL A   1      32.660  20.020  24.218  1.00  0.00     0.271 C 
ATOM     78  H   UNL A   1      32.466  21.869  24.971  1.00  0.00     0.163 HD
ATOM     79  O   UNL A   1      32.156  20.347  23.139  1.00  0.00    -0.267 OA
BRANCH  77  80
ATOM     80  C   UNL A   1      33.023  18.634  24.534  1.00  0.00     0.154 A 
ATOM     81  C   UNL A   1      34.281  17.981  24.258  1.00  0.00     0.089 A 
ATOM     82  N   UNL A   1      32.154  17.791  25.149  1.00  0.00    -0.143 NA
ATOM     83  C   UNL A   1      34.088  16.704  24.698  1.00  0.00     0.199 A 
ATOM     84  N   UNL A   1      32.864  16.684  25.229  1.00  0.00    -0.135 N 
ATOM     85  N   UNL A   1      34.636  15.471  24.796  1.00  0.00    -0.109 NA
ATOM     86  N   UNL A   1      32.634  15.439  25.594  1.00  0.00    -0.177 N 
ATOM     87  N   UNL A   1      33.786  14.706  25.375  1.00  0.00    -0.050 NA
ATOM     88  H   UNL A   1      31.789  15.091  25.958  1.00  0.00     0.216 HD
ENDBRANCH  77  80
ENDBRANCH  75  76
ENDBRANCH  74  75
ENDBRANCH  73  74
ENDBRANCH  72  73
ENDBRANCH   1  72
TORSDOF 13
ENDMDL
