MODEL 1
REMARK VINA RESULT:     -12.1      0.000      0.000
REMARK SMILES Cc1cc(Br)cc2c1O[C@H](C(F)(F)F)C(C(=O)NCCCCCCNC(=O)c1ccc(-c3c4nc(c(-c5c(F)c(F)c(F)c(F)c5F)c5ccc([nH]5)c(-c5c(F)c(F)c(F)c(F)c5F)c5nc(c(-c6c(F)c(F)c(F)c(F)c6F)c6ccc3[nH]6)C=C5)C=C4)cc1)=C2
REMARK SMILES IDX 22 1 21 2 20 3 19 4 18 5 16 6 17 7 15 9 1 10 2 11 3 12 8 13
REMARK SMILES IDX 4 14 7 15 9 16 5 17 6 18 91 19 10 20 11 21 12 22 13 23 14 24
REMARK SMILES IDX 23 25 24 26 25 27 26 28 27 30 28 31 29 32 90 33 30 34 89 35
REMARK SMILES IDX 31 36 32 37 33 38 83 39 34 40 88 41 82 42 84 43 35 44 87 45
REMARK SMILES IDX 81 46 80 47 36 49 68 50 48 51 67 52 49 53 52 54 66 55 85 56
REMARK SMILES IDX 50 57 51 58 65 60 86 61 53 62 37 63 38 64 46 65 39 66 40 67
REMARK SMILES IDX 44 68 47 69 41 70 42 71 45 72 43 73 69 74 70 75 78 76 71 77
REMARK SMILES IDX 72 78 76 79 79 80 73 81 74 82 77 83 75 84 54 85 55 86 63 87
REMARK SMILES IDX 56 88 57 89 61 90 64 91 58 92 59 93 62 94 60 95
REMARK H PARENT 18 8 25 29 84 48 52 59
REMARK Flexibility Score: inf
ROOT
ATOM      1  C   UNL A   1      35.057  22.837  26.197  1.00  0.00     0.002 C 
ENDROOT
BRANCH   1   2
ATOM      2  C   UNL A   1      34.607  21.898  25.070  1.00  0.00     0.002 C 
BRANCH   2   3
ATOM      3  C   UNL A   1      33.532  20.883  25.469  1.00  0.00     0.021 C 
BRANCH   3   4
ATOM      4  C   UNL A   1      32.138  21.258  24.982  1.00  0.00     0.116 C 
BRANCH   4   5
ATOM      5  N   UNL A   1      31.377  21.951  26.006  1.00  0.00    -0.352 N 
ATOM      6  C   UNL A   1      31.147  23.234  26.374  1.00  0.00     0.251 C 
ATOM      7  O   UNL A   1      30.371  23.381  27.323  1.00  0.00    -0.270 OA
ATOM      8  H   UNL A   1      30.898  21.319  26.590  1.00  0.00     0.163 HD
BRANCH   6   9
ATOM      9  C   UNL A   1      31.758  24.434  25.727  1.00  0.00     0.067 C 
ATOM     10  C   UNL A   1      34.120  27.763  22.615  1.00  0.00     0.048 C 
ATOM     11  C   UNL A   1      33.756  27.747  24.073  1.00  0.00    -0.007 A 
ATOM     12  C   UNL A   1      34.014  28.861  24.880  1.00  0.00     0.023 A 
ATOM     13  C   UNL A   1      33.104  26.644  24.639  1.00  0.00     0.130 A 
ATOM     14  C   UNL A   1      33.653  28.846  26.228  1.00  0.00     0.019 A 
ATOM     15  C   UNL A   1      32.752  26.620  25.992  1.00  0.00     0.019 A 
ATOM     16  O   UNL A   1      32.878  25.586  23.810  1.00  0.00    -0.475 OA
ATOM     17  Br  UNL A   1      34.023  30.355  27.306  1.00  0.00    -0.051 Br
ATOM     18  C   UNL A   1      33.031  27.732  26.791  1.00  0.00     0.027 A 
ATOM     19  C   UNL A   1      32.144  25.421  26.556  1.00  0.00     0.025 C 
ATOM     20  C   UNL A   1      31.926  24.587  24.245  1.00  0.00     0.314 C 
BRANCH  20  21
ATOM     21  C   UNL A   1      30.593  24.812  23.511  1.00  0.00     0.429 C 
ATOM     22  F   UNL A   1      30.776  25.620  22.436  1.00  0.00    -0.167 F 
ATOM     23  F   UNL A   1      30.056  23.665  23.033  1.00  0.00    -0.167 F 
ATOM     24  F   UNL A   1      29.657  25.388  24.297  1.00  0.00    -0.167 F 
ENDBRANCH  20  21
ENDBRANCH   6   9
ENDBRANCH   4   5
ENDBRANCH   3   4
ENDBRANCH   2   3
ENDBRANCH   1   2
BRANCH   1  25
ATOM     25  C   UNL A   1      35.889  24.041  25.747  1.00  0.00     0.021 C 
BRANCH  25  26
ATOM     26  C   UNL A   1      37.075  23.686  24.857  1.00  0.00     0.116 C 
BRANCH  26  27
ATOM     27  N   UNL A   1      37.904  22.653  25.456  1.00  0.00    -0.352 N 
ATOM     28  C   UNL A   1      39.020  22.785  26.239  1.00  0.00     0.251 C 
ATOM     29  H   UNL A   1      37.623  21.727  25.273  1.00  0.00     0.163 HD
ATOM     30  O   UNL A   1      39.733  21.813  26.478  1.00  0.00    -0.269 OA
BRANCH  28  31
ATOM     31  C   UNL A   1      39.370  24.109  26.785  1.00  0.00     0.039 A 
ATOM     32  C   UNL A   1      38.986  24.426  28.089  1.00  0.00     0.014 A 
ATOM     33  C   UNL A   1      40.074  25.034  26.008  1.00  0.00     0.014 A 
ATOM     34  C   UNL A   1      39.356  25.656  28.634  1.00  0.00     0.010 A 
ATOM     35  C   UNL A   1      40.504  26.228  26.576  1.00  0.00     0.010 A 
ATOM     36  C   UNL A   1      40.144  26.551  27.892  1.00  0.00    -0.014 A 
BRANCH  36  37
ATOM     37  C   UNL A   1      40.589  27.839  28.475  1.00  0.00     0.031 A 
ATOM     38  C   UNL A   1      42.035  28.044  28.829  1.00  0.00     0.074 A 
ATOM     39  C   UNL A   1      39.683  28.805  28.723  1.00  0.00     0.049 A 
ATOM     40  N   UNL A   1      42.610  29.077  29.390  1.00  0.00    -0.248 NA
ATOM     41  C   UNL A   1      42.957  26.935  28.528  1.00  0.00     0.031 C 
ATOM     42  C   UNL A   1      38.248  28.705  28.450  1.00  0.00     0.029 A 
ATOM     43  N   UNL A   1      39.833  30.058  29.260  1.00  0.00    -0.354 N 
ATOM     44  C   UNL A   1      43.952  28.743  29.509  1.00  0.00     0.074 A 
ATOM     45  C   UNL A   1      44.100  27.391  29.019  1.00  0.00     0.031 C 
ATOM     46  C   UNL A   1      37.656  29.860  28.791  1.00  0.00     0.029 A 
ATOM     47  C   UNL A   1      38.657  30.765  29.346  1.00  0.00     0.049 A 
ATOM     48  H   UNL A   1      40.700  30.418  29.556  1.00  0.00     0.167 HD
ATOM     49  C   UNL A   1      44.972  29.510  29.958  1.00  0.00     0.037 A 
ATOM     50  C   UNL A   1      38.417  32.001  29.824  1.00  0.00     0.037 A 
ATOM     51  C   UNL A   1      44.820  30.862  30.426  1.00  0.00     0.049 A 
ATOM     52  C   UNL A   1      39.566  32.817  30.351  1.00  0.00     0.074 A 
ATOM     53  C   UNL A   1      45.798  31.732  30.873  1.00  0.00     0.029 A 
ATOM     54  N   UNL A   1      43.612  31.540  30.505  1.00  0.00    -0.354 N 
ATOM     55  N   UNL A   1      40.839  32.509  30.415  1.00  0.00    -0.248 NA
ATOM     56  C   UNL A   1      39.249  34.155  30.870  1.00  0.00     0.031 C 
ATOM     57  C   UNL A   1      45.178  32.919  31.270  1.00  0.00     0.029 A 
ATOM     58  C   UNL A   1      43.821  32.812  31.013  1.00  0.00     0.049 A 
ATOM     59  H   UNL A   1      42.738  31.172  30.240  1.00  0.00     0.167 HD
ATOM     60  C   UNL A   1      41.476  33.621  30.946  1.00  0.00     0.074 A 
ATOM     61  C   UNL A   1      40.453  34.618  31.176  1.00  0.00     0.031 C 
ATOM     62  C   UNL A   1      42.792  33.799  31.219  1.00  0.00     0.037 A 
BRANCH  49  63
ATOM     63  C   UNL A   1      46.353  28.923  29.949  1.00  0.00     0.064 A 
ATOM     64  C   UNL A   1      47.200  29.065  28.839  1.00  0.00     0.173 A 
ATOM     65  C   UNL A   1      46.869  28.292  31.092  1.00  0.00     0.173 A 
ATOM     66  F   UNL A   1      46.751  29.648  27.717  1.00  0.00    -0.203 F 
ATOM     67  C   UNL A   1      48.509  28.592  28.872  1.00  0.00     0.198 A 
ATOM     68  C   UNL A   1      48.188  27.848  31.131  1.00  0.00     0.198 A 
ATOM     69  F   UNL A   1      46.102  28.134  32.181  1.00  0.00    -0.203 F 
ATOM     70  F   UNL A   1      49.291  28.715  27.790  1.00  0.00    -0.200 F 
ATOM     71  C   UNL A   1      49.006  27.997  30.021  1.00  0.00     0.200 A 
ATOM     72  F   UNL A   1      48.671  27.287  32.248  1.00  0.00    -0.200 F 
ATOM     73  F   UNL A   1      50.274  27.567  30.061  1.00  0.00    -0.200 F 
ENDBRANCH  49  63
BRANCH  50  74
ATOM     74  C   UNL A   1      37.036  32.553  29.793  1.00  0.00     0.064 A 
ATOM     75  C   UNL A   1      36.565  33.249  28.671  1.00  0.00     0.173 A 
ATOM     76  C   UNL A   1      36.159  32.395  30.876  1.00  0.00     0.173 A 
ATOM     77  F   UNL A   1      37.372  33.444  27.618  1.00  0.00    -0.203 F 
ATOM     78  C   UNL A   1      35.277  33.780  28.640  1.00  0.00     0.198 A 
ATOM     79  C   UNL A   1      34.860  32.899  30.831  1.00  0.00     0.198 A 
ATOM     80  F   UNL A   1      36.557  31.733  31.973  1.00  0.00    -0.203 F 
ATOM     81  F   UNL A   1      34.869  34.480  27.572  1.00  0.00    -0.200 F 
ATOM     82  C   UNL A   1      34.423  33.598  29.716  1.00  0.00     0.200 A 
ATOM     83  F   UNL A   1      34.032  32.706  31.868  1.00  0.00    -0.200 F 
ATOM     84  F   UNL A   1      33.182  34.101  29.683  1.00  0.00    -0.200 F 
ENDBRANCH  50  74
BRANCH  62  85
ATOM     85  C   UNL A   1      43.217  35.133  31.763  1.00  0.00     0.064 A 
ATOM     86  C   UNL A   1      43.652  36.166  30.922  1.00  0.00     0.173 A 
ATOM     87  C   UNL A   1      43.110  35.404  33.136  1.00  0.00     0.173 A 
ATOM     88  F   UNL A   1      43.782  35.955  29.603  1.00  0.00    -0.203 F 
ATOM     89  C   UNL A   1      43.979  37.418  31.437  1.00  0.00     0.198 A 
ATOM     90  C   UNL A   1      43.405  36.666  33.643  1.00  0.00     0.198 A 
ATOM     91  F   UNL A   1      42.689  34.452  33.984  1.00  0.00    -0.203 F 
ATOM     92  F   UNL A   1      44.428  38.380  30.619  1.00  0.00    -0.200 F 
ATOM     93  C   UNL A   1      43.845  37.670  32.794  1.00  0.00     0.200 A 
ATOM     94  F   UNL A   1      43.255  36.913  34.952  1.00  0.00    -0.200 F 
ATOM     95  F   UNL A   1      44.140  38.881  33.285  1.00  0.00    -0.200 F 
ENDBRANCH  62  85
ENDBRANCH  36  37
ENDBRANCH  28  31
ENDBRANCH  26  27
ENDBRANCH  25  26
ENDBRANCH   1  25
TORSDOF 14
ENDMDL
MODEL 2
REMARK VINA RESULT:     -11.8      0.408      2.085
REMARK SMILES Cc1cc(Br)cc2c1O[C@H](C(F)(F)F)C(C(=O)NCCCCCCNC(=O)c1ccc(-c3c4nc(c(-c5c(F)c(F)c(F)c(F)c5F)c5ccc([nH]5)c(-c5c(F)c(F)c(F)c(F)c5F)c5nc(c(-c6c(F)c(F)c(F)c(F)c6F)c6ccc3[nH]6)C=C5)C=C4)cc1)=C2
REMARK SMILES IDX 22 1 21 2 20 3 19 4 18 5 16 6 17 7 15 9 1 10 2 11 3 12 8 13
REMARK SMILES IDX 4 14 7 15 9 16 5 17 6 18 91 19 10 20 11 21 12 22 13 23 14 24
REMARK SMILES IDX 23 25 24 26 25 27 26 28 27 30 28 31 29 32 90 33 30 34 89 35
REMARK SMILES IDX 31 36 32 37 33 38 83 39 34 40 88 41 82 42 84 43 35 44 87 45
REMARK SMILES IDX 81 46 80 47 36 49 68 50 48 51 67 52 49 53 52 54 66 55 85 56
REMARK SMILES IDX 50 57 51 58 65 60 86 61 53 62 37 63 38 64 46 65 39 66 40 67
REMARK SMILES IDX 44 68 47 69 41 70 42 71 45 72 43 73 69 74 70 75 78 76 71 77
REMARK SMILES IDX 72 78 76 79 79 80 73 81 74 82 77 83 75 84 54 85 55 86 63 87
REMARK SMILES IDX 56 88 57 89 61 90 64 91 58 92 59 93 62 94 60 95
REMARK H PARENT 18 8 25 29 84 48 52 59
REMARK Flexibility Score: inf
ROOT
ATOM      1  C   UNL A   1      35.440  22.438  24.108  1.00  0.00     0.002 C 
ENDROOT
BRANCH   1   2
ATOM      2  C   UNL A   1      34.015  22.226  23.580  1.00  0.00     0.002 C 
BRANCH   2   3
ATOM      3  C   UNL A   1      33.116  21.369  24.475  1.00  0.00     0.021 C 
BRANCH   3   4
ATOM      4  C   UNL A   1      33.297  21.653  25.961  1.00  0.00     0.116 C 
BRANCH   4   5
ATOM      5  N   UNL A   1      32.091  22.200  26.557  1.00  0.00    -0.352 N 
ATOM      6  C   UNL A   1      31.443  23.389  26.574  1.00  0.00     0.251 C 
ATOM      7  O   UNL A   1      30.383  23.404  27.207  1.00  0.00    -0.270 OA
ATOM      8  H   UNL A   1      31.616  21.524  27.094  1.00  0.00     0.163 HD
BRANCH   6   9
ATOM      9  C   UNL A   1      31.920  24.634  25.902  1.00  0.00     0.067 C 
ATOM     10  C   UNL A   1      33.883  28.139  22.706  1.00  0.00     0.048 C 
ATOM     11  C   UNL A   1      33.548  28.107  24.171  1.00  0.00    -0.007 A 
ATOM     12  C   UNL A   1      33.709  29.252  24.960  1.00  0.00     0.023 A 
ATOM     13  C   UNL A   1      33.020  26.952  24.762  1.00  0.00     0.130 A 
ATOM     14  C   UNL A   1      33.376  29.219  26.315  1.00  0.00     0.019 A 
ATOM     15  C   UNL A   1      32.696  26.912  26.121  1.00  0.00     0.019 A 
ATOM     16  O   UNL A   1      32.884  25.866  23.950  1.00  0.00    -0.475 OA
ATOM     17  Br  UNL A   1      33.613  30.771  27.368  1.00  0.00    -0.051 Br
ATOM     18  C   UNL A   1      32.877  28.056  26.902  1.00  0.00     0.027 A 
ATOM     19  C   UNL A   1      32.220  25.666  26.711  1.00  0.00     0.025 C 
ATOM     20  C   UNL A   1      32.045  24.783  24.415  1.00  0.00     0.314 C 
BRANCH  20  21
ATOM     21  C   UNL A   1      30.683  24.866  23.703  1.00  0.00     0.429 C 
ATOM     22  F   UNL A   1      29.757  25.431  24.518  1.00  0.00    -0.167 F 
ATOM     23  F   UNL A   1      30.719  25.630  22.586  1.00  0.00    -0.167 F 
ATOM     24  F   UNL A   1      30.215  23.653  23.336  1.00  0.00    -0.167 F 
ENDBRANCH  20  21
ENDBRANCH   6   9
ENDBRANCH   4   5
ENDBRANCH   3   4
ENDBRANCH   2   3
ENDBRANCH   1   2
BRANCH   1  25
ATOM     25  C   UNL A   1      35.738  23.846  24.630  1.00  0.00     0.021 C 
BRANCH  25  26
ATOM     26  C   UNL A   1      36.510  23.876  25.944  1.00  0.00     0.116 C 
BRANCH  26  27
ATOM     27  N   UNL A   1      37.518  22.830  25.999  1.00  0.00    -0.352 N 
ATOM     28  C   UNL A   1      38.848  22.925  26.308  1.00  0.00     0.251 C 
ATOM     29  H   UNL A   1      37.197  21.923  25.785  1.00  0.00     0.163 HD
ATOM     30  O   UNL A   1      39.608  21.985  26.091  1.00  0.00    -0.269 OA
BRANCH  28  31
ATOM     31  C   UNL A   1      39.370  24.175  26.891  1.00  0.00     0.039 A 
ATOM     32  C   UNL A   1      40.021  25.089  26.062  1.00  0.00     0.014 A 
ATOM     33  C   UNL A   1      39.216  24.439  28.257  1.00  0.00     0.014 A 
ATOM     34  C   UNL A   1      40.473  26.297  26.593  1.00  0.00     0.010 A 
ATOM     35  C   UNL A   1      39.602  25.672  28.769  1.00  0.00     0.010 A 
ATOM     36  C   UNL A   1      40.239  26.610  27.943  1.00  0.00    -0.014 A 
BRANCH  36  37
ATOM     37  C   UNL A   1      40.667  27.910  28.510  1.00  0.00     0.031 A 
ATOM     38  C   UNL A   1      42.110  28.141  28.857  1.00  0.00     0.074 A 
ATOM     39  C   UNL A   1      39.747  28.866  28.748  1.00  0.00     0.049 A 
ATOM     40  N   UNL A   1      42.671  29.190  29.405  1.00  0.00    -0.248 NA
ATOM     41  C   UNL A   1      43.048  27.043  28.567  1.00  0.00     0.031 C 
ATOM     42  C   UNL A   1      38.313  28.741  28.481  1.00  0.00     0.029 A 
ATOM     43  N   UNL A   1      39.879  30.127  29.271  1.00  0.00    -0.354 N 
ATOM     44  C   UNL A   1      44.018  28.878  29.524  1.00  0.00     0.074 A 
ATOM     45  C   UNL A   1      44.186  27.522  29.049  1.00  0.00     0.031 C 
ATOM     46  C   UNL A   1      37.704  29.891  28.810  1.00  0.00     0.029 A 
ATOM     47  C   UNL A   1      38.693  30.817  29.352  1.00  0.00     0.049 A 
ATOM     48  H   UNL A   1      40.741  30.503  29.560  1.00  0.00     0.167 HD
ATOM     49  C   UNL A   1      45.028  29.665  29.960  1.00  0.00     0.037 A 
ATOM     50  C   UNL A   1      38.435  32.055  29.816  1.00  0.00     0.037 A 
ATOM     51  C   UNL A   1      44.856  31.020  30.413  1.00  0.00     0.049 A 
ATOM     52  C   UNL A   1      39.574  32.895  30.330  1.00  0.00     0.074 A 
ATOM     53  C   UNL A   1      45.822  31.910  30.847  1.00  0.00     0.029 A 
ATOM     54  N   UNL A   1      43.639  31.681  30.487  1.00  0.00    -0.354 N 
ATOM     55  N   UNL A   1      40.851  32.606  30.394  1.00  0.00    -0.248 NA
ATOM     56  C   UNL A   1      39.238  34.233  30.834  1.00  0.00     0.031 C 
ATOM     57  C   UNL A   1      45.186  33.092  31.232  1.00  0.00     0.029 A 
ATOM     58  C   UNL A   1      43.829  32.961  30.980  1.00  0.00     0.049 A 
ATOM     59  H   UNL A   1      42.770  31.297  30.229  1.00  0.00     0.167 HD
ATOM     60  C   UNL A   1      41.473  33.734  30.909  1.00  0.00     0.074 A 
ATOM     61  C   UNL A   1      40.435  34.719  31.131  1.00  0.00     0.031 C 
ATOM     62  C   UNL A   1      42.786  33.936  31.177  1.00  0.00     0.037 A 
BRANCH  49  63
ATOM     63  C   UNL A   1      46.418  29.098  29.955  1.00  0.00     0.064 A 
ATOM     64  C   UNL A   1      46.930  28.412  31.066  1.00  0.00     0.173 A 
ATOM     65  C   UNL A   1      47.210  29.160  28.799  1.00  0.00     0.173 A 
ATOM     66  F   UNL A   1      46.218  28.335  32.200  1.00  0.00    -0.203 F 
ATOM     67  C   UNL A   1      48.188  27.815  31.021  1.00  0.00     0.198 A 
ATOM     68  C   UNL A   1      48.454  28.537  28.748  1.00  0.00     0.198 A 
ATOM     69  F   UNL A   1      46.766  29.802  27.707  1.00  0.00    -0.203 F 
ATOM     70  F   UNL A   1      48.668  27.188  32.104  1.00  0.00    -0.200 F 
ATOM     71  C   UNL A   1      48.942  27.866  29.859  1.00  0.00     0.200 A 
ATOM     72  F   UNL A   1      49.174  28.574  27.619  1.00  0.00    -0.200 F 
ATOM     73  F   UNL A   1      50.140  27.268  29.809  1.00  0.00    -0.200 F 
ENDBRANCH  49  63
BRANCH  50  74
ATOM     74  C   UNL A   1      37.046  32.586  29.782  1.00  0.00     0.064 A 
ATOM     75  C   UNL A   1      36.172  32.380  30.858  1.00  0.00     0.173 A 
ATOM     76  C   UNL A   1      36.564  33.309  28.681  1.00  0.00     0.173 A 
ATOM     77  F   UNL A   1      36.579  31.679  31.926  1.00  0.00    -0.203 F 
ATOM     78  C   UNL A   1      34.865  32.863  30.828  1.00  0.00     0.198 A 
ATOM     79  C   UNL A   1      35.267  33.818  28.665  1.00  0.00     0.198 A 
ATOM     80  F   UNL A   1      37.360  33.537  27.626  1.00  0.00    -0.203 F 
ATOM     81  F   UNL A   1      34.037  32.613  31.852  1.00  0.00    -0.200 F 
ATOM     82  C   UNL A   1      34.416  33.587  29.735  1.00  0.00     0.200 A 
ATOM     83  F   UNL A   1      34.843  34.533  27.613  1.00  0.00    -0.200 F 
ATOM     84  F   UNL A   1      33.162  34.059  29.710  1.00  0.00    -0.200 F 
ENDBRANCH  50  74
BRANCH  62  85
ATOM     85  C   UNL A   1      43.193  35.282  31.704  1.00  0.00     0.064 A 
ATOM     86  C   UNL A   1      43.182  35.570  33.075  1.00  0.00     0.173 A 
ATOM     87  C   UNL A   1      43.679  36.267  30.828  1.00  0.00     0.173 A 
ATOM     88  F   UNL A   1      42.718  34.667  33.952  1.00  0.00    -0.203 F 
ATOM     89  C   UNL A   1      43.626  36.801  33.551  1.00  0.00     0.198 A 
ATOM     90  C   UNL A   1      44.154  37.482  31.310  1.00  0.00     0.198 A 
ATOM     91  F   UNL A   1      43.721  36.037  29.507  1.00  0.00    -0.203 F 
ATOM     92  F   UNL A   1      43.571  37.069  34.863  1.00  0.00    -0.200 F 
ATOM     93  C   UNL A   1      44.122  37.751  32.669  1.00  0.00     0.200 A 
ATOM     94  F   UNL A   1      44.651  38.391  30.459  1.00  0.00    -0.200 F 
ATOM     95  F   UNL A   1      44.568  38.927  33.131  1.00  0.00    -0.200 F 
ENDBRANCH  62  85
ENDBRANCH  36  37
ENDBRANCH  28  31
ENDBRANCH  26  27
ENDBRANCH  25  26
ENDBRANCH   1  25
TORSDOF 14
ENDMDL
MODEL 3
REMARK VINA RESULT:     -11.8      4.274      8.903
REMARK SMILES Cc1cc(Br)cc2c1O[C@H](C(F)(F)F)C(C(=O)NCCCCCCNC(=O)c1ccc(-c3c4nc(c(-c5c(F)c(F)c(F)c(F)c5F)c5ccc([nH]5)c(-c5c(F)c(F)c(F)c(F)c5F)c5nc(c(-c6c(F)c(F)c(F)c(F)c6F)c6ccc3[nH]6)C=C5)C=C4)cc1)=C2
REMARK SMILES IDX 22 1 21 2 20 3 19 4 18 5 16 6 17 7 15 9 1 10 2 11 3 12 8 13
REMARK SMILES IDX 4 14 7 15 9 16 5 17 6 18 91 19 10 20 11 21 12 22 13 23 14 24
REMARK SMILES IDX 23 25 24 26 25 27 26 28 27 30 28 31 29 32 90 33 30 34 89 35
REMARK SMILES IDX 31 36 32 37 33 38 83 39 34 40 88 41 82 42 84 43 35 44 87 45
REMARK SMILES IDX 81 46 80 47 36 49 68 50 48 51 67 52 49 53 52 54 66 55 85 56
REMARK SMILES IDX 50 57 51 58 65 60 86 61 53 62 37 63 38 64 46 65 39 66 40 67
REMARK SMILES IDX 44 68 47 69 41 70 42 71 45 72 43 73 69 74 70 75 78 76 71 77
REMARK SMILES IDX 72 78 76 79 79 80 73 81 74 82 77 83 75 84 54 85 55 86 63 87
REMARK SMILES IDX 56 88 57 89 61 90 64 91 58 92 59 93 62 94 60 95
REMARK H PARENT 18 8 25 29 84 48 52 59
REMARK Flexibility Score: inf
ROOT
ATOM      1  C   UNL A   1      31.266  27.819  25.736  1.00  0.00     0.002 C 
ENDROOT
BRANCH   1   2
ATOM      2  C   UNL A   1      30.970  28.255  24.294  1.00  0.00     0.002 C 
BRANCH   2   3
ATOM      3  C   UNL A   1      29.985  27.359  23.539  1.00  0.00     0.021 C 
BRANCH   3   4
ATOM      4  C   UNL A   1      30.516  25.954  23.289  1.00  0.00     0.116 C 
BRANCH   4   5
ATOM      5  N   UNL A   1      31.447  25.918  22.176  1.00  0.00    -0.352 N 
ATOM      6  C   UNL A   1      32.568  25.236  21.840  1.00  0.00     0.251 C 
ATOM      7  O   UNL A   1      33.040  25.507  20.732  1.00  0.00    -0.270 OA
ATOM      8  H   UNL A   1      31.196  26.563  21.475  1.00  0.00     0.163 HD
BRANCH   6   9
ATOM      9  C   UNL A   1      33.242  24.219  22.701  1.00  0.00     0.067 C 
ATOM     10  C   UNL A   1      36.526  21.455  25.517  1.00  0.00     0.048 C 
ATOM     11  C   UNL A   1      35.206  21.182  24.852  1.00  0.00    -0.007 A 
ATOM     12  C   UNL A   1      34.583  19.938  25.000  1.00  0.00     0.023 A 
ATOM     13  C   UNL A   1      34.550  22.180  24.121  1.00  0.00     0.130 A 
ATOM     14  C   UNL A   1      33.347  19.699  24.397  1.00  0.00     0.019 A 
ATOM     15  C   UNL A   1      33.317  21.942  23.506  1.00  0.00     0.019 A 
ATOM     16  O   UNL A   1      35.200  23.372  24.007  1.00  0.00    -0.475 OA
ATOM     17  Br  UNL A   1      32.526  18.008  24.596  1.00  0.00    -0.051 Br
ATOM     18  C   UNL A   1      32.713  20.690  23.646  1.00  0.00     0.027 A 
ATOM     19  C   UNL A   1      32.706  22.985  22.691  1.00  0.00     0.025 C 
ATOM     20  C   UNL A   1      34.431  24.515  23.566  1.00  0.00     0.314 C 
BRANCH  20  21
ATOM     21  C   UNL A   1      34.083  25.385  24.786  1.00  0.00     0.429 C 
ATOM     22  F   UNL A   1      35.031  25.252  25.748  1.00  0.00    -0.167 F 
ATOM     23  F   UNL A   1      34.028  26.706  24.492  1.00  0.00    -0.167 F 
ATOM     24  F   UNL A   1      32.895  25.055  25.338  1.00  0.00    -0.167 F 
ENDBRANCH  20  21
ENDBRANCH   6   9
ENDBRANCH   4   5
ENDBRANCH   3   4
ENDBRANCH   2   3
ENDBRANCH   1   2
BRANCH   1  25
ATOM     25  C   UNL A   1      31.793  28.924  26.655  1.00  0.00     0.021 C 
BRANCH  25  26
ATOM     26  C   UNL A   1      32.879  29.792  26.031  1.00  0.00     0.116 C 
BRANCH  26  27
ATOM     27  N   UNL A   1      32.687  31.199  26.342  1.00  0.00    -0.352 N 
ATOM     28  C   UNL A   1      33.338  31.979  27.260  1.00  0.00     0.251 C 
ATOM     29  H   UNL A   1      31.991  31.657  25.816  1.00  0.00     0.163 HD
ATOM     30  O   UNL A   1      32.903  33.090  27.554  1.00  0.00    -0.269 OA
BRANCH  28  31
ATOM     31  C   UNL A   1      34.561  31.470  27.908  1.00  0.00     0.039 A 
ATOM     32  C   UNL A   1      35.652  32.328  28.062  1.00  0.00     0.014 A 
ATOM     33  C   UNL A   1      34.628  30.148  28.359  1.00  0.00     0.014 A 
ATOM     34  C   UNL A   1      36.795  31.873  28.718  1.00  0.00     0.010 A 
ATOM     35  C   UNL A   1      35.739  29.719  29.076  1.00  0.00     0.010 A 
ATOM     36  C   UNL A   1      36.834  30.575  29.257  1.00  0.00    -0.014 A 
BRANCH  36  37
ATOM     37  C   UNL A   1      38.021  30.095  30.003  1.00  0.00     0.031 A 
ATOM     38  C   UNL A   1      38.270  30.570  31.406  1.00  0.00     0.074 A 
ATOM     39  C   UNL A   1      38.893  29.263  29.400  1.00  0.00     0.049 A 
ATOM     40  N   UNL A   1      39.274  30.303  32.203  1.00  0.00    -0.248 NA
ATOM     41  C   UNL A   1      37.269  31.480  31.987  1.00  0.00     0.031 C 
ATOM     42  C   UNL A   1      38.770  28.761  28.030  1.00  0.00     0.029 A 
ATOM     43  N   UNL A   1      40.055  28.696  29.858  1.00  0.00    -0.354 N 
ATOM     44  C   UNL A   1      39.025  31.008  33.372  1.00  0.00     0.074 A 
ATOM     45  C   UNL A   1      37.810  31.764  33.164  1.00  0.00     0.031 C 
ATOM     46  C   UNL A   1      39.796  27.936  27.771  1.00  0.00     0.029 A 
ATOM     47  C   UNL A   1      40.672  27.883  28.937  1.00  0.00     0.049 A 
ATOM     48  H   UNL A   1      40.413  28.855  30.760  1.00  0.00     0.167 HD
ATOM     49  C   UNL A   1      39.732  31.000  34.525  1.00  0.00     0.037 A 
ATOM     50  C   UNL A   1      41.818  27.180  29.025  1.00  0.00     0.037 A 
ATOM     51  C   UNL A   1      40.930  30.230  34.731  1.00  0.00     0.049 A 
ATOM     52  C   UNL A   1      42.603  27.219  30.308  1.00  0.00     0.074 A 
ATOM     53  C   UNL A   1      41.702  30.132  35.875  1.00  0.00     0.029 A 
ATOM     54  N   UNL A   1      41.528  29.426  33.773  1.00  0.00    -0.354 N 
ATOM     55  N   UNL A   1      42.333  27.853  31.424  1.00  0.00    -0.248 NA
ATOM     56  C   UNL A   1      43.850  26.444  30.349  1.00  0.00     0.031 C 
ATOM     57  C   UNL A   1      42.795  29.309  35.595  1.00  0.00     0.029 A 
ATOM     58  C   UNL A   1      42.671  28.843  34.296  1.00  0.00     0.049 A 
ATOM     59  H   UNL A   1      41.190  29.290  32.858  1.00  0.00     0.167 HD
ATOM     60  C   UNL A   1      43.352  27.527  32.306  1.00  0.00     0.074 A 
ATOM     61  C   UNL A   1      44.242  26.628  31.602  1.00  0.00     0.031 C 
ATOM     62  C   UNL A   1      43.536  27.936  33.585  1.00  0.00     0.037 A 
BRANCH  49  63
ATOM     63  C   UNL A   1      39.226  31.829  35.669  1.00  0.00     0.064 A 
ATOM     64  C   UNL A   1      38.318  31.308  36.603  1.00  0.00     0.173 A 
ATOM     65  C   UNL A   1      39.721  33.124  35.887  1.00  0.00     0.173 A 
ATOM     66  F   UNL A   1      37.804  30.080  36.433  1.00  0.00    -0.203 F 
ATOM     67  C   UNL A   1      37.920  32.054  37.709  1.00  0.00     0.198 A 
ATOM     68  C   UNL A   1      39.343  33.855  37.010  1.00  0.00     0.198 A 
ATOM     69  F   UNL A   1      40.593  33.669  35.026  1.00  0.00    -0.203 F 
ATOM     70  F   UNL A   1      37.031  31.545  38.574  1.00  0.00    -0.200 F 
ATOM     71  C   UNL A   1      38.443  33.321  37.919  1.00  0.00     0.200 A 
ATOM     72  F   UNL A   1      39.862  35.073  37.220  1.00  0.00    -0.200 F 
ATOM     73  F   UNL A   1      38.080  34.027  38.998  1.00  0.00    -0.200 F 
ENDBRANCH  49  63
BRANCH  50  74
ATOM     74  C   UNL A   1      42.271  26.354  27.874  1.00  0.00     0.064 A 
ATOM     75  C   UNL A   1      41.754  25.068  27.665  1.00  0.00     0.173 A 
ATOM     76  C   UNL A   1      43.223  26.829  26.960  1.00  0.00     0.173 A 
ATOM     77  F   UNL A   1      40.856  24.561  28.522  1.00  0.00    -0.203 F 
ATOM     78  C   UNL A   1      42.183  24.282  26.597  1.00  0.00     0.198 A 
ATOM     79  C   UNL A   1      43.628  26.055  25.874  1.00  0.00     0.198 A 
ATOM     80  F   UNL A   1      43.747  28.054  27.111  1.00  0.00    -0.203 F 
ATOM     81  F   UNL A   1      41.705  23.039  26.448  1.00  0.00    -0.200 F 
ATOM     82  C   UNL A   1      43.114  24.779  25.698  1.00  0.00     0.200 A 
ATOM     83  F   UNL A   1      44.517  26.546  24.998  1.00  0.00    -0.200 F 
ATOM     84  F   UNL A   1      43.521  24.028  24.667  1.00  0.00    -0.200 F 
ENDBRANCH  50  74
BRANCH  62  85
ATOM     85  C   UNL A   1      44.721  27.391  34.329  1.00  0.00     0.064 A 
ATOM     86  C   UNL A   1      45.944  28.075  34.369  1.00  0.00     0.173 A 
ATOM     87  C   UNL A   1      44.604  26.211  35.081  1.00  0.00     0.173 A 
ATOM     88  F   UNL A   1      46.111  29.202  33.660  1.00  0.00    -0.203 F 
ATOM     89  C   UNL A   1      47.012  27.589  35.118  1.00  0.00     0.198 A 
ATOM     90  C   UNL A   1      45.661  25.746  35.856  1.00  0.00     0.198 A 
ATOM     91  F   UNL A   1      43.451  25.524  35.086  1.00  0.00    -0.203 F 
ATOM     92  F   UNL A   1      48.184  28.239  35.110  1.00  0.00    -0.200 F 
ATOM     93  C   UNL A   1      46.866  26.432  35.870  1.00  0.00     0.200 A 
ATOM     94  F   UNL A   1      45.512  24.640  36.597  1.00  0.00    -0.200 F 
ATOM     95  F   UNL A   1      47.888  25.977  36.607  1.00  0.00    -0.200 F 
ENDBRANCH  62  85
ENDBRANCH  36  37
ENDBRANCH  28  31
ENDBRANCH  26  27
ENDBRANCH  25  26
ENDBRANCH   1  25
TORSDOF 14
ENDMDL
