MODEL 1
REMARK VINA RESULT:      -9.2      0.000      0.000
REMARK SMILES CCCCCCNC(=O)Nc1cccc(-c2ccc([C@@H](C)C(=O)NCCCCCCNC(=O)c3ccc(-c4c5nc(c(-c6c(F)c(F)c(F)c(F)c6F)c6ccc([nH]6)c(-c6c(F)c(F)c(F)c(F)c6F)c6nc(c(-c7c(F)c(F)c(F)c(F)c7F)c7ccc4[nH]7)C=C6)C=C5)cc3)cc2F)c1
REMARK SMILES IDX 22 1 23 2 24 3 20 5 21 6 19 7 16 8 17 9 98 10 18 11 97 12
REMARK SMILES IDX 99 13 15 14 11 15 12 16 100 17 13 18 14 19 10 20 7 21 8 22
REMARK SMILES IDX 9 24 6 26 5 27 4 28 3 29 2 30 1 31 25 32 26 33 27 34 28 35
REMARK SMILES IDX 29 36 30 37 31 38 32 39 33 41 34 42 35 43 96 44 36 45 95 46
REMARK SMILES IDX 37 47 38 48 39 49 89 50 40 51 94 52 88 53 90 54 41 55 93 56
REMARK SMILES IDX 87 57 86 58 42 60 74 61 54 62 73 63 55 64 58 65 72 66 91 67
REMARK SMILES IDX 56 68 57 69 71 71 92 72 59 73 43 74 44 75 52 76 45 77 46 78
REMARK SMILES IDX 50 79 53 80 47 81 48 82 51 83 49 84 75 85 76 86 84 87 77 88
REMARK SMILES IDX 78 89 82 90 85 91 79 92 80 93 83 94 81 95 60 96 61 97 69 98
REMARK SMILES IDX 62 99 63 100 67 101 70 102 64 103 65 104 68 105 66 106
REMARK H PARENT 24 4 7 23 10 25 31 40 90 59 58 70
REMARK Flexibility Score: inf
ROOT
ATOM      1  C   UNL A   1      35.012  34.820  32.857  1.00  0.00     0.227 C 
ATOM      2  O   UNL A   1      35.612  34.909  33.936  1.00  0.00    -0.274 OA
ATOM      3  N   UNL A   1      33.988  35.693  32.667  1.00  0.00    -0.356 N 
ATOM      4  H   UNL A   1      33.914  36.385  33.365  1.00  0.00     0.163 HD
ENDROOT
BRANCH   1   5
ATOM      5  C   UNL A   1      35.454  33.777  31.821  1.00  0.00     0.105 C 
ATOM      6  C   UNL A   1      35.096  32.334  32.179  1.00  0.00     0.023 C 
BRANCH   5   7
ATOM      7  C   UNL A   1      36.865  33.977  31.286  1.00  0.00    -0.033 A 
ATOM      8  C   UNL A   1      39.556  34.342  30.367  1.00  0.00     0.018 A 
ATOM      9  C   UNL A   1      38.523  33.959  29.497  1.00  0.00     0.012 A 
ATOM     10  C   UNL A   1      39.198  34.551  31.705  1.00  0.00     0.131 A 
ATOM     11  C   UNL A   1      37.203  33.810  29.941  1.00  0.00     0.005 A 
ATOM     12  C   UNL A   1      37.890  34.356  32.165  1.00  0.00     0.044 A 
ATOM     13  F   UNL A   1      40.114  34.953  32.601  1.00  0.00    -0.206 F 
BRANCH   8  14
ATOM     14  C   UNL A   1      40.947  34.460  29.872  1.00  0.00    -0.013 A 
ATOM     15  C   UNL A   1      43.267  33.679  29.890  1.00  0.00     0.043 A 
ATOM     16  C   UNL A   1      43.573  34.499  28.807  1.00  0.00     0.026 A 
ATOM     17  C   UNL A   1      41.988  33.721  30.458  1.00  0.00     0.035 A 
ATOM     18  C   UNL A   1      42.568  35.264  28.222  1.00  0.00     0.003 A 
ATOM     19  C   UNL A   1      41.269  35.233  28.740  1.00  0.00     0.009 A 
BRANCH  15  20
ATOM     20  N   UNL A   1      44.251  32.786  30.339  1.00  0.00    -0.308 N 
ATOM     21  N   UNL A   1      43.290  30.651  29.981  1.00  0.00    -0.338 N 
ATOM     22  C   UNL A   1      44.173  31.461  30.616  1.00  0.00     0.319 C 
ATOM     23  H   UNL A   1      43.175  29.765  30.395  1.00  0.00     0.165 HD
ATOM     24  O   UNL A   1      44.985  30.952  31.389  1.00  0.00    -0.249 OA
ATOM     25  H   UNL A   1      45.141  33.185  30.475  1.00  0.00     0.171 HD
BRANCH  21  26
ATOM     26  C   UNL A   1      42.486  30.874  28.790  1.00  0.00     0.117 C 
BRANCH  26  27
ATOM     27  C   UNL A   1      42.707  29.832  27.700  1.00  0.00     0.021 C 
BRANCH  27  28
ATOM     28  C   UNL A   1      43.982  29.000  27.839  1.00  0.00     0.002 C 
BRANCH  28  29
ATOM     29  C   UNL A   1      45.178  29.469  27.002  1.00  0.00    -0.000 C 
BRANCH  29  30
ATOM     30  C   UNL A   1      46.556  29.023  27.499  1.00  0.00    -0.003 C 
ATOM     31  C   UNL A   1      46.616  28.826  29.006  1.00  0.00     0.004 C 
ENDBRANCH  29  30
ENDBRANCH  28  29
ENDBRANCH  27  28
ENDBRANCH  26  27
ENDBRANCH  21  26
ENDBRANCH  15  20
ENDBRANCH   8  14
ENDBRANCH   5   7
ENDBRANCH   1   5
BRANCH   3  32
ATOM     32  C   UNL A   1      32.988  35.792  31.628  1.00  0.00     0.116 C 
BRANCH  32  33
ATOM     33  C   UNL A   1      33.284  36.962  30.689  1.00  0.00     0.021 C 
BRANCH  33  34
ATOM     34  C   UNL A   1      33.249  36.576  29.208  1.00  0.00     0.002 C 
BRANCH  34  35
ATOM     35  C   UNL A   1      34.163  35.409  28.819  1.00  0.00     0.002 C 
BRANCH  35  36
ATOM     36  C   UNL A   1      33.436  34.142  28.356  1.00  0.00     0.021 C 
BRANCH  36  37
ATOM     37  C   UNL A   1      34.288  32.876  28.379  1.00  0.00     0.116 C 
BRANCH  37  38
ATOM     38  N   UNL A   1      33.673  31.795  27.625  1.00  0.00    -0.352 N 
ATOM     39  C   UNL A   1      34.190  30.576  27.265  1.00  0.00     0.251 C 
ATOM     40  H   UNL A   1      32.749  31.962  27.329  1.00  0.00     0.163 HD
ATOM     41  O   UNL A   1      33.622  29.883  26.429  1.00  0.00    -0.269 OA
BRANCH  39  42
ATOM     42  C   UNL A   1      35.445  30.099  27.885  1.00  0.00     0.039 A 
ATOM     43  C   UNL A   1      36.623  30.128  27.136  1.00  0.00     0.014 A 
ATOM     44  C   UNL A   1      35.451  29.603  29.191  1.00  0.00     0.014 A 
ATOM     45  C   UNL A   1      37.822  29.709  27.719  1.00  0.00     0.010 A 
ATOM     46  C   UNL A   1      36.656  29.254  29.793  1.00  0.00     0.010 A 
ATOM     47  C   UNL A   1      37.852  29.298  29.061  1.00  0.00    -0.014 A 
BRANCH  47  48
ATOM     48  C   UNL A   1      39.124  28.894  29.713  1.00  0.00     0.031 A 
ATOM     49  C   UNL A   1      39.613  29.632  30.929  1.00  0.00     0.074 A 
ATOM     50  C   UNL A   1      39.863  27.903  29.180  1.00  0.00     0.049 A 
ATOM     51  N   UNL A   1      40.731  29.482  31.596  1.00  0.00    -0.248 NA
ATOM     52  C   UNL A   1      38.744  30.699  31.449  1.00  0.00     0.031 C 
ATOM     53  C   UNL A   1      39.514  27.140  27.980  1.00  0.00     0.029 A 
ATOM     54  N   UNL A   1      41.068  27.374  29.570  1.00  0.00    -0.354 N 
ATOM     55  C   UNL A   1      40.697  30.432  32.607  1.00  0.00     0.074 A 
ATOM     56  C   UNL A   1      39.484  31.199  32.428  1.00  0.00     0.031 C 
ATOM     57  C   UNL A   1      40.470  26.227  27.745  1.00  0.00     0.029 A 
ATOM     58  C   UNL A   1      41.519  26.367  28.751  1.00  0.00     0.049 A 
ATOM     59  H   UNL A   1      41.562  27.687  30.362  1.00  0.00     0.167 HD
ATOM     60  C   UNL A   1      41.584  30.631  33.611  1.00  0.00     0.037 A 
ATOM     61  C   UNL A   1      42.656  25.648  28.801  1.00  0.00     0.037 A 
ATOM     62  C   UNL A   1      42.784  29.857  33.795  1.00  0.00     0.049 A 
ATOM     63  C   UNL A   1      43.638  25.908  29.912  1.00  0.00     0.074 A 
ATOM     64  C   UNL A   1      43.733  29.958  34.797  1.00  0.00     0.029 A 
ATOM     65  N   UNL A   1      43.200  28.835  32.953  1.00  0.00    -0.354 N 
ATOM     66  N   UNL A   1      43.568  26.772  30.895  1.00  0.00    -0.248 NA
ATOM     67  C   UNL A   1      44.855  25.085  29.924  1.00  0.00     0.031 C 
ATOM     68  C   UNL A   1      44.745  29.027  34.538  1.00  0.00     0.029 A 
ATOM     69  C   UNL A   1      44.399  28.309  33.405  1.00  0.00     0.049 A 
ATOM     70  H   UNL A   1      42.714  28.530  32.153  1.00  0.00     0.167 HD
ATOM     71  C   UNL A   1      44.710  26.573  31.661  1.00  0.00     0.074 A 
ATOM     72  C   UNL A   1      45.448  25.495  31.037  1.00  0.00     0.031 C 
ATOM     73  C   UNL A   1      45.112  27.224  32.780  1.00  0.00     0.037 A 
BRANCH  60  74
ATOM     74  C   UNL A   1      41.283  31.722  34.598  1.00  0.00     0.064 A 
ATOM     75  C   UNL A   1      40.403  31.517  35.672  1.00  0.00     0.173 A 
ATOM     76  C   UNL A   1      41.907  32.975  34.495  1.00  0.00     0.173 A 
ATOM     77  F   UNL A   1      39.769  30.342  35.810  1.00  0.00    -0.203 F 
ATOM     78  C   UNL A   1      40.135  32.533  36.586  1.00  0.00     0.198 A 
ATOM     79  C   UNL A   1      41.663  33.977  35.429  1.00  0.00     0.198 A 
ATOM     80  F   UNL A   1      42.762  33.223  33.492  1.00  0.00    -0.203 F 
ATOM     81  F   UNL A   1      39.250  32.328  37.572  1.00  0.00    -0.200 F 
ATOM     82  C   UNL A   1      40.772  33.759  36.469  1.00  0.00     0.200 A 
ATOM     83  F   UNL A   1      42.289  35.158  35.323  1.00  0.00    -0.200 F 
ATOM     84  F   UNL A   1      40.520  34.733  37.354  1.00  0.00    -0.200 F 
ENDBRANCH  60  74
BRANCH  61  85
ATOM     85  C   UNL A   1      42.925  24.599  27.781  1.00  0.00     0.064 A 
ATOM     86  C   UNL A   1      42.535  23.269  27.995  1.00  0.00     0.173 A 
ATOM     87  C   UNL A   1      43.599  24.896  26.588  1.00  0.00     0.173 A 
ATOM     88  F   UNL A   1      41.904  22.931  29.128  1.00  0.00    -0.203 F 
ATOM     89  C   UNL A   1      42.839  22.272  27.070  1.00  0.00     0.198 A 
ATOM     90  C   UNL A   1      43.874  23.904  25.649  1.00  0.00     0.198 A 
ATOM     91  F   UNL A   1      43.989  26.154  26.331  1.00  0.00    -0.203 F 
ATOM     92  F   UNL A   1      42.507  20.999  27.328  1.00  0.00    -0.200 F 
ATOM     93  C   UNL A   1      43.504  22.590  25.896  1.00  0.00     0.200 A 
ATOM     94  F   UNL A   1      44.503  24.220  24.509  1.00  0.00    -0.200 F 
ATOM     95  F   UNL A   1      43.798  21.632  25.008  1.00  0.00    -0.200 F 
ENDBRANCH  61  85
BRANCH  73  96
ATOM     96  C   UNL A   1      46.382  26.756  33.430  1.00  0.00     0.064 A 
ATOM     97  C   UNL A   1      46.395  25.703  34.356  1.00  0.00     0.173 A 
ATOM     98  C   UNL A   1      47.608  27.350  33.092  1.00  0.00     0.173 A 
ATOM     99  F   UNL A   1      45.248  25.114  34.723  1.00  0.00    -0.203 F 
ATOM    100  C   UNL A   1      47.585  25.282  34.943  1.00  0.00     0.198 A 
ATOM    101  C   UNL A   1      48.800  26.903  33.655  1.00  0.00     0.198 A 
ATOM    102  F   UNL A   1      47.652  28.356  32.205  1.00  0.00    -0.203 F 
ATOM    103  F   UNL A   1      47.567  24.310  35.865  1.00  0.00    -0.200 F 
ATOM    104  C   UNL A   1      48.787  25.876  34.587  1.00  0.00     0.200 A 
ATOM    105  F   UNL A   1      49.962  27.470  33.299  1.00  0.00    -0.200 F 
ATOM    106  F   UNL A   1      49.932  25.464  35.147  1.00  0.00    -0.200 F 
ENDBRANCH  73  96
ENDBRANCH  47  48
ENDBRANCH  39  42
ENDBRANCH  37  38
ENDBRANCH  36  37
ENDBRANCH  35  36
ENDBRANCH  34  35
ENDBRANCH  33  34
ENDBRANCH  32  33
ENDBRANCH   3  32
TORSDOF 21
ENDMDL
MODEL 2
REMARK VINA RESULT:      -9.0      3.095      9.504
REMARK SMILES CCCCCCNC(=O)Nc1cccc(-c2ccc([C@@H](C)C(=O)NCCCCCCNC(=O)c3ccc(-c4c5nc(c(-c6c(F)c(F)c(F)c(F)c6F)c6ccc([nH]6)c(-c6c(F)c(F)c(F)c(F)c6F)c6nc(c(-c7c(F)c(F)c(F)c(F)c7F)c7ccc4[nH]7)C=C6)C=C5)cc3)cc2F)c1
REMARK SMILES IDX 22 1 23 2 24 3 20 5 21 6 19 7 16 8 17 9 98 10 18 11 97 12
REMARK SMILES IDX 99 13 15 14 11 15 12 16 100 17 13 18 14 19 10 20 7 21 8 22
REMARK SMILES IDX 9 24 6 26 5 27 4 28 3 29 2 30 1 31 25 32 26 33 27 34 28 35
REMARK SMILES IDX 29 36 30 37 31 38 32 39 33 41 34 42 35 43 96 44 36 45 95 46
REMARK SMILES IDX 37 47 38 48 39 49 89 50 40 51 94 52 88 53 90 54 41 55 93 56
REMARK SMILES IDX 87 57 86 58 42 60 74 61 54 62 73 63 55 64 58 65 72 66 91 67
REMARK SMILES IDX 56 68 57 69 71 71 92 72 59 73 43 74 44 75 52 76 45 77 46 78
REMARK SMILES IDX 50 79 53 80 47 81 48 82 51 83 49 84 75 85 76 86 84 87 77 88
REMARK SMILES IDX 78 89 82 90 85 91 79 92 80 93 83 94 81 95 60 96 61 97 69 98
REMARK SMILES IDX 62 99 63 100 67 101 70 102 64 103 65 104 68 105 66 106
REMARK H PARENT 24 4 7 23 10 25 31 40 90 59 58 70
REMARK Flexibility Score: inf
ROOT
ATOM      1  C   UNL A   1      41.400  26.181  26.535  1.00  0.00     0.227 C 
ATOM      2  O   UNL A   1      41.193  26.945  25.585  1.00  0.00    -0.274 OA
ATOM      3  N   UNL A   1      42.437  25.314  26.393  1.00  0.00    -0.356 N 
ATOM      4  H   UNL A   1      42.988  25.475  25.593  1.00  0.00     0.163 HD
ENDROOT
BRANCH   1   5
ATOM      5  C   UNL A   1      40.516  26.262  27.788  1.00  0.00     0.105 C 
ATOM      6  C   UNL A   1      39.321  25.308  27.787  1.00  0.00     0.023 C 
BRANCH   5   7
ATOM      7  C   UNL A   1      40.209  27.679  28.253  1.00  0.00    -0.033 A 
ATOM      8  C   UNL A   1      39.537  30.322  29.138  1.00  0.00     0.018 A 
ATOM      9  C   UNL A   1      40.849  29.828  29.212  1.00  0.00     0.012 A 
ATOM     10  C   UNL A   1      38.576  29.459  28.595  1.00  0.00     0.131 A 
ATOM     11  C   UNL A   1      41.182  28.549  28.751  1.00  0.00     0.005 A 
ATOM     12  C   UNL A   1      38.894  28.160  28.179  1.00  0.00     0.044 A 
ATOM     13  F   UNL A   1      37.302  29.858  28.454  1.00  0.00    -0.206 F 
BRANCH   8  14
ATOM     14  C   UNL A   1      39.213  31.668  29.663  1.00  0.00    -0.013 A 
ATOM     15  C   UNL A   1      37.717  33.605  29.728  1.00  0.00     0.043 A 
ATOM     16  C   UNL A   1      38.433  34.148  30.791  1.00  0.00     0.026 A 
ATOM     17  C   UNL A   1      38.153  32.417  29.127  1.00  0.00     0.035 A 
ATOM     18  C   UNL A   1      39.506  33.442  31.326  1.00  0.00     0.003 A 
ATOM     19  C   UNL A   1      39.881  32.211  30.777  1.00  0.00     0.009 A 
BRANCH  15  20
ATOM     20  N   UNL A   1      36.535  34.248  29.332  1.00  0.00    -0.308 N 
ATOM     21  N   UNL A   1      34.817  32.853  30.175  1.00  0.00    -0.338 N 
ATOM     22  C   UNL A   1      35.257  33.796  29.306  1.00  0.00     0.319 C 
ATOM     23  H   UNL A   1      33.947  32.454  29.943  1.00  0.00     0.165 HD
ATOM     24  O   UNL A   1      34.441  34.320  28.546  1.00  0.00    -0.249 OA
ATOM     25  H   UNL A   1      36.652  35.175  29.022  1.00  0.00     0.171 HD
BRANCH  21  26
ATOM     26  C   UNL A   1      35.417  32.333  31.394  1.00  0.00     0.117 C 
BRANCH  26  27
ATOM     27  C   UNL A   1      35.870  30.882  31.280  1.00  0.00     0.021 C 
BRANCH  27  28
ATOM     28  C   UNL A   1      36.936  30.449  32.286  1.00  0.00     0.002 C 
BRANCH  28  29
ATOM     29  C   UNL A   1      37.564  29.072  32.041  1.00  0.00    -0.000 C 
BRANCH  29  30
ATOM     30  C   UNL A   1      39.010  28.903  32.517  1.00  0.00    -0.003 C 
ATOM     31  C   UNL A   1      39.419  29.923  33.569  1.00  0.00     0.004 C 
ENDBRANCH  29  30
ENDBRANCH  28  29
ENDBRANCH  27  28
ENDBRANCH  26  27
ENDBRANCH  21  26
ENDBRANCH  15  20
ENDBRANCH   8  14
ENDBRANCH   5   7
ENDBRANCH   1   5
BRANCH   3  32
ATOM     32  C   UNL A   1      42.880  24.201  27.202  1.00  0.00     0.116 C 
BRANCH  32  33
ATOM     33  C   UNL A   1      43.819  24.669  28.314  1.00  0.00     0.021 C 
BRANCH  33  34
ATOM     34  C   UNL A   1      45.299  24.587  27.933  1.00  0.00     0.002 C 
BRANCH  34  35
ATOM     35  C   UNL A   1      45.656  23.469  26.947  1.00  0.00     0.002 C 
BRANCH  35  36
ATOM     36  C   UNL A   1      46.265  23.941  25.623  1.00  0.00     0.021 C 
BRANCH  36  37
ATOM     37  C   UNL A   1      47.475  24.860  25.771  1.00  0.00     0.116 C 
BRANCH  37  38
ATOM     38  N   UNL A   1      47.623  25.748  24.629  1.00  0.00    -0.352 N 
ATOM     39  C   UNL A   1      47.111  27.006  24.429  1.00  0.00     0.251 C 
ATOM     40  H   UNL A   1      48.172  25.397  23.892  1.00  0.00     0.163 HD
ATOM     41  O   UNL A   1      47.137  27.516  23.315  1.00  0.00    -0.269 OA
BRANCH  39  42
ATOM     42  C   UNL A   1      46.518  27.746  25.563  1.00  0.00     0.039 A 
ATOM     43  C   UNL A   1      45.135  27.701  25.752  1.00  0.00     0.014 A 
ATOM     44  C   UNL A   1      47.322  28.501  26.420  1.00  0.00     0.014 A 
ATOM     45  C   UNL A   1      44.564  28.371  26.836  1.00  0.00     0.010 A 
ATOM     46  C   UNL A   1      46.761  29.108  27.540  1.00  0.00     0.010 A 
ATOM     47  C   UNL A   1      45.376  29.054  27.755  1.00  0.00    -0.014 A 
BRANCH  47  48
ATOM     48  C   UNL A   1      44.793  29.733  28.942  1.00  0.00     0.031 A 
ATOM     49  C   UNL A   1      44.526  31.212  28.906  1.00  0.00     0.074 A 
ATOM     50  C   UNL A   1      44.557  29.028  30.065  1.00  0.00     0.049 A 
ATOM     51  N   UNL A   1      44.093  32.000  29.859  1.00  0.00    -0.248 NA
ATOM     52  C   UNL A   1      44.810  31.905  27.640  1.00  0.00     0.031 C 
ATOM     53  C   UNL A   1      44.812  27.597  30.234  1.00  0.00     0.029 A 
ATOM     54  N   UNL A   1      44.060  29.423  31.282  1.00  0.00    -0.354 N 
ATOM     55  C   UNL A   1      44.055  33.273  29.308  1.00  0.00     0.074 A 
ATOM     56  C   UNL A   1      44.571  33.168  27.961  1.00  0.00     0.031 C 
ATOM     57  C   UNL A   1      44.450  27.229  31.473  1.00  0.00     0.029 A 
ATOM     58  C   UNL A   1      43.977  28.404  32.199  1.00  0.00     0.049 A 
ATOM     59  H   UNL A   1      43.790  30.349  31.478  1.00  0.00     0.167 HD
ATOM     60  C   UNL A   1      43.604  34.423  29.865  1.00  0.00     0.037 A 
ATOM     61  C   UNL A   1      43.574  28.421  33.483  1.00  0.00     0.037 A 
ATOM     62  C   UNL A   1      43.077  34.521  31.202  1.00  0.00     0.049 A 
ATOM     63  C   UNL A   1      43.103  29.718  34.087  1.00  0.00     0.074 A 
ATOM     64  C   UNL A   1      42.567  35.632  31.849  1.00  0.00     0.029 A 
ATOM     65  N   UNL A   1      42.995  33.464  32.096  1.00  0.00    -0.354 N 
ATOM     66  N   UNL A   1      43.019  30.904  33.538  1.00  0.00    -0.248 NA
ATOM     67  C   UNL A   1      42.664  29.674  35.488  1.00  0.00     0.031 C 
ATOM     68  C   UNL A   1      42.215  35.258  33.151  1.00  0.00     0.029 A 
ATOM     69  C   UNL A   1      42.456  33.901  33.296  1.00  0.00     0.049 A 
ATOM     70  H   UNL A   1      43.277  32.540  31.907  1.00  0.00     0.167 HD
ATOM     71  C   UNL A   1      42.486  31.739  34.512  1.00  0.00     0.074 A 
ATOM     72  C   UNL A   1      42.251  30.918  35.681  1.00  0.00     0.031 C 
ATOM     73  C   UNL A   1      42.214  33.065  34.444  1.00  0.00     0.037 A 
BRANCH  60  74
ATOM     74  C   UNL A   1      43.649  35.666  29.024  1.00  0.00     0.064 A 
ATOM     75  C   UNL A   1      44.803  36.462  28.954  1.00  0.00     0.173 A 
ATOM     76  C   UNL A   1      42.543  36.049  28.251  1.00  0.00     0.173 A 
ATOM     77  F   UNL A   1      45.884  36.148  29.684  1.00  0.00    -0.203 F 
ATOM     78  C   UNL A   1      44.838  37.610  28.167  1.00  0.00     0.198 A 
ATOM     79  C   UNL A   1      42.592  37.178  27.438  1.00  0.00     0.198 A 
ATOM     80  F   UNL A   1      41.416  35.321  28.275  1.00  0.00    -0.203 F 
ATOM     81  F   UNL A   1      45.934  38.381  28.157  1.00  0.00    -0.200 F 
ATOM     82  C   UNL A   1      43.736  37.962  27.402  1.00  0.00     0.200 A 
ATOM     83  F   UNL A   1      41.531  37.511  26.690  1.00  0.00    -0.200 F 
ATOM     84  F   UNL A   1      43.773  39.062  26.637  1.00  0.00    -0.200 F 
ENDBRANCH  60  74
BRANCH  61  85
ATOM     85  C   UNL A   1      43.578  27.169  34.287  1.00  0.00     0.064 A 
ATOM     86  C   UNL A   1      42.392  26.458  34.521  1.00  0.00     0.173 A 
ATOM     87  C   UNL A   1      44.758  26.671  34.859  1.00  0.00     0.173 A 
ATOM     88  F   UNL A   1      41.235  26.903  34.011  1.00  0.00    -0.203 F 
ATOM     89  C   UNL A   1      42.381  25.319  35.323  1.00  0.00     0.198 A 
ATOM     90  C   UNL A   1      44.752  25.514  35.634  1.00  0.00     0.198 A 
ATOM     91  F   UNL A   1      45.922  27.309  34.661  1.00  0.00    -0.203 F 
ATOM     92  F   UNL A   1      41.223  24.694  35.579  1.00  0.00    -0.200 F 
ATOM     93  C   UNL A   1      43.560  24.845  35.875  1.00  0.00     0.200 A 
ATOM     94  F   UNL A   1      45.896  25.051  36.153  1.00  0.00    -0.200 F 
ATOM     95  F   UNL A   1      43.550  23.751  36.648  1.00  0.00    -0.200 F 
ENDBRANCH  61  85
BRANCH  73  96
ATOM     96  C   UNL A   1      41.587  33.702  35.652  1.00  0.00     0.064 A 
ATOM     97  C   UNL A   1      42.355  34.373  36.615  1.00  0.00     0.173 A 
ATOM     98  C   UNL A   1      40.195  33.668  35.826  1.00  0.00     0.173 A 
ATOM     99  F   UNL A   1      43.689  34.420  36.502  1.00  0.00    -0.203 F 
ATOM    100  C   UNL A   1      41.753  34.961  37.725  1.00  0.00     0.198 A 
ATOM    101  C   UNL A   1      39.595  34.286  36.919  1.00  0.00     0.198 A 
ATOM    102  F   UNL A   1      39.415  33.045  34.930  1.00  0.00    -0.203 F 
ATOM    103  F   UNL A   1      42.510  35.551  38.660  1.00  0.00    -0.200 F 
ATOM    104  C   UNL A   1      40.374  34.924  37.873  1.00  0.00     0.200 A 
ATOM    105  F   UNL A   1      38.261  34.261  37.052  1.00  0.00    -0.200 F 
ATOM    106  F   UNL A   1      39.797  35.497  38.937  1.00  0.00    -0.200 F 
ENDBRANCH  73  96
ENDBRANCH  47  48
ENDBRANCH  39  42
ENDBRANCH  37  38
ENDBRANCH  36  37
ENDBRANCH  35  36
ENDBRANCH  34  35
ENDBRANCH  33  34
ENDBRANCH  32  33
ENDBRANCH   3  32
TORSDOF 21
ENDMDL
MODEL 3
REMARK VINA RESULT:      -8.6      3.123     10.025
REMARK SMILES CCCCCCNC(=O)Nc1cccc(-c2ccc([C@@H](C)C(=O)NCCCCCCNC(=O)c3ccc(-c4c5nc(c(-c6c(F)c(F)c(F)c(F)c6F)c6ccc([nH]6)c(-c6c(F)c(F)c(F)c(F)c6F)c6nc(c(-c7c(F)c(F)c(F)c(F)c7F)c7ccc4[nH]7)C=C6)C=C5)cc3)cc2F)c1
REMARK SMILES IDX 22 1 23 2 24 3 20 5 21 6 19 7 16 8 17 9 98 10 18 11 97 12
REMARK SMILES IDX 99 13 15 14 11 15 12 16 100 17 13 18 14 19 10 20 7 21 8 22
REMARK SMILES IDX 9 24 6 26 5 27 4 28 3 29 2 30 1 31 25 32 26 33 27 34 28 35
REMARK SMILES IDX 29 36 30 37 31 38 32 39 33 41 34 42 35 43 96 44 36 45 95 46
REMARK SMILES IDX 37 47 38 48 39 49 89 50 40 51 94 52 88 53 90 54 41 55 93 56
REMARK SMILES IDX 87 57 86 58 42 60 74 61 54 62 73 63 55 64 58 65 72 66 91 67
REMARK SMILES IDX 56 68 57 69 71 71 92 72 59 73 43 74 44 75 52 76 45 77 46 78
REMARK SMILES IDX 50 79 53 80 47 81 48 82 51 83 49 84 75 85 76 86 84 87 77 88
REMARK SMILES IDX 78 89 82 90 85 91 79 92 80 93 83 94 81 95 60 96 61 97 69 98
REMARK SMILES IDX 62 99 63 100 67 101 70 102 64 103 65 104 68 105 66 106
REMARK H PARENT 24 4 7 23 10 25 31 40 90 59 58 70
REMARK Flexibility Score: inf
ROOT
ATOM      1  C   UNL A   1      41.361  26.276  26.931  1.00  0.00     0.227 C 
ATOM      2  O   UNL A   1      41.180  27.034  25.970  1.00  0.00    -0.274 OA
ATOM      3  N   UNL A   1      42.332  25.336  26.779  1.00  0.00    -0.356 N 
ATOM      4  H   UNL A   1      42.870  25.442  25.960  1.00  0.00     0.163 HD
ENDROOT
BRANCH   1   5
ATOM      5  C   UNL A   1      40.522  26.443  28.205  1.00  0.00     0.105 C 
ATOM      6  C   UNL A   1      39.322  25.500  28.305  1.00  0.00     0.023 C 
BRANCH   5   7
ATOM      7  C   UNL A   1      40.238  27.889  28.589  1.00  0.00    -0.033 A 
ATOM      8  C   UNL A   1      39.610  30.591  29.315  1.00  0.00     0.018 A 
ATOM      9  C   UNL A   1      40.889  30.048  29.518  1.00  0.00     0.012 A 
ATOM     10  C   UNL A   1      38.661  29.745  28.726  1.00  0.00     0.131 A 
ATOM     11  C   UNL A   1      41.203  28.738  29.135  1.00  0.00     0.005 A 
ATOM     12  C   UNL A   1      38.955  28.418  28.386  1.00  0.00     0.044 A 
ATOM     13  F   UNL A   1      37.422  30.189  28.462  1.00  0.00    -0.206 F 
BRANCH   8  14
ATOM     14  C   UNL A   1      39.302  31.969  29.760  1.00  0.00    -0.013 A 
ATOM     15  C   UNL A   1      37.811  33.911  29.739  1.00  0.00     0.043 A 
ATOM     16  C   UNL A   1      38.556  34.519  30.745  1.00  0.00     0.026 A 
ATOM     17  C   UNL A   1      38.230  32.685  29.205  1.00  0.00     0.035 A 
ATOM     18  C   UNL A   1      39.641  33.845  31.297  1.00  0.00     0.003 A 
ATOM     19  C   UNL A   1      39.999  32.580  30.819  1.00  0.00     0.009 A 
BRANCH  15  20
ATOM     20  N   UNL A   1      36.620  34.531  29.333  1.00  0.00    -0.308 N 
ATOM     21  N   UNL A   1      34.922  33.120  30.189  1.00  0.00    -0.338 N 
ATOM     22  C   UNL A   1      35.349  34.059  29.310  1.00  0.00     0.319 C 
ATOM     23  H   UNL A   1      34.059  32.704  29.959  1.00  0.00     0.165 HD
ATOM     24  O   UNL A   1      34.528  34.561  28.542  1.00  0.00    -0.249 OA
ATOM     25  H   UNL A   1      36.724  35.456  29.013  1.00  0.00     0.171 HD
BRANCH  21  26
ATOM     26  C   UNL A   1      35.527  32.623  31.415  1.00  0.00     0.117 C 
BRANCH  26  27
ATOM     27  C   UNL A   1      35.891  31.143  31.361  1.00  0.00     0.021 C 
BRANCH  27  28
ATOM     28  C   UNL A   1      36.666  30.616  32.567  1.00  0.00     0.002 C 
BRANCH  28  29
ATOM     29  C   UNL A   1      37.824  29.662  32.250  1.00  0.00    -0.000 C 
BRANCH  29  30
ATOM     30  C   UNL A   1      38.998  29.687  33.234  1.00  0.00    -0.003 C 
ATOM     31  C   UNL A   1      39.219  31.051  33.869  1.00  0.00     0.004 C 
ENDBRANCH  29  30
ENDBRANCH  28  29
ENDBRANCH  27  28
ENDBRANCH  26  27
ENDBRANCH  21  26
ENDBRANCH  15  20
ENDBRANCH   8  14
ENDBRANCH   5   7
ENDBRANCH   1   5
BRANCH   3  32
ATOM     32  C   UNL A   1      42.719  24.211  27.599  1.00  0.00     0.116 C 
BRANCH  32  33
ATOM     33  C   UNL A   1      43.649  24.650  28.731  1.00  0.00     0.021 C 
BRANCH  33  34
ATOM     34  C   UNL A   1      45.134  24.528  28.378  1.00  0.00     0.002 C 
BRANCH  34  35
ATOM     35  C   UNL A   1      45.476  23.412  27.386  1.00  0.00     0.002 C 
BRANCH  35  36
ATOM     36  C   UNL A   1      46.046  23.887  26.045  1.00  0.00     0.021 C 
BRANCH  36  37
ATOM     37  C   UNL A   1      47.171  24.913  26.161  1.00  0.00     0.116 C 
BRANCH  37  38
ATOM     38  N   UNL A   1      47.247  25.767  24.986  1.00  0.00    -0.352 N 
ATOM     39  C   UNL A   1      46.738  27.027  24.788  1.00  0.00     0.251 C 
ATOM     40  H   UNL A   1      47.734  25.387  24.221  1.00  0.00     0.163 HD
ATOM     41  O   UNL A   1      46.690  27.505  23.661  1.00  0.00    -0.269 OA
BRANCH  39  42
ATOM     42  C   UNL A   1      46.241  27.808  25.940  1.00  0.00     0.039 A 
ATOM     43  C   UNL A   1      44.870  27.825  26.206  1.00  0.00     0.014 A 
ATOM     44  C   UNL A   1      47.123  28.538  26.741  1.00  0.00     0.014 A 
ATOM     45  C   UNL A   1      44.389  28.534  27.309  1.00  0.00     0.010 A 
ATOM     46  C   UNL A   1      46.652  29.184  27.880  1.00  0.00     0.010 A 
ATOM     47  C   UNL A   1      45.280  29.194  28.171  1.00  0.00    -0.014 A 
BRANCH  47  48
ATOM     48  C   UNL A   1      44.793  29.913  29.376  1.00  0.00     0.031 A 
ATOM     49  C   UNL A   1      44.502  29.151  30.640  1.00  0.00     0.074 A 
ATOM     50  C   UNL A   1      44.562  31.238  29.316  1.00  0.00     0.049 A 
ATOM     51  N   UNL A   1      44.001  29.583  31.772  1.00  0.00    -0.248 NA
ATOM     52  C   UNL A   1      44.784  27.708  30.622  1.00  0.00     0.031 C 
ATOM     53  C   UNL A   1      44.768  32.079  28.135  1.00  0.00     0.029 A 
ATOM     54  N   UNL A   1      44.091  32.110  30.266  1.00  0.00    -0.354 N 
ATOM     55  C   UNL A   1      43.909  28.467  32.592  1.00  0.00     0.074 A 
ATOM     56  C   UNL A   1      44.340  27.329  31.811  1.00  0.00     0.031 C 
ATOM     57  C   UNL A   1      44.447  33.347  28.437  1.00  0.00     0.029 A 
ATOM     58  C   UNL A   1      43.973  33.403  29.816  1.00  0.00     0.049 A 
ATOM     59  H   UNL A   1      43.859  31.834  31.181  1.00  0.00     0.167 HD
ATOM     60  C   UNL A   1      43.525  28.402  33.890  1.00  0.00     0.037 A 
ATOM     61  C   UNL A   1      43.525  34.505  30.446  1.00  0.00     0.037 A 
ATOM     62  C   UNL A   1      43.109  29.539  34.669  1.00  0.00     0.049 A 
ATOM     63  C   UNL A   1      43.078  34.399  31.880  1.00  0.00     0.074 A 
ATOM     64  C   UNL A   1      42.731  29.584  35.999  1.00  0.00     0.029 A 
ATOM     65  N   UNL A   1      43.018  30.836  34.183  1.00  0.00    -0.354 N 
ATOM     66  N   UNL A   1      43.048  33.349  32.663  1.00  0.00    -0.248 NA
ATOM     67  C   UNL A   1      42.609  35.636  32.519  1.00  0.00     0.031 C 
ATOM     68  C   UNL A   1      42.368  30.899  36.308  1.00  0.00     0.029 A 
ATOM     69  C   UNL A   1      42.573  31.684  35.184  1.00  0.00     0.049 A 
ATOM     70  H   UNL A   1      43.236  31.112  33.264  1.00  0.00     0.167 HD
ATOM     71  C   UNL A   1      42.594  33.803  33.894  1.00  0.00     0.074 A 
ATOM     72  C   UNL A   1      42.375  35.228  33.758  1.00  0.00     0.031 C 
ATOM     73  C   UNL A   1      42.377  33.104  35.035  1.00  0.00     0.037 A 
BRANCH  60  74
ATOM     74  C   UNL A   1      43.549  27.055  34.554  1.00  0.00     0.064 A 
ATOM     75  C   UNL A   1      42.381  26.291  34.706  1.00  0.00     0.173 A 
ATOM     76  C   UNL A   1      44.755  26.502  35.011  1.00  0.00     0.173 A 
ATOM     77  F   UNL A   1      41.199  26.778  34.298  1.00  0.00    -0.203 F 
ATOM     78  C   UNL A   1      42.414  25.040  35.316  1.00  0.00     0.198 A 
ATOM     79  C   UNL A   1      44.790  25.237  35.591  1.00  0.00     0.198 A 
ATOM     80  F   UNL A   1      45.902  27.186  34.886  1.00  0.00    -0.203 F 
ATOM     81  F   UNL A   1      41.277  24.354  35.496  1.00  0.00    -0.200 F 
ATOM     82  C   UNL A   1      43.620  24.511  35.750  1.00  0.00     0.200 A 
ATOM     83  F   UNL A   1      45.958  24.720  35.998  1.00  0.00    -0.200 F 
ATOM     84  F   UNL A   1      43.652  23.303  36.330  1.00  0.00    -0.200 F 
ENDBRANCH  60  74
BRANCH  61  85
ATOM     85  C   UNL A   1      43.489  35.812  29.735  1.00  0.00     0.064 A 
ATOM     86  C   UNL A   1      42.417  36.146  28.894  1.00  0.00     0.173 A 
ATOM     87  C   UNL A   1      44.533  36.740  29.859  1.00  0.00     0.173 A 
ATOM     88  F   UNL A   1      41.404  35.284  28.729  1.00  0.00    -0.203 F 
ATOM     89  C   UNL A   1      42.408  37.342  28.180  1.00  0.00     0.198 A 
ATOM     90  C   UNL A   1      44.507  37.950  29.169  1.00  0.00     0.198 A 
ATOM     91  F   UNL A   1      45.580  36.473  30.655  1.00  0.00    -0.203 F 
ATOM     92  F   UNL A   1      41.400  37.608  27.337  1.00  0.00    -0.200 F 
ATOM     93  C   UNL A   1      43.450  38.245  28.320  1.00  0.00     0.200 A 
ATOM     94  F   UNL A   1      45.509  38.826  29.320  1.00  0.00    -0.200 F 
ATOM     95  F   UNL A   1      43.443  39.394  27.632  1.00  0.00    -0.200 F 
ENDBRANCH  61  85
BRANCH  73  96
ATOM     96  C   UNL A   1      41.925  33.877  36.241  1.00  0.00     0.064 A 
ATOM     97  C   UNL A   1      40.567  34.110  36.502  1.00  0.00     0.173 A 
ATOM     98  C   UNL A   1      42.864  34.361  37.164  1.00  0.00     0.173 A 
ATOM     99  F   UNL A   1      39.631  33.682  35.643  1.00  0.00    -0.203 F 
ATOM    100  C   UNL A   1      40.167  34.825  37.628  1.00  0.00     0.198 A 
ATOM    101  C   UNL A   1      42.460  35.045  38.306  1.00  0.00     0.198 A 
ATOM    102  F   UNL A   1      44.176  34.158  36.965  1.00  0.00    -0.203 F 
ATOM    103  F   UNL A   1      38.868  35.082  37.830  1.00  0.00    -0.200 F 
ATOM    104  C   UNL A   1      41.113  35.285  38.533  1.00  0.00     0.200 A 
ATOM    105  F   UNL A   1      43.375  35.476  39.186  1.00  0.00    -0.200 F 
ATOM    106  F   UNL A   1      40.727  35.966  39.620  1.00  0.00    -0.200 F 
ENDBRANCH  73  96
ENDBRANCH  47  48
ENDBRANCH  39  42
ENDBRANCH  37  38
ENDBRANCH  36  37
ENDBRANCH  35  36
ENDBRANCH  34  35
ENDBRANCH  33  34
ENDBRANCH  32  33
ENDBRANCH   3  32
TORSDOF 21
ENDMDL
