MODEL 1
REMARK VINA RESULT:     -10.5      0.000      0.000
REMARK SMILES O=C(NCCCCCCNC(=O)c1cnc(-c2ccccc2Cl)nc1)c1ccc(-c2c3nc(c(-c4c(F)c(F)c(F)c(F)c4F)c4ccc([nH]4)c(-c4c(F)c(F)c(F)c(F)c4F)c4nc(c(-c5c(F)c(F)c(F)c(F)c5F)c5ccc2[nH]5)C=C4)C=C3)cc1
REMARK SMILES IDX 6 1 5 2 4 3 3 4 1 5 2 6 26 8 27 9 88 10 28 11 87 12 29 13
REMARK SMILES IDX 30 14 31 15 81 16 32 17 86 18 80 19 82 20 33 21 85 22 79 23
REMARK SMILES IDX 78 24 34 26 66 27 46 28 65 29 47 30 50 31 64 32 83 33 48 34
REMARK SMILES IDX 49 35 63 37 84 38 51 39 35 40 36 41 44 42 37 43 38 44 42 45
REMARK SMILES IDX 45 46 39 47 40 48 43 49 41 50 67 51 68 52 76 53 69 54 70 55
REMARK SMILES IDX 74 56 77 57 71 58 72 59 75 60 73 61 52 62 53 63 61 64 54 65
REMARK SMILES IDX 55 66 59 67 62 68 56 69 57 70 60 71 58 72 7 73 8 74 9 75
REMARK SMILES IDX 10 76 11 77 12 79 13 80 14 81 25 82 15 83 24 84 16 85 17 86
REMARK SMILES IDX 18 87 22 88 19 89 21 90 23 91 20 92
REMARK H PARENT 3 7 82 25 50 36 10 78
REMARK Flexibility Score: inf
ROOT
ATOM      1  C   UNL A   1      34.290  34.600  27.650  1.00  0.00     0.002 C 
ENDROOT
BRANCH   1   2
ATOM      2  C   UNL A   1      35.225  33.457  28.042  1.00  0.00     0.021 C 
BRANCH   2   3
ATOM      3  C   UNL A   1      34.625  32.456  29.020  1.00  0.00     0.116 C 
BRANCH   3   4
ATOM      4  N   UNL A   1      34.003  31.326  28.347  1.00  0.00    -0.352 N 
ATOM      5  O   UNL A   1      33.945  29.379  27.202  1.00  0.00    -0.269 OA
ATOM      6  C   UNL A   1      34.578  30.161  27.904  1.00  0.00     0.251 C 
ATOM      7  H   UNL A   1      33.034  31.408  28.190  1.00  0.00     0.163 HD
BRANCH   6   8
ATOM      8  C   UNL A   1      35.981  29.864  28.261  1.00  0.00     0.039 A 
ATOM      9  C   UNL A   1      37.008  30.104  27.347  1.00  0.00     0.014 A 
ATOM     10  C   UNL A   1      36.270  29.333  29.521  1.00  0.00     0.014 A 
ATOM     11  C   UNL A   1      38.299  29.680  27.633  1.00  0.00     0.010 A 
ATOM     12  C   UNL A   1      37.587  28.999  29.846  1.00  0.00     0.010 A 
ATOM     13  C   UNL A   1      38.609  29.146  28.894  1.00  0.00    -0.014 A 
BRANCH  13  14
ATOM     14  C   UNL A   1      40.023  28.830  29.218  1.00  0.00     0.031 A 
ATOM     15  C   UNL A   1      40.865  29.761  30.042  1.00  0.00     0.074 A 
ATOM     16  C   UNL A   1      40.535  27.668  28.770  1.00  0.00     0.049 A 
ATOM     17  N   UNL A   1      42.113  29.628  30.417  1.00  0.00    -0.248 NA
ATOM     18  C   UNL A   1      40.231  31.005  30.501  1.00  0.00     0.031 C 
ATOM     19  C   UNL A   1      39.812  26.691  27.951  1.00  0.00     0.029 A 
ATOM     20  N   UNL A   1      41.771  27.101  28.945  1.00  0.00    -0.354 N 
ATOM     21  C   UNL A   1      42.419  30.774  31.139  1.00  0.00     0.074 A 
ATOM     22  C   UNL A   1      41.234  31.607  31.126  1.00  0.00     0.031 C 
ATOM     23  C   UNL A   1      40.599  25.629  27.733  1.00  0.00     0.029 A 
ATOM     24  C   UNL A   1      41.905  25.881  28.330  1.00  0.00     0.049 A 
ATOM     25  H   UNL A   1      42.493  27.528  29.461  1.00  0.00     0.167 HD
ATOM     26  C   UNL A   1      43.581  31.093  31.762  1.00  0.00     0.037 A 
ATOM     27  C   UNL A   1      42.968  25.063  28.234  1.00  0.00     0.037 A 
ATOM     28  C   UNL A   1      44.753  30.252  31.771  1.00  0.00     0.049 A 
ATOM     29  C   UNL A   1      44.254  25.465  28.896  1.00  0.00     0.074 A 
ATOM     30  C   UNL A   1      45.966  30.469  32.402  1.00  0.00     0.029 A 
ATOM     31  N   UNL A   1      44.862  29.038  31.107  1.00  0.00    -0.354 N 
ATOM     32  N   UNL A   1      44.518  26.531  29.613  1.00  0.00    -0.248 NA
ATOM     33  C   UNL A   1      45.393  24.552  28.733  1.00  0.00     0.031 C 
ATOM     34  C   UNL A   1      46.828  29.419  32.070  1.00  0.00     0.029 A 
ATOM     35  C   UNL A   1      46.133  28.511  31.288  1.00  0.00     0.049 A 
ATOM     36  H   UNL A   1      44.144  28.612  30.585  1.00  0.00     0.167 HD
ATOM     37  C   UNL A   1      45.843  26.407  30.005  1.00  0.00     0.074 A 
ATOM     38  C   UNL A   1      46.321  25.150  29.465  1.00  0.00     0.031 C 
ATOM     39  C   UNL A   1      46.595  27.258  30.743  1.00  0.00     0.037 A 
BRANCH  26  40
ATOM     40  C   UNL A   1      43.656  32.418  32.468  1.00  0.00     0.064 A 
ATOM     41  C   UNL A   1      43.966  33.606  31.786  1.00  0.00     0.173 A 
ATOM     42  C   UNL A   1      43.366  32.510  33.838  1.00  0.00     0.173 A 
ATOM     43  F   UNL A   1      44.260  33.575  30.477  1.00  0.00    -0.203 F 
ATOM     44  C   UNL A   1      44.008  34.827  32.454  1.00  0.00     0.198 A 
ATOM     45  C   UNL A   1      43.376  33.738  34.495  1.00  0.00     0.198 A 
ATOM     46  F   UNL A   1      43.054  31.409  34.539  1.00  0.00    -0.203 F 
ATOM     47  F   UNL A   1      44.351  35.940  31.791  1.00  0.00    -0.200 F 
ATOM     48  C   UNL A   1      43.705  34.894  33.805  1.00  0.00     0.200 A 
ATOM     49  F   UNL A   1      43.068  33.802  35.798  1.00  0.00    -0.200 F 
ATOM     50  F   UNL A   1      43.737  36.072  34.444  1.00  0.00    -0.200 F 
ENDBRANCH  26  40
BRANCH  27  51
ATOM     51  C   UNL A   1      42.856  23.793  27.470  1.00  0.00     0.064 A 
ATOM     52  C   UNL A   1      43.235  23.723  26.123  1.00  0.00     0.173 A 
ATOM     53  C   UNL A   1      42.376  22.621  28.075  1.00  0.00     0.173 A 
ATOM     54  F   UNL A   1      43.684  24.821  25.496  1.00  0.00    -0.203 F 
ATOM     55  C   UNL A   1      43.116  22.537  25.404  1.00  0.00     0.198 A 
ATOM     56  C   UNL A   1      42.293  21.427  27.364  1.00  0.00     0.198 A 
ATOM     57  F   UNL A   1      42.008  22.631  29.364  1.00  0.00    -0.203 F 
ATOM     58  F   UNL A   1      43.440  22.510  24.104  1.00  0.00    -0.200 F 
ATOM     59  C   UNL A   1      42.653  21.387  26.027  1.00  0.00     0.200 A 
ATOM     60  F   UNL A   1      41.864  20.315  27.977  1.00  0.00    -0.200 F 
ATOM     61  F   UNL A   1      42.548  20.244  25.337  1.00  0.00    -0.200 F 
ENDBRANCH  27  51
BRANCH  39  62
ATOM     62  C   UNL A   1      48.007  26.840  31.040  1.00  0.00     0.064 A 
ATOM     63  C   UNL A   1      49.082  27.242  30.232  1.00  0.00     0.173 A 
ATOM     64  C   UNL A   1      48.291  26.046  32.161  1.00  0.00     0.173 A 
ATOM     65  F   UNL A   1      48.863  27.987  29.137  1.00  0.00    -0.203 F 
ATOM     66  C   UNL A   1      50.383  26.836  30.518  1.00  0.00     0.198 A 
ATOM     67  C   UNL A   1      49.597  25.673  32.464  1.00  0.00     0.198 A 
ATOM     68  F   UNL A   1      47.301  25.639  32.970  1.00  0.00    -0.203 F 
ATOM     69  F   UNL A   1      51.386  27.182  29.699  1.00  0.00    -0.200 F 
ATOM     70  C   UNL A   1      50.641  26.059  31.638  1.00  0.00     0.200 A 
ATOM     71  F   UNL A   1      49.846  24.935  33.555  1.00  0.00    -0.200 F 
ATOM     72  F   UNL A   1      51.894  25.675  31.915  1.00  0.00    -0.200 F 
ENDBRANCH  39  62
ENDBRANCH  13  14
ENDBRANCH   6   8
ENDBRANCH   3   4
ENDBRANCH   2   3
ENDBRANCH   1   2
BRANCH   1  73
ATOM     73  C   UNL A   1      34.267  35.784  28.621  1.00  0.00     0.002 C 
BRANCH  73  74
ATOM     74  C   UNL A   1      32.964  35.964  29.406  1.00  0.00     0.021 C 
BRANCH  74  75
ATOM     75  C   UNL A   1      32.969  35.351  30.805  1.00  0.00     0.116 C 
BRANCH  75  76
ATOM     76  N   UNL A   1      33.252  36.345  31.829  1.00  0.00    -0.352 N 
ATOM     77  C   UNL A   1      34.060  36.241  32.930  1.00  0.00     0.254 C 
ATOM     78  H   UNL A   1      32.800  37.213  31.714  1.00  0.00     0.163 HD
ATOM     79  O   UNL A   1      34.029  37.089  33.817  1.00  0.00    -0.269 OA
BRANCH  77  80
ATOM     80  C   UNL A   1      34.959  35.098  33.058  1.00  0.00     0.076 A 
ATOM     81  C   UNL A   1      34.768  34.107  33.993  1.00  0.00     0.129 A 
ATOM     82  C   UNL A   1      36.049  34.953  32.236  1.00  0.00     0.129 A 
ATOM     83  N   UNL A   1      35.632  33.088  34.179  1.00  0.00    -0.236 NA
ATOM     84  N   UNL A   1      36.946  33.954  32.376  1.00  0.00    -0.236 NA
ATOM     85  C   UNL A   1      36.718  33.075  33.375  1.00  0.00     0.160 A 
BRANCH  85  86
ATOM     86  C   UNL A   1      37.695  32.011  33.601  1.00  0.00     0.038 A 
ATOM     87  C   UNL A   1      37.440  30.722  33.086  1.00  0.00     0.013 A 
ATOM     88  C   UNL A   1      38.881  32.197  34.333  1.00  0.00     0.052 A 
ATOM     89  C   UNL A   1      38.340  29.671  33.270  1.00  0.00     0.001 A 
ATOM     90  C   UNL A   1      39.785  31.141  34.516  1.00  0.00     0.021 A 
ATOM     91  Cl  UNL A   1      39.273  33.697  35.111  1.00  0.00    -0.084 Cl
ATOM     92  C   UNL A   1      39.516  29.882  33.982  1.00  0.00     0.002 A 
ENDBRANCH  85  86
ENDBRANCH  77  80
ENDBRANCH  75  76
ENDBRANCH  74  75
ENDBRANCH  73  74
ENDBRANCH   1  73
TORSDOF 14
ENDMDL
MODEL 2
REMARK VINA RESULT:     -10.5      4.632      7.913
REMARK SMILES O=C(NCCCCCCNC(=O)c1cnc(-c2ccccc2Cl)nc1)c1ccc(-c2c3nc(c(-c4c(F)c(F)c(F)c(F)c4F)c4ccc([nH]4)c(-c4c(F)c(F)c(F)c(F)c4F)c4nc(c(-c5c(F)c(F)c(F)c(F)c5F)c5ccc2[nH]5)C=C4)C=C3)cc1
REMARK SMILES IDX 6 1 5 2 4 3 3 4 1 5 2 6 26 8 27 9 88 10 28 11 87 12 29 13
REMARK SMILES IDX 30 14 31 15 81 16 32 17 86 18 80 19 82 20 33 21 85 22 79 23
REMARK SMILES IDX 78 24 34 26 66 27 46 28 65 29 47 30 50 31 64 32 83 33 48 34
REMARK SMILES IDX 49 35 63 37 84 38 51 39 35 40 36 41 44 42 37 43 38 44 42 45
REMARK SMILES IDX 45 46 39 47 40 48 43 49 41 50 67 51 68 52 76 53 69 54 70 55
REMARK SMILES IDX 74 56 77 57 71 58 72 59 75 60 73 61 52 62 53 63 61 64 54 65
REMARK SMILES IDX 55 66 59 67 62 68 56 69 57 70 60 71 58 72 7 73 8 74 9 75
REMARK SMILES IDX 10 76 11 77 12 79 13 80 14 81 25 82 15 83 24 84 16 85 17 86
REMARK SMILES IDX 18 87 22 88 19 89 21 90 23 91 20 92
REMARK H PARENT 3 7 82 25 50 36 10 78
REMARK Flexibility Score: inf
ROOT
ATOM      1  C   UNL A   1      33.663  26.741  26.037  1.00  0.00     0.002 C 
ENDROOT
BRANCH   1   2
ATOM      2  C   UNL A   1      32.779  27.964  25.792  1.00  0.00     0.021 C 
BRANCH   2   3
ATOM      3  C   UNL A   1      33.528  29.201  25.317  1.00  0.00     0.116 C 
BRANCH   3   4
ATOM      4  N   UNL A   1      32.935  30.433  25.813  1.00  0.00    -0.352 N 
ATOM      5  O   UNL A   1      32.581  32.110  27.287  1.00  0.00    -0.269 OA
ATOM      6  C   UNL A   1      33.292  31.185  26.905  1.00  0.00     0.251 C 
ATOM      7  H   UNL A   1      32.173  30.776  25.292  1.00  0.00     0.163 HD
BRANCH   6   8
ATOM      8  C   UNL A   1      34.534  30.859  27.636  1.00  0.00     0.039 A 
ATOM      9  C   UNL A   1      34.681  29.619  28.260  1.00  0.00     0.014 A 
ATOM     10  C   UNL A   1      35.560  31.806  27.702  1.00  0.00     0.014 A 
ATOM     11  C   UNL A   1      35.783  29.380  29.069  1.00  0.00     0.010 A 
ATOM     12  C   UNL A   1      36.715  31.525  28.436  1.00  0.00     0.010 A 
ATOM     13  C   UNL A   1      36.824  30.319  29.147  1.00  0.00    -0.014 A 
BRANCH  13  14
ATOM     14  C   UNL A   1      38.051  29.977  29.911  1.00  0.00     0.031 A 
ATOM     15  C   UNL A   1      38.274  30.490  31.305  1.00  0.00     0.074 A 
ATOM     16  C   UNL A   1      38.960  29.172  29.330  1.00  0.00     0.049 A 
ATOM     17  N   UNL A   1      39.288  30.279  32.107  1.00  0.00    -0.248 NA
ATOM     18  C   UNL A   1      37.231  31.356  31.872  1.00  0.00     0.031 C 
ATOM     19  C   UNL A   1      38.852  28.623  27.976  1.00  0.00     0.029 A 
ATOM     20  N   UNL A   1      40.143  28.662  29.799  1.00  0.00    -0.354 N 
ATOM     21  C   UNL A   1      39.016  30.996  33.264  1.00  0.00     0.074 A 
ATOM     22  C   UNL A   1      37.754  31.674  33.050  1.00  0.00     0.031 C 
ATOM     23  C   UNL A   1      39.899  27.820  27.740  1.00  0.00     0.029 A 
ATOM     24  C   UNL A   1      40.788  27.856  28.894  1.00  0.00     0.049 A 
ATOM     25  H   UNL A   1      40.496  28.856  30.698  1.00  0.00     0.167 HD
ATOM     26  C   UNL A   1      39.750  31.072  34.401  1.00  0.00     0.037 A 
ATOM     27  C   UNL A   1      41.978  27.234  28.971  1.00  0.00     0.037 A 
ATOM     28  C   UNL A   1      41.004  30.388  34.604  1.00  0.00     0.049 A 
ATOM     29  C   UNL A   1      42.790  27.375  30.227  1.00  0.00     0.074 A 
ATOM     30  C   UNL A   1      41.806  30.373  35.732  1.00  0.00     0.029 A 
ATOM     31  N   UNL A   1      41.644  29.609  33.650  1.00  0.00    -0.354 N 
ATOM     32  N   UNL A   1      42.501  28.020  31.331  1.00  0.00    -0.248 NA
ATOM     33  C   UNL A   1      44.094  26.701  30.247  1.00  0.00     0.031 C 
ATOM     34  C   UNL A   1      42.959  29.637  35.441  1.00  0.00     0.029 A 
ATOM     35  C   UNL A   1      42.847  29.135  34.155  1.00  0.00     0.049 A 
ATOM     36  H   UNL A   1      41.297  29.420  32.749  1.00  0.00     0.167 HD
ATOM     37  C   UNL A   1      43.575  27.814  32.184  1.00  0.00     0.074 A 
ATOM     38  C   UNL A   1      44.511  26.964  31.477  1.00  0.00     0.031 C 
ATOM     39  C   UNL A   1      43.769  28.289  33.438  1.00  0.00     0.037 A 
BRANCH  26  40
ATOM     40  C   UNL A   1      39.233  31.943  35.513  1.00  0.00     0.064 A 
ATOM     41  C   UNL A   1      38.404  31.438  36.526  1.00  0.00     0.173 A 
ATOM     42  C   UNL A   1      39.613  33.292  35.593  1.00  0.00     0.173 A 
ATOM     43  F   UNL A   1      38.002  30.158  36.495  1.00  0.00    -0.203 F 
ATOM     44  C   UNL A   1      37.954  32.256  37.560  1.00  0.00     0.198 A 
ATOM     45  C   UNL A   1      39.188  34.098  36.646  1.00  0.00     0.198 A 
ATOM     46  F   UNL A   1      40.412  33.827  34.657  1.00  0.00    -0.203 F 
ATOM     47  F   UNL A   1      37.125  31.762  38.490  1.00  0.00    -0.200 F 
ATOM     48  C   UNL A   1      38.353  33.582  37.624  1.00  0.00     0.200 A 
ATOM     49  F   UNL A   1      39.588  35.376  36.714  1.00  0.00    -0.200 F 
ATOM     50  F   UNL A   1      37.927  34.365  38.626  1.00  0.00    -0.200 F 
ENDBRANCH  26  40
BRANCH  27  51
ATOM     51  C   UNL A   1      42.471  26.436  27.818  1.00  0.00     0.064 A 
ATOM     52  C   UNL A   1      43.327  26.998  26.862  1.00  0.00     0.173 A 
ATOM     53  C   UNL A   1      42.100  25.093  27.653  1.00  0.00     0.173 A 
ATOM     54  F   UNL A   1      43.695  28.284  26.967  1.00  0.00    -0.203 F 
ATOM     55  C   UNL A   1      43.776  26.254  25.775  1.00  0.00     0.198 A 
ATOM     56  C   UNL A   1      42.580  24.339  26.585  1.00  0.00     0.198 A 
ATOM     57  F   UNL A   1      41.289  24.504  28.544  1.00  0.00    -0.203 F 
ATOM     58  F   UNL A   1      44.556  26.831  24.849  1.00  0.00    -0.200 F 
ATOM     59  C   UNL A   1      43.410  24.924  25.640  1.00  0.00     0.200 A 
ATOM     60  F   UNL A   1      42.239  23.049  26.472  1.00  0.00    -0.200 F 
ATOM     61  F   UNL A   1      43.850  24.206  24.599  1.00  0.00    -0.200 F 
ENDBRANCH  27  51
BRANCH  39  62
ATOM     62  C   UNL A   1      45.029  27.868  34.140  1.00  0.00     0.064 A 
ATOM     63  C   UNL A   1      45.089  26.701  34.916  1.00  0.00     0.173 A 
ATOM     64  C   UNL A   1      46.199  28.632  34.014  1.00  0.00     0.173 A 
ATOM     65  F   UNL A   1      43.993  25.944  35.083  1.00  0.00    -0.203 F 
ATOM     66  C   UNL A   1      46.263  26.333  35.567  1.00  0.00     0.198 A 
ATOM     67  C   UNL A   1      47.381  28.242  34.636  1.00  0.00     0.198 A 
ATOM     68  F   UNL A   1      46.199  29.755  33.280  1.00  0.00    -0.203 F 
ATOM     69  F   UNL A   1      46.281  25.247  36.351  1.00  0.00    -0.200 F 
ATOM     70  C   UNL A   1      47.411  27.099  35.419  1.00  0.00     0.200 A 
ATOM     71  F   UNL A   1      48.493  28.975  34.481  1.00  0.00    -0.200 F 
ATOM     72  F   UNL A   1      48.542  26.740  36.041  1.00  0.00    -0.200 F 
ENDBRANCH  39  62
ENDBRANCH  13  14
ENDBRANCH   6   8
ENDBRANCH   3   4
ENDBRANCH   2   3
ENDBRANCH   1   2
BRANCH   1  73
ATOM     73  C   UNL A   1      33.911  25.861  24.808  1.00  0.00     0.002 C 
BRANCH  73  74
ATOM     74  C   UNL A   1      34.407  24.443  25.106  1.00  0.00     0.021 C 
BRANCH  74  75
ATOM     75  C   UNL A   1      33.817  23.809  26.364  1.00  0.00     0.116 C 
BRANCH  75  76
ATOM     76  N   UNL A   1      33.092  22.584  26.063  1.00  0.00    -0.352 N 
ATOM     77  C   UNL A   1      31.824  22.435  25.564  1.00  0.00     0.254 C 
ATOM     78  H   UNL A   1      33.579  21.748  26.242  1.00  0.00     0.163 HD
ATOM     79  O   UNL A   1      31.272  21.338  25.567  1.00  0.00    -0.269 OA
BRANCH  77  80
ATOM     80  C   UNL A   1      31.116  23.597  25.037  1.00  0.00     0.076 A 
ATOM     81  C   UNL A   1      30.964  23.822  23.688  1.00  0.00     0.129 A 
ATOM     82  C   UNL A   1      30.552  24.528  25.874  1.00  0.00     0.129 A 
ATOM     83  N   UNL A   1      30.384  24.930  23.183  1.00  0.00    -0.236 NA
ATOM     84  N   UNL A   1      29.959  25.654  25.423  1.00  0.00    -0.236 NA
ATOM     85  C   UNL A   1      29.932  25.827  24.086  1.00  0.00     0.160 A 
BRANCH  85  86
ATOM     86  C   UNL A   1      29.351  27.061  23.557  1.00  0.00     0.038 A 
ATOM     87  C   UNL A   1      27.972  27.303  23.730  1.00  0.00     0.013 A 
ATOM     88  C   UNL A   1      30.098  28.025  22.855  1.00  0.00     0.052 A 
ATOM     89  C   UNL A   1      27.368  28.465  23.247  1.00  0.00     0.001 A 
ATOM     90  C   UNL A   1      29.490  29.192  22.372  1.00  0.00     0.021 A 
ATOM     91  Cl  UNL A   1      31.777  27.811  22.476  1.00  0.00    -0.084 Cl
ATOM     92  C   UNL A   1      28.129  29.412  22.572  1.00  0.00     0.002 A 
ENDBRANCH  85  86
ENDBRANCH  77  80
ENDBRANCH  75  76
ENDBRANCH  74  75
ENDBRANCH  73  74
ENDBRANCH   1  73
TORSDOF 14
ENDMDL
MODEL 3
REMARK VINA RESULT:     -10.5      4.537      7.761
REMARK SMILES O=C(NCCCCCCNC(=O)c1cnc(-c2ccccc2Cl)nc1)c1ccc(-c2c3nc(c(-c4c(F)c(F)c(F)c(F)c4F)c4ccc([nH]4)c(-c4c(F)c(F)c(F)c(F)c4F)c4nc(c(-c5c(F)c(F)c(F)c(F)c5F)c5ccc2[nH]5)C=C4)C=C3)cc1
REMARK SMILES IDX 6 1 5 2 4 3 3 4 1 5 2 6 26 8 27 9 88 10 28 11 87 12 29 13
REMARK SMILES IDX 30 14 31 15 81 16 32 17 86 18 80 19 82 20 33 21 85 22 79 23
REMARK SMILES IDX 78 24 34 26 66 27 46 28 65 29 47 30 50 31 64 32 83 33 48 34
REMARK SMILES IDX 49 35 63 37 84 38 51 39 35 40 36 41 44 42 37 43 38 44 42 45
REMARK SMILES IDX 45 46 39 47 40 48 43 49 41 50 67 51 68 52 76 53 69 54 70 55
REMARK SMILES IDX 74 56 77 57 71 58 72 59 75 60 73 61 52 62 53 63 61 64 54 65
REMARK SMILES IDX 55 66 59 67 62 68 56 69 57 70 60 71 58 72 7 73 8 74 9 75
REMARK SMILES IDX 10 76 11 77 12 79 13 80 14 81 25 82 15 83 24 84 16 85 17 86
REMARK SMILES IDX 18 87 22 88 19 89 21 90 23 91 20 92
REMARK H PARENT 3 7 82 25 50 36 10 78
REMARK Flexibility Score: inf
ROOT
ATOM      1  C   UNL A   1      31.739  30.516  26.874  1.00  0.00     0.002 C 
ENDROOT
BRANCH   1   2
ATOM      2  C   UNL A   1      31.451  32.016  26.837  1.00  0.00     0.021 C 
BRANCH   2   3
ATOM      3  C   UNL A   1      32.689  32.900  26.885  1.00  0.00     0.116 C 
BRANCH   3   4
ATOM      4  N   UNL A   1      32.437  34.175  27.538  1.00  0.00    -0.352 N 
ATOM      5  O   UNL A   1      32.587  35.723  29.177  1.00  0.00    -0.269 OA
ATOM      6  C   UNL A   1      33.034  34.708  28.653  1.00  0.00     0.251 C 
ATOM      7  H   UNL A   1      31.741  34.734  27.121  1.00  0.00     0.163 HD
BRANCH   6   8
ATOM      8  C   UNL A   1      34.214  34.034  29.235  1.00  0.00     0.039 A 
ATOM      9  C   UNL A   1      34.051  32.972  30.127  1.00  0.00     0.014 A 
ATOM     10  C   UNL A   1      35.495  34.474  28.891  1.00  0.00     0.014 A 
ATOM     11  C   UNL A   1      35.157  32.448  30.784  1.00  0.00     0.010 A 
ATOM     12  C   UNL A   1      36.613  33.878  29.478  1.00  0.00     0.010 A 
ATOM     13  C   UNL A   1      36.451  32.877  30.450  1.00  0.00    -0.014 A 
BRANCH  13  14
ATOM     14  C   UNL A   1      37.619  32.202  31.070  1.00  0.00     0.031 A 
ATOM     15  C   UNL A   1      38.081  32.552  32.455  1.00  0.00     0.074 A 
ATOM     16  C   UNL A   1      38.251  31.244  30.365  1.00  0.00     0.049 A 
ATOM     17  N   UNL A   1      39.079  32.051  33.141  1.00  0.00    -0.248 NA
ATOM     18  C   UNL A   1      37.335  33.602  33.163  1.00  0.00     0.031 C 
ATOM     19  C   UNL A   1      37.894  30.829  29.006  1.00  0.00     0.029 A 
ATOM     20  N   UNL A   1      39.310  30.437  30.690  1.00  0.00    -0.354 N 
ATOM     21  C   UNL A   1      39.092  32.733  34.350  1.00  0.00     0.074 A 
ATOM     22  C   UNL A   1      38.019  33.705  34.295  1.00  0.00     0.031 C 
ATOM     23  C   UNL A   1      38.689  29.818  28.630  1.00  0.00     0.029 A 
ATOM     24  C   UNL A   1      39.658  29.563  29.689  1.00  0.00     0.049 A 
ATOM     25  H   UNL A   1      39.776  30.479  31.556  1.00  0.00     0.167 HD
ATOM     26  C   UNL A   1      39.919  32.555  35.410  1.00  0.00     0.037 A 
ATOM     27  C   UNL A   1      40.662  28.671  29.618  1.00  0.00     0.037 A 
ATOM     28  C   UNL A   1      40.981  31.580  35.455  1.00  0.00     0.049 A 
ATOM     29  C   UNL A   1      41.589  28.529  30.791  1.00  0.00     0.074 A 
ATOM     30  C   UNL A   1      41.850  31.298  36.494  1.00  0.00     0.029 A 
ATOM     31  N   UNL A   1      41.326  30.736  34.408  1.00  0.00    -0.354 N 
ATOM     32  N   UNL A   1      41.564  29.149  31.946  1.00  0.00    -0.248 NA
ATOM     33  C   UNL A   1      42.687  27.565  30.649  1.00  0.00     0.031 C 
ATOM     34  C   UNL A   1      42.759  30.330  36.056  1.00  0.00     0.029 A 
ATOM     35  C   UNL A   1      42.416  29.957  34.767  1.00  0.00     0.049 A 
ATOM     36  H   UNL A   1      40.866  30.697  33.539  1.00  0.00     0.167 HD
ATOM     37  C   UNL A   1      42.626  28.636  32.676  1.00  0.00     0.074 A 
ATOM     38  C   UNL A   1      43.261  27.637  31.842  1.00  0.00     0.031 C 
ATOM     39  C   UNL A   1      43.038  28.965  33.924  1.00  0.00     0.037 A 
BRANCH  26  40
ATOM     40  C   UNL A   1      39.729  33.448  36.605  1.00  0.00     0.064 A 
ATOM     41  C   UNL A   1      40.384  34.684  36.720  1.00  0.00     0.173 A 
ATOM     42  C   UNL A   1      38.838  33.084  37.628  1.00  0.00     0.173 A 
ATOM     43  F   UNL A   1      41.253  35.077  35.776  1.00  0.00    -0.203 F 
ATOM     44  C   UNL A   1      40.177  35.507  37.824  1.00  0.00     0.198 A 
ATOM     45  C   UNL A   1      38.608  33.925  38.714  1.00  0.00     0.198 A 
ATOM     46  F   UNL A   1      38.176  31.919  37.566  1.00  0.00    -0.203 F 
ATOM     47  F   UNL A   1      40.849  36.660  37.934  1.00  0.00    -0.200 F 
ATOM     48  C   UNL A   1      39.283  35.131  38.815  1.00  0.00     0.200 A 
ATOM     49  F   UNL A   1      37.732  33.567  39.663  1.00  0.00    -0.200 F 
ATOM     50  F   UNL A   1      39.077  35.930  39.873  1.00  0.00    -0.200 F 
ENDBRANCH  26  40
BRANCH  27  51
ATOM     51  C   UNL A   1      40.843  27.858  28.388  1.00  0.00     0.064 A 
ATOM     52  C   UNL A   1      41.633  28.318  27.326  1.00  0.00     0.173 A 
ATOM     53  C   UNL A   1      40.234  26.601  28.251  1.00  0.00     0.173 A 
ATOM     54  F   UNL A   1      42.222  29.521  27.403  1.00  0.00    -0.203 F 
ATOM     55  C   UNL A   1      41.790  27.562  26.168  1.00  0.00     0.198 A 
ATOM     56  C   UNL A   1      40.422  25.831  27.107  1.00  0.00     0.198 A 
ATOM     57  F   UNL A   1      39.474  26.110  29.241  1.00  0.00    -0.203 F 
ATOM     58  F   UNL A   1      42.513  28.048  25.148  1.00  0.00    -0.200 F 
ATOM     59  C   UNL A   1      41.192  26.316  26.061  1.00  0.00     0.200 A 
ATOM     60  F   UNL A   1      39.858  24.619  27.019  1.00  0.00    -0.200 F 
ATOM     61  F   UNL A   1      41.351  25.585  24.950  1.00  0.00    -0.200 F 
ENDBRANCH  27  51
BRANCH  39  62
ATOM     62  C   UNL A   1      44.214  28.210  34.476  1.00  0.00     0.064 A 
ATOM     63  C   UNL A   1      44.058  26.993  35.156  1.00  0.00     0.173 A 
ATOM     64  C   UNL A   1      45.517  28.701  34.302  1.00  0.00     0.173 A 
ATOM     65  F   UNL A   1      42.832  26.488  35.365  1.00  0.00    -0.203 F 
ATOM     66  C   UNL A   1      45.159  26.313  35.668  1.00  0.00     0.198 A 
ATOM     67  C   UNL A   1      46.618  28.000  34.783  1.00  0.00     0.198 A 
ATOM     68  F   UNL A   1      45.723  29.858  33.655  1.00  0.00    -0.203 F 
ATOM     69  F   UNL A   1      44.981  25.182  36.365  1.00  0.00    -0.200 F 
ATOM     70  C   UNL A   1      46.439  26.812  35.474  1.00  0.00     0.200 A 
ATOM     71  F   UNL A   1      47.855  28.477  34.582  1.00  0.00    -0.200 F 
ATOM     72  F   UNL A   1      47.498  26.153  35.963  1.00  0.00    -0.200 F 
ENDBRANCH  39  62
ENDBRANCH  13  14
ENDBRANCH   6   8
ENDBRANCH   3   4
ENDBRANCH   2   3
ENDBRANCH   1   2
BRANCH   1  73
ATOM     73  C   UNL A   1      31.839  29.839  25.503  1.00  0.00     0.002 C 
BRANCH  73  74
ATOM     74  C   UNL A   1      33.245  29.385  25.097  1.00  0.00     0.021 C 
BRANCH  74  75
ATOM     75  C   UNL A   1      33.395  29.004  23.626  1.00  0.00     0.116 C 
BRANCH  75  76
ATOM     76  N   UNL A   1      32.120  28.633  23.032  1.00  0.00    -0.352 N 
ATOM     77  C   UNL A   1      31.688  27.400  22.619  1.00  0.00     0.254 C 
ATOM     78  H   UNL A   1      31.479  29.370  22.909  1.00  0.00     0.163 HD
ATOM     79  O   UNL A   1      30.672  27.283  21.940  1.00  0.00    -0.269 OA
BRANCH  77  80
ATOM     80  C   UNL A   1      32.455  26.211  22.978  1.00  0.00     0.076 A 
ATOM     81  C   UNL A   1      32.362  25.617  24.216  1.00  0.00     0.129 A 
ATOM     82  C   UNL A   1      33.310  25.617  22.083  1.00  0.00     0.129 A 
ATOM     83  N   UNL A   1      33.122  24.568  24.592  1.00  0.00    -0.236 NA
ATOM     84  N   UNL A   1      34.093  24.565  22.405  1.00  0.00    -0.236 NA
ATOM     85  C   UNL A   1      33.992  24.103  23.669  1.00  0.00     0.160 A 
BRANCH  85  86
ATOM     86  C   UNL A   1      34.864  23.003  24.078  1.00  0.00     0.038 A 
ATOM     87  C   UNL A   1      36.262  23.191  24.064  1.00  0.00     0.013 A 
ATOM     88  C   UNL A   1      34.381  21.741  24.470  1.00  0.00     0.052 A 
ATOM     89  C   UNL A   1      37.140  22.176  24.447  1.00  0.00     0.001 A 
ATOM     90  C   UNL A   1      35.263  20.723  24.856  1.00  0.00     0.021 A 
ATOM     91  Cl  UNL A   1      32.695  21.335  24.436  1.00  0.00    -0.084 Cl
ATOM     92  C   UNL A   1      36.640  20.942  24.848  1.00  0.00     0.002 A 
ENDBRANCH  85  86
ENDBRANCH  77  80
ENDBRANCH  75  76
ENDBRANCH  74  75
ENDBRANCH  73  74
ENDBRANCH   1  73
TORSDOF 14
ENDMDL
