MODEL 1
REMARK VINA RESULT:     -11.3      0.000      0.000
REMARK SMILES Cc1cc(C(=O)N2CCC[C@@H]2C(C)C)sc1/C=C/C(=O)NCCCCCCNC(=O)c1ccc(-c2c3nc(c(-c4c(F)c(F)c(F)c(F)c4F)c4ccc([nH]4)c(-c4c(F)c(F)c(F)c(F)c4F)c4nc(c(-c5c(F)c(F)c(F)c(F)c5F)c5ccc2[nH]5)C=C4)C=C3)cc1
REMARK SMILES IDX 23 1 22 2 21 3 19 4 20 5 18 7 17 8 16 9 1 10 2 11 3 12 4 13
REMARK SMILES IDX 15 14 5 15 6 16 7 17 8 18 11 19 9 20 10 21 12 22 13 23 14 24
REMARK SMILES IDX 24 25 25 26 26 27 27 28 28 29 29 30 30 32 31 33 32 34 93 35
REMARK SMILES IDX 33 36 92 37 34 38 35 39 36 40 86 41 37 42 91 43 85 44 87 45
REMARK SMILES IDX 38 46 90 47 84 48 83 49 39 51 71 52 51 53 70 54 52 55 55 56
REMARK SMILES IDX 69 57 88 58 53 59 54 60 68 62 89 63 56 64 40 65 41 66 49 67
REMARK SMILES IDX 42 68 43 69 47 70 50 71 44 72 45 73 48 74 46 75 72 76 73 77
REMARK SMILES IDX 81 78 74 79 75 80 79 81 82 82 76 83 77 84 80 85 78 86 57 87
REMARK SMILES IDX 58 88 66 89 59 90 60 91 64 92 67 93 61 94 62 95 65 96 63 97
REMARK H PARENT 21 6 28 31 87 50 55 61
REMARK Flexibility Score: inf
ROOT
ATOM      1  C   UNL A   1      35.398  31.974  28.167  1.00  0.00     0.021 C 
ENDROOT
BRANCH   1   2
ATOM      2  C   UNL A   1      34.280  30.981  27.848  1.00  0.00     0.116 C 
BRANCH   2   3
ATOM      3  N   UNL A   1      33.128  31.672  27.302  1.00  0.00    -0.353 N 
ATOM      4  C   UNL A   1      31.999  31.183  26.728  1.00  0.00     0.244 C 
ATOM      5  O   UNL A   1      31.095  31.949  26.404  1.00  0.00    -0.270 OA
ATOM      6  H   UNL A   1      33.172  32.655  27.356  1.00  0.00     0.163 HD
BRANCH   4   7
ATOM      7  C   UNL A   1      31.807  29.728  26.571  1.00  0.00     0.072 C 
ATOM      8  C   UNL A   1      31.513  29.130  25.406  1.00  0.00     0.025 C 
BRANCH   8   9
ATOM      9  C   UNL A   1      31.287  27.724  25.309  1.00  0.00     0.031 A 
ATOM     10  C   UNL A   1      29.804  27.587  23.209  1.00  0.00     0.046 C 
ATOM     11  C   UNL A   1      30.503  27.018  24.402  1.00  0.00    -0.032 A 
ATOM     12  C   UNL A   1      30.450  25.619  24.734  1.00  0.00     0.029 A 
ATOM     13  C   UNL A   1      31.218  25.278  25.832  1.00  0.00     0.093 A 
ATOM     14  S   UNL A   1      32.018  26.657  26.434  1.00  0.00    -0.130 S 
BRANCH  13  15
ATOM     15  C   UNL A   1      31.453  23.927  26.348  1.00  0.00     0.264 C 
ATOM     16  O   UNL A   1      30.886  23.505  27.355  1.00  0.00    -0.268 OA
BRANCH  15  17
ATOM     17  N   UNL A   1      32.233  23.083  25.571  1.00  0.00    -0.335 N 
ATOM     18  C   UNL A   1      31.638  22.196  24.587  1.00  0.00     0.120 C 
ATOM     19  C   UNL A   1      33.630  23.375  25.223  1.00  0.00     0.088 C 
ATOM     20  C   UNL A   1      32.797  21.315  24.194  1.00  0.00     0.024 C 
ATOM     21  C   UNL A   1      33.958  22.307  24.149  1.00  0.00     0.027 C 
BRANCH  19  22
ATOM     22  C   UNL A   1      34.598  23.350  26.446  1.00  0.00     0.005 C 
ATOM     23  C   UNL A   1      34.413  22.091  27.306  1.00  0.00     0.009 C 
ATOM     24  C   UNL A   1      36.077  23.402  26.031  1.00  0.00     0.009 C 
ENDBRANCH  19  22
ENDBRANCH  15  17
ENDBRANCH  13  15
ENDBRANCH   8   9
ENDBRANCH   4   7
ENDBRANCH   2   3
ENDBRANCH   1   2
BRANCH   1  25
ATOM     25  C   UNL A   1      34.966  33.096  29.119  1.00  0.00     0.002 C 
BRANCH  25  26
ATOM     26  C   UNL A   1      35.189  34.519  28.588  1.00  0.00     0.002 C 
BRANCH  26  27
ATOM     27  C   UNL A   1      34.030  35.492  28.823  1.00  0.00     0.021 C 
BRANCH  27  28
ATOM     28  C   UNL A   1      32.840  34.896  29.569  1.00  0.00     0.116 C 
BRANCH  28  29
ATOM     29  N   UNL A   1      32.400  35.748  30.659  1.00  0.00    -0.352 N 
ATOM     30  C   UNL A   1      32.830  35.790  31.962  1.00  0.00     0.251 C 
ATOM     31  H   UNL A   1      31.689  36.390  30.432  1.00  0.00     0.163 HD
ATOM     32  O   UNL A   1      32.210  36.437  32.797  1.00  0.00    -0.269 OA
BRANCH  30  33
ATOM     33  C   UNL A   1      34.040  35.041  32.365  1.00  0.00     0.039 A 
ATOM     34  C   UNL A   1      33.890  33.765  32.917  1.00  0.00     0.014 A 
ATOM     35  C   UNL A   1      35.313  35.605  32.234  1.00  0.00     0.014 A 
ATOM     36  C   UNL A   1      35.019  33.034  33.293  1.00  0.00     0.010 A 
ATOM     37  C   UNL A   1      36.441  34.853  32.558  1.00  0.00     0.010 A 
ATOM     38  C   UNL A   1      36.303  33.564  33.094  1.00  0.00    -0.014 A 
BRANCH  38  39
ATOM     39  C   UNL A   1      37.516  32.788  33.451  1.00  0.00     0.031 A 
ATOM     40  C   UNL A   1      38.248  33.080  34.730  1.00  0.00     0.074 A 
ATOM     41  C   UNL A   1      37.994  31.866  32.594  1.00  0.00     0.049 A 
ATOM     42  N   UNL A   1      39.365  32.566  35.181  1.00  0.00    -0.248 NA
ATOM     43  C   UNL A   1      37.660  34.104  35.606  1.00  0.00     0.031 C 
ATOM     44  C   UNL A   1      37.395  31.522  31.304  1.00  0.00     0.029 A 
ATOM     45  N   UNL A   1      39.100  31.059  32.674  1.00  0.00    -0.354 N 
ATOM     46  C   UNL A   1      39.623  33.216  36.379  1.00  0.00     0.074 A 
ATOM     47  C   UNL A   1      38.568  34.190  36.568  1.00  0.00     0.031 C 
ATOM     48  C   UNL A   1      38.133  30.565  30.720  1.00  0.00     0.029 A 
ATOM     49  C   UNL A   1      39.270  30.248  31.579  1.00  0.00     0.049 A 
ATOM     50  H   UNL A   1      39.714  31.060  33.444  1.00  0.00     0.167 HD
ATOM     51  C   UNL A   1      40.636  33.007  37.253  1.00  0.00     0.037 A 
ATOM     52  C   UNL A   1      40.237  29.355  31.299  1.00  0.00     0.037 A 
ATOM     53  C   UNL A   1      41.664  32.014  37.082  1.00  0.00     0.049 A 
ATOM     54  C   UNL A   1      41.344  29.131  32.292  1.00  0.00     0.074 A 
ATOM     55  C   UNL A   1      42.694  31.680  37.942  1.00  0.00     0.029 A 
ATOM     56  N   UNL A   1      41.789  31.194  35.970  1.00  0.00    -0.354 N 
ATOM     57  N   UNL A   1      41.544  29.710  33.450  1.00  0.00    -0.248 NA
ATOM     58  C   UNL A   1      42.356  28.126  31.940  1.00  0.00     0.031 C 
ATOM     59  C   UNL A   1      43.463  30.679  37.337  1.00  0.00     0.029 A 
ATOM     60  C   UNL A   1      42.890  30.366  36.115  1.00  0.00     0.049 A 
ATOM     61  H   UNL A   1      41.185  31.201  35.192  1.00  0.00     0.167 HD
ATOM     62  C   UNL A   1      42.688  29.126  33.976  1.00  0.00     0.074 A 
ATOM     63  C   UNL A   1      43.132  28.138  33.015  1.00  0.00     0.031 C 
ATOM     64  C   UNL A   1      43.315  29.386  35.150  1.00  0.00     0.037 A 
BRANCH  51  65
ATOM     65  C   UNL A   1      40.679  33.870  38.480  1.00  0.00     0.064 A 
ATOM     66  C   UNL A   1      41.430  35.054  38.517  1.00  0.00     0.173 A 
ATOM     67  C   UNL A   1      39.942  33.523  39.621  1.00  0.00     0.173 A 
ATOM     68  F   UNL A   1      42.163  35.422  37.455  1.00  0.00    -0.203 F 
ATOM     69  C   UNL A   1      41.463  35.845  39.663  1.00  0.00     0.198 A 
ATOM     70  C   UNL A   1      39.956  34.329  40.755  1.00  0.00     0.198 A 
ATOM     71  F   UNL A   1      39.204  32.402  39.635  1.00  0.00    -0.203 F 
ATOM     72  F   UNL A   1      42.225  36.948  39.691  1.00  0.00    -0.200 F 
ATOM     73  C   UNL A   1      40.723  35.485  40.779  1.00  0.00     0.200 A 
ATOM     74  F   UNL A   1      39.233  33.985  41.831  1.00  0.00    -0.200 F 
ATOM     75  F   UNL A   1      40.753  36.249  41.879  1.00  0.00    -0.200 F 
ENDBRANCH  51  65
BRANCH  52  76
ATOM     76  C   UNL A   1      40.182  28.583  30.034  1.00  0.00     0.064 A 
ATOM     77  C   UNL A   1      40.784  29.075  28.868  1.00  0.00     0.173 A 
ATOM     78  C   UNL A   1      39.539  27.338  29.964  1.00  0.00     0.173 A 
ATOM     79  F   UNL A   1      41.392  30.270  28.882  1.00  0.00    -0.203 F 
ATOM     80  C   UNL A   1      40.734  28.357  27.675  1.00  0.00     0.198 A 
ATOM     81  C   UNL A   1      39.510  26.610  28.777  1.00  0.00     0.198 A 
ATOM     82  F   UNL A   1      38.953  26.824  31.056  1.00  0.00    -0.203 F 
ATOM     83  F   UNL A   1      41.289  28.865  26.567  1.00  0.00    -0.200 F 
ATOM     84  C   UNL A   1      40.103  27.123  27.632  1.00  0.00     0.200 A 
ATOM     85  F   UNL A   1      38.910  25.414  28.742  1.00  0.00    -0.200 F 
ATOM     86  F   UNL A   1      40.061  26.429  26.486  1.00  0.00    -0.200 F 
ENDBRANCH  52  76
BRANCH  64  87
ATOM     87  C   UNL A   1      44.532  28.572  35.470  1.00  0.00     0.064 A 
ATOM     88  C   UNL A   1      44.438  27.352  36.154  1.00  0.00     0.173 A 
ATOM     89  C   UNL A   1      45.802  29.000  35.054  1.00  0.00     0.173 A 
ATOM     90  F   UNL A   1      43.247  26.911  36.586  1.00  0.00    -0.203 F 
ATOM     91  C   UNL A   1      45.576  26.597  36.428  1.00  0.00     0.198 A 
ATOM     92  C   UNL A   1      46.934  28.231  35.308  1.00  0.00     0.198 A 
ATOM     93  F   UNL A   1      45.942  30.159  34.394  1.00  0.00    -0.203 F 
ATOM     94  F   UNL A   1      45.468  25.453  37.117  1.00  0.00    -0.200 F 
ATOM     95  C   UNL A   1      46.821  27.034  35.999  1.00  0.00     0.200 A 
ATOM     96  F   UNL A   1      48.135  28.650  34.887  1.00  0.00    -0.200 F 
ATOM     97  F   UNL A   1      47.914  26.303  36.260  1.00  0.00    -0.200 F 
ENDBRANCH  64  87
ENDBRANCH  38  39
ENDBRANCH  30  33
ENDBRANCH  28  29
ENDBRANCH  27  28
ENDBRANCH  26  27
ENDBRANCH  25  26
ENDBRANCH   1  25
TORSDOF 17
ENDMDL
MODEL 2
REMARK VINA RESULT:     -10.7      5.026     11.277
REMARK SMILES Cc1cc(C(=O)N2CCC[C@@H]2C(C)C)sc1/C=C/C(=O)NCCCCCCNC(=O)c1ccc(-c2c3nc(c(-c4c(F)c(F)c(F)c(F)c4F)c4ccc([nH]4)c(-c4c(F)c(F)c(F)c(F)c4F)c4nc(c(-c5c(F)c(F)c(F)c(F)c5F)c5ccc2[nH]5)C=C4)C=C3)cc1
REMARK SMILES IDX 23 1 22 2 21 3 19 4 20 5 18 7 17 8 16 9 1 10 2 11 3 12 4 13
REMARK SMILES IDX 15 14 5 15 6 16 7 17 8 18 11 19 9 20 10 21 12 22 13 23 14 24
REMARK SMILES IDX 24 25 25 26 26 27 27 28 28 29 29 30 30 32 31 33 32 34 93 35
REMARK SMILES IDX 33 36 92 37 34 38 35 39 36 40 86 41 37 42 91 43 85 44 87 45
REMARK SMILES IDX 38 46 90 47 84 48 83 49 39 51 71 52 51 53 70 54 52 55 55 56
REMARK SMILES IDX 69 57 88 58 53 59 54 60 68 62 89 63 56 64 40 65 41 66 49 67
REMARK SMILES IDX 42 68 43 69 47 70 50 71 44 72 45 73 48 74 46 75 72 76 73 77
REMARK SMILES IDX 81 78 74 79 75 80 79 81 82 82 76 83 77 84 80 85 78 86 57 87
REMARK SMILES IDX 58 88 66 89 59 90 60 91 64 92 67 93 61 94 62 95 65 96 63 97
REMARK H PARENT 21 6 28 31 87 50 55 61
REMARK Flexibility Score: inf
ROOT
ATOM      1  C   UNL A   1      43.325  23.802  26.729  1.00  0.00     0.021 C 
ENDROOT
BRANCH   1   2
ATOM      2  C   UNL A   1      44.819  23.865  27.046  1.00  0.00     0.116 C 
BRANCH   2   3
ATOM      3  N   UNL A   1      45.576  24.218  25.862  1.00  0.00    -0.353 N 
ATOM      4  C   UNL A   1      45.928  25.435  25.372  1.00  0.00     0.244 C 
ATOM      5  O   UNL A   1      46.654  25.512  24.385  1.00  0.00    -0.270 OA
ATOM      6  H   UNL A   1      45.885  23.453  25.324  1.00  0.00     0.163 HD
BRANCH   4   7
ATOM      7  C   UNL A   1      45.520  26.670  26.070  1.00  0.00     0.072 C 
ATOM      8  C   UNL A   1      44.363  27.314  25.845  1.00  0.00     0.025 C 
BRANCH   8   9
ATOM      9  C   UNL A   1      44.030  28.533  26.507  1.00  0.00     0.031 A 
ATOM     10  C   UNL A   1      41.594  28.880  25.750  1.00  0.00     0.046 C 
ATOM     11  C   UNL A   1      42.857  29.277  26.446  1.00  0.00    -0.032 A 
ATOM     12  C   UNL A   1      42.981  30.513  27.172  1.00  0.00     0.029 A 
ATOM     13  C   UNL A   1      44.201  30.665  27.805  1.00  0.00     0.093 A 
ATOM     14  S   UNL A   1      45.174  29.294  27.533  1.00  0.00    -0.130 S 
BRANCH  13  15
ATOM     15  C   UNL A   1      44.589  31.756  28.703  1.00  0.00     0.264 C 
ATOM     16  O   UNL A   1      45.555  31.666  29.460  1.00  0.00    -0.268 OA
BRANCH  15  17
ATOM     17  N   UNL A   1      43.913  32.959  28.561  1.00  0.00    -0.335 N 
ATOM     18  C   UNL A   1      42.930  33.394  29.537  1.00  0.00     0.120 C 
ATOM     19  C   UNL A   1      44.470  34.113  27.843  1.00  0.00     0.088 C 
ATOM     20  C   UNL A   1      42.290  34.578  28.857  1.00  0.00     0.024 C 
ATOM     21  C   UNL A   1      43.487  35.259  28.197  1.00  0.00     0.027 C 
BRANCH  19  22
ATOM     22  C   UNL A   1      44.630  33.878  26.309  1.00  0.00     0.005 C 
ATOM     23  C   UNL A   1      43.488  34.515  25.503  1.00  0.00     0.009 C 
ATOM     24  C   UNL A   1      45.947  34.448  25.757  1.00  0.00     0.009 C 
ENDBRANCH  19  22
ENDBRANCH  15  17
ENDBRANCH  13  15
ENDBRANCH   8   9
ENDBRANCH   4   7
ENDBRANCH   2   3
ENDBRANCH   1   2
BRANCH   1  25
ATOM     25  C   UNL A   1      42.603  22.636  27.415  1.00  0.00     0.002 C 
BRANCH  25  26
ATOM     26  C   UNL A   1      42.637  21.309  26.646  1.00  0.00     0.002 C 
BRANCH  26  27
ATOM     27  C   UNL A   1      41.273  20.780  26.196  1.00  0.00     0.021 C 
BRANCH  27  28
ATOM     28  C   UNL A   1      40.077  21.455  26.860  1.00  0.00     0.116 C 
BRANCH  28  29
ATOM     29  N   UNL A   1      39.136  21.978  25.885  1.00  0.00    -0.352 N 
ATOM     30  C   UNL A   1      38.573  23.227  25.800  1.00  0.00     0.251 C 
ATOM     31  H   UNL A   1      38.862  21.345  25.182  1.00  0.00     0.163 HD
ATOM     32  O   UNL A   1      37.646  23.435  25.025  1.00  0.00    -0.269 OA
BRANCH  30  33
ATOM     33  C   UNL A   1      39.075  24.325  26.653  1.00  0.00     0.039 A 
ATOM     34  C   UNL A   1      39.997  25.228  26.116  1.00  0.00     0.014 A 
ATOM     35  C   UNL A   1      38.667  24.445  27.985  1.00  0.00     0.014 A 
ATOM     36  C   UNL A   1      40.475  26.282  26.899  1.00  0.00     0.010 A 
ATOM     37  C   UNL A   1      39.102  25.528  28.748  1.00  0.00     0.010 A 
ATOM     38  C   UNL A   1      40.012  26.451  28.213  1.00  0.00    -0.014 A 
BRANCH  38  39
ATOM     39  C   UNL A   1      40.478  27.586  29.048  1.00  0.00     0.031 A 
ATOM     40  C   UNL A   1      41.851  27.559  29.657  1.00  0.00     0.074 A 
ATOM     41  C   UNL A   1      39.641  28.608  29.311  1.00  0.00     0.049 A 
ATOM     42  N   UNL A   1      42.411  28.415  30.475  1.00  0.00    -0.248 NA
ATOM     43  C   UNL A   1      42.697  26.404  29.323  1.00  0.00     0.031 C 
ATOM     44  C   UNL A   1      38.271  28.727  28.811  1.00  0.00     0.029 A 
ATOM     45  N   UNL A   1      39.819  29.734  30.073  1.00  0.00    -0.354 N 
ATOM     46  C   UNL A   1      43.663  27.893  30.768  1.00  0.00     0.074 A 
ATOM     47  C   UNL A   1      43.768  26.628  30.072  1.00  0.00     0.031 C 
ATOM     48  C   UNL A   1      37.737  29.871  29.269  1.00  0.00     0.029 A 
ATOM     49  C   UNL A   1      38.714  30.549  30.116  1.00  0.00     0.049 A 
ATOM     50  H   UNL A   1      40.658  29.940  30.545  1.00  0.00     0.167 HD
ATOM     51  C   UNL A   1      44.644  28.430  31.531  1.00  0.00     0.037 A 
ATOM     52  C   UNL A   1      38.512  31.709  30.768  1.00  0.00     0.037 A 
ATOM     53  C   UNL A   1      44.553  29.704  32.194  1.00  0.00     0.049 A 
ATOM     54  C   UNL A   1      39.622  32.290  31.598  1.00  0.00     0.074 A 
ATOM     55  C   UNL A   1      45.517  30.365  32.934  1.00  0.00     0.029 A 
ATOM     56  N   UNL A   1      43.425  30.512  32.193  1.00  0.00    -0.354 N 
ATOM     57  N   UNL A   1      40.824  31.817  31.818  1.00  0.00    -0.248 NA
ATOM     58  C   UNL A   1      39.349  33.571  32.266  1.00  0.00     0.031 C 
ATOM     59  C   UNL A   1      44.963  31.558  33.410  1.00  0.00     0.029 A 
ATOM     60  C   UNL A   1      43.664  31.658  32.935  1.00  0.00     0.049 A 
ATOM     61  H   UNL A   1      42.580  30.302  31.734  1.00  0.00     0.167 HD
ATOM     62  C   UNL A   1      41.458  32.748  32.629  1.00  0.00     0.074 A 
ATOM     63  C   UNL A   1      40.511  33.821  32.853  1.00  0.00     0.031 C 
ATOM     64  C   UNL A   1      42.712  32.717  33.143  1.00  0.00     0.037 A 
BRANCH  51  65
ATOM     65  C   UNL A   1      45.909  27.637  31.688  1.00  0.00     0.064 A 
ATOM     66  C   UNL A   1      45.994  26.563  32.585  1.00  0.00     0.173 A 
ATOM     67  C   UNL A   1      47.039  27.939  30.914  1.00  0.00     0.173 A 
ATOM     68  F   UNL A   1      44.944  26.243  33.357  1.00  0.00    -0.203 F 
ATOM     69  C   UNL A   1      47.174  25.836  32.722  1.00  0.00     0.198 A 
ATOM     70  C   UNL A   1      48.209  27.194  31.035  1.00  0.00     0.198 A 
ATOM     71  F   UNL A   1      47.008  28.955  30.038  1.00  0.00    -0.203 F 
ATOM     72  F   UNL A   1      47.246  24.843  33.620  1.00  0.00    -0.200 F 
ATOM     73  C   UNL A   1      48.278  26.149  31.944  1.00  0.00     0.200 A 
ATOM     74  F   UNL A   1      49.273  27.492  30.275  1.00  0.00    -0.200 F 
ATOM     75  F   UNL A   1      49.412  25.447  32.075  1.00  0.00    -0.200 F 
ENDBRANCH  51  65
BRANCH  52  76
ATOM     76  C   UNL A   1      37.212  32.411  30.635  1.00  0.00     0.064 A 
ATOM     77  C   UNL A   1      36.207  32.248  31.598  1.00  0.00     0.173 A 
ATOM     78  C   UNL A   1      36.950  33.266  29.553  1.00  0.00     0.173 A 
ATOM     79  F   UNL A   1      36.405  31.425  32.638  1.00  0.00    -0.203 F 
ATOM     80  C   UNL A   1      34.983  32.903  31.479  1.00  0.00     0.198 A 
ATOM     81  C   UNL A   1      35.735  33.938  29.447  1.00  0.00     0.198 A 
ATOM     82  F   UNL A   1      37.883  33.458  28.609  1.00  0.00    -0.203 F 
ATOM     83  F   UNL A   1      34.028  32.703  32.395  1.00  0.00    -0.200 F 
ATOM     84  C   UNL A   1      34.751  33.751  30.407  1.00  0.00     0.200 A 
ATOM     85  F   UNL A   1      35.518  34.766  28.417  1.00  0.00    -0.200 F 
ATOM     86  F   UNL A   1      33.576  34.386  30.295  1.00  0.00    -0.200 F 
ENDBRANCH  52  76
BRANCH  64  87
ATOM     87  C   UNL A   1      43.140  33.887  33.976  1.00  0.00     0.064 A 
ATOM     88  C   UNL A   1      42.958  33.903  35.366  1.00  0.00     0.173 A 
ATOM     89  C   UNL A   1      43.772  34.989  33.381  1.00  0.00     0.173 A 
ATOM     90  F   UNL A   1      42.344  32.878  35.977  1.00  0.00    -0.203 F 
ATOM     91  C   UNL A   1      43.378  34.989  36.129  1.00  0.00     0.198 A 
ATOM     92  C   UNL A   1      44.212  36.063  34.150  1.00  0.00     0.198 A 
ATOM     93  F   UNL A   1      43.970  35.019  32.055  1.00  0.00    -0.203 F 
ATOM     94  F   UNL A   1      43.160  34.999  37.452  1.00  0.00    -0.200 F 
ATOM     95  C   UNL A   1      44.010  36.064  35.522  1.00  0.00     0.200 A 
ATOM     96  F   UNL A   1      44.829  37.097  33.563  1.00  0.00    -0.200 F 
ATOM     97  F   UNL A   1      44.418  37.106  36.260  1.00  0.00    -0.200 F 
ENDBRANCH  64  87
ENDBRANCH  38  39
ENDBRANCH  30  33
ENDBRANCH  28  29
ENDBRANCH  27  28
ENDBRANCH  26  27
ENDBRANCH  25  26
ENDBRANCH   1  25
TORSDOF 17
ENDMDL
MODEL 3
REMARK VINA RESULT:     -10.5      1.022      2.465
REMARK SMILES Cc1cc(C(=O)N2CCC[C@@H]2C(C)C)sc1/C=C/C(=O)NCCCCCCNC(=O)c1ccc(-c2c3nc(c(-c4c(F)c(F)c(F)c(F)c4F)c4ccc([nH]4)c(-c4c(F)c(F)c(F)c(F)c4F)c4nc(c(-c5c(F)c(F)c(F)c(F)c5F)c5ccc2[nH]5)C=C4)C=C3)cc1
REMARK SMILES IDX 23 1 22 2 21 3 19 4 20 5 18 7 17 8 16 9 1 10 2 11 3 12 4 13
REMARK SMILES IDX 15 14 5 15 6 16 7 17 8 18 11 19 9 20 10 21 12 22 13 23 14 24
REMARK SMILES IDX 24 25 25 26 26 27 27 28 28 29 29 30 30 32 31 33 32 34 93 35
REMARK SMILES IDX 33 36 92 37 34 38 35 39 36 40 86 41 37 42 91 43 85 44 87 45
REMARK SMILES IDX 38 46 90 47 84 48 83 49 39 51 71 52 51 53 70 54 52 55 55 56
REMARK SMILES IDX 69 57 88 58 53 59 54 60 68 62 89 63 56 64 40 65 41 66 49 67
REMARK SMILES IDX 42 68 43 69 47 70 50 71 44 72 45 73 48 74 46 75 72 76 73 77
REMARK SMILES IDX 81 78 74 79 75 80 79 81 82 82 76 83 77 84 80 85 78 86 57 87
REMARK SMILES IDX 58 88 66 89 59 90 60 91 64 92 67 93 61 94 62 95 65 96 63 97
REMARK H PARENT 21 6 28 31 87 50 55 61
REMARK Flexibility Score: inf
ROOT
ATOM      1  C   UNL A   1      34.813  32.734  29.365  1.00  0.00     0.021 C 
ENDROOT
BRANCH   1   2
ATOM      2  C   UNL A   1      34.612  31.769  28.196  1.00  0.00     0.116 C 
BRANCH   2   3
ATOM      3  N   UNL A   1      33.279  31.911  27.643  1.00  0.00    -0.353 N 
ATOM      4  C   UNL A   1      32.580  31.097  26.811  1.00  0.00     0.244 C 
ATOM      5  O   UNL A   1      31.416  31.365  26.527  1.00  0.00    -0.270 OA
ATOM      6  H   UNL A   1      32.804  32.730  27.915  1.00  0.00     0.163 HD
BRANCH   4   7
ATOM      7  C   UNL A   1      33.176  29.841  26.316  1.00  0.00     0.072 C 
ATOM      8  C   UNL A   1      32.747  29.183  25.227  1.00  0.00     0.025 C 
BRANCH   8   9
ATOM      9  C   UNL A   1      33.320  27.945  24.811  1.00  0.00     0.031 A 
ATOM     10  C   UNL A   1      33.640  28.348  22.289  1.00  0.00     0.046 C 
ATOM     11  C   UNL A   1      33.670  27.520  23.534  1.00  0.00    -0.032 A 
ATOM     12  C   UNL A   1      34.103  26.148  23.538  1.00  0.00     0.029 A 
ATOM     13  C   UNL A   1      34.127  25.576  24.797  1.00  0.00     0.093 A 
ATOM     14  S   UNL A   1      33.648  26.720  25.965  1.00  0.00    -0.130 S 
BRANCH  13  15
ATOM     15  C   UNL A   1      34.619  24.240  25.140  1.00  0.00     0.264 C 
ATOM     16  O   UNL A   1      35.659  24.070  25.776  1.00  0.00    -0.268 OA
BRANCH  15  17
ATOM     17  N   UNL A   1      33.789  23.168  24.847  1.00  0.00    -0.335 N 
ATOM     18  C   UNL A   1      34.328  21.858  24.528  1.00  0.00     0.120 C 
ATOM     19  C   UNL A   1      32.420  23.048  25.366  1.00  0.00     0.088 C 
ATOM     20  C   UNL A   1      33.113  21.111  24.038  1.00  0.00     0.024 C 
ATOM     21  C   UNL A   1      32.027  21.595  24.996  1.00  0.00     0.027 C 
BRANCH  19  22
ATOM     22  C   UNL A   1      31.441  24.123  24.802  1.00  0.00     0.005 C 
ATOM     23  C   UNL A   1      30.691  23.627  23.556  1.00  0.00     0.009 C 
ATOM     24  C   UNL A   1      30.380  24.554  25.827  1.00  0.00     0.009 C 
ENDBRANCH  19  22
ENDBRANCH  15  17
ENDBRANCH  13  15
ENDBRANCH   8   9
ENDBRANCH   4   7
ENDBRANCH   2   3
ENDBRANCH   1   2
BRANCH   1  25
ATOM     25  C   UNL A   1      35.555  34.019  28.975  1.00  0.00     0.002 C 
BRANCH  25  26
ATOM     26  C   UNL A   1      34.748  34.996  28.109  1.00  0.00     0.002 C 
BRANCH  26  27
ATOM     27  C   UNL A   1      33.841  35.957  28.882  1.00  0.00     0.021 C 
BRANCH  27  28
ATOM     28  C   UNL A   1      32.754  35.278  29.711  1.00  0.00     0.116 C 
BRANCH  28  29
ATOM     29  N   UNL A   1      32.373  36.075  30.864  1.00  0.00    -0.352 N 
ATOM     30  C   UNL A   1      32.838  36.018  32.155  1.00  0.00     0.251 C 
ATOM     31  H   UNL A   1      31.681  36.754  30.697  1.00  0.00     0.163 HD
ATOM     32  O   UNL A   1      32.262  36.632  33.046  1.00  0.00    -0.269 OA
BRANCH  30  33
ATOM     33  C   UNL A   1      34.029  35.203  32.477  1.00  0.00     0.039 A 
ATOM     34  C   UNL A   1      35.297  35.743  32.242  1.00  0.00     0.014 A 
ATOM     35  C   UNL A   1      33.899  33.903  32.976  1.00  0.00     0.014 A 
ATOM     36  C   UNL A   1      36.437  34.997  32.552  1.00  0.00     0.010 A 
ATOM     37  C   UNL A   1      35.035  33.182  33.336  1.00  0.00     0.010 A 
ATOM     38  C   UNL A   1      36.313  33.721  33.122  1.00  0.00    -0.014 A 
BRANCH  38  39
ATOM     39  C   UNL A   1      37.511  32.928  33.494  1.00  0.00     0.031 A 
ATOM     40  C   UNL A   1      38.227  33.205  34.785  1.00  0.00     0.074 A 
ATOM     41  C   UNL A   1      37.991  32.005  32.639  1.00  0.00     0.049 A 
ATOM     42  N   UNL A   1      39.331  32.675  35.250  1.00  0.00    -0.248 NA
ATOM     43  C   UNL A   1      37.639  34.232  35.657  1.00  0.00     0.031 C 
ATOM     44  C   UNL A   1      37.407  31.674  31.339  1.00  0.00     0.029 A 
ATOM     45  N   UNL A   1      39.086  31.184  32.732  1.00  0.00    -0.354 N 
ATOM     46  C   UNL A   1      39.579  33.317  36.456  1.00  0.00     0.074 A 
ATOM     47  C   UNL A   1      38.533  34.302  36.633  1.00  0.00     0.031 C 
ATOM     48  C   UNL A   1      38.142  30.711  30.761  1.00  0.00     0.029 A 
ATOM     49  C   UNL A   1      39.263  30.377  31.636  1.00  0.00     0.049 A 
ATOM     50  H   UNL A   1      39.688  31.174  33.511  1.00  0.00     0.167 HD
ATOM     51  C   UNL A   1      40.576  33.091  37.343  1.00  0.00     0.037 A 
ATOM     52  C   UNL A   1      40.223  29.473  31.366  1.00  0.00     0.037 A 
ATOM     53  C   UNL A   1      41.595  32.087  37.183  1.00  0.00     0.049 A 
ATOM     54  C   UNL A   1      41.312  29.231  32.374  1.00  0.00     0.074 A 
ATOM     55  C   UNL A   1      42.608  31.736  38.057  1.00  0.00     0.029 A 
ATOM     56  N   UNL A   1      41.727  31.271  36.068  1.00  0.00    -0.354 N 
ATOM     57  N   UNL A   1      41.502  29.802  33.538  1.00  0.00    -0.248 NA
ATOM     58  C   UNL A   1      42.318  28.216  32.032  1.00  0.00     0.031 C 
ATOM     59  C   UNL A   1      43.374  30.729  37.458  1.00  0.00     0.029 A 
ATOM     60  C   UNL A   1      42.816  30.429  36.225  1.00  0.00     0.049 A 
ATOM     61  H   UNL A   1      41.135  31.289  35.282  1.00  0.00     0.167 HD
ATOM     62  C   UNL A   1      42.631  29.202  34.078  1.00  0.00     0.074 A 
ATOM     63  C   UNL A   1      43.078  28.213  33.118  1.00  0.00     0.031 C 
ATOM     64  C   UNL A   1      43.243  29.448  35.262  1.00  0.00     0.037 A 
BRANCH  51  65
ATOM     65  C   UNL A   1      40.611  33.947  38.575  1.00  0.00     0.064 A 
ATOM     66  C   UNL A   1      39.891  33.603  39.728  1.00  0.00     0.173 A 
ATOM     67  C   UNL A   1      41.395  35.110  38.611  1.00  0.00     0.173 A 
ATOM     68  F   UNL A   1      39.117  32.508  39.739  1.00  0.00    -0.203 F 
ATOM     69  C   UNL A   1      39.932  34.408  40.864  1.00  0.00     0.198 A 
ATOM     70  C   UNL A   1      41.454  35.897  39.757  1.00  0.00     0.198 A 
ATOM     71  F   UNL A   1      42.106  35.480  37.536  1.00  0.00    -0.203 F 
ATOM     72  F   UNL A   1      39.199  34.084  41.939  1.00  0.00    -0.200 F 
ATOM     73  C   UNL A   1      40.717  35.551  40.880  1.00  0.00     0.200 A 
ATOM     74  F   UNL A   1      42.221  36.998  39.775  1.00  0.00    -0.200 F 
ATOM     75  F   UNL A   1      40.757  36.322  41.975  1.00  0.00    -0.200 F 
ENDBRANCH  51  65
BRANCH  52  76
ATOM     76  C   UNL A   1      40.178  28.708  30.095  1.00  0.00     0.064 A 
ATOM     77  C   UNL A   1      39.511  27.478  30.024  1.00  0.00     0.173 A 
ATOM     78  C   UNL A   1      40.787  29.192  28.928  1.00  0.00     0.173 A 
ATOM     79  F   UNL A   1      38.932  26.966  31.120  1.00  0.00    -0.203 F 
ATOM     80  C   UNL A   1      39.466  26.752  28.836  1.00  0.00     0.198 A 
ATOM     81  C   UNL A   1      40.722  28.477  27.735  1.00  0.00     0.198 A 
ATOM     82  F   UNL A   1      41.433  30.368  28.946  1.00  0.00    -0.203 F 
ATOM     83  F   UNL A   1      38.851  25.563  28.803  1.00  0.00    -0.200 F 
ATOM     84  C   UNL A   1      40.066  27.255  27.691  1.00  0.00     0.200 A 
ATOM     85  F   UNL A   1      41.292  28.971  26.629  1.00  0.00    -0.200 F 
ATOM     86  F   UNL A   1      40.017  26.560  26.546  1.00  0.00    -0.200 F 
ENDBRANCH  52  76
BRANCH  64  87
ATOM     87  C   UNL A   1      44.446  28.619  35.596  1.00  0.00     0.064 A 
ATOM     88  C   UNL A   1      45.740  29.030  35.244  1.00  0.00     0.173 A 
ATOM     89  C   UNL A   1      44.306  27.419  36.308  1.00  0.00     0.173 A 
ATOM     90  F   UNL A   1      45.921  30.162  34.548  1.00  0.00    -0.203 F 
ATOM     91  C   UNL A   1      46.849  28.258  35.578  1.00  0.00     0.198 A 
ATOM     92  C   UNL A   1      45.419  26.662  36.662  1.00  0.00     0.198 A 
ATOM     93  F   UNL A   1      43.088  26.986  36.670  1.00  0.00    -0.203 F 
ATOM     94  F   UNL A   1      48.073  28.651  35.199  1.00  0.00    -0.200 F 
ATOM     95  C   UNL A   1      46.689  27.080  36.292  1.00  0.00     0.200 A 
ATOM     96  F   UNL A   1      45.264  25.528  37.358  1.00  0.00    -0.200 F 
ATOM     97  F   UNL A   1      47.759  26.342  36.616  1.00  0.00    -0.200 F 
ENDBRANCH  64  87
ENDBRANCH  38  39
ENDBRANCH  30  33
ENDBRANCH  28  29
ENDBRANCH  27  28
ENDBRANCH  26  27
ENDBRANCH  25  26
ENDBRANCH   1  25
TORSDOF 17
ENDMDL
