MODEL 1
REMARK VINA RESULT:     -11.3      0.000      0.000
REMARK SMILES Cc1noc(C)c1[C@H](C)NC(=O)NC[C@@](C)(O)C(=O)NCCCCCCNC(=O)c1ccc(-c2c3nc(c(-c4c(F)c(F)c(F)c(F)c4F)c4ccc([nH]4)c(-c4c(F)c(F)c(F)c(F)c4F)c4nc(c(-c5c(F)c(F)c(F)c(F)c5F)c5ccc2[nH]5)C=C4)C=C3)cc1
REMARK SMILES IDX 22 1 21 2 20 3 18 4 19 5 15 7 16 8 14 9 13 10 10 11 11 12
REMARK SMILES IDX 12 14 8 16 9 17 7 18 1 19 2 20 3 21 4 22 5 23 6 24 17 25
REMARK SMILES IDX 23 27 24 28 25 29 26 30 27 31 28 32 29 34 30 35 31 36 92 37
REMARK SMILES IDX 32 38 91 39 33 40 34 41 35 42 85 43 36 44 90 45 84 46 86 47
REMARK SMILES IDX 37 48 89 49 83 50 82 51 38 53 70 54 50 55 69 56 51 57 54 58
REMARK SMILES IDX 68 59 87 60 52 61 53 62 67 64 88 65 55 66 39 67 40 68 48 69
REMARK SMILES IDX 41 70 42 71 46 72 49 73 43 74 44 75 47 76 45 77 71 78 72 79
REMARK SMILES IDX 80 80 73 81 74 82 78 83 81 84 75 85 76 86 79 87 77 88 56 89
REMARK SMILES IDX 57 90 65 91 58 92 59 93 63 94 66 95 60 96 61 97 64 98 62 99
REMARK H PARENT 20 6 10 13 13 15 17 26 27 33 86 52 54 63
REMARK Flexibility Score: inf
ROOT
ATOM      1  C   UNL A   1      35.119  32.332  28.114  1.00  0.00     0.021 C 
ENDROOT
BRANCH   1   2
ATOM      2  C   UNL A   1      34.050  31.260  27.913  1.00  0.00     0.116 C 
BRANCH   2   3
ATOM      3  N   UNL A   1      34.521  30.138  27.129  1.00  0.00    -0.354 N 
ATOM      4  C   UNL A   1      33.845  29.144  26.476  1.00  0.00     0.253 C 
ATOM      5  O   UNL A   1      34.543  28.425  25.758  1.00  0.00    -0.272 OA
ATOM      6  H   UNL A   1      35.501  30.081  27.051  1.00  0.00     0.163 HD
BRANCH   4   7
ATOM      7  C   UNL A   1      32.292  29.029  26.554  1.00  0.00     0.157 C 
ATOM      8  C   UNL A   1      31.743  30.433  26.249  1.00  0.00     0.055 C 
BRANCH   7   9
ATOM      9  C   UNL A   1      31.625  27.995  25.590  1.00  0.00     0.162 C 
BRANCH   9  10
ATOM     10  N   UNL A   1      31.024  26.797  26.139  1.00  0.00    -0.335 N 
ATOM     11  N   UNL A   1      32.259  24.944  25.319  1.00  0.00    -0.331 N 
ATOM     12  C   UNL A   1      31.253  25.482  26.020  1.00  0.00     0.315 C 
ATOM     13  H   UNL A   1      32.185  23.967  25.224  1.00  0.00     0.165 HD
ATOM     14  O   UNL A   1      30.490  24.715  26.614  1.00  0.00    -0.249 OA
ATOM     15  H   UNL A   1      30.271  26.995  26.739  1.00  0.00     0.165 HD
BRANCH  11  16
ATOM     16  C   UNL A   1      33.436  25.494  24.671  1.00  0.00     0.116 C 
ATOM     17  C   UNL A   1      34.679  24.853  25.284  1.00  0.00     0.036 C 
BRANCH  16  18
ATOM     18  C   UNL A   1      33.297  25.326  23.182  1.00  0.00     0.040 A 
ATOM     19  C   UNL A   1      33.577  27.824  22.437  1.00  0.00     0.071 C 
ATOM     20  C   UNL A   1      33.369  26.377  22.211  1.00  0.00     0.086 A 
ATOM     21  N   UNL A   1      33.265  25.913  20.963  1.00  0.00    -0.085 NA
ATOM     22  O   UNL A   1      33.129  24.552  21.082  1.00  0.00    -0.361 OA
ATOM     23  C   UNL A   1      33.162  24.196  22.394  1.00  0.00     0.139 A 
ATOM     24  C   UNL A   1      33.073  22.741  22.632  1.00  0.00     0.091 C 
ENDBRANCH  16  18
ENDBRANCH  11  16
ENDBRANCH   9  10
ENDBRANCH   7   9
BRANCH   7  25
ATOM     25  O   UNL A   1      31.877  28.650  27.879  1.00  0.00    -0.378 OA
ATOM     26  H   UNL A   1      31.320  29.349  28.255  1.00  0.00     0.212 HD
ENDBRANCH   7  25
ENDBRANCH   4   7
ENDBRANCH   2   3
ENDBRANCH   1   2
BRANCH   1  27
ATOM     27  C   UNL A   1      34.763  33.453  29.099  1.00  0.00     0.002 C 
BRANCH  27  28
ATOM     28  C   UNL A   1      34.416  34.813  28.483  1.00  0.00     0.002 C 
BRANCH  28  29
ATOM     29  C   UNL A   1      33.115  35.454  28.971  1.00  0.00     0.021 C 
BRANCH  29  30
ATOM     30  C   UNL A   1      33.291  36.648  29.901  1.00  0.00     0.116 C 
BRANCH  30  31
ATOM     31  N   UNL A   1      32.436  36.571  31.074  1.00  0.00    -0.352 N 
ATOM     32  C   UNL A   1      32.552  35.784  32.191  1.00  0.00     0.251 C 
ATOM     33  H   UNL A   1      31.656  37.174  31.065  1.00  0.00     0.163 HD
ATOM     34  O   UNL A   1      31.634  35.729  33.006  1.00  0.00    -0.269 OA
BRANCH  32  35
ATOM     35  C   UNL A   1      33.772  34.973  32.410  1.00  0.00     0.039 A 
ATOM     36  C   UNL A   1      35.021  35.567  32.209  1.00  0.00     0.014 A 
ATOM     37  C   UNL A   1      33.692  33.633  32.799  1.00  0.00     0.014 A 
ATOM     38  C   UNL A   1      36.186  34.839  32.463  1.00  0.00     0.010 A 
ATOM     39  C   UNL A   1      34.851  32.934  33.127  1.00  0.00     0.010 A 
ATOM     40  C   UNL A   1      36.112  33.527  32.961  1.00  0.00    -0.014 A 
BRANCH  40  41
ATOM     41  C   UNL A   1      37.339  32.768  33.317  1.00  0.00     0.031 A 
ATOM     42  C   UNL A   1      38.079  33.074  34.591  1.00  0.00     0.074 A 
ATOM     43  C   UNL A   1      37.821  31.842  32.464  1.00  0.00     0.049 A 
ATOM     44  N   UNL A   1      39.201  32.568  35.040  1.00  0.00    -0.248 NA
ATOM     45  C   UNL A   1      37.496  34.102  35.467  1.00  0.00     0.031 C 
ATOM     46  C   UNL A   1      37.220  31.480  31.179  1.00  0.00     0.029 A 
ATOM     47  N   UNL A   1      38.934  31.040  32.544  1.00  0.00    -0.354 N 
ATOM     48  C   UNL A   1      39.461  33.224  36.236  1.00  0.00     0.074 A 
ATOM     49  C   UNL A   1      38.410  34.199  36.422  1.00  0.00     0.031 C 
ATOM     50  C   UNL A   1      37.954  30.515  30.604  1.00  0.00     0.029 A 
ATOM     51  C   UNL A   1      39.103  30.220  31.454  1.00  0.00     0.049 A 
ATOM     52  H   UNL A   1      39.552  31.051  33.310  1.00  0.00     0.167 HD
ATOM     53  C   UNL A   1      40.474  33.014  37.110  1.00  0.00     0.037 A 
ATOM     54  C   UNL A   1      40.082  29.339  31.167  1.00  0.00     0.037 A 
ATOM     55  C   UNL A   1      41.502  32.022  36.938  1.00  0.00     0.049 A 
ATOM     56  C   UNL A   1      41.206  29.145  32.151  1.00  0.00     0.074 A 
ATOM     57  C   UNL A   1      42.533  31.690  37.801  1.00  0.00     0.029 A 
ATOM     58  N   UNL A   1      41.635  31.205  35.826  1.00  0.00    -0.354 N 
ATOM     59  N   UNL A   1      41.398  29.717  33.315  1.00  0.00    -0.248 NA
ATOM     60  C   UNL A   1      42.248  28.177  31.782  1.00  0.00     0.031 C 
ATOM     61  C   UNL A   1      43.324  30.717  37.186  1.00  0.00     0.029 A 
ATOM     62  C   UNL A   1      42.749  30.392  35.968  1.00  0.00     0.049 A 
ATOM     63  H   UNL A   1      41.028  31.202  35.050  1.00  0.00     0.167 HD
ATOM     64  C   UNL A   1      42.557  29.152  33.831  1.00  0.00     0.074 A 
ATOM     65  C   UNL A   1      43.015  28.181  32.863  1.00  0.00     0.031 C 
ATOM     66  C   UNL A   1      43.185  29.415  35.004  1.00  0.00     0.037 A 
BRANCH  53  67
ATOM     67  C   UNL A   1      40.528  33.872  38.343  1.00  0.00     0.064 A 
ATOM     68  C   UNL A   1      39.855  33.516  39.520  1.00  0.00     0.173 A 
ATOM     69  C   UNL A   1      41.326  35.027  38.368  1.00  0.00     0.173 A 
ATOM     70  F   UNL A   1      39.072  32.427  39.548  1.00  0.00    -0.203 F 
ATOM     71  C   UNL A   1      39.962  34.293  40.671  1.00  0.00     0.198 A 
ATOM     72  C   UNL A   1      41.457  35.784  39.529  1.00  0.00     0.198 A 
ATOM     73  F   UNL A   1      41.997  35.409  37.272  1.00  0.00    -0.203 F 
ATOM     74  F   UNL A   1      39.280  33.954  41.773  1.00  0.00    -0.200 F 
ATOM     75  C   UNL A   1      40.771  35.420  40.678  1.00  0.00     0.200 A 
ATOM     76  F   UNL A   1      42.252  36.862  39.538  1.00  0.00    -0.200 F 
ATOM     77  F   UNL A   1      40.889  36.156  41.791  1.00  0.00    -0.200 F 
ENDBRANCH  53  67
BRANCH  54  78
ATOM     78  C   UNL A   1      40.050  28.564  29.897  1.00  0.00     0.064 A 
ATOM     79  C   UNL A   1      39.453  27.295  29.841  1.00  0.00     0.173 A 
ATOM     80  C   UNL A   1      40.650  29.051  28.727  1.00  0.00     0.173 A 
ATOM     81  F   UNL A   1      38.882  26.775  30.938  1.00  0.00    -0.203 F 
ATOM     82  C   UNL A   1      39.493  26.530  28.678  1.00  0.00     0.198 A 
ATOM     83  C   UNL A   1      40.659  28.298  27.554  1.00  0.00     0.198 A 
ATOM     84  F   UNL A   1      41.232  30.259  28.722  1.00  0.00    -0.203 F 
ATOM     85  F   UNL A   1      38.976  25.294  28.674  1.00  0.00    -0.200 F 
ATOM     86  C   UNL A   1      40.093  27.033  27.534  1.00  0.00     0.200 A 
ATOM     87  F   UNL A   1      41.226  28.797  26.446  1.00  0.00    -0.200 F 
ATOM     88  F   UNL A   1      40.138  26.295  26.417  1.00  0.00    -0.200 F 
ENDBRANCH  54  78
BRANCH  66  89
ATOM     89  C   UNL A   1      44.407  28.606  35.331  1.00  0.00     0.064 A 
ATOM     90  C   UNL A   1      44.326  27.384  36.015  1.00  0.00     0.173 A 
ATOM     91  C   UNL A   1      45.676  29.044  34.919  1.00  0.00     0.173 A 
ATOM     92  F   UNL A   1      43.140  26.927  36.445  1.00  0.00    -0.203 F 
ATOM     93  C   UNL A   1      45.472  26.646  36.300  1.00  0.00     0.198 A 
ATOM     94  C   UNL A   1      46.815  28.285  35.174  1.00  0.00     0.198 A 
ATOM     95  F   UNL A   1      45.809  30.201  34.254  1.00  0.00    -0.203 F 
ATOM     96  F   UNL A   1      45.376  25.509  37.004  1.00  0.00    -0.200 F 
ATOM     97  C   UNL A   1      46.713  27.093  35.872  1.00  0.00     0.200 A 
ATOM     98  F   UNL A   1      48.010  28.710  34.743  1.00  0.00    -0.200 F 
ATOM     99  F   UNL A   1      47.814  26.376  36.140  1.00  0.00    -0.200 F 
ENDBRANCH  66  89
ENDBRANCH  40  41
ENDBRANCH  32  35
ENDBRANCH  30  31
ENDBRANCH  29  30
ENDBRANCH  28  29
ENDBRANCH  27  28
ENDBRANCH   1  27
TORSDOF 18
ENDMDL
MODEL 2
REMARK VINA RESULT:     -11.3      6.286     10.990
REMARK SMILES Cc1noc(C)c1[C@H](C)NC(=O)NC[C@@](C)(O)C(=O)NCCCCCCNC(=O)c1ccc(-c2c3nc(c(-c4c(F)c(F)c(F)c(F)c4F)c4ccc([nH]4)c(-c4c(F)c(F)c(F)c(F)c4F)c4nc(c(-c5c(F)c(F)c(F)c(F)c5F)c5ccc2[nH]5)C=C4)C=C3)cc1
REMARK SMILES IDX 22 1 21 2 20 3 18 4 19 5 15 7 16 8 14 9 13 10 10 11 11 12
REMARK SMILES IDX 12 14 8 16 9 17 7 18 1 19 2 20 3 21 4 22 5 23 6 24 17 25
REMARK SMILES IDX 23 27 24 28 25 29 26 30 27 31 28 32 29 34 30 35 31 36 92 37
REMARK SMILES IDX 32 38 91 39 33 40 34 41 35 42 85 43 36 44 90 45 84 46 86 47
REMARK SMILES IDX 37 48 89 49 83 50 82 51 38 53 70 54 50 55 69 56 51 57 54 58
REMARK SMILES IDX 68 59 87 60 52 61 53 62 67 64 88 65 55 66 39 67 40 68 48 69
REMARK SMILES IDX 41 70 42 71 46 72 49 73 43 74 44 75 47 76 45 77 71 78 72 79
REMARK SMILES IDX 80 80 73 81 74 82 78 83 81 84 75 85 76 86 79 87 77 88 56 89
REMARK SMILES IDX 57 90 65 91 58 92 59 93 63 94 66 95 60 96 61 97 64 98 62 99
REMARK H PARENT 20 6 10 13 13 15 17 26 27 33 86 52 54 63
REMARK Flexibility Score: inf
ROOT
ATOM      1  C   UNL A   1      36.914  23.339  24.690  1.00  0.00     0.021 C 
ENDROOT
BRANCH   1   2
ATOM      2  C   UNL A   1      35.418  23.519  24.942  1.00  0.00     0.116 C 
BRANCH   2   3
ATOM      3  N   UNL A   1      34.599  22.816  23.977  1.00  0.00    -0.354 N 
ATOM      4  C   UNL A   1      33.545  21.959  24.140  1.00  0.00     0.253 C 
ATOM      5  O   UNL A   1      32.956  21.656  23.101  1.00  0.00    -0.272 OA
ATOM      6  H   UNL A   1      34.842  22.985  23.039  1.00  0.00     0.163 HD
BRANCH   4   7
ATOM      7  C   UNL A   1      33.069  21.514  25.556  1.00  0.00     0.157 C 
ATOM      8  C   UNL A   1      34.212  20.671  26.147  1.00  0.00     0.055 C 
BRANCH   7   9
ATOM      9  C   UNL A   1      32.705  22.659  26.556  1.00  0.00     0.162 C 
BRANCH   9  10
ATOM     10  N   UNL A   1      31.354  22.751  27.070  1.00  0.00    -0.335 N 
ATOM     11  N   UNL A   1      30.221  24.403  25.799  1.00  0.00    -0.331 N 
ATOM     12  C   UNL A   1      30.281  23.503  26.788  1.00  0.00     0.315 C 
ATOM     13  H   UNL A   1      29.411  24.962  25.833  1.00  0.00     0.165 HD
ATOM     14  O   UNL A   1      29.273  23.340  27.481  1.00  0.00    -0.249 OA
ATOM     15  H   UNL A   1      31.184  22.111  27.798  1.00  0.00     0.165 HD
BRANCH  11  16
ATOM     16  C   UNL A   1      31.095  24.730  24.686  1.00  0.00     0.116 C 
ATOM     17  C   UNL A   1      30.555  24.059  23.425  1.00  0.00     0.036 C 
BRANCH  16  18
ATOM     18  C   UNL A   1      31.242  26.226  24.603  1.00  0.00     0.040 A 
ATOM     19  C   UNL A   1      28.848  26.848  23.733  1.00  0.00     0.071 C 
ATOM     20  C   UNL A   1      30.225  27.143  24.182  1.00  0.00     0.086 A 
ATOM     21  N   UNL A   1      30.633  28.414  24.266  1.00  0.00    -0.085 NA
ATOM     22  O   UNL A   1      31.917  28.361  24.749  1.00  0.00    -0.361 OA
ATOM     23  C   UNL A   1      32.279  27.068  24.965  1.00  0.00     0.139 A 
ATOM     24  C   UNL A   1      33.631  26.901  25.534  1.00  0.00     0.091 C 
ENDBRANCH  16  18
ENDBRANCH  11  16
ENDBRANCH   9  10
ENDBRANCH   7   9
BRANCH   7  25
ATOM     25  O   UNL A   1      31.891  20.691  25.461  1.00  0.00    -0.378 OA
ATOM     26  H   UNL A   1      31.110  21.257  25.364  1.00  0.00     0.212 HD
ENDBRANCH   7  25
ENDBRANCH   4   7
ENDBRANCH   2   3
ENDBRANCH   1   2
BRANCH   1  27
ATOM     27  C   UNL A   1      37.549  22.089  25.313  1.00  0.00     0.002 C 
BRANCH  27  28
ATOM     28  C   UNL A   1      37.336  20.772  24.560  1.00  0.00     0.002 C 
BRANCH  28  29
ATOM     29  C   UNL A   1      38.298  19.636  24.914  1.00  0.00     0.021 C 
BRANCH  29  30
ATOM     30  C   UNL A   1      39.400  20.004  25.900  1.00  0.00     0.116 C 
BRANCH  30  31
ATOM     31  N   UNL A   1      40.438  18.990  25.979  1.00  0.00    -0.352 N 
ATOM     32  C   UNL A   1      41.793  19.137  26.133  1.00  0.00     0.251 C 
ATOM     33  H   UNL A   1      40.122  18.059  25.911  1.00  0.00     0.163 HD
ATOM     34  O   UNL A   1      42.538  18.168  26.002  1.00  0.00    -0.269 OA
BRANCH  32  35
ATOM     35  C   UNL A   1      42.372  20.466  26.430  1.00  0.00     0.039 A 
ATOM     36  C   UNL A   1      42.806  21.265  25.368  1.00  0.00     0.014 A 
ATOM     37  C   UNL A   1      42.499  20.925  27.744  1.00  0.00     0.014 A 
ATOM     38  C   UNL A   1      43.304  22.546  25.620  1.00  0.00     0.010 A 
ATOM     39  C   UNL A   1      42.922  22.229  27.987  1.00  0.00     0.010 A 
ATOM     40  C   UNL A   1      43.331  23.055  26.929  1.00  0.00    -0.014 A 
BRANCH  40  41
ATOM     41  C   UNL A   1      43.778  24.446  27.205  1.00  0.00     0.031 A 
ATOM     42  C   UNL A   1      42.791  25.482  27.671  1.00  0.00     0.074 A 
ATOM     43  C   UNL A   1      45.061  24.791  26.982  1.00  0.00     0.049 A 
ATOM     44  N   UNL A   1      42.976  26.759  27.899  1.00  0.00    -0.248 NA
ATOM     45  C   UNL A   1      41.406  25.032  27.886  1.00  0.00     0.031 C 
ATOM     46  C   UNL A   1      46.107  23.890  26.493  1.00  0.00     0.029 A 
ATOM     47  N   UNL A   1      45.706  25.996  27.127  1.00  0.00    -0.354 N 
ATOM     48  C   UNL A   1      41.734  27.261  28.269  1.00  0.00     0.074 A 
ATOM     49  C   UNL A   1      40.793  26.167  28.187  1.00  0.00     0.031 C 
ATOM     50  C   UNL A   1      47.264  24.565  26.402  1.00  0.00     0.029 A 
ATOM     51  C   UNL A   1      47.036  25.956  26.781  1.00  0.00     0.049 A 
ATOM     52  H   UNL A   1      45.258  26.811  27.450  1.00  0.00     0.167 HD
ATOM     53  C   UNL A   1      41.416  28.518  28.661  1.00  0.00     0.037 A 
ATOM     54  C   UNL A   1      47.962  26.934  26.758  1.00  0.00     0.037 A 
ATOM     55  C   UNL A   1      42.361  29.598  28.770  1.00  0.00     0.049 A 
ATOM     56  C   UNL A   1      47.570  28.326  27.180  1.00  0.00     0.074 A 
ATOM     57  C   UNL A   1      42.146  30.889  29.222  1.00  0.00     0.029 A 
ATOM     58  N   UNL A   1      43.700  29.517  28.419  1.00  0.00    -0.354 N 
ATOM     59  N   UNL A   1      46.410  28.770  27.601  1.00  0.00    -0.248 NA
ATOM     60  C   UNL A   1      48.620  29.353  27.130  1.00  0.00     0.031 C 
ATOM     61  C   UNL A   1      43.337  31.606  29.087  1.00  0.00     0.029 A 
ATOM     62  C   UNL A   1      44.314  30.744  28.615  1.00  0.00     0.049 A 
ATOM     63  H   UNL A   1      44.147  28.707  28.081  1.00  0.00     0.167 HD
ATOM     64  C   UNL A   1      46.601  30.112  27.900  1.00  0.00     0.074 A 
ATOM     65  C   UNL A   1      47.991  30.407  27.629  1.00  0.00     0.031 C 
ATOM     66  C   UNL A   1      45.704  31.020  28.359  1.00  0.00     0.037 A 
BRANCH  53  67
ATOM     67  C   UNL A   1      39.982  28.805  29.008  1.00  0.00     0.064 A 
ATOM     68  C   UNL A   1      39.057  29.219  28.038  1.00  0.00     0.173 A 
ATOM     69  C   UNL A   1      39.512  28.589  30.313  1.00  0.00     0.173 A 
ATOM     70  F   UNL A   1      39.456  29.449  26.779  1.00  0.00    -0.203 F 
ATOM     71  C   UNL A   1      37.719  29.425  28.366  1.00  0.00     0.198 A 
ATOM     72  C   UNL A   1      38.168  28.765  30.630  1.00  0.00     0.198 A 
ATOM     73  F   UNL A   1      40.353  28.186  31.277  1.00  0.00    -0.203 F 
ATOM     74  F   UNL A   1      36.861  29.857  27.432  1.00  0.00    -0.200 F 
ATOM     75  C   UNL A   1      37.274  29.187  29.658  1.00  0.00     0.200 A 
ATOM     76  F   UNL A   1      37.736  28.518  31.874  1.00  0.00    -0.200 F 
ATOM     77  F   UNL A   1      35.982  29.367  29.967  1.00  0.00    -0.200 F 
ENDBRANCH  53  67
BRANCH  54  78
ATOM     78  C   UNL A   1      49.357  26.642  26.327  1.00  0.00     0.064 A 
ATOM     79  C   UNL A   1      50.311  26.173  27.243  1.00  0.00     0.173 A 
ATOM     80  C   UNL A   1      49.777  26.866  25.008  1.00  0.00     0.173 A 
ATOM     81  F   UNL A   1      49.966  25.961  28.521  1.00  0.00    -0.203 F 
ATOM     82  C   UNL A   1      51.638  25.977  26.864  1.00  0.00     0.198 A 
ATOM     83  C   UNL A   1      51.097  26.636  24.623  1.00  0.00     0.198 A 
ATOM     84  F   UNL A   1      48.905  27.311  24.091  1.00  0.00    -0.203 F 
ATOM     85  F   UNL A   1      52.542  25.595  27.776  1.00  0.00    -0.200 F 
ATOM     86  C   UNL A   1      52.029  26.205  25.554  1.00  0.00     0.200 A 
ATOM     87  F   UNL A   1      51.465  26.843  23.351  1.00  0.00    -0.200 F 
ATOM     88  F   UNL A   1      53.305  26.024  25.192  1.00  0.00    -0.200 F 
ENDBRANCH  54  78
BRANCH  66  89
ATOM     89  C   UNL A   1      46.207  32.406  28.647  1.00  0.00     0.064 A 
ATOM     90  C   UNL A   1      46.170  33.423  27.682  1.00  0.00     0.173 A 
ATOM     91  C   UNL A   1      46.699  32.728  29.922  1.00  0.00     0.173 A 
ATOM     92  F   UNL A   1      45.723  33.164  26.443  1.00  0.00    -0.203 F 
ATOM     93  C   UNL A   1      46.634  34.703  27.973  1.00  0.00     0.198 A 
ATOM     94  C   UNL A   1      47.128  34.019  30.220  1.00  0.00     0.198 A 
ATOM     95  F   UNL A   1      46.749  31.795  30.884  1.00  0.00    -0.203 F 
ATOM     96  F   UNL A   1      46.640  35.644  27.019  1.00  0.00    -0.200 F 
ATOM     97  C   UNL A   1      47.104  35.002  29.243  1.00  0.00     0.200 A 
ATOM     98  F   UNL A   1      47.564  34.309  31.453  1.00  0.00    -0.200 F 
ATOM     99  F   UNL A   1      47.541  36.237  29.524  1.00  0.00    -0.200 F 
ENDBRANCH  66  89
ENDBRANCH  40  41
ENDBRANCH  32  35
ENDBRANCH  30  31
ENDBRANCH  29  30
ENDBRANCH  28  29
ENDBRANCH  27  28
ENDBRANCH   1  27
TORSDOF 18
ENDMDL
MODEL 3
REMARK VINA RESULT:     -11.1      6.400     10.925
REMARK SMILES Cc1noc(C)c1[C@H](C)NC(=O)NC[C@@](C)(O)C(=O)NCCCCCCNC(=O)c1ccc(-c2c3nc(c(-c4c(F)c(F)c(F)c(F)c4F)c4ccc([nH]4)c(-c4c(F)c(F)c(F)c(F)c4F)c4nc(c(-c5c(F)c(F)c(F)c(F)c5F)c5ccc2[nH]5)C=C4)C=C3)cc1
REMARK SMILES IDX 22 1 21 2 20 3 18 4 19 5 15 7 16 8 14 9 13 10 10 11 11 12
REMARK SMILES IDX 12 14 8 16 9 17 7 18 1 19 2 20 3 21 4 22 5 23 6 24 17 25
REMARK SMILES IDX 23 27 24 28 25 29 26 30 27 31 28 32 29 34 30 35 31 36 92 37
REMARK SMILES IDX 32 38 91 39 33 40 34 41 35 42 85 43 36 44 90 45 84 46 86 47
REMARK SMILES IDX 37 48 89 49 83 50 82 51 38 53 70 54 50 55 69 56 51 57 54 58
REMARK SMILES IDX 68 59 87 60 52 61 53 62 67 64 88 65 55 66 39 67 40 68 48 69
REMARK SMILES IDX 41 70 42 71 46 72 49 73 43 74 44 75 47 76 45 77 71 78 72 79
REMARK SMILES IDX 80 80 73 81 74 82 78 83 81 84 75 85 76 86 79 87 77 88 56 89
REMARK SMILES IDX 57 90 65 91 58 92 59 93 63 94 66 95 60 96 61 97 64 98 62 99
REMARK H PARENT 20 6 10 13 13 15 17 26 27 33 86 52 54 63
REMARK Flexibility Score: inf
ROOT
ATOM      1  C   UNL A   1      37.026  23.419  25.173  1.00  0.00     0.021 C 
ENDROOT
BRANCH   1   2
ATOM      2  C   UNL A   1      35.638  24.055  25.201  1.00  0.00     0.116 C 
BRANCH   2   3
ATOM      3  N   UNL A   1      35.136  24.363  23.879  1.00  0.00    -0.354 N 
ATOM      4  C   UNL A   1      33.909  24.797  23.456  1.00  0.00     0.253 C 
ATOM      5  O   UNL A   1      33.853  25.123  22.269  1.00  0.00    -0.272 OA
ATOM      6  H   UNL A   1      35.792  24.237  23.156  1.00  0.00     0.163 HD
BRANCH   4   7
ATOM      7  C   UNL A   1      32.722  24.976  24.450  1.00  0.00     0.157 C 
ATOM      8  C   UNL A   1      32.286  26.447  24.339  1.00  0.00     0.055 C 
BRANCH   7   9
ATOM      9  C   UNL A   1      31.481  24.053  24.221  1.00  0.00     0.162 C 
BRANCH   9  10
ATOM     10  N   UNL A   1      30.664  23.665  25.352  1.00  0.00    -0.335 N 
ATOM     11  N   UNL A   1      31.434  21.546  26.091  1.00  0.00    -0.331 N 
ATOM     12  C   UNL A   1      30.601  22.592  26.152  1.00  0.00     0.315 C 
ATOM     13  H   UNL A   1      31.148  20.790  26.653  1.00  0.00     0.165 HD
ATOM     14  O   UNL A   1      29.720  22.578  27.016  1.00  0.00    -0.249 OA
ATOM     15  H   UNL A   1      30.000  24.351  25.588  1.00  0.00     0.165 HD
BRANCH  11  16
ATOM     16  C   UNL A   1      32.669  21.289  25.373  1.00  0.00     0.116 C 
ATOM     17  C   UNL A   1      33.803  21.135  26.385  1.00  0.00     0.036 C 
BRANCH  16  18
ATOM     18  C   UNL A   1      32.466  20.113  24.455  1.00  0.00     0.040 A 
ATOM     19  C   UNL A   1      32.145  21.387  22.186  1.00  0.00     0.071 C 
ATOM     20  C   UNL A   1      32.240  20.185  23.042  1.00  0.00     0.086 A 
ATOM     21  N   UNL A   1      32.151  18.972  22.488  1.00  0.00    -0.085 NA
ATOM     22  O   UNL A   1      32.322  18.080  23.517  1.00  0.00    -0.361 OA
ATOM     23  C   UNL A   1      32.523  18.749  24.684  1.00  0.00     0.139 A 
ATOM     24  C   UNL A   1      32.769  17.879  25.851  1.00  0.00     0.091 C 
ENDBRANCH  16  18
ENDBRANCH  11  16
ENDBRANCH   9  10
ENDBRANCH   7   9
BRANCH   7  25
ATOM     25  O   UNL A   1      33.150  24.723  25.802  1.00  0.00    -0.378 OA
ATOM     26  H   UNL A   1      32.660  23.966  26.159  1.00  0.00     0.212 HD
ENDBRANCH   7  25
ENDBRANCH   4   7
ENDBRANCH   2   3
ENDBRANCH   1   2
BRANCH   1  27
ATOM     27  C   UNL A   1      37.117  21.992  25.732  1.00  0.00     0.002 C 
BRANCH  27  28
ATOM     28  C   UNL A   1      37.164  20.861  24.699  1.00  0.00     0.002 C 
BRANCH  28  29
ATOM     29  C   UNL A   1      38.156  19.733  24.989  1.00  0.00     0.021 C 
BRANCH  29  30
ATOM     30  C   UNL A   1      39.272  20.086  25.964  1.00  0.00     0.116 C 
BRANCH  30  31
ATOM     31  N   UNL A   1      40.314  19.074  26.010  1.00  0.00    -0.352 N 
ATOM     32  C   UNL A   1      41.673  19.222  26.119  1.00  0.00     0.251 C 
ATOM     33  H   UNL A   1      39.997  18.142  25.953  1.00  0.00     0.163 HD
ATOM     34  O   UNL A   1      42.414  18.254  25.965  1.00  0.00    -0.269 OA
BRANCH  32  35
ATOM     35  C   UNL A   1      42.259  20.553  26.397  1.00  0.00     0.039 A 
ATOM     36  C   UNL A   1      42.660  21.351  25.321  1.00  0.00     0.014 A 
ATOM     37  C   UNL A   1      42.427  21.013  27.706  1.00  0.00     0.014 A 
ATOM     38  C   UNL A   1      43.165  22.632  25.556  1.00  0.00     0.010 A 
ATOM     39  C   UNL A   1      42.855  22.319  27.934  1.00  0.00     0.010 A 
ATOM     40  C   UNL A   1      43.231  23.143  26.863  1.00  0.00    -0.014 A 
BRANCH  40  41
ATOM     41  C   UNL A   1      43.685  24.535  27.124  1.00  0.00     0.031 A 
ATOM     42  C   UNL A   1      42.712  25.569  27.621  1.00  0.00     0.074 A 
ATOM     43  C   UNL A   1      44.960  24.881  26.858  1.00  0.00     0.049 A 
ATOM     44  N   UNL A   1      42.903  26.847  27.843  1.00  0.00    -0.248 NA
ATOM     45  C   UNL A   1      41.336  25.118  27.883  1.00  0.00     0.031 C 
ATOM     46  C   UNL A   1      45.990  23.982  26.335  1.00  0.00     0.029 A 
ATOM     47  N   UNL A   1      45.607  26.087  26.981  1.00  0.00    -0.354 N 
ATOM     48  C   UNL A   1      41.674  27.348  28.253  1.00  0.00     0.074 A 
ATOM     49  C   UNL A   1      40.732  26.252  28.204  1.00  0.00     0.031 C 
ATOM     50  C   UNL A   1      47.142  24.658  26.205  1.00  0.00     0.029 A 
ATOM     51  C   UNL A   1      46.925  26.049  26.590  1.00  0.00     0.049 A 
ATOM     52  H   UNL A   1      45.169  26.902  27.318  1.00  0.00     0.167 HD
ATOM     53  C   UNL A   1      41.367  28.604  28.656  1.00  0.00     0.037 A 
ATOM     54  C   UNL A   1      47.848  27.028  26.537  1.00  0.00     0.037 A 
ATOM     55  C   UNL A   1      42.314  29.685  28.733  1.00  0.00     0.049 A 
ATOM     56  C   UNL A   1      47.469  28.420  26.971  1.00  0.00     0.074 A 
ATOM     57  C   UNL A   1      42.112  30.976  29.191  1.00  0.00     0.029 A 
ATOM     58  N   UNL A   1      43.640  29.606  28.338  1.00  0.00    -0.354 N 
ATOM     59  N   UNL A   1      46.323  28.862  27.430  1.00  0.00    -0.248 NA
ATOM     60  C   UNL A   1      48.515  29.448  26.886  1.00  0.00     0.031 C 
ATOM     61  C   UNL A   1      43.297  31.695  29.016  1.00  0.00     0.029 A 
ATOM     62  C   UNL A   1      44.259  30.834  28.512  1.00  0.00     0.049 A 
ATOM     63  H   UNL A   1      44.077  28.797  27.985  1.00  0.00     0.167 HD
ATOM     64  C   UNL A   1      46.522  30.205  27.722  1.00  0.00     0.074 A 
ATOM     65  C   UNL A   1      47.901  30.502  27.405  1.00  0.00     0.031 C 
ATOM     66  C   UNL A   1      45.640  31.112  28.210  1.00  0.00     0.037 A 
BRANCH  53  67
ATOM     67  C   UNL A   1      39.945  28.889  29.050  1.00  0.00     0.064 A 
ATOM     68  C   UNL A   1      38.993  29.322  28.116  1.00  0.00     0.173 A 
ATOM     69  C   UNL A   1      39.514  28.652  30.365  1.00  0.00     0.173 A 
ATOM     70  F   UNL A   1      39.355  29.573  26.849  1.00  0.00    -0.203 F 
ATOM     71  C   UNL A   1      37.666  29.526  28.487  1.00  0.00     0.198 A 
ATOM     72  C   UNL A   1      38.180  28.826  30.725  1.00  0.00     0.198 A 
ATOM     73  F   UNL A   1      40.381  28.230  31.296  1.00  0.00    -0.203 F 
ATOM     74  F   UNL A   1      36.782  29.977  27.587  1.00  0.00    -0.200 F 
ATOM     75  C   UNL A   1      37.259  29.268  29.787  1.00  0.00     0.200 A 
ATOM     76  F   UNL A   1      37.785  28.559  31.977  1.00  0.00    -0.200 F 
ATOM     77  F   UNL A   1      35.977  29.446  30.138  1.00  0.00    -0.200 F 
ENDBRANCH  53  67
BRANCH  54  78
ATOM     78  C   UNL A   1      49.228  26.738  26.060  1.00  0.00     0.064 A 
ATOM     79  C   UNL A   1      49.604  27.001  24.734  1.00  0.00     0.173 A 
ATOM     80  C   UNL A   1      50.185  26.153  26.902  1.00  0.00     0.173 A 
ATOM     81  F   UNL A   1      48.720  27.541  23.882  1.00  0.00    -0.203 F 
ATOM     82  C   UNL A   1      50.867  26.654  24.260  1.00  0.00     0.198 A 
ATOM     83  C   UNL A   1      51.461  25.839  26.435  1.00  0.00     0.198 A 
ATOM     84  F   UNL A   1      49.882  25.883  28.180  1.00  0.00    -0.203 F 
ATOM     85  F   UNL A   1      51.174  26.854  22.971  1.00  0.00    -0.200 F 
ATOM     86  C   UNL A   1      51.796  26.077  25.112  1.00  0.00     0.200 A 
ATOM     87  F   UNL A   1      52.360  25.296  27.268  1.00  0.00    -0.200 F 
ATOM     88  F   UNL A   1      53.008  25.738  24.655  1.00  0.00    -0.200 F 
ENDBRANCH  54  78
BRANCH  66  89
ATOM     89  C   UNL A   1      46.150  32.498  28.481  1.00  0.00     0.064 A 
ATOM     90  C   UNL A   1      46.077  33.516  27.518  1.00  0.00     0.173 A 
ATOM     91  C   UNL A   1      46.686  32.821  29.737  1.00  0.00     0.173 A 
ATOM     92  F   UNL A   1      45.587  33.256  26.296  1.00  0.00    -0.203 F 
ATOM     93  C   UNL A   1      46.548  34.797  27.793  1.00  0.00     0.198 A 
ATOM     94  C   UNL A   1      47.122  34.113  30.021  1.00  0.00     0.198 A 
ATOM     95  F   UNL A   1      46.771  31.888  30.697  1.00  0.00    -0.203 F 
ATOM     96  F   UNL A   1      46.519  35.738  26.840  1.00  0.00    -0.200 F 
ATOM     97  C   UNL A   1      47.062  35.096  29.046  1.00  0.00     0.200 A 
ATOM     98  F   UNL A   1      47.602  34.403  31.238  1.00  0.00    -0.200 F 
ATOM     99  F   UNL A   1      47.507  36.332  29.312  1.00  0.00    -0.200 F 
ENDBRANCH  66  89
ENDBRANCH  40  41
ENDBRANCH  32  35
ENDBRANCH  30  31
ENDBRANCH  29  30
ENDBRANCH  28  29
ENDBRANCH  27  28
ENDBRANCH   1  27
TORSDOF 18
ENDMDL
