MODEL 1
REMARK VINA RESULT:      -9.5      0.000      0.000
REMARK SMILES O=C(CCN1C(=O)S/C(=C\c2ccccc2F)C1=O)Nc1ccc(C(=O)NCCCCCCNC(=O)c2ccc(-c3c4nc(c(-c5c(F)c(F)c(F)c(F)c5F)c5ccc([nH]5)c(-c5c(F)c(F)c(F)c(F)c5F)c5nc(c(-c6c(F)c(F)c(F)c(F)c6F)c6ccc3[nH]6)C=C5)C=C4)cc2)c(O)c1
REMARK SMILES IDX 29 1 28 2 27 3 25 4 26 5 24 7 21 8 22 9 102 10 23 11 100 12
REMARK SMILES IDX 20 13 1 14 2 15 3 17 4 18 5 19 6 20 18 21 7 22 8 23 9 24
REMARK SMILES IDX 19 25 10 26 11 27 12 28 16 29 13 30 15 31 17 32 14 33 101 34
REMARK SMILES IDX 30 36 31 37 32 38 33 39 34 40 35 41 36 43 37 44 38 45 99 46
REMARK SMILES IDX 39 47 98 48 40 49 41 50 42 51 92 52 43 53 97 54 91 55 93 56
REMARK SMILES IDX 44 57 96 58 90 59 89 60 45 62 77 63 57 64 76 65 58 66 61 67
REMARK SMILES IDX 75 68 94 69 59 70 60 71 74 73 95 74 62 75 46 76 47 77 55 78
REMARK SMILES IDX 48 79 49 80 53 81 56 82 50 83 51 84 54 85 52 86 78 87 79 88
REMARK SMILES IDX 87 89 80 90 81 91 85 92 88 93 82 94 83 95 86 96 84 97 63 98
REMARK SMILES IDX 64 99 72 100 65 101 66 102 70 103 73 104 67 105 68 106
REMARK SMILES IDX 71 107 69 108
REMARK H PARENT 27 6 20 16 101 35 34 42 93 61 61 72
REMARK Flexibility Score: inf
ROOT
ATOM      1  C   UNL A   1      37.722  34.243  29.810  1.00  0.00     0.021 C 
ENDROOT
BRANCH   1   2
ATOM      2  C   UNL A   1      38.572  34.527  31.046  1.00  0.00     0.116 C 
BRANCH   2   3
ATOM      3  N   UNL A   1      37.806  34.843  32.240  1.00  0.00    -0.352 N 
ATOM      4  C   UNL A   1      37.701  34.170  33.434  1.00  0.00     0.255 C 
ATOM      5  O   UNL A   1      36.973  34.626  34.312  1.00  0.00    -0.269 OA
ATOM      6  H   UNL A   1      37.276  35.671  32.184  1.00  0.00     0.163 HD
BRANCH   4   7
ATOM      7  C   UNL A   1      38.407  32.888  33.672  1.00  0.00     0.081 A 
ATOM      8  C   UNL A   1      39.863  30.585  34.375  1.00  0.00     0.044 A 
ATOM      9  C   UNL A   1      40.498  31.823  34.325  1.00  0.00     0.027 A 
ATOM     10  C   UNL A   1      38.524  30.489  33.980  1.00  0.00     0.073 A 
ATOM     11  C   UNL A   1      39.774  32.968  33.974  1.00  0.00     0.020 A 
ATOM     12  C   UNL A   1      37.811  31.628  33.602  1.00  0.00     0.130 A 
BRANCH   8  13
ATOM     13  N   UNL A   1      40.499  29.398  34.778  1.00  0.00    -0.326 N 
ATOM     14  O   UNL A   1      41.147  28.470  32.751  1.00  0.00    -0.275 OA
ATOM     15  C   UNL A   1      41.073  28.433  33.975  1.00  0.00     0.226 C 
ATOM     16  H   UNL A   1      40.539  29.235  35.747  1.00  0.00     0.169 HD
BRANCH  15  17
ATOM     17  C   UNL A   1      41.601  27.231  34.742  1.00  0.00     0.122 C 
BRANCH  17  18
ATOM     18  C   UNL A   1      43.106  27.242  35.028  1.00  0.00     0.140 C 
BRANCH  18  19
ATOM     19  N   UNL A   1      43.818  26.026  34.641  1.00  0.00    -0.268 N 
ATOM     20  C   UNL A   1      44.131  25.772  33.326  1.00  0.00     0.293 C 
ATOM     21  C   UNL A   1      44.108  25.026  35.544  1.00  0.00     0.268 C 
ATOM     22  O   UNL A   1      43.882  26.471  32.360  1.00  0.00    -0.261 OA
ATOM     23  S   UNL A   1      45.011  24.261  33.202  1.00  0.00    -0.022 SA
ATOM     24  C   UNL A   1      44.988  24.015  34.902  1.00  0.00     0.083 C 
ATOM     25  O   UNL A   1      43.765  24.991  36.716  1.00  0.00    -0.268 OA
ATOM     26  C   UNL A   1      45.702  23.149  35.631  1.00  0.00     0.032 C 
BRANCH  26  27
ATOM     27  C   UNL A   1      46.700  22.213  35.101  1.00  0.00     0.012 A 
ATOM     28  C   UNL A   1      46.327  20.899  34.807  1.00  0.00     0.011 A 
ATOM     29  C   UNL A   1      48.034  22.594  34.907  1.00  0.00     0.130 A 
ATOM     30  C   UNL A   1      47.267  20.000  34.294  1.00  0.00     0.001 A 
ATOM     31  C   UNL A   1      48.973  21.705  34.391  1.00  0.00     0.040 A 
ATOM     32  F   UNL A   1      48.433  23.833  35.226  1.00  0.00    -0.206 F 
ATOM     33  C   UNL A   1      48.586  20.404  34.079  1.00  0.00     0.003 A 
ENDBRANCH  26  27
ENDBRANCH  18  19
ENDBRANCH  17  18
ENDBRANCH  15  17
ENDBRANCH   8  13
BRANCH  12  34
ATOM     34  O   UNL A   1      36.539  31.408  33.151  1.00  0.00    -0.507 OA
ATOM     35  H   UNL A   1      36.006  30.749  33.554  1.00  0.00     0.293 HD
ENDBRANCH  12  34
ENDBRANCH   4   7
ENDBRANCH   2   3
ENDBRANCH   1   2
BRANCH   1  36
ATOM     36  C   UNL A   1      36.998  32.894  29.773  1.00  0.00     0.002 C 
BRANCH  36  37
ATOM     37  C   UNL A   1      35.586  32.850  30.363  1.00  0.00     0.002 C 
BRANCH  37  38
ATOM     38  C   UNL A   1      34.429  32.945  29.368  1.00  0.00     0.021 C 
BRANCH  38  39
ATOM     39  C   UNL A   1      34.681  32.331  27.996  1.00  0.00     0.116 C 
BRANCH  39  40
ATOM     40  N   UNL A   1      34.109  31.003  27.852  1.00  0.00    -0.352 N 
ATOM     41  C   UNL A   1      34.726  29.778  27.888  1.00  0.00     0.251 C 
ATOM     42  H   UNL A   1      33.135  30.979  27.707  1.00  0.00     0.163 HD
ATOM     43  O   UNL A   1      34.098  28.760  27.613  1.00  0.00    -0.269 OA
BRANCH  41  44
ATOM     44  C   UNL A   1      36.163  29.683  28.230  1.00  0.00     0.039 A 
ATOM     45  C   UNL A   1      36.524  29.306  29.527  1.00  0.00     0.014 A 
ATOM     46  C   UNL A   1      37.151  29.961  27.281  1.00  0.00     0.014 A 
ATOM     47  C   UNL A   1      37.872  29.140  29.851  1.00  0.00     0.010 A 
ATOM     48  C   UNL A   1      38.490  29.721  27.584  1.00  0.00     0.010 A 
ATOM     49  C   UNL A   1      38.864  29.308  28.871  1.00  0.00    -0.014 A 
BRANCH  49  50
ATOM     50  C   UNL A   1      40.298  29.056  29.171  1.00  0.00     0.031 A 
ATOM     51  C   UNL A   1      40.937  27.757  28.762  1.00  0.00     0.074 A 
ATOM     52  C   UNL A   1      41.012  29.974  29.853  1.00  0.00     0.049 A 
ATOM     53  N   UNL A   1      42.144  27.315  29.009  1.00  0.00    -0.248 NA
ATOM     54  C   UNL A   1      40.104  26.822  27.988  1.00  0.00     0.031 C 
ATOM     55  C   UNL A   1      40.502  31.264  30.320  1.00  0.00     0.029 A 
ATOM     56  N   UNL A   1      42.318  29.963  30.277  1.00  0.00    -0.354 N 
ATOM     57  C   UNL A   1      42.213  26.058  28.424  1.00  0.00     0.074 A 
ATOM     58  C   UNL A   1      40.911  25.777  27.861  1.00  0.00     0.031 C 
ATOM     59  C   UNL A   1      41.490  31.933  30.935  1.00  0.00     0.029 A 
ATOM     60  C   UNL A   1      42.691  31.101  30.954  1.00  0.00     0.049 A 
ATOM     61  H   UNL A   1      42.931  29.210  30.112  1.00  0.00     0.167 HD
ATOM     62  C   UNL A   1      43.278  25.227  28.339  1.00  0.00     0.037 A 
ATOM     63  C   UNL A   1      43.863  31.431  31.531  1.00  0.00     0.037 A 
ATOM     64  C   UNL A   1      44.578  25.517  28.881  1.00  0.00     0.049 A 
ATOM     65  C   UNL A   1      45.011  30.458  31.470  1.00  0.00     0.074 A 
ATOM     66  C   UNL A   1      45.725  24.742  28.824  1.00  0.00     0.029 A 
ATOM     67  N   UNL A   1      44.908  26.672  29.572  1.00  0.00    -0.354 N 
ATOM     68  N   UNL A   1      45.073  29.288  30.885  1.00  0.00    -0.248 NA
ATOM     69  C   UNL A   1      46.254  30.853  32.151  1.00  0.00     0.031 C 
ATOM     70  C   UNL A   1      46.734  25.407  29.522  1.00  0.00     0.029 A 
ATOM     71  C   UNL A   1      46.237  26.623  29.962  1.00  0.00     0.049 A 
ATOM     72  H   UNL A   1      44.290  27.416  29.759  1.00  0.00     0.167 HD
ATOM     73  C   UNL A   1      46.366  28.824  31.091  1.00  0.00     0.074 A 
ATOM     74  C   UNL A   1      47.059  29.843  31.849  1.00  0.00     0.031 C 
ATOM     75  C   UNL A   1      46.924  27.658  30.688  1.00  0.00     0.037 A 
BRANCH  62  76
ATOM     76  C   UNL A   1      43.105  23.928  27.605  1.00  0.00     0.064 A 
ATOM     77  C   UNL A   1      43.409  23.832  26.238  1.00  0.00     0.173 A 
ATOM     78  C   UNL A   1      42.535  22.810  28.232  1.00  0.00     0.173 A 
ATOM     79  F   UNL A   1      43.949  24.876  25.590  1.00  0.00    -0.203 F 
ATOM     80  C   UNL A   1      43.122  22.674  25.522  1.00  0.00     0.198 A 
ATOM     81  C   UNL A   1      42.278  21.643  27.518  1.00  0.00     0.198 A 
ATOM     82  F   UNL A   1      42.237  22.849  29.539  1.00  0.00    -0.203 F 
ATOM     83  F   UNL A   1      43.376  22.622  24.207  1.00  0.00    -0.200 F 
ATOM     84  C   UNL A   1      42.558  21.581  26.162  1.00  0.00     0.200 A 
ATOM     85  F   UNL A   1      41.752  20.581  28.143  1.00  0.00    -0.200 F 
ATOM     86  F   UNL A   1      42.279  20.468  25.470  1.00  0.00    -0.200 F 
ENDBRANCH  62  76
BRANCH  63  87
ATOM     87  C   UNL A   1      44.023  32.755  32.193  1.00  0.00     0.064 A 
ATOM     88  C   UNL A   1      44.345  33.909  31.464  1.00  0.00     0.173 A 
ATOM     89  C   UNL A   1      43.846  32.889  33.578  1.00  0.00     0.173 A 
ATOM     90  F   UNL A   1      44.527  33.838  30.136  1.00  0.00    -0.203 F 
ATOM     91  C   UNL A   1      44.495  35.142  32.096  1.00  0.00     0.198 A 
ATOM     92  C   UNL A   1      43.964  34.128  34.203  1.00  0.00     0.198 A 
ATOM     93  F   UNL A   1      43.517  31.819  34.317  1.00  0.00    -0.203 F 
ATOM     94  F   UNL A   1      44.830  36.224  31.379  1.00  0.00    -0.200 F 
ATOM     95  C   UNL A   1      44.295  35.253  33.464  1.00  0.00     0.200 A 
ATOM     96  F   UNL A   1      43.740  34.235  35.520  1.00  0.00    -0.200 F 
ATOM     97  F   UNL A   1      44.414  36.444  34.066  1.00  0.00    -0.200 F 
ENDBRANCH  63  87
BRANCH  75  98
ATOM     98  C   UNL A   1      48.372  27.423  31.007  1.00  0.00     0.064 A 
ATOM     99  C   UNL A   1      48.739  26.823  32.223  1.00  0.00     0.173 A 
ATOM    100  C   UNL A   1      49.396  27.883  30.167  1.00  0.00     0.173 A 
ATOM    101  F   UNL A   1      47.797  26.375  33.066  1.00  0.00    -0.203 F 
ATOM    102  C   UNL A   1      50.075  26.715  32.594  1.00  0.00     0.198 A 
ATOM    103  C   UNL A   1      50.733  27.744  30.528  1.00  0.00     0.198 A 
ATOM    104  F   UNL A   1      49.098  28.453  28.990  1.00  0.00    -0.203 F 
ATOM    105  F   UNL A   1      50.399  26.182  33.781  1.00  0.00    -0.200 F 
ATOM    106  C   UNL A   1      51.071  27.173  31.746  1.00  0.00     0.200 A 
ATOM    107  F   UNL A   1      51.695  28.165  29.697  1.00  0.00    -0.200 F 
ATOM    108  F   UNL A   1      52.359  27.066  32.103  1.00  0.00    -0.200 F 
ENDBRANCH  75  98
ENDBRANCH  49  50
ENDBRANCH  41  44
ENDBRANCH  39  40
ENDBRANCH  38  39
ENDBRANCH  37  38
ENDBRANCH  36  37
ENDBRANCH   1  36
TORSDOF 19
ENDMDL
MODEL 2
REMARK VINA RESULT:      -9.3      4.318     10.716
REMARK SMILES O=C(CCN1C(=O)S/C(=C\c2ccccc2F)C1=O)Nc1ccc(C(=O)NCCCCCCNC(=O)c2ccc(-c3c4nc(c(-c5c(F)c(F)c(F)c(F)c5F)c5ccc([nH]5)c(-c5c(F)c(F)c(F)c(F)c5F)c5nc(c(-c6c(F)c(F)c(F)c(F)c6F)c6ccc3[nH]6)C=C5)C=C4)cc2)c(O)c1
REMARK SMILES IDX 29 1 28 2 27 3 25 4 26 5 24 7 21 8 22 9 102 10 23 11 100 12
REMARK SMILES IDX 20 13 1 14 2 15 3 17 4 18 5 19 6 20 18 21 7 22 8 23 9 24
REMARK SMILES IDX 19 25 10 26 11 27 12 28 16 29 13 30 15 31 17 32 14 33 101 34
REMARK SMILES IDX 30 36 31 37 32 38 33 39 34 40 35 41 36 43 37 44 38 45 99 46
REMARK SMILES IDX 39 47 98 48 40 49 41 50 42 51 92 52 43 53 97 54 91 55 93 56
REMARK SMILES IDX 44 57 96 58 90 59 89 60 45 62 77 63 57 64 76 65 58 66 61 67
REMARK SMILES IDX 75 68 94 69 59 70 60 71 74 73 95 74 62 75 46 76 47 77 55 78
REMARK SMILES IDX 48 79 49 80 53 81 56 82 50 83 51 84 54 85 52 86 78 87 79 88
REMARK SMILES IDX 87 89 80 90 81 91 85 92 88 93 82 94 83 95 86 96 84 97 63 98
REMARK SMILES IDX 64 99 72 100 65 101 66 102 70 103 73 104 67 105 68 106
REMARK SMILES IDX 71 107 69 108
REMARK H PARENT 27 6 20 16 101 35 34 42 93 61 61 72
REMARK Flexibility Score: inf
ROOT
ATOM      1  C   UNL A   1      44.024  23.546  27.821  1.00  0.00     0.021 C 
ENDROOT
BRANCH   1   2
ATOM      2  C   UNL A   1      45.488  23.255  27.505  1.00  0.00     0.116 C 
BRANCH   2   3
ATOM      3  N   UNL A   1      45.788  23.165  26.086  1.00  0.00    -0.352 N 
ATOM      4  C   UNL A   1      45.912  24.154  25.139  1.00  0.00     0.255 C 
ATOM      5  O   UNL A   1      46.163  23.838  23.978  1.00  0.00    -0.269 OA
ATOM      6  H   UNL A   1      45.924  22.250  25.749  1.00  0.00     0.163 HD
BRANCH   4   7
ATOM      7  C   UNL A   1      45.705  25.584  25.472  1.00  0.00     0.081 A 
ATOM      8  C   UNL A   1      45.047  28.211  26.235  1.00  0.00     0.044 A 
ATOM      9  C   UNL A   1      44.119  27.432  25.549  1.00  0.00     0.027 A 
ATOM     10  C   UNL A   1      46.333  27.706  26.453  1.00  0.00     0.073 A 
ATOM     11  C   UNL A   1      44.448  26.126  25.168  1.00  0.00     0.020 A 
ATOM     12  C   UNL A   1      46.668  26.413  26.048  1.00  0.00     0.130 A 
BRANCH   8  13
ATOM     13  N   UNL A   1      44.778  29.507  26.709  1.00  0.00    -0.326 N 
ATOM     14  O   UNL A   1      46.383  30.778  25.614  1.00  0.00    -0.275 OA
ATOM     15  C   UNL A   1      45.444  30.675  26.397  1.00  0.00     0.226 C 
ATOM     16  H   UNL A   1      44.027  29.591  27.339  1.00  0.00     0.169 HD
BRANCH  15  17
ATOM     17  C   UNL A   1      44.940  31.891  27.158  1.00  0.00     0.122 C 
BRANCH  17  18
ATOM     18  C   UNL A   1      44.168  32.917  26.323  1.00  0.00     0.140 C 
BRANCH  18  19
ATOM     19  N   UNL A   1      44.489  34.314  26.606  1.00  0.00    -0.268 N 
ATOM     20  C   UNL A   1      45.582  34.924  26.037  1.00  0.00     0.293 C 
ATOM     21  C   UNL A   1      43.791  35.053  27.537  1.00  0.00     0.268 C 
ATOM     22  O   UNL A   1      46.385  34.427  25.267  1.00  0.00    -0.261 OA
ATOM     23  S   UNL A   1      45.666  36.598  26.548  1.00  0.00    -0.022 SA
ATOM     24  C   UNL A   1      44.224  36.473  27.472  1.00  0.00     0.083 C 
ATOM     25  O   UNL A   1      42.901  34.642  28.265  1.00  0.00    -0.268 OA
ATOM     26  C   UNL A   1      43.478  37.454  27.994  1.00  0.00     0.032 C 
BRANCH  26  27
ATOM     27  C   UNL A   1      43.748  38.890  27.858  1.00  0.00     0.012 A 
ATOM     28  C   UNL A   1      44.784  39.471  28.594  1.00  0.00     0.011 A 
ATOM     29  C   UNL A   1      42.972  39.707  27.027  1.00  0.00     0.130 A 
ATOM     30  C   UNL A   1      45.055  40.836  28.467  1.00  0.00     0.001 A 
ATOM     31  C   UNL A   1      43.241  41.066  26.891  1.00  0.00     0.040 A 
ATOM     32  F   UNL A   1      41.940  39.188  26.345  1.00  0.00    -0.206 F 
ATOM     33  C   UNL A   1      44.291  41.632  27.612  1.00  0.00     0.003 A 
ENDBRANCH  26  27
ENDBRANCH  18  19
ENDBRANCH  17  18
ENDBRANCH  15  17
ENDBRANCH   8  13
BRANCH  12  34
ATOM     34  O   UNL A   1      47.975  26.055  26.231  1.00  0.00    -0.507 OA
ATOM     35  H   UNL A   1      48.581  26.109  25.517  1.00  0.00     0.293 HD
ENDBRANCH  12  34
ENDBRANCH   4   7
ENDBRANCH   2   3
ENDBRANCH   1   2
BRANCH   1  36
ATOM     36  C   UNL A   1      43.263  22.464  28.595  1.00  0.00     0.002 C 
BRANCH  36  37
ATOM     37  C   UNL A   1      41.736  22.573  28.615  1.00  0.00     0.002 C 
BRANCH  37  38
ATOM     38  C   UNL A   1      40.971  21.577  27.742  1.00  0.00     0.021 C 
BRANCH  38  39
ATOM     39  C   UNL A   1      40.858  21.936  26.266  1.00  0.00     0.116 C 
BRANCH  39  40
ATOM     40  N   UNL A   1      39.497  22.238  25.856  1.00  0.00    -0.352 N 
ATOM     41  C   UNL A   1      38.718  23.330  26.148  1.00  0.00     0.251 C 
ATOM     42  H   UNL A   1      39.071  21.559  25.284  1.00  0.00     0.163 HD
ATOM     43  O   UNL A   1      37.536  23.352  25.821  1.00  0.00    -0.269 OA
BRANCH  41  44
ATOM     44  C   UNL A   1      39.295  24.474  26.889  1.00  0.00     0.039 A 
ATOM     45  C   UNL A   1      40.134  25.362  26.209  1.00  0.00     0.014 A 
ATOM     46  C   UNL A   1      39.013  24.674  28.243  1.00  0.00     0.014 A 
ATOM     47  C   UNL A   1      40.632  26.488  26.870  1.00  0.00     0.010 A 
ATOM     48  C   UNL A   1      39.447  25.836  28.877  1.00  0.00     0.010 A 
ATOM     49  C   UNL A   1      40.260  26.755  28.197  1.00  0.00    -0.014 A 
BRANCH  49  50
ATOM     50  C   UNL A   1      40.710  27.989  28.893  1.00  0.00     0.031 A 
ATOM     51  C   UNL A   1      42.135  28.114  29.360  1.00  0.00     0.074 A 
ATOM     52  C   UNL A   1      39.827  28.974  29.149  1.00  0.00     0.049 A 
ATOM     53  N   UNL A   1      42.695  29.068  30.060  1.00  0.00    -0.248 NA
ATOM     54  C   UNL A   1      43.048  27.013  29.010  1.00  0.00     0.031 C 
ATOM     55  C   UNL A   1      38.415  28.965  28.764  1.00  0.00     0.029 A 
ATOM     56  N   UNL A   1      39.984  30.175  29.798  1.00  0.00    -0.354 N 
ATOM     57  C   UNL A   1      44.018  28.683  30.232  1.00  0.00     0.074 A 
ATOM     58  C   UNL A   1      44.166  27.382  29.619  1.00  0.00     0.031 C 
ATOM     59  C   UNL A   1      37.844  30.116  29.152  1.00  0.00     0.029 A 
ATOM     60  C   UNL A   1      38.832  30.925  29.860  1.00  0.00     0.049 A 
ATOM     61  H   UNL A   1      40.840  30.472  30.182  1.00  0.00     0.167 HD
ATOM     62  C   UNL A   1      45.023  29.368  30.823  1.00  0.00     0.037 A 
ATOM     63  C   UNL A   1      38.598  32.123  30.431  1.00  0.00     0.037 A 
ATOM     64  C   UNL A   1      44.878  30.672  31.415  1.00  0.00     0.049 A 
ATOM     65  C   UNL A   1      39.725  32.834  31.133  1.00  0.00     0.074 A 
ATOM     66  C   UNL A   1      45.849  31.454  32.019  1.00  0.00     0.029 A 
ATOM     67  N   UNL A   1      43.693  31.388  31.471  1.00  0.00    -0.354 N 
ATOM     68  N   UNL A   1      40.979  32.474  31.260  1.00  0.00    -0.248 NA
ATOM     69  C   UNL A   1      39.405  34.119  31.773  1.00  0.00     0.031 C 
ATOM     70  C   UNL A   1      45.240  32.621  32.482  1.00  0.00     0.029 A 
ATOM     71  C   UNL A   1      43.905  32.596  32.115  1.00  0.00     0.049 A 
ATOM     72  H   UNL A   1      42.830  31.083  31.108  1.00  0.00     0.167 HD
ATOM     73  C   UNL A   1      41.604  33.501  31.955  1.00  0.00     0.074 A 
ATOM     74  C   UNL A   1      40.593  34.503  32.219  1.00  0.00     0.031 C 
ATOM     75  C   UNL A   1      42.898  33.600  32.342  1.00  0.00     0.037 A 
BRANCH  62  76
ATOM     76  C   UNL A   1      46.390  28.747  30.840  1.00  0.00     0.064 A 
ATOM     77  C   UNL A   1      47.328  29.053  29.843  1.00  0.00     0.173 A 
ATOM     78  C   UNL A   1      46.730  27.765  31.783  1.00  0.00     0.173 A 
ATOM     79  F   UNL A   1      47.049  29.981  28.913  1.00  0.00    -0.203 F 
ATOM     80  C   UNL A   1      48.544  28.379  29.773  1.00  0.00     0.198 A 
ATOM     81  C   UNL A   1      47.959  27.114  31.726  1.00  0.00     0.198 A 
ATOM     82  F   UNL A   1      45.872  27.444  32.762  1.00  0.00    -0.203 F 
ATOM     83  F   UNL A   1      49.404  28.654  28.782  1.00  0.00    -0.200 F 
ATOM     84  C   UNL A   1      48.858  27.412  30.714  1.00  0.00     0.200 A 
ATOM     85  F   UNL A   1      48.270  26.194  32.650  1.00  0.00    -0.200 F 
ATOM     86  F   UNL A   1      50.028  26.760  30.643  1.00  0.00    -0.200 F 
ENDBRANCH  62  76
BRANCH  63  87
ATOM     87  C   UNL A   1      37.249  32.744  30.340  1.00  0.00     0.064 A 
ATOM     88  C   UNL A   1      36.864  33.509  29.229  1.00  0.00     0.173 A 
ATOM     89  C   UNL A   1      36.310  32.573  31.368  1.00  0.00     0.173 A 
ATOM     90  F   UNL A   1      37.722  33.707  28.217  1.00  0.00    -0.203 F 
ATOM     91  C   UNL A   1      35.597  34.087  29.156  1.00  0.00     0.198 A 
ATOM     92  C   UNL A   1      35.034  33.124  31.279  1.00  0.00     0.198 A 
ATOM     93  F   UNL A   1      36.622  31.832  32.441  1.00  0.00    -0.203 F 
ATOM     94  F   UNL A   1      35.265  34.838  28.096  1.00  0.00    -0.200 F 
ATOM     95  C   UNL A   1      34.680  33.887  30.177  1.00  0.00     0.200 A 
ATOM     96  F   UNL A   1      34.141  32.901  32.253  1.00  0.00    -0.200 F 
ATOM     97  F   UNL A   1      33.454  34.422  30.093  1.00  0.00    -0.200 F 
ENDBRANCH  63  87
BRANCH  75  98
ATOM     98  C   UNL A   1      43.328  34.852  33.049  1.00  0.00     0.064 A 
ATOM     99  C   UNL A   1      43.245  34.937  34.449  1.00  0.00     0.173 A 
ATOM    100  C   UNL A   1      43.720  35.999  32.344  1.00  0.00     0.173 A 
ATOM    101  F   UNL A   1      42.866  33.871  35.168  1.00  0.00    -0.203 F 
ATOM    102  C   UNL A   1      43.514  36.130  35.111  1.00  0.00     0.198 A 
ATOM    103  C   UNL A   1      44.019  37.182  33.014  1.00  0.00     0.198 A 
ATOM    104  F   UNL A   1      43.825  35.966  31.007  1.00  0.00    -0.203 F 
ATOM    105  F   UNL A   1      43.381  36.200  36.443  1.00  0.00    -0.200 F 
ATOM    106  C   UNL A   1      43.903  37.251  34.395  1.00  0.00     0.200 A 
ATOM    107  F   UNL A   1      44.418  38.257  32.322  1.00  0.00    -0.200 F 
ATOM    108  F   UNL A   1      44.166  38.399  35.034  1.00  0.00    -0.200 F 
ENDBRANCH  75  98
ENDBRANCH  49  50
ENDBRANCH  41  44
ENDBRANCH  39  40
ENDBRANCH  38  39
ENDBRANCH  37  38
ENDBRANCH  36  37
ENDBRANCH   1  36
TORSDOF 19
ENDMDL
MODEL 3
REMARK VINA RESULT:      -9.3      0.652      2.067
REMARK SMILES O=C(CCN1C(=O)S/C(=C\c2ccccc2F)C1=O)Nc1ccc(C(=O)NCCCCCCNC(=O)c2ccc(-c3c4nc(c(-c5c(F)c(F)c(F)c(F)c5F)c5ccc([nH]5)c(-c5c(F)c(F)c(F)c(F)c5F)c5nc(c(-c6c(F)c(F)c(F)c(F)c6F)c6ccc3[nH]6)C=C5)C=C4)cc2)c(O)c1
REMARK SMILES IDX 29 1 28 2 27 3 25 4 26 5 24 7 21 8 22 9 102 10 23 11 100 12
REMARK SMILES IDX 20 13 1 14 2 15 3 17 4 18 5 19 6 20 18 21 7 22 8 23 9 24
REMARK SMILES IDX 19 25 10 26 11 27 12 28 16 29 13 30 15 31 17 32 14 33 101 34
REMARK SMILES IDX 30 36 31 37 32 38 33 39 34 40 35 41 36 43 37 44 38 45 99 46
REMARK SMILES IDX 39 47 98 48 40 49 41 50 42 51 92 52 43 53 97 54 91 55 93 56
REMARK SMILES IDX 44 57 96 58 90 59 89 60 45 62 77 63 57 64 76 65 58 66 61 67
REMARK SMILES IDX 75 68 94 69 59 70 60 71 74 73 95 74 62 75 46 76 47 77 55 78
REMARK SMILES IDX 48 79 49 80 53 81 56 82 50 83 51 84 54 85 52 86 78 87 79 88
REMARK SMILES IDX 87 89 80 90 81 91 85 92 88 93 82 94 83 95 86 96 84 97 63 98
REMARK SMILES IDX 64 99 72 100 65 101 66 102 70 103 73 104 67 105 68 106
REMARK SMILES IDX 71 107 69 108
REMARK H PARENT 27 6 20 16 101 35 34 42 93 61 61 72
REMARK Flexibility Score: inf
ROOT
ATOM      1  C   UNL A   1      37.623  34.124  29.827  1.00  0.00     0.021 C 
ENDROOT
BRANCH   1   2
ATOM      2  C   UNL A   1      38.495  34.431  31.041  1.00  0.00     0.116 C 
BRANCH   2   3
ATOM      3  N   UNL A   1      37.752  34.800  32.234  1.00  0.00    -0.352 N 
ATOM      4  C   UNL A   1      37.671  34.180  33.459  1.00  0.00     0.255 C 
ATOM      5  O   UNL A   1      36.960  34.674  34.330  1.00  0.00    -0.269 OA
ATOM      6  H   UNL A   1      37.221  35.625  32.152  1.00  0.00     0.163 HD
BRANCH   4   7
ATOM      7  C   UNL A   1      38.381  32.909  33.738  1.00  0.00     0.081 A 
ATOM      8  C   UNL A   1      39.809  30.619  34.538  1.00  0.00     0.044 A 
ATOM      9  C   UNL A   1      40.407  31.875  34.612  1.00  0.00     0.027 A 
ATOM     10  C   UNL A   1      38.533  30.504  33.974  1.00  0.00     0.073 A 
ATOM     11  C   UNL A   1      39.696  33.013  34.213  1.00  0.00     0.020 A 
ATOM     12  C   UNL A   1      37.838  31.637  33.550  1.00  0.00     0.130 A 
BRANCH   8  13
ATOM     13  N   UNL A   1      40.426  29.435  34.976  1.00  0.00    -0.326 N 
ATOM     14  O   UNL A   1      41.170  28.499  32.986  1.00  0.00    -0.275 OA
ATOM     15  C   UNL A   1      41.038  28.467  34.206  1.00  0.00     0.226 C 
ATOM     16  H   UNL A   1      40.420  29.277  35.947  1.00  0.00     0.169 HD
BRANCH  15  17
ATOM     17  C   UNL A   1      41.530  27.269  35.002  1.00  0.00     0.122 C 
BRANCH  17  18
ATOM     18  C   UNL A   1      42.669  27.556  35.987  1.00  0.00     0.140 C 
BRANCH  18  19
ATOM     19  N   UNL A   1      43.716  26.539  36.035  1.00  0.00    -0.268 N 
ATOM     20  C   UNL A   1      44.203  26.073  37.233  1.00  0.00     0.293 C 
ATOM     21  C   UNL A   1      44.348  26.082  34.898  1.00  0.00     0.268 C 
ATOM     22  O   UNL A   1      43.857  26.411  38.351  1.00  0.00    -0.261 OA
ATOM     23  S   UNL A   1      45.417  24.841  36.947  1.00  0.00    -0.022 SA
ATOM     24  C   UNL A   1      45.226  24.934  35.243  1.00  0.00     0.083 C 
ATOM     25  O   UNL A   1      44.176  26.495  33.761  1.00  0.00    -0.268 OA
ATOM     26  C   UNL A   1      45.667  24.087  34.305  1.00  0.00     0.032 C 
BRANCH  26  27
ATOM     27  C   UNL A   1      46.417  22.852  34.561  1.00  0.00     0.012 A 
ATOM     28  C   UNL A   1      45.756  21.621  34.513  1.00  0.00     0.011 A 
ATOM     29  C   UNL A   1      47.780  22.873  34.882  1.00  0.00     0.130 A 
ATOM     30  C   UNL A   1      46.461  20.437  34.748  1.00  0.00     0.001 A 
ATOM     31  C   UNL A   1      48.488  21.697  35.110  1.00  0.00     0.040 A 
ATOM     32  F   UNL A   1      48.429  24.041  34.983  1.00  0.00    -0.206 F 
ATOM     33  C   UNL A   1      47.827  20.473  35.038  1.00  0.00     0.003 A 
ENDBRANCH  26  27
ENDBRANCH  18  19
ENDBRANCH  17  18
ENDBRANCH  15  17
ENDBRANCH   8  13
BRANCH  12  34
ATOM     34  O   UNL A   1      36.639  31.401  32.935  1.00  0.00    -0.507 OA
ATOM     35  H   UNL A   1      36.608  30.886  32.152  1.00  0.00     0.293 HD
ENDBRANCH  12  34
ENDBRANCH   4   7
ENDBRANCH   2   3
ENDBRANCH   1   2
BRANCH   1  36
ATOM     36  C   UNL A   1      36.766  32.856  29.903  1.00  0.00     0.002 C 
BRANCH  36  37
ATOM     37  C   UNL A   1      35.317  33.027  30.366  1.00  0.00     0.002 C 
BRANCH  37  38
ATOM     38  C   UNL A   1      34.262  33.160  29.268  1.00  0.00     0.021 C 
BRANCH  38  39
ATOM     39  C   UNL A   1      34.569  32.441  27.961  1.00  0.00     0.116 C 
BRANCH  39  40
ATOM     40  N   UNL A   1      33.964  31.122  27.881  1.00  0.00    -0.352 N 
ATOM     41  C   UNL A   1      34.553  29.884  27.967  1.00  0.00     0.251 C 
ATOM     42  H   UNL A   1      32.989  31.114  27.744  1.00  0.00     0.163 HD
ATOM     43  O   UNL A   1      33.898  28.871  27.742  1.00  0.00    -0.269 OA
BRANCH  41  44
ATOM     44  C   UNL A   1      35.990  29.770  28.303  1.00  0.00     0.039 A 
ATOM     45  C   UNL A   1      36.351  29.362  29.590  1.00  0.00     0.014 A 
ATOM     46  C   UNL A   1      36.977  30.060  27.357  1.00  0.00     0.014 A 
ATOM     47  C   UNL A   1      37.699  29.178  29.906  1.00  0.00     0.010 A 
ATOM     48  C   UNL A   1      38.315  29.802  27.650  1.00  0.00     0.010 A 
ATOM     49  C   UNL A   1      38.689  29.358  28.927  1.00  0.00    -0.014 A 
BRANCH  49  50
ATOM     50  C   UNL A   1      40.122  29.088  29.217  1.00  0.00     0.031 A 
ATOM     51  C   UNL A   1      40.755  27.804  28.755  1.00  0.00     0.074 A 
ATOM     52  C   UNL A   1      40.839  29.973  29.937  1.00  0.00     0.049 A 
ATOM     53  N   UNL A   1      41.960  27.347  28.985  1.00  0.00    -0.248 NA
ATOM     54  C   UNL A   1      39.919  26.905  27.943  1.00  0.00     0.031 C 
ATOM     55  C   UNL A   1      40.335  31.246  30.456  1.00  0.00     0.029 A 
ATOM     56  N   UNL A   1      42.145  29.939  30.360  1.00  0.00    -0.354 N 
ATOM     57  C   UNL A   1      42.024  26.115  28.349  1.00  0.00     0.074 A 
ATOM     58  C   UNL A   1      40.721  25.863  27.774  1.00  0.00     0.031 C 
ATOM     59  C   UNL A   1      41.326  31.884  31.098  1.00  0.00     0.029 A 
ATOM     60  C   UNL A   1      42.522  31.047  31.084  1.00  0.00     0.049 A 
ATOM     61  H   UNL A   1      42.755  29.191  30.165  1.00  0.00     0.167 HD
ATOM     62  C   UNL A   1      43.084  25.283  28.230  1.00  0.00     0.037 A 
ATOM     63  C   UNL A   1      43.695  31.348  31.674  1.00  0.00     0.037 A 
ATOM     64  C   UNL A   1      44.386  25.544  28.784  1.00  0.00     0.049 A 
ATOM     65  C   UNL A   1      44.839  30.373  31.574  1.00  0.00     0.074 A 
ATOM     66  C   UNL A   1      45.529  24.767  28.696  1.00  0.00     0.029 A 
ATOM     67  N   UNL A   1      44.720  26.668  29.522  1.00  0.00    -0.354 N 
ATOM     68  N   UNL A   1      44.897  29.227  30.941  1.00  0.00    -0.248 NA
ATOM     69  C   UNL A   1      46.083  30.733  32.271  1.00  0.00     0.031 C 
ATOM     70  C   UNL A   1      46.541  25.398  29.421  1.00  0.00     0.029 A 
ATOM     71  C   UNL A   1      46.049  26.597  29.910  1.00  0.00     0.049 A 
ATOM     72  H   UNL A   1      44.106  27.407  29.739  1.00  0.00     0.167 HD
ATOM     73  C   UNL A   1      46.187  28.750  31.129  1.00  0.00     0.074 A 
ATOM     74  C   UNL A   1      46.884  29.733  31.929  1.00  0.00     0.031 C 
ATOM     75  C   UNL A   1      46.741  27.598  30.679  1.00  0.00     0.037 A 
BRANCH  62  76
ATOM     76  C   UNL A   1      42.907  24.016  27.443  1.00  0.00     0.064 A 
ATOM     77  C   UNL A   1      42.514  22.828  28.077  1.00  0.00     0.173 A 
ATOM     78  C   UNL A   1      43.232  23.957  26.079  1.00  0.00     0.173 A 
ATOM     79  F   UNL A   1      42.199  22.830  29.383  1.00  0.00    -0.203 F 
ATOM     80  C   UNL A   1      42.481  21.623  27.382  1.00  0.00     0.198 A 
ATOM     81  C   UNL A   1      43.168  22.754  25.380  1.00  0.00     0.198 A 
ATOM     82  F   UNL A   1      43.602  25.067  25.425  1.00  0.00    -0.203 F 
ATOM     83  F   UNL A   1      42.150  20.492  28.021  1.00  0.00    -0.200 F 
ATOM     84  C   UNL A   1      42.807  21.587  26.035  1.00  0.00     0.200 A 
ATOM     85  F   UNL A   1      43.464  22.726  24.074  1.00  0.00    -0.200 F 
ATOM     86  F   UNL A   1      42.778  20.425  25.368  1.00  0.00    -0.200 F 
ENDBRANCH  62  76
BRANCH  63  87
ATOM     87  C   UNL A   1      43.862  32.642  32.390  1.00  0.00     0.064 A 
ATOM     88  C   UNL A   1      43.783  32.726  33.788  1.00  0.00     0.173 A 
ATOM     89  C   UNL A   1      44.114  33.826  31.681  1.00  0.00     0.173 A 
ATOM     90  F   UNL A   1      43.543  31.625  34.516  1.00  0.00    -0.203 F 
ATOM     91  C   UNL A   1      43.939  33.945  34.447  1.00  0.00     0.198 A 
ATOM     92  C   UNL A   1      44.301  35.038  32.343  1.00  0.00     0.198 A 
ATOM     93  F   UNL A   1      44.219  33.795  30.344  1.00  0.00    -0.203 F 
ATOM     94  F   UNL A   1      43.831  34.001  35.781  1.00  0.00    -0.200 F 
ATOM     95  C   UNL A   1      44.207  35.097  33.724  1.00  0.00     0.200 A 
ATOM     96  F   UNL A   1      44.591  36.142  31.643  1.00  0.00    -0.200 F 
ATOM     97  F   UNL A   1      44.382  36.264  34.361  1.00  0.00    -0.200 F 
ENDBRANCH  63  87
BRANCH  75  98
ATOM     98  C   UNL A   1      48.187  27.344  30.988  1.00  0.00     0.064 A 
ATOM     99  C   UNL A   1      49.185  27.766  30.094  1.00  0.00     0.173 A 
ATOM    100  C   UNL A   1      48.581  26.596  32.107  1.00  0.00     0.173 A 
ATOM    101  F   UNL A   1      48.860  28.476  29.004  1.00  0.00    -0.203 F 
ATOM    102  C   UNL A   1      50.519  27.427  30.298  1.00  0.00     0.198 A 
ATOM    103  C   UNL A   1      49.921  26.287  32.323  1.00  0.00     0.198 A 
ATOM    104  F   UNL A   1      47.667  26.180  32.996  1.00  0.00    -0.203 F 
ATOM    105  F   UNL A   1      51.448  27.799  29.406  1.00  0.00    -0.200 F 
ATOM    106  C   UNL A   1      50.887  26.690  31.413  1.00  0.00     0.200 A 
ATOM    107  F   UNL A   1      50.277  25.595  33.414  1.00  0.00    -0.200 F 
ATOM    108  F   UNL A   1      52.172  26.366  31.610  1.00  0.00    -0.200 F 
ENDBRANCH  75  98
ENDBRANCH  49  50
ENDBRANCH  41  44
ENDBRANCH  39  40
ENDBRANCH  38  39
ENDBRANCH  37  38
ENDBRANCH  36  37
ENDBRANCH   1  36
TORSDOF 19
ENDMDL
