MODEL 1
REMARK VINA RESULT:     -11.7      0.000      0.000
REMARK SMILES CNC(=O)[C@H](C)S(=O)(=O)c1cc(C(=O)NCCCCCCNC(=O)c2ccc(-c3c4nc(c(-c5c(F)c(F)c(F)c(F)c5F)c5ccc([nH]5)c(-c5c(F)c(F)c(F)c(F)c5F)c5nc(c(-c6c(F)c(F)c(F)c(F)c6F)c6ccc3[nH]6)C=C5)C=C4)cc2)c(C)cc1C
REMARK SMILES IDX 18 1 17 2 16 3 15 4 13 5 14 6 12 8 10 9 11 10 91 11 90 12
REMARK SMILES IDX 92 13 88 14 89 15 7 16 8 17 9 18 5 19 6 20 3 21 1 22 2 23
REMARK SMILES IDX 4 25 19 26 20 27 21 28 22 29 23 30 24 32 25 33 26 34 87 35
REMARK SMILES IDX 27 36 86 37 28 38 29 39 30 40 80 41 31 42 85 43 79 44 81 45
REMARK SMILES IDX 32 46 84 47 78 48 77 49 33 51 65 52 45 53 64 54 46 55 49 56
REMARK SMILES IDX 63 57 82 58 47 59 48 60 62 62 83 63 50 64 34 65 35 66 43 67
REMARK SMILES IDX 36 68 37 69 41 70 44 71 38 72 39 73 42 74 40 75 66 76 67 77
REMARK SMILES IDX 75 78 68 79 69 80 73 81 76 82 70 83 71 84 74 85 72 86 51 87
REMARK SMILES IDX 52 88 60 89 53 90 54 91 58 92 61 93 55 94 56 95 59 96 57 97
REMARK H PARENT 15 7 2 24 22 31 81 50 49 61
REMARK Flexibility Score: inf
ROOT
ATOM      1  C   UNL A   1      40.218  22.191  26.563  1.00  0.00     0.002 C 
ENDROOT
BRANCH   1   2
ATOM      2  C   UNL A   1      38.958  21.533  25.999  1.00  0.00     0.021 C 
BRANCH   2   3
ATOM      3  C   UNL A   1      37.779  22.497  25.814  1.00  0.00     0.116 C 
BRANCH   3   4
ATOM      4  N   UNL A   1      37.610  22.758  24.406  1.00  0.00    -0.352 N 
ATOM      5  C   UNL A   1      36.534  22.881  23.576  1.00  0.00     0.251 C 
ATOM      6  O   UNL A   1      36.818  22.953  22.376  1.00  0.00    -0.269 OA
ATOM      7  H   UNL A   1      38.467  22.875  23.935  1.00  0.00     0.163 HD
BRANCH   5   8
ATOM      8  C   UNL A   1      35.093  23.046  23.978  1.00  0.00     0.044 A 
ATOM      9  C   UNL A   1      33.193  24.609  23.660  1.00  0.00     0.071 A 
ATOM     10  C   UNL A   1      34.535  24.235  23.463  1.00  0.00     0.034 A 
ATOM     11  C   UNL A   1      32.368  23.830  24.470  1.00  0.00    -0.032 A 
ATOM     12  C   UNL A   1      32.902  22.626  24.952  1.00  0.00     0.009 A 
ATOM     13  C   UNL A   1      30.922  24.103  24.764  1.00  0.00     0.046 C 
ATOM     14  C   UNL A   1      34.215  22.182  24.652  1.00  0.00    -0.038 A 
ATOM     15  C   UNL A   1      34.477  20.750  24.999  1.00  0.00     0.045 C 
BRANCH   9  16
ATOM     16  S   UNL A   1      32.602  25.961  22.650  1.00  0.00     0.190 S 
ATOM     17  O   UNL A   1      31.297  25.605  22.130  1.00  0.00    -0.223 OA
ATOM     18  O   UNL A   1      33.652  26.240  21.680  1.00  0.00    -0.223 OA
BRANCH  16  19
ATOM     19  C   UNL A   1      32.424  27.377  23.712  1.00  0.00     0.199 C 
ATOM     20  C   UNL A   1      33.452  27.341  24.845  1.00  0.00     0.036 C 
BRANCH  19  21
ATOM     21  C   UNL A   1      32.558  28.667  22.933  1.00  0.00     0.238 C 
ATOM     22  C   UNL A   1      30.085  28.928  22.374  1.00  0.00     0.142 C 
ATOM     23  N   UNL A   1      31.474  29.328  22.443  1.00  0.00    -0.358 N 
ATOM     24  H   UNL A   1      31.665  30.221  22.077  1.00  0.00     0.163 HD
ATOM     25  O   UNL A   1      33.659  29.194  22.749  1.00  0.00    -0.274 OA
ENDBRANCH  19  21
ENDBRANCH  16  19
ENDBRANCH   9  16
ENDBRANCH   5   8
ENDBRANCH   3   4
ENDBRANCH   2   3
ENDBRANCH   1   2
BRANCH   1  26
ATOM     26  C   UNL A   1      41.274  21.201  27.061  1.00  0.00     0.002 C 
BRANCH  26  27
ATOM     27  C   UNL A   1      41.475  19.969  26.174  1.00  0.00     0.021 C 
BRANCH  27  28
ATOM     28  C   UNL A   1      42.638  19.071  26.588  1.00  0.00     0.116 C 
BRANCH  28  29
ATOM     29  N   UNL A   1      43.455  18.693  25.447  1.00  0.00    -0.352 N 
ATOM     30  C   UNL A   1      44.176  19.488  24.593  1.00  0.00     0.251 C 
ATOM     31  H   UNL A   1      43.496  17.727  25.260  1.00  0.00     0.163 HD
ATOM     32  O   UNL A   1      44.597  19.039  23.532  1.00  0.00    -0.269 OA
BRANCH  30  33
ATOM     33  C   UNL A   1      44.441  20.896  24.953  1.00  0.00     0.039 A 
ATOM     34  C   UNL A   1      44.010  21.910  24.093  1.00  0.00     0.014 A 
ATOM     35  C   UNL A   1      45.134  21.210  26.125  1.00  0.00     0.014 A 
ATOM     36  C   UNL A   1      44.229  23.245  24.439  1.00  0.00     0.010 A 
ATOM     37  C   UNL A   1      45.287  22.541  26.501  1.00  0.00     0.010 A 
ATOM     38  C   UNL A   1      44.842  23.572  25.659  1.00  0.00    -0.014 A 
BRANCH  38  39
ATOM     39  C   UNL A   1      45.036  24.984  26.071  1.00  0.00     0.031 A 
ATOM     40  C   UNL A   1      46.395  25.618  25.974  1.00  0.00     0.074 A 
ATOM     41  C   UNL A   1      44.004  25.671  26.597  1.00  0.00     0.049 A 
ATOM     42  N   UNL A   1      46.784  26.809  26.355  1.00  0.00    -0.248 NA
ATOM     43  C   UNL A   1      47.468  24.793  25.397  1.00  0.00     0.031 C 
ATOM     44  C   UNL A   1      42.649  25.150  26.785  1.00  0.00     0.029 A 
ATOM     45  N   UNL A   1      43.936  26.954  27.082  1.00  0.00    -0.354 N 
ATOM     46  C   UNL A   1      48.143  26.868  26.079  1.00  0.00     0.074 A 
ATOM     47  C   UNL A   1      48.525  25.578  25.548  1.00  0.00     0.031 C 
ATOM     48  C   UNL A   1      41.881  26.108  27.328  1.00  0.00     0.029 A 
ATOM     49  C   UNL A   1      42.695  27.296  27.560  1.00  0.00     0.049 A 
ATOM     50  H   UNL A   1      44.705  27.568  27.089  1.00  0.00     0.167 HD
ATOM     51  C   UNL A   1      48.992  27.913  26.234  1.00  0.00     0.037 A 
ATOM     52  C   UNL A   1      42.265  28.439  28.130  1.00  0.00     0.037 A 
ATOM     53  C   UNL A   1      48.601  29.202  26.738  1.00  0.00     0.049 A 
ATOM     54  C   UNL A   1      43.229  29.584  28.292  1.00  0.00     0.074 A 
ATOM     55  C   UNL A   1      49.369  30.345  26.877  1.00  0.00     0.029 A 
ATOM     56  N   UNL A   1      47.328  29.520  27.190  1.00  0.00    -0.354 N 
ATOM     57  N   UNL A   1      44.496  29.652  27.964  1.00  0.00    -0.248 NA
ATOM     58  C   UNL A   1      42.700  30.813  28.897  1.00  0.00     0.031 C 
ATOM     59  C   UNL A   1      48.574  31.339  27.456  1.00  0.00     0.029 A 
ATOM     60  C   UNL A   1      47.296  30.834  27.627  1.00  0.00     0.049 A 
ATOM     61  H   UNL A   1      46.561  28.903  27.197  1.00  0.00     0.167 HD
ATOM     62  C   UNL A   1      44.907  30.937  28.292  1.00  0.00     0.074 A 
ATOM     63  C   UNL A   1      43.751  31.620  28.835  1.00  0.00     0.031 C 
ATOM     64  C   UNL A   1      46.131  31.502  28.152  1.00  0.00     0.037 A 
BRANCH  51  65
ATOM     65  C   UNL A   1      50.429  27.705  25.849  1.00  0.00     0.064 A 
ATOM     66  C   UNL A   1      50.864  27.846  24.522  1.00  0.00     0.173 A 
ATOM     67  C   UNL A   1      51.390  27.399  26.824  1.00  0.00     0.173 A 
ATOM     68  F   UNL A   1      49.984  28.129  23.549  1.00  0.00    -0.203 F 
ATOM     69  C   UNL A   1      52.200  27.656  24.181  1.00  0.00     0.198 A 
ATOM     70  C   UNL A   1      52.732  27.241  26.484  1.00  0.00     0.198 A 
ATOM     71  F   UNL A   1      51.031  27.259  28.109  1.00  0.00    -0.203 F 
ATOM     72  F   UNL A   1      52.582  27.745  22.899  1.00  0.00    -0.200 F 
ATOM     73  C   UNL A   1      53.134  27.361  25.163  1.00  0.00     0.200 A 
ATOM     74  F   UNL A   1      53.635  26.971  27.436  1.00  0.00    -0.200 F 
ATOM     75  F   UNL A   1      54.421  27.188  24.835  1.00  0.00    -0.200 F 
ENDBRANCH  51  65
BRANCH  52  76
ATOM     76  C   UNL A   1      40.849  28.566  28.561  1.00  0.00     0.064 A 
ATOM     77  C   UNL A   1      39.861  29.001  27.667  1.00  0.00     0.173 A 
ATOM     78  C   UNL A   1      40.454  28.255  29.870  1.00  0.00     0.173 A 
ATOM     79  F   UNL A   1      40.194  29.328  26.410  1.00  0.00    -0.203 F 
ATOM     80  C   UNL A   1      38.535  29.142  28.072  1.00  0.00     0.198 A 
ATOM     81  C   UNL A   1      39.122  28.368  30.265  1.00  0.00     0.198 A 
ATOM     82  F   UNL A   1      41.359  27.828  30.763  1.00  0.00    -0.203 F 
ATOM     83  F   UNL A   1      37.619  29.604  27.209  1.00  0.00    -0.200 F 
ATOM     84  C   UNL A   1      38.166  28.820  29.368  1.00  0.00     0.200 A 
ATOM     85  F   UNL A   1      38.766  28.041  31.515  1.00  0.00    -0.200 F 
ATOM     86  F   UNL A   1      36.889  28.951  29.756  1.00  0.00    -0.200 F 
ENDBRANCH  52  76
BRANCH  64  87
ATOM     87  C   UNL A   1      46.277  32.942  28.549  1.00  0.00     0.064 A 
ATOM     88  C   UNL A   1      46.673  33.314  29.842  1.00  0.00     0.173 A 
ATOM     89  C   UNL A   1      46.067  33.961  27.607  1.00  0.00     0.173 A 
ATOM     90  F   UNL A   1      46.872  32.378  30.783  1.00  0.00    -0.203 F 
ATOM     91  C   UNL A   1      46.833  34.655  30.183  1.00  0.00     0.198 A 
ATOM     92  C   UNL A   1      46.257  35.297  27.942  1.00  0.00     0.198 A 
ATOM     93  F   UNL A   1      45.693  33.656  26.354  1.00  0.00    -0.203 F 
ATOM     94  F   UNL A   1      47.170  34.990  31.435  1.00  0.00    -0.200 F 
ATOM     95  C   UNL A   1      46.634  35.644  29.231  1.00  0.00     0.200 A 
ATOM     96  F   UNL A   1      46.079  36.250  27.017  1.00  0.00    -0.200 F 
ATOM     97  F   UNL A   1      46.799  36.933  29.557  1.00  0.00    -0.200 F 
ENDBRANCH  64  87
ENDBRANCH  38  39
ENDBRANCH  30  33
ENDBRANCH  28  29
ENDBRANCH  27  28
ENDBRANCH  26  27
ENDBRANCH   1  26
TORSDOF 16
ENDMDL
MODEL 2
REMARK VINA RESULT:     -11.6      6.231     10.953
REMARK SMILES CNC(=O)[C@H](C)S(=O)(=O)c1cc(C(=O)NCCCCCCNC(=O)c2ccc(-c3c4nc(c(-c5c(F)c(F)c(F)c(F)c5F)c5ccc([nH]5)c(-c5c(F)c(F)c(F)c(F)c5F)c5nc(c(-c6c(F)c(F)c(F)c(F)c6F)c6ccc3[nH]6)C=C5)C=C4)cc2)c(C)cc1C
REMARK SMILES IDX 18 1 17 2 16 3 15 4 13 5 14 6 12 8 10 9 11 10 91 11 90 12
REMARK SMILES IDX 92 13 88 14 89 15 7 16 8 17 9 18 5 19 6 20 3 21 1 22 2 23
REMARK SMILES IDX 4 25 19 26 20 27 21 28 22 29 23 30 24 32 25 33 26 34 87 35
REMARK SMILES IDX 27 36 86 37 28 38 29 39 30 40 80 41 31 42 85 43 79 44 81 45
REMARK SMILES IDX 32 46 84 47 78 48 77 49 33 51 65 52 45 53 64 54 46 55 49 56
REMARK SMILES IDX 63 57 82 58 47 59 48 60 62 62 83 63 50 64 34 65 35 66 43 67
REMARK SMILES IDX 36 68 37 69 41 70 44 71 38 72 39 73 42 74 40 75 66 76 67 77
REMARK SMILES IDX 75 78 68 79 69 80 73 81 76 82 70 83 71 84 74 85 72 86 51 87
REMARK SMILES IDX 52 88 60 89 53 90 54 91 58 92 61 93 55 94 56 95 59 96 57 97
REMARK H PARENT 15 7 2 24 22 31 81 50 49 61
REMARK Flexibility Score: inf
ROOT
ATOM      1  C   UNL A   1      32.246  29.934  27.248  1.00  0.00     0.002 C 
ENDROOT
BRANCH   1   2
ATOM      2  C   UNL A   1      33.762  29.740  27.173  1.00  0.00     0.021 C 
BRANCH   2   3
ATOM      3  C   UNL A   1      34.196  28.529  26.339  1.00  0.00     0.116 C 
BRANCH   3   4
ATOM      4  N   UNL A   1      34.262  28.919  24.953  1.00  0.00    -0.352 N 
ATOM      5  C   UNL A   1      33.812  28.380  23.782  1.00  0.00     0.251 C 
ATOM      6  O   UNL A   1      34.215  28.956  22.765  1.00  0.00    -0.269 OA
ATOM      7  H   UNL A   1      34.740  29.769  24.819  1.00  0.00     0.163 HD
BRANCH   5   8
ATOM      8  C   UNL A   1      32.816  27.264  23.621  1.00  0.00     0.044 A 
ATOM      9  C   UNL A   1      32.743  24.799  23.358  1.00  0.00     0.071 A 
ATOM     10  C   UNL A   1      33.448  26.010  23.485  1.00  0.00     0.034 A 
ATOM     11  C   UNL A   1      31.352  24.811  23.273  1.00  0.00    -0.032 A 
ATOM     12  C   UNL A   1      30.714  26.048  23.448  1.00  0.00     0.009 A 
ATOM     13  C   UNL A   1      30.473  23.601  23.140  1.00  0.00     0.046 C 
ATOM     14  C   UNL A   1      31.415  27.254  23.703  1.00  0.00    -0.038 A 
ATOM     15  C   UNL A   1      30.549  28.385  24.162  1.00  0.00     0.045 C 
BRANCH   9  16
ATOM     16  S   UNL A   1      33.713  23.308  23.542  1.00  0.00     0.190 S 
ATOM     17  O   UNL A   1      35.069  23.589  23.112  1.00  0.00    -0.223 OA
ATOM     18  O   UNL A   1      32.995  22.258  22.834  1.00  0.00    -0.223 OA
BRANCH  16  19
ATOM     19  C   UNL A   1      33.740  22.904  25.275  1.00  0.00     0.199 C 
ATOM     20  C   UNL A   1      33.753  24.174  26.129  1.00  0.00     0.036 C 
BRANCH  19  21
ATOM     21  C   UNL A   1      32.559  22.038  25.655  1.00  0.00     0.238 C 
ATOM     22  C   UNL A   1      33.635  19.804  25.065  1.00  0.00     0.142 C 
ATOM     23  N   UNL A   1      32.618  20.679  25.607  1.00  0.00    -0.358 N 
ATOM     24  H   UNL A   1      31.847  20.218  26.006  1.00  0.00     0.163 HD
ATOM     25  O   UNL A   1      31.505  22.533  26.065  1.00  0.00    -0.274 OA
ENDBRANCH  19  21
ENDBRANCH  16  19
ENDBRANCH   9  16
ENDBRANCH   5   8
ENDBRANCH   3   4
ENDBRANCH   2   3
ENDBRANCH   1   2
BRANCH   1  26
ATOM     26  C   UNL A   1      31.701  30.999  26.293  1.00  0.00     0.002 C 
BRANCH  26  27
ATOM     27  C   UNL A   1      31.503  32.385  26.913  1.00  0.00     0.021 C 
BRANCH  27  28
ATOM     28  C   UNL A   1      32.798  33.127  27.235  1.00  0.00     0.116 C 
BRANCH  28  29
ATOM     29  N   UNL A   1      32.537  34.466  27.737  1.00  0.00    -0.352 N 
ATOM     30  C   UNL A   1      33.027  35.083  28.860  1.00  0.00     0.251 C 
ATOM     31  H   UNL A   1      31.920  35.008  27.193  1.00  0.00     0.163 HD
ATOM     32  O   UNL A   1      32.510  36.114  29.278  1.00  0.00    -0.269 OA
BRANCH  30  33
ATOM     33  C   UNL A   1      34.181  34.498  29.572  1.00  0.00     0.039 A 
ATOM     34  C   UNL A   1      33.989  33.951  30.843  1.00  0.00     0.014 A 
ATOM     35  C   UNL A   1      35.453  34.512  28.994  1.00  0.00     0.014 A 
ATOM     36  C   UNL A   1      35.067  33.368  31.513  1.00  0.00     0.010 A 
ATOM     37  C   UNL A   1      36.509  33.868  29.630  1.00  0.00     0.010 A 
ATOM     38  C   UNL A   1      36.329  33.295  30.899  1.00  0.00    -0.014 A 
BRANCH  38  39
ATOM     39  C   UNL A   1      37.475  32.632  31.569  1.00  0.00     0.031 A 
ATOM     40  C   UNL A   1      38.167  31.473  30.909  1.00  0.00     0.074 A 
ATOM     41  C   UNL A   1      37.845  33.031  32.801  1.00  0.00     0.049 A 
ATOM     42  N   UNL A   1      39.132  30.715  31.365  1.00  0.00    -0.248 NA
ATOM     43  C   UNL A   1      37.692  31.098  29.568  1.00  0.00     0.031 C 
ATOM     44  C   UNL A   1      37.221  34.113  33.563  1.00  0.00     0.029 A 
ATOM     45  N   UNL A   1      38.829  32.562  33.636  1.00  0.00    -0.354 N 
ATOM     46  C   UNL A   1      39.366  29.768  30.377  1.00  0.00     0.074 A 
ATOM     47  C   UNL A   1      38.409  30.012  29.320  1.00  0.00     0.031 C 
ATOM     48  C   UNL A   1      37.847  34.237  34.744  1.00  0.00     0.029 A 
ATOM     49  C   UNL A   1      38.891  33.222  34.838  1.00  0.00     0.049 A 
ATOM     50  H   UNL A   1      39.432  31.822  33.395  1.00  0.00     0.167 HD
ATOM     51  C   UNL A   1      40.310  28.797  30.345  1.00  0.00     0.037 A 
ATOM     52  C   UNL A   1      39.695  33.024  35.901  1.00  0.00     0.037 A 
ATOM     53  C   UNL A   1      41.277  28.576  31.388  1.00  0.00     0.049 A 
ATOM     54  C   UNL A   1      40.734  31.936  35.841  1.00  0.00     0.074 A 
ATOM     55  C   UNL A   1      42.313  27.659  31.426  1.00  0.00     0.029 A 
ATOM     56  N   UNL A   1      41.325  29.281  32.582  1.00  0.00    -0.354 N 
ATOM     57  N   UNL A   1      40.992  31.091  34.873  1.00  0.00    -0.248 NA
ATOM     58  C   UNL A   1      41.599  31.781  37.019  1.00  0.00     0.031 C 
ATOM     59  C   UNL A   1      42.957  27.777  32.661  1.00  0.00     0.029 A 
ATOM     60  C   UNL A   1      42.359  28.805  33.371  1.00  0.00     0.049 A 
ATOM     61  H   UNL A   1      40.714  30.012  32.831  1.00  0.00     0.167 HD
ATOM     62  C   UNL A   1      42.066  30.327  35.310  1.00  0.00     0.074 A 
ATOM     63  C   UNL A   1      42.419  30.816  36.626  1.00  0.00     0.031 C 
ATOM     64  C   UNL A   1      42.705  29.314  34.675  1.00  0.00     0.037 A 
BRANCH  51  65
ATOM     65  C   UNL A   1      40.347  27.900  29.140  1.00  0.00     0.064 A 
ATOM     66  C   UNL A   1      39.625  26.697  29.096  1.00  0.00     0.173 A 
ATOM     67  C   UNL A   1      41.081  28.265  28.002  1.00  0.00     0.173 A 
ATOM     68  F   UNL A   1      38.914  26.296  30.161  1.00  0.00    -0.203 F 
ATOM     69  C   UNL A   1      39.664  25.879  27.970  1.00  0.00     0.198 A 
ATOM     70  C   UNL A   1      41.092  27.460  26.866  1.00  0.00     0.198 A 
ATOM     71  F   UNL A   1      41.784  29.408  27.988  1.00  0.00    -0.203 F 
ATOM     72  F   UNL A   1      39.008  24.710  27.971  1.00  0.00    -0.200 F 
ATOM     73  C   UNL A   1      40.391  26.264  26.854  1.00  0.00     0.200 A 
ATOM     74  F   UNL A   1      41.784  27.841  25.783  1.00  0.00    -0.200 F 
ATOM     75  F   UNL A   1      40.420  25.479  25.769  1.00  0.00    -0.200 F 
ENDBRANCH  51  65
BRANCH  52  76
ATOM     76  C   UNL A   1      39.568  33.892  37.100  1.00  0.00     0.064 A 
ATOM     77  C   UNL A   1      38.755  33.515  38.178  1.00  0.00     0.173 A 
ATOM     78  C   UNL A   1      40.254  35.111  37.196  1.00  0.00     0.173 A 
ATOM     79  F   UNL A   1      38.063  32.367  38.125  1.00  0.00    -0.203 F 
ATOM     80  C   UNL A   1      38.615  34.335  39.296  1.00  0.00     0.198 A 
ATOM     81  C   UNL A   1      40.137  35.916  38.328  1.00  0.00     0.198 A 
ATOM     82  F   UNL A   1      41.051  35.514  36.195  1.00  0.00    -0.203 F 
ATOM     83  F   UNL A   1      37.795  33.971  40.292  1.00  0.00    -0.200 F 
ATOM     84  C   UNL A   1      39.311  35.531  39.372  1.00  0.00     0.200 A 
ATOM     85  F   UNL A   1      40.823  37.064  38.404  1.00  0.00    -0.200 F 
ATOM     86  F   UNL A   1      39.180  36.318  40.451  1.00  0.00    -0.200 F 
ENDBRANCH  52  76
BRANCH  64  87
ATOM     87  C   UNL A   1      43.879  28.693  35.373  1.00  0.00     0.064 A 
ATOM     88  C   UNL A   1      43.741  27.555  36.182  1.00  0.00     0.173 A 
ATOM     89  C   UNL A   1      45.169  29.215  35.187  1.00  0.00     0.173 A 
ATOM     90  F   UNL A   1      42.527  27.028  36.402  1.00  0.00    -0.203 F 
ATOM     91  C   UNL A   1      44.848  26.975  36.795  1.00  0.00     0.198 A 
ATOM     92  C   UNL A   1      46.277  28.614  35.777  1.00  0.00     0.198 A 
ATOM     93  F   UNL A   1      45.356  30.298  34.417  1.00  0.00    -0.203 F 
ATOM     94  F   UNL A   1      44.687  25.915  37.599  1.00  0.00    -0.200 F 
ATOM     95  C   UNL A   1      46.115  27.500  36.586  1.00  0.00     0.200 A 
ATOM     96  F   UNL A   1      47.502  29.113  35.562  1.00  0.00    -0.200 F 
ATOM     97  F   UNL A   1      47.181  26.933  37.168  1.00  0.00    -0.200 F 
ENDBRANCH  64  87
ENDBRANCH  38  39
ENDBRANCH  30  33
ENDBRANCH  28  29
ENDBRANCH  27  28
ENDBRANCH  26  27
ENDBRANCH   1  26
TORSDOF 16
ENDMDL
MODEL 3
REMARK VINA RESULT:     -11.5      1.800      7.475
REMARK SMILES CNC(=O)[C@H](C)S(=O)(=O)c1cc(C(=O)NCCCCCCNC(=O)c2ccc(-c3c4nc(c(-c5c(F)c(F)c(F)c(F)c5F)c5ccc([nH]5)c(-c5c(F)c(F)c(F)c(F)c5F)c5nc(c(-c6c(F)c(F)c(F)c(F)c6F)c6ccc3[nH]6)C=C5)C=C4)cc2)c(C)cc1C
REMARK SMILES IDX 18 1 17 2 16 3 15 4 13 5 14 6 12 8 10 9 11 10 91 11 90 12
REMARK SMILES IDX 92 13 88 14 89 15 7 16 8 17 9 18 5 19 6 20 3 21 1 22 2 23
REMARK SMILES IDX 4 25 19 26 20 27 21 28 22 29 23 30 24 32 25 33 26 34 87 35
REMARK SMILES IDX 27 36 86 37 28 38 29 39 30 40 80 41 31 42 85 43 79 44 81 45
REMARK SMILES IDX 32 46 84 47 78 48 77 49 33 51 65 52 45 53 64 54 46 55 49 56
REMARK SMILES IDX 63 57 82 58 47 59 48 60 62 62 83 63 50 64 34 65 35 66 43 67
REMARK SMILES IDX 36 68 37 69 41 70 44 71 38 72 39 73 42 74 40 75 66 76 67 77
REMARK SMILES IDX 75 78 68 79 69 80 73 81 76 82 70 83 71 84 74 85 72 86 51 87
REMARK SMILES IDX 52 88 60 89 53 90 54 91 58 92 61 93 55 94 56 95 59 96 57 97
REMARK H PARENT 15 7 2 24 22 31 81 50 49 61
REMARK Flexibility Score: inf
ROOT
ATOM      1  C   UNL A   1      38.735  22.461  26.077  1.00  0.00     0.002 C 
ENDROOT
BRANCH   1   2
ATOM      2  C   UNL A   1      37.856  23.697  26.274  1.00  0.00     0.021 C 
BRANCH   2   3
ATOM      3  C   UNL A   1      36.440  23.554  25.703  1.00  0.00     0.116 C 
BRANCH   3   4
ATOM      4  N   UNL A   1      35.626  22.841  26.656  1.00  0.00    -0.352 N 
ATOM      5  C   UNL A   1      34.298  22.838  26.970  1.00  0.00     0.251 C 
ATOM      6  O   UNL A   1      34.012  22.182  27.978  1.00  0.00    -0.269 OA
ATOM      7  H   UNL A   1      36.147  22.212  27.206  1.00  0.00     0.163 HD
BRANCH   5   8
ATOM      8  C   UNL A   1      33.175  23.440  26.170  1.00  0.00     0.044 A 
ATOM      9  C   UNL A   1      32.345  25.653  25.419  1.00  0.00     0.071 A 
ATOM     10  C   UNL A   1      33.252  24.849  26.131  1.00  0.00     0.034 A 
ATOM     11  C   UNL A   1      31.254  25.068  24.777  1.00  0.00    -0.032 A 
ATOM     12  C   UNL A   1      31.192  23.667  24.776  1.00  0.00     0.009 A 
ATOM     13  C   UNL A   1      30.213  25.800  23.980  1.00  0.00     0.046 C 
ATOM     14  C   UNL A   1      32.174  22.846  25.385  1.00  0.00    -0.038 A 
ATOM     15  C   UNL A   1      32.090  21.400  25.008  1.00  0.00     0.045 C 
BRANCH   9  16
ATOM     16  S   UNL A   1      32.813  27.368  25.218  1.00  0.00     0.190 S 
ATOM     17  O   UNL A   1      32.834  27.671  23.801  1.00  0.00    -0.223 OA
ATOM     18  O   UNL A   1      34.055  27.545  25.956  1.00  0.00    -0.223 OA
BRANCH  16  19
ATOM     19  C   UNL A   1      31.550  28.356  25.991  1.00  0.00     0.199 C 
ATOM     20  C   UNL A   1      31.651  28.270  27.516  1.00  0.00     0.036 C 
BRANCH  19  21
ATOM     21  C   UNL A   1      31.636  29.800  25.548  1.00  0.00     0.238 C 
ATOM     22  C   UNL A   1      30.038  29.593  23.572  1.00  0.00     0.142 C 
ATOM     23  N   UNL A   1      30.881  30.284  24.524  1.00  0.00    -0.358 N 
ATOM     24  H   UNL A   1      30.914  31.261  24.413  1.00  0.00     0.163 HD
ATOM     25  O   UNL A   1      32.366  30.608  26.129  1.00  0.00    -0.274 OA
ENDBRANCH  19  21
ENDBRANCH  16  19
ENDBRANCH   9  16
ENDBRANCH   5   8
ENDBRANCH   3   4
ENDBRANCH   2   3
ENDBRANCH   1   2
BRANCH   1  26
ATOM     26  C   UNL A   1      38.166  21.436  25.091  1.00  0.00     0.002 C 
BRANCH  26  27
ATOM     27  C   UNL A   1      38.807  20.047  25.159  1.00  0.00     0.021 C 
BRANCH  27  28
ATOM     28  C   UNL A   1      39.658  19.801  26.402  1.00  0.00     0.116 C 
BRANCH  28  29
ATOM     29  N   UNL A   1      40.793  18.940  26.112  1.00  0.00    -0.352 N 
ATOM     30  C   UNL A   1      42.111  19.273  25.930  1.00  0.00     0.251 C 
ATOM     31  H   UNL A   1      40.586  17.980  26.036  1.00  0.00     0.163 HD
ATOM     32  O   UNL A   1      42.894  18.466  25.438  1.00  0.00    -0.269 OA
BRANCH  30  33
ATOM     33  C   UNL A   1      42.588  20.615  26.323  1.00  0.00     0.039 A 
ATOM     34  C   UNL A   1      43.087  21.474  25.340  1.00  0.00     0.014 A 
ATOM     35  C   UNL A   1      42.563  21.012  27.662  1.00  0.00     0.014 A 
ATOM     36  C   UNL A   1      43.512  22.756  25.696  1.00  0.00     0.010 A 
ATOM     37  C   UNL A   1      42.920  22.313  28.004  1.00  0.00     0.010 A 
ATOM     38  C   UNL A   1      43.404  23.196  27.025  1.00  0.00    -0.014 A 
BRANCH  38  39
ATOM     39  C   UNL A   1      43.799  24.571  27.416  1.00  0.00     0.031 A 
ATOM     40  C   UNL A   1      42.750  25.577  27.799  1.00  0.00     0.074 A 
ATOM     41  C   UNL A   1      45.096  24.932  27.359  1.00  0.00     0.049 A 
ATOM     42  N   UNL A   1      42.886  26.846  28.094  1.00  0.00    -0.248 NA
ATOM     43  C   UNL A   1      41.358  25.102  27.826  1.00  0.00     0.031 C 
ATOM     44  C   UNL A   1      46.199  24.059  26.958  1.00  0.00     0.029 A 
ATOM     45  N   UNL A   1      45.703  26.134  27.626  1.00  0.00    -0.354 N 
ATOM     46  C   UNL A   1      41.602  27.320  28.325  1.00  0.00     0.074 A 
ATOM     47  C   UNL A   1      40.695  26.219  28.085  1.00  0.00     0.031 C 
ATOM     48  C   UNL A   1      47.350  24.747  27.023  1.00  0.00     0.029 A 
ATOM     49  C   UNL A   1      47.063  26.118  27.433  1.00  0.00     0.049 A 
ATOM     50  H   UNL A   1      45.211  26.932  27.925  1.00  0.00     0.167 HD
ATOM     51  C   UNL A   1      41.217  28.555  28.724  1.00  0.00     0.037 A 
ATOM     52  C   UNL A   1      47.973  27.101  27.564  1.00  0.00     0.037 A 
ATOM     53  C   UNL A   1      42.126  29.639  28.987  1.00  0.00     0.049 A 
ATOM     54  C   UNL A   1      47.519  28.467  28.006  1.00  0.00     0.074 A 
ATOM     55  C   UNL A   1      41.843  30.911  29.453  1.00  0.00     0.029 A 
ATOM     56  N   UNL A   1      43.500  29.578  28.804  1.00  0.00    -0.354 N 
ATOM     57  N   UNL A   1      46.309  28.885  28.288  1.00  0.00    -0.248 NA
ATOM     58  C   UNL A   1      48.558  29.494  28.155  1.00  0.00     0.031 C 
ATOM     59  C   UNL A   1      43.039  31.634  29.506  1.00  0.00     0.029 A 
ATOM     60  C   UNL A   1      44.075  30.796  29.128  1.00  0.00     0.049 A 
ATOM     61  H   UNL A   1      43.993  28.785  28.491  1.00  0.00     0.167 HD
ATOM     62  C   UNL A   1      46.444  30.211  28.678  1.00  0.00     0.074 A 
ATOM     63  C   UNL A   1      47.856  30.525  28.607  1.00  0.00     0.031 C 
ATOM     64  C   UNL A   1      45.485  31.087  29.064  1.00  0.00     0.037 A 
BRANCH  51  65
ATOM     65  C   UNL A   1      39.746  28.802  28.904  1.00  0.00     0.064 A 
ATOM     66  C   UNL A   1      39.113  28.607  30.142  1.00  0.00     0.173 A 
ATOM     67  C   UNL A   1      38.966  29.274  27.838  1.00  0.00     0.173 A 
ATOM     68  F   UNL A   1      39.810  28.146  31.192  1.00  0.00    -0.203 F 
ATOM     69  C   UNL A   1      37.749  28.844  30.296  1.00  0.00     0.198 A 
ATOM     70  C   UNL A   1      37.610  29.542  28.003  1.00  0.00     0.198 A 
ATOM     71  F   UNL A   1      39.522  29.485  26.635  1.00  0.00    -0.203 F 
ATOM     72  F   UNL A   1      37.158  28.601  31.473  1.00  0.00    -0.200 F 
ATOM     73  C   UNL A   1      37.001  29.318  29.229  1.00  0.00     0.200 A 
ATOM     74  F   UNL A   1      36.891  30.014  26.976  1.00  0.00    -0.200 F 
ATOM     75  F   UNL A   1      35.691  29.555  29.381  1.00  0.00    -0.200 F 
ENDBRANCH  51  65
BRANCH  52  76
ATOM     76  C   UNL A   1      49.409  26.824  27.301  1.00  0.00     0.064 A 
ATOM     77  C   UNL A   1      49.938  26.935  26.007  1.00  0.00     0.173 A 
ATOM     78  C   UNL A   1      50.281  26.444  28.331  1.00  0.00     0.173 A 
ATOM     79  F   UNL A   1      49.140  27.276  24.985  1.00  0.00    -0.203 F 
ATOM     80  C   UNL A   1      51.279  26.655  25.750  1.00  0.00     0.198 A 
ATOM     81  C   UNL A   1      51.628  26.194  28.078  1.00  0.00     0.198 A 
ATOM     82  F   UNL A   1      49.827  26.330  29.588  1.00  0.00    -0.203 F 
ATOM     83  F   UNL A   1      51.747  26.725  24.496  1.00  0.00    -0.200 F 
ATOM     84  C   UNL A   1      52.124  26.291  26.787  1.00  0.00     0.200 A 
ATOM     85  F   UNL A   1      52.446  25.858  29.085  1.00  0.00    -0.200 F 
ATOM     86  F   UNL A   1      53.415  26.027  26.541  1.00  0.00    -0.200 F 
ENDBRANCH  52  76
BRANCH  64  87
ATOM     87  C   UNL A   1      45.931  32.457  29.483  1.00  0.00     0.064 A 
ATOM     88  C   UNL A   1      46.278  32.747  30.811  1.00  0.00     0.173 A 
ATOM     89  C   UNL A   1      46.060  33.481  28.532  1.00  0.00     0.173 A 
ATOM     90  F   UNL A   1      46.157  31.806  31.761  1.00  0.00    -0.203 F 
ATOM     91  C   UNL A   1      46.719  34.017  31.175  1.00  0.00     0.198 A 
ATOM     92  C   UNL A   1      46.530  34.740  28.893  1.00  0.00     0.198 A 
ATOM     93  F   UNL A   1      45.747  33.253  27.247  1.00  0.00    -0.203 F 
ATOM     94  F   UNL A   1      47.004  34.283  32.456  1.00  0.00    -0.200 F 
ATOM     95  C   UNL A   1      46.853  35.009  30.214  1.00  0.00     0.200 A 
ATOM     96  F   UNL A   1      46.673  35.692  27.961  1.00  0.00    -0.200 F 
ATOM     97  F   UNL A   1      47.288  36.227  30.563  1.00  0.00    -0.200 F 
ENDBRANCH  64  87
ENDBRANCH  38  39
ENDBRANCH  30  33
ENDBRANCH  28  29
ENDBRANCH  27  28
ENDBRANCH  26  27
ENDBRANCH   1  26
TORSDOF 16
ENDMDL
