MODEL 1
REMARK VINA RESULT:     -10.9      0.000      0.000
REMARK SMILES CN(CC(=O)NCC(=O)NCCCCCCNC(=O)c1ccc(-c2c3nc(c(-c4c(F)c(F)c(F)c(F)c4F)c4ccc([nH]4)c(-c4c(F)c(F)c(F)c(F)c4F)c4nc(c(-c5c(F)c(F)c(F)c(F)c5F)c5ccc2[nH]5)C=C4)C=C3)cc1)c1ncccn1
REMARK SMILES IDX 12 1 11 2 10 3 8 4 9 5 7 7 6 8 4 9 5 10 3 12 2 13 1 14 83 15
REMARK SMILES IDX 84 16 88 17 85 18 87 19 86 20 13 21 14 22 15 23 16 24 17 25
REMARK SMILES IDX 18 26 19 28 20 29 21 30 82 31 22 32 81 33 23 34 24 35 25 36
REMARK SMILES IDX 75 37 26 38 80 39 74 40 76 41 27 42 79 43 73 44 72 45 28 47
REMARK SMILES IDX 60 48 40 49 59 50 41 51 44 52 58 53 77 54 42 55 43 56 57 58
REMARK SMILES IDX 78 59 45 60 29 61 30 62 38 63 31 64 32 65 36 66 39 67 33 68
REMARK SMILES IDX 34 69 37 70 35 71 61 72 62 73 70 74 63 75 64 76 68 77 71 78
REMARK SMILES IDX 65 79 66 80 69 81 67 82 46 83 47 84 55 85 48 86 49 87 53 88
REMARK SMILES IDX 56 89 50 90 51 91 54 92 52 93
REMARK H PARENT 10 6 6 11 17 27 76 46 44 57
REMARK Flexibility Score: inf
ROOT
ATOM      1  C   UNL A   1      34.372  32.242  28.735  1.00  0.00     0.021 C 
ENDROOT
BRANCH   1   2
ATOM      2  C   UNL A   1      34.437  31.169  27.652  1.00  0.00     0.116 C 
BRANCH   2   3
ATOM      3  N   UNL A   1      33.577  30.033  27.924  1.00  0.00    -0.355 N 
ATOM      4  C   UNL A   1      32.640  29.450  27.118  1.00  0.00     0.239 C 
ATOM      5  O   UNL A   1      32.189  28.354  27.466  1.00  0.00    -0.273 OA
ATOM      6  H   UNL A   1      33.683  29.626  28.814  1.00  0.00     0.163 HD
BRANCH   4   7
ATOM      7  C   UNL A   1      32.271  30.045  25.752  1.00  0.00     0.216 C 
BRANCH   7   8
ATOM      8  N   UNL A   1      33.196  29.737  24.676  1.00  0.00    -0.345 N 
ATOM      9  C   UNL A   1      33.140  28.726  23.757  1.00  0.00     0.240 C 
ATOM     10  O   UNL A   1      33.930  28.776  22.810  1.00  0.00    -0.273 OA
ATOM     11  H   UNL A   1      33.971  30.339  24.597  1.00  0.00     0.164 HD
BRANCH   9  12
ATOM     12  C   UNL A   1      32.070  27.622  23.870  1.00  0.00     0.219 C 
BRANCH  12  13
ATOM     13  N   UNL A   1      31.196  27.508  22.701  1.00  0.00    -0.335 N 
ATOM     14  C   UNL A   1      31.334  26.416  21.765  1.00  0.00     0.147 C 
BRANCH  13  15
ATOM     15  C   UNL A   1      30.107  28.342  22.576  1.00  0.00     0.225 A 
ATOM     16  N   UNL A   1      30.224  29.458  21.842  1.00  0.00    -0.221 NA
ATOM     17  N   UNL A   1      28.938  27.972  23.125  1.00  0.00    -0.221 NA
ATOM     18  C   UNL A   1      29.133  30.220  21.657  1.00  0.00     0.117 A 
ATOM     19  C   UNL A   1      27.874  28.777  22.942  1.00  0.00     0.117 A 
ATOM     20  C   UNL A   1      27.909  29.924  22.194  1.00  0.00     0.040 A 
ENDBRANCH  13  15
ENDBRANCH  12  13
ENDBRANCH   9  12
ENDBRANCH   7   8
ENDBRANCH   4   7
ENDBRANCH   2   3
ENDBRANCH   1   2
BRANCH   1  21
ATOM     21  C   UNL A   1      35.415  33.361  28.621  1.00  0.00     0.002 C 
BRANCH  21  22
ATOM     22  C   UNL A   1      34.882  34.776  28.355  1.00  0.00     0.002 C 
BRANCH  22  23
ATOM     23  C   UNL A   1      33.490  35.113  28.898  1.00  0.00     0.021 C 
BRANCH  23  24
ATOM     24  C   UNL A   1      33.294  36.507  29.490  1.00  0.00     0.116 C 
BRANCH  24  25
ATOM     25  N   UNL A   1      32.465  36.504  30.683  1.00  0.00    -0.352 N 
ATOM     26  C   UNL A   1      32.614  35.805  31.857  1.00  0.00     0.251 C 
ATOM     27  H   UNL A   1      31.677  37.093  30.647  1.00  0.00     0.163 HD
ATOM     28  O   UNL A   1      31.708  35.819  32.693  1.00  0.00    -0.269 OA
BRANCH  26  29
ATOM     29  C   UNL A   1      33.840  35.017  32.142  1.00  0.00     0.039 A 
ATOM     30  C   UNL A   1      33.721  33.640  32.368  1.00  0.00     0.014 A 
ATOM     31  C   UNL A   1      35.090  35.628  32.270  1.00  0.00     0.014 A 
ATOM     32  C   UNL A   1      34.851  32.874  32.683  1.00  0.00     0.010 A 
ATOM     33  C   UNL A   1      36.226  34.856  32.526  1.00  0.00     0.010 A 
ATOM     34  C   UNL A   1      36.118  33.473  32.753  1.00  0.00    -0.014 A 
BRANCH  34  35
ATOM     35  C   UNL A   1      37.329  32.694  33.134  1.00  0.00     0.031 A 
ATOM     36  C   UNL A   1      38.008  32.968  34.450  1.00  0.00     0.074 A 
ATOM     37  C   UNL A   1      37.855  31.783  32.293  1.00  0.00     0.049 A 
ATOM     38  N   UNL A   1      39.135  32.493  34.922  1.00  0.00    -0.248 NA
ATOM     39  C   UNL A   1      37.338  33.923  35.346  1.00  0.00     0.031 C 
ATOM     40  C   UNL A   1      37.303  31.415  30.991  1.00  0.00     0.029 A 
ATOM     41  N   UNL A   1      38.984  31.008  32.408  1.00  0.00    -0.354 N 
ATOM     42  C   UNL A   1      39.319  33.108  36.153  1.00  0.00     0.074 A 
ATOM     43  C   UNL A   1      38.212  34.023  36.336  1.00  0.00     0.031 C 
ATOM     44  C   UNL A   1      38.085  30.476  30.434  1.00  0.00     0.029 A 
ATOM     45  C   UNL A   1      39.214  30.203  31.319  1.00  0.00     0.049 A 
ATOM     46  H   UNL A   1      39.572  31.027  33.198  1.00  0.00     0.167 HD
ATOM     47  C   UNL A   1      40.307  32.917  37.060  1.00  0.00     0.037 A 
ATOM     48  C   UNL A   1      40.226  29.352  31.060  1.00  0.00     0.037 A 
ATOM     49  C   UNL A   1      41.393  31.986  36.897  1.00  0.00     0.049 A 
ATOM     50  C   UNL A   1      41.333  29.178  32.067  1.00  0.00     0.074 A 
ATOM     51  C   UNL A   1      42.424  31.699  37.775  1.00  0.00     0.029 A 
ATOM     52  N   UNL A   1      41.586  31.188  35.780  1.00  0.00    -0.354 N 
ATOM     53  N   UNL A   1      41.482  29.745  33.239  1.00  0.00    -0.248 NA
ATOM     54  C   UNL A   1      42.414  28.245  31.713  1.00  0.00     0.031 C 
ATOM     55  C   UNL A   1      43.260  30.753  37.174  1.00  0.00     0.029 A 
ATOM     56  C   UNL A   1      42.726  30.416  35.941  1.00  0.00     0.049 A 
ATOM     57  H   UNL A   1      40.999  31.171  34.989  1.00  0.00     0.167 HD
ATOM     58  C   UNL A   1      42.643  29.209  33.779  1.00  0.00     0.074 A 
ATOM     59  C   UNL A   1      43.165  28.273  32.806  1.00  0.00     0.031 C 
ATOM     60  C   UNL A   1      43.219  29.466  34.979  1.00  0.00     0.037 A 
BRANCH  47  61
ATOM     61  C   UNL A   1      40.261  33.743  38.314  1.00  0.00     0.064 A 
ATOM     62  C   UNL A   1      39.478  33.365  39.415  1.00  0.00     0.173 A 
ATOM     63  C   UNL A   1      41.017  34.920  38.420  1.00  0.00     0.173 A 
ATOM     64  F   UNL A   1      38.728  32.254  39.360  1.00  0.00    -0.203 F 
ATOM     65  C   UNL A   1      39.422  34.156  40.560  1.00  0.00     0.198 A 
ATOM     66  C   UNL A   1      40.984  35.691  39.578  1.00  0.00     0.198 A 
ATOM     67  F   UNL A   1      41.789  35.322  37.400  1.00  0.00    -0.203 F 
ATOM     68  F   UNL A   1      38.620  33.806  41.575  1.00  0.00    -0.200 F 
ATOM     69  C   UNL A   1      40.179  35.315  40.642  1.00  0.00     0.200 A 
ATOM     70  F   UNL A   1      41.726  36.804  39.662  1.00  0.00    -0.200 F 
ATOM     71  F   UNL A   1      40.123  36.076  41.745  1.00  0.00    -0.200 F 
ENDBRANCH  47  61
BRANCH  48  72
ATOM     72  C   UNL A   1      40.226  28.565  29.799  1.00  0.00     0.064 A 
ATOM     73  C   UNL A   1      40.911  29.030  28.667  1.00  0.00     0.173 A 
ATOM     74  C   UNL A   1      39.547  27.343  29.695  1.00  0.00     0.173 A 
ATOM     75  F   UNL A   1      41.555  30.206  28.711  1.00  0.00    -0.203 F 
ATOM     76  C   UNL A   1      40.909  28.306  27.477  1.00  0.00     0.198 A 
ATOM     77  C   UNL A   1      39.566  26.608  28.511  1.00  0.00     0.198 A 
ATOM     78  F   UNL A   1      38.877  26.855  30.750  1.00  0.00    -0.203 F 
ATOM     79  F   UNL A   1      41.541  28.791  26.400  1.00  0.00    -0.200 F 
ATOM     80  C   UNL A   1      40.242  27.093  27.401  1.00  0.00     0.200 A 
ATOM     81  F   UNL A   1      38.929  25.430  28.446  1.00  0.00    -0.200 F 
ATOM     82  F   UNL A   1      40.245  26.394  26.258  1.00  0.00    -0.200 F 
ENDBRANCH  48  72
BRANCH  60  83
ATOM     83  C   UNL A   1      44.445  28.683  35.346  1.00  0.00     0.064 A 
ATOM     84  C   UNL A   1      45.735  29.151  35.059  1.00  0.00     0.173 A 
ATOM     85  C   UNL A   1      44.325  27.480  36.060  1.00  0.00     0.173 A 
ATOM     86  F   UNL A   1      45.903  30.288  34.368  1.00  0.00    -0.203 F 
ATOM     87  C   UNL A   1      46.860  28.436  35.464  1.00  0.00     0.198 A 
ATOM     88  C   UNL A   1      45.451  26.782  36.483  1.00  0.00     0.198 A 
ATOM     89  F   UNL A   1      43.112  26.993  36.363  1.00  0.00    -0.203 F 
ATOM     90  F   UNL A   1      48.084  28.886  35.154  1.00  0.00    -0.200 F 
ATOM     91  C   UNL A   1      46.718  27.258  36.183  1.00  0.00     0.200 A 
ATOM     92  F   UNL A   1      45.311  25.650  37.189  1.00  0.00    -0.200 F 
ATOM     93  F   UNL A   1      47.803  26.581  36.583  1.00  0.00    -0.200 F 
ENDBRANCH  60  83
ENDBRANCH  34  35
ENDBRANCH  26  29
ENDBRANCH  24  25
ENDBRANCH  23  24
ENDBRANCH  22  23
ENDBRANCH  21  22
ENDBRANCH   1  21
TORSDOF 17
ENDMDL
MODEL 2
REMARK VINA RESULT:     -10.7      0.736      1.885
REMARK SMILES CN(CC(=O)NCC(=O)NCCCCCCNC(=O)c1ccc(-c2c3nc(c(-c4c(F)c(F)c(F)c(F)c4F)c4ccc([nH]4)c(-c4c(F)c(F)c(F)c(F)c4F)c4nc(c(-c5c(F)c(F)c(F)c(F)c5F)c5ccc2[nH]5)C=C4)C=C3)cc1)c1ncccn1
REMARK SMILES IDX 12 1 11 2 10 3 8 4 9 5 7 7 6 8 4 9 5 10 3 12 2 13 1 14 83 15
REMARK SMILES IDX 84 16 88 17 85 18 87 19 86 20 13 21 14 22 15 23 16 24 17 25
REMARK SMILES IDX 18 26 19 28 20 29 21 30 82 31 22 32 81 33 23 34 24 35 25 36
REMARK SMILES IDX 75 37 26 38 80 39 74 40 76 41 27 42 79 43 73 44 72 45 28 47
REMARK SMILES IDX 60 48 40 49 59 50 41 51 44 52 58 53 77 54 42 55 43 56 57 58
REMARK SMILES IDX 78 59 45 60 29 61 30 62 38 63 31 64 32 65 36 66 39 67 33 68
REMARK SMILES IDX 34 69 37 70 35 71 61 72 62 73 70 74 63 75 64 76 68 77 71 78
REMARK SMILES IDX 65 79 66 80 69 81 67 82 46 83 47 84 55 85 48 86 49 87 53 88
REMARK SMILES IDX 56 89 50 90 51 91 54 92 52 93
REMARK H PARENT 10 6 6 11 17 27 76 46 44 57
REMARK Flexibility Score: inf
ROOT
ATOM      1  C   UNL A   1      35.895  32.548  28.037  1.00  0.00     0.021 C 
ENDROOT
BRANCH   1   2
ATOM      2  C   UNL A   1      35.168  31.240  28.341  1.00  0.00     0.116 C 
BRANCH   2   3
ATOM      3  N   UNL A   1      33.787  31.241  27.897  1.00  0.00    -0.355 N 
ATOM      4  C   UNL A   1      33.116  30.298  27.170  1.00  0.00     0.239 C 
ATOM      5  O   UNL A   1      31.886  30.396  27.103  1.00  0.00    -0.273 OA
ATOM      6  H   UNL A   1      33.260  32.031  28.155  1.00  0.00     0.163 HD
BRANCH   4   7
ATOM      7  C   UNL A   1      33.831  29.071  26.589  1.00  0.00     0.216 C 
BRANCH   7   8
ATOM      8  N   UNL A   1      34.109  29.136  25.166  1.00  0.00    -0.345 N 
ATOM      9  C   UNL A   1      33.256  28.944  24.113  1.00  0.00     0.240 C 
ATOM     10  O   UNL A   1      33.666  29.246  22.989  1.00  0.00    -0.273 OA
ATOM     11  H   UNL A   1      35.040  29.347  24.924  1.00  0.00     0.164 HD
BRANCH   9  12
ATOM     12  C   UNL A   1      31.816  28.450  24.352  1.00  0.00     0.219 C 
BRANCH  12  13
ATOM     13  N   UNL A   1      30.985  28.414  23.147  1.00  0.00    -0.335 N 
ATOM     14  C   UNL A   1      30.923  27.236  22.312  1.00  0.00     0.147 C 
BRANCH  13  15
ATOM     15  C   UNL A   1      30.105  29.443  22.890  1.00  0.00     0.225 A 
ATOM     16  N   UNL A   1      29.748  30.257  23.892  1.00  0.00    -0.221 NA
ATOM     17  N   UNL A   1      29.695  29.647  21.626  1.00  0.00    -0.221 NA
ATOM     18  C   UNL A   1      28.955  31.307  23.612  1.00  0.00     0.117 A 
ATOM     19  C   UNL A   1      28.878  30.692  21.391  1.00  0.00     0.117 A 
ATOM     20  C   UNL A   1      28.481  31.577  22.357  1.00  0.00     0.040 A 
ENDBRANCH  13  15
ENDBRANCH  12  13
ENDBRANCH   9  12
ENDBRANCH   7   8
ENDBRANCH   4   7
ENDBRANCH   2   3
ENDBRANCH   1   2
BRANCH   1  21
ATOM     21  C   UNL A   1      35.468  33.754  28.882  1.00  0.00     0.002 C 
BRANCH  21  22
ATOM     22  C   UNL A   1      33.996  33.806  29.315  1.00  0.00     0.002 C 
BRANCH  22  23
ATOM     23  C   UNL A   1      33.185  35.033  28.889  1.00  0.00     0.021 C 
BRANCH  23  24
ATOM     24  C   UNL A   1      33.365  36.305  29.715  1.00  0.00     0.116 C 
BRANCH  24  25
ATOM     25  N   UNL A   1      32.445  36.387  30.836  1.00  0.00    -0.352 N 
ATOM     26  C   UNL A   1      32.507  35.789  32.072  1.00  0.00     0.251 C 
ATOM     27  H   UNL A   1      31.657  36.958  30.690  1.00  0.00     0.163 HD
ATOM     28  O   UNL A   1      31.539  35.857  32.831  1.00  0.00    -0.269 OA
BRANCH  26  29
ATOM     29  C   UNL A   1      33.714  35.047  32.516  1.00  0.00     0.039 A 
ATOM     30  C   UNL A   1      34.966  35.664  32.402  1.00  0.00     0.014 A 
ATOM     31  C   UNL A   1      33.638  33.725  32.964  1.00  0.00     0.014 A 
ATOM     32  C   UNL A   1      36.131  34.976  32.771  1.00  0.00     0.010 A 
ATOM     33  C   UNL A   1      34.792  33.060  33.386  1.00  0.00     0.010 A 
ATOM     34  C   UNL A   1      36.054  33.670  33.278  1.00  0.00    -0.014 A 
BRANCH  34  35
ATOM     35  C   UNL A   1      37.277  32.897  33.630  1.00  0.00     0.031 A 
ATOM     36  C   UNL A   1      37.984  33.171  34.932  1.00  0.00     0.074 A 
ATOM     37  C   UNL A   1      37.789  31.991  32.776  1.00  0.00     0.049 A 
ATOM     38  N   UNL A   1      39.123  32.701  35.377  1.00  0.00    -0.248 NA
ATOM     39  C   UNL A   1      37.328  34.120  35.845  1.00  0.00     0.031 C 
ATOM     40  C   UNL A   1      37.210  31.623  31.485  1.00  0.00     0.029 A 
ATOM     41  N   UNL A   1      38.925  31.221  32.864  1.00  0.00    -0.354 N 
ATOM     42  C   UNL A   1      39.331  33.314  36.605  1.00  0.00     0.074 A 
ATOM     43  C   UNL A   1      38.224  34.223  36.815  1.00  0.00     0.031 C 
ATOM     44  C   UNL A   1      37.985  30.689  30.908  1.00  0.00     0.029 A 
ATOM     45  C   UNL A   1      39.135  30.421  31.768  1.00  0.00     0.049 A 
ATOM     46  H   UNL A   1      39.530  31.242  33.640  1.00  0.00     0.167 HD
ATOM     47  C   UNL A   1      40.340  33.126  37.490  1.00  0.00     0.037 A 
ATOM     48  C   UNL A   1      40.145  29.575  31.484  1.00  0.00     0.037 A 
ATOM     49  C   UNL A   1      41.427  32.202  37.300  1.00  0.00     0.049 A 
ATOM     50  C   UNL A   1      41.275  29.405  32.466  1.00  0.00     0.074 A 
ATOM     51  C   UNL A   1      42.478  31.918  38.155  1.00  0.00     0.029 A 
ATOM     52  N   UNL A   1      41.599  31.408  36.178  1.00  0.00    -0.354 N 
ATOM     53  N   UNL A   1      41.447  29.970  33.636  1.00  0.00    -0.248 NA
ATOM     54  C   UNL A   1      42.353  28.479  32.086  1.00  0.00     0.031 C 
ATOM     55  C   UNL A   1      43.307  30.978  37.533  1.00  0.00     0.029 A 
ATOM     56  C   UNL A   1      42.747  30.641  36.312  1.00  0.00     0.049 A 
ATOM     57  H   UNL A   1      40.995  31.389  35.399  1.00  0.00     0.167 HD
ATOM     58  C   UNL A   1      42.622  29.439  34.149  1.00  0.00     0.074 A 
ATOM     59  C   UNL A   1      43.128  28.508  33.161  1.00  0.00     0.031 C 
ATOM     60  C   UNL A   1      43.223  29.696  35.336  1.00  0.00     0.037 A 
BRANCH  47  61
ATOM     61  C   UNL A   1      40.317  33.949  38.746  1.00  0.00     0.064 A 
ATOM     62  C   UNL A   1      41.007  35.167  38.840  1.00  0.00     0.173 A 
ATOM     63  C   UNL A   1      39.585  33.521  39.864  1.00  0.00     0.173 A 
ATOM     64  F   UNL A   1      41.730  35.615  37.803  1.00  0.00    -0.203 F 
ATOM     65  C   UNL A   1      41.001  35.905  40.022  1.00  0.00     0.198 A 
ATOM     66  C   UNL A   1      39.555  34.277  41.033  1.00  0.00     0.198 A 
ATOM     67  F   UNL A   1      38.900  32.369  39.825  1.00  0.00    -0.203 F 
ATOM     68  F   UNL A   1      41.717  37.034  40.108  1.00  0.00    -0.200 F 
ATOM     69  C   UNL A   1      40.271  35.462  41.115  1.00  0.00     0.200 A 
ATOM     70  F   UNL A   1      38.838  33.856  42.084  1.00  0.00    -0.200 F 
ATOM     71  F   UNL A   1      40.266  36.173  42.251  1.00  0.00    -0.200 F 
ENDBRANCH  47  61
BRANCH  48  72
ATOM     72  C   UNL A   1      40.121  28.792  30.221  1.00  0.00     0.064 A 
ATOM     73  C   UNL A   1      40.727  29.292  29.059  1.00  0.00     0.173 A 
ATOM     74  C   UNL A   1      39.499  27.538  30.146  1.00  0.00     0.173 A 
ATOM     75  F   UNL A   1      41.313  30.498  29.076  1.00  0.00    -0.203 F 
ATOM     76  C   UNL A   1      40.701  28.571  27.867  1.00  0.00     0.198 A 
ATOM     77  C   UNL A   1      39.496  26.807  28.959  1.00  0.00     0.198 A 
ATOM     78  F   UNL A   1      38.906  27.016  31.230  1.00  0.00    -0.203 F 
ATOM     79  F   UNL A   1      41.255  29.088  26.763  1.00  0.00    -0.200 F 
ATOM     80  C   UNL A   1      40.091  27.326  27.820  1.00  0.00     0.200 A 
ATOM     81  F   UNL A   1      38.914  25.599  28.920  1.00  0.00    -0.200 F 
ATOM     82  F   UNL A   1      40.073  26.630  26.675  1.00  0.00    -0.200 F 
ENDBRANCH  48  72
BRANCH  60  83
ATOM     83  C   UNL A   1      44.462  28.918  35.674  1.00  0.00     0.064 A 
ATOM     84  C   UNL A   1      44.403  27.687  36.341  1.00  0.00     0.173 A 
ATOM     85  C   UNL A   1      45.719  29.384  35.260  1.00  0.00     0.173 A 
ATOM     86  F   UNL A   1      43.226  27.206  36.771  1.00  0.00    -0.203 F 
ATOM     87  C   UNL A   1      45.561  26.955  36.591  1.00  0.00     0.198 A 
ATOM     88  C   UNL A   1      46.871  28.637  35.489  1.00  0.00     0.198 A 
ATOM     89  F   UNL A   1      45.827  30.554  34.613  1.00  0.00    -0.203 F 
ATOM     90  F   UNL A   1      45.487  25.793  37.256  1.00  0.00    -0.200 F 
ATOM     91  C   UNL A   1      46.792  27.426  36.157  1.00  0.00     0.200 A 
ATOM     92  F   UNL A   1      48.058  29.088  35.058  1.00  0.00    -0.200 F 
ATOM     93  F   UNL A   1      47.902  26.711  36.386  1.00  0.00    -0.200 F 
ENDBRANCH  60  83
ENDBRANCH  34  35
ENDBRANCH  26  29
ENDBRANCH  24  25
ENDBRANCH  23  24
ENDBRANCH  22  23
ENDBRANCH  21  22
ENDBRANCH   1  21
TORSDOF 17
ENDMDL
MODEL 3
REMARK VINA RESULT:     -10.5      3.470      8.575
REMARK SMILES CN(CC(=O)NCC(=O)NCCCCCCNC(=O)c1ccc(-c2c3nc(c(-c4c(F)c(F)c(F)c(F)c4F)c4ccc([nH]4)c(-c4c(F)c(F)c(F)c(F)c4F)c4nc(c(-c5c(F)c(F)c(F)c(F)c5F)c5ccc2[nH]5)C=C4)C=C3)cc1)c1ncccn1
REMARK SMILES IDX 12 1 11 2 10 3 8 4 9 5 7 7 6 8 4 9 5 10 3 12 2 13 1 14 83 15
REMARK SMILES IDX 84 16 88 17 85 18 87 19 86 20 13 21 14 22 15 23 16 24 17 25
REMARK SMILES IDX 18 26 19 28 20 29 21 30 82 31 22 32 81 33 23 34 24 35 25 36
REMARK SMILES IDX 75 37 26 38 80 39 74 40 76 41 27 42 79 43 73 44 72 45 28 47
REMARK SMILES IDX 60 48 40 49 59 50 41 51 44 52 58 53 77 54 42 55 43 56 57 58
REMARK SMILES IDX 78 59 45 60 29 61 30 62 38 63 31 64 32 65 36 66 39 67 33 68
REMARK SMILES IDX 34 69 37 70 35 71 61 72 62 73 70 74 63 75 64 76 68 77 71 78
REMARK SMILES IDX 65 79 66 80 69 81 67 82 46 83 47 84 55 85 48 86 49 87 53 88
REMARK SMILES IDX 56 89 50 90 51 91 54 92 52 93
REMARK H PARENT 10 6 6 11 17 27 76 46 44 57
REMARK Flexibility Score: inf
ROOT
ATOM      1  C   UNL A   1      32.916  28.156  26.458  1.00  0.00     0.021 C 
ENDROOT
BRANCH   1   2
ATOM      2  C   UNL A   1      32.121  27.157  25.621  1.00  0.00     0.116 C 
BRANCH   2   3
ATOM      3  N   UNL A   1      31.454  26.147  26.421  1.00  0.00    -0.355 N 
ATOM      4  C   UNL A   1      31.522  24.787  26.322  1.00  0.00     0.239 C 
ATOM      5  O   UNL A   1      31.055  24.121  27.252  1.00  0.00    -0.273 OA
ATOM      6  H   UNL A   1      30.871  26.491  27.136  1.00  0.00     0.163 HD
BRANCH   4   7
ATOM      7  C   UNL A   1      32.289  24.100  25.183  1.00  0.00     0.216 C 
BRANCH   7   8
ATOM      8  N   UNL A   1      33.503  23.414  25.583  1.00  0.00    -0.345 N 
ATOM      9  C   UNL A   1      33.715  22.075  25.763  1.00  0.00     0.240 C 
ATOM     10  O   UNL A   1      34.882  21.700  25.912  1.00  0.00    -0.273 OA
ATOM     11  H   UNL A   1      34.283  23.992  25.749  1.00  0.00     0.164 HD
BRANCH   9  12
ATOM     12  C   UNL A   1      32.541  21.079  25.694  1.00  0.00     0.219 C 
BRANCH  12  13
ATOM     13  N   UNL A   1      32.582  20.178  24.542  1.00  0.00    -0.335 N 
ATOM     14  C   UNL A   1      32.414  20.673  23.194  1.00  0.00     0.147 C 
BRANCH  13  15
ATOM     15  C   UNL A   1      32.966  18.866  24.711  1.00  0.00     0.225 A 
ATOM     16  N   UNL A   1      32.153  18.032  25.374  1.00  0.00    -0.221 NA
ATOM     17  N   UNL A   1      34.105  18.442  24.137  1.00  0.00    -0.221 NA
ATOM     18  C   UNL A   1      32.498  16.735  25.461  1.00  0.00     0.117 A 
ATOM     19  C   UNL A   1      34.431  17.142  24.270  1.00  0.00     0.117 A 
ATOM     20  C   UNL A   1      33.647  16.225  24.919  1.00  0.00     0.040 A 
ENDBRANCH  13  15
ENDBRANCH  12  13
ENDBRANCH   9  12
ENDBRANCH   7   8
ENDBRANCH   4   7
ENDBRANCH   2   3
ENDBRANCH   1   2
BRANCH   1  21
ATOM     21  C   UNL A   1      32.108  29.324  27.037  1.00  0.00     0.002 C 
BRANCH  21  22
ATOM     22  C   UNL A   1      31.482  30.297  26.028  1.00  0.00     0.002 C 
BRANCH  22  23
ATOM     23  C   UNL A   1      31.355  31.761  26.456  1.00  0.00     0.021 C 
BRANCH  23  24
ATOM     24  C   UNL A   1      32.621  32.448  26.967  1.00  0.00     0.116 C 
BRANCH  24  25
ATOM     25  N   UNL A   1      32.392  33.823  27.378  1.00  0.00    -0.352 N 
ATOM     26  C   UNL A   1      32.981  34.551  28.384  1.00  0.00     0.251 C 
ATOM     27  H   UNL A   1      31.713  34.308  26.856  1.00  0.00     0.163 HD
ATOM     28  O   UNL A   1      32.530  35.660  28.677  1.00  0.00    -0.269 OA
BRANCH  26  29
ATOM     29  C   UNL A   1      34.145  34.028  29.142  1.00  0.00     0.039 A 
ATOM     30  C   UNL A   1      35.431  34.451  28.782  1.00  0.00     0.014 A 
ATOM     31  C   UNL A   1      33.995  33.067  30.145  1.00  0.00     0.014 A 
ATOM     32  C   UNL A   1      36.555  33.945  29.447  1.00  0.00     0.010 A 
ATOM     33  C   UNL A   1      35.111  32.605  30.848  1.00  0.00     0.010 A 
ATOM     34  C   UNL A   1      36.406  33.024  30.496  1.00  0.00    -0.014 A 
BRANCH  34  35
ATOM     35  C   UNL A   1      37.583  32.431  31.186  1.00  0.00     0.031 A 
ATOM     36  C   UNL A   1      38.365  31.330  30.518  1.00  0.00     0.074 A 
ATOM     37  C   UNL A   1      37.929  32.831  32.425  1.00  0.00     0.049 A 
ATOM     38  N   UNL A   1      39.343  30.597  30.989  1.00  0.00    -0.248 NA
ATOM     39  C   UNL A   1      37.974  30.996  29.140  1.00  0.00     0.031 C 
ATOM     40  C   UNL A   1      37.266  33.885  33.190  1.00  0.00     0.029 A 
ATOM     41  N   UNL A   1      38.923  32.384  33.264  1.00  0.00    -0.354 N 
ATOM     42  C   UNL A   1      39.667  29.703  29.977  1.00  0.00     0.074 A 
ATOM     43  C   UNL A   1      38.752  29.954  28.884  1.00  0.00     0.031 C 
ATOM     44  C   UNL A   1      37.879  34.015  34.379  1.00  0.00     0.029 A 
ATOM     45  C   UNL A   1      38.952  33.028  34.477  1.00  0.00     0.049 A 
ATOM     46  H   UNL A   1      39.555  31.670  33.018  1.00  0.00     0.167 HD
ATOM     47  C   UNL A   1      40.648  28.768  29.950  1.00  0.00     0.037 A 
ATOM     48  C   UNL A   1      39.746  32.837  35.549  1.00  0.00     0.037 A 
ATOM     49  C   UNL A   1      41.580  28.535  31.021  1.00  0.00     0.049 A 
ATOM     50  C   UNL A   1      40.809  31.770  35.510  1.00  0.00     0.074 A 
ATOM     51  C   UNL A   1      42.629  27.633  31.073  1.00  0.00     0.029 A 
ATOM     52  N   UNL A   1      41.576  29.212  32.231  1.00  0.00    -0.354 N 
ATOM     53  N   UNL A   1      41.123  30.950  34.538  1.00  0.00    -0.248 NA
ATOM     54  C   UNL A   1      41.629  31.605  36.720  1.00  0.00     0.031 C 
ATOM     55  C   UNL A   1      43.238  27.740  32.327  1.00  0.00     0.029 A 
ATOM     56  C   UNL A   1      42.598  28.740  33.040  1.00  0.00     0.049 A 
ATOM     57  H   UNL A   1      40.942  29.924  32.478  1.00  0.00     0.167 HD
ATOM     58  C   UNL A   1      42.198  30.203  35.000  1.00  0.00     0.074 A 
ATOM     59  C   UNL A   1      42.483  30.663  36.343  1.00  0.00     0.031 C 
ATOM     60  C   UNL A   1      42.891  29.228  34.363  1.00  0.00     0.037 A 
BRANCH  47  61
ATOM     61  C   UNL A   1      40.756  27.920  28.715  1.00  0.00     0.064 A 
ATOM     62  C   UNL A   1      40.049  26.714  28.587  1.00  0.00     0.173 A 
ATOM     63  C   UNL A   1      41.566  28.323  27.643  1.00  0.00     0.173 A 
ATOM     64  F   UNL A   1      39.270  26.280  29.587  1.00  0.00    -0.203 F 
ATOM     65  C   UNL A   1      40.182  25.924  27.448  1.00  0.00     0.198 A 
ATOM     66  C   UNL A   1      41.672  27.546  26.492  1.00  0.00     0.198 A 
ATOM     67  F   UNL A   1      42.256  29.471  27.710  1.00  0.00    -0.203 F 
ATOM     68  F   UNL A   1      39.545  24.747  27.374  1.00  0.00    -0.200 F 
ATOM     69  C   UNL A   1      40.989  26.342  26.400  1.00  0.00     0.200 A 
ATOM     70  F   UNL A   1      42.441  27.957  25.475  1.00  0.00    -0.200 F 
ATOM     71  F   UNL A   1      41.117  25.579  25.306  1.00  0.00    -0.200 F 
ENDBRANCH  47  61
BRANCH  48  72
ATOM     72  C   UNL A   1      39.589  33.701  36.748  1.00  0.00     0.064 A 
ATOM     73  C   UNL A   1      38.771  33.300  37.815  1.00  0.00     0.173 A 
ATOM     74  C   UNL A   1      40.246  34.935  36.856  1.00  0.00     0.173 A 
ATOM     75  F   UNL A   1      38.103  32.139  37.746  1.00  0.00    -0.203 F 
ATOM     76  C   UNL A   1      38.608  34.107  38.939  1.00  0.00     0.198 A 
ATOM     77  C   UNL A   1      40.101  35.729  37.992  1.00  0.00     0.198 A 
ATOM     78  F   UNL A   1      41.039  35.362  35.863  1.00  0.00    -0.203 F 
ATOM     79  F   UNL A   1      37.793  33.717  39.927  1.00  0.00    -0.200 F 
ATOM     80  C   UNL A   1      39.278  35.317  39.030  1.00  0.00     0.200 A 
ATOM     81  F   UNL A   1      40.759  36.893  38.081  1.00  0.00    -0.200 F 
ATOM     82  F   UNL A   1      39.127  36.089  40.115  1.00  0.00    -0.200 F 
ENDBRANCH  48  72
BRANCH  60  83
ATOM     83  C   UNL A   1      44.070  28.630  35.075  1.00  0.00     0.064 A 
ATOM     84  C   UNL A   1      45.360  29.163  34.946  1.00  0.00     0.173 A 
ATOM     85  C   UNL A   1      43.887  27.550  35.952  1.00  0.00     0.173 A 
ATOM     86  F   UNL A   1      45.588  30.186  34.109  1.00  0.00    -0.203 F 
ATOM     87  C   UNL A   1      46.427  28.628  35.664  1.00  0.00     0.198 A 
ATOM     88  C   UNL A   1      44.951  27.034  36.686  1.00  0.00     0.198 A 
ATOM     89  F   UNL A   1      42.671  27.008  36.113  1.00  0.00    -0.203 F 
ATOM     90  F   UNL A   1      47.659  29.133  35.505  1.00  0.00    -0.200 F 
ATOM     91  C   UNL A   1      46.221  27.571  36.539  1.00  0.00     0.200 A 
ATOM     92  F   UNL A   1      44.747  26.021  37.540  1.00  0.00    -0.200 F 
ATOM     93  F   UNL A   1      47.247  27.068  37.238  1.00  0.00    -0.200 F 
ENDBRANCH  60  83
ENDBRANCH  34  35
ENDBRANCH  26  29
ENDBRANCH  24  25
ENDBRANCH  23  24
ENDBRANCH  22  23
ENDBRANCH  21  22
ENDBRANCH   1  21
TORSDOF 17
ENDMDL
