MODEL 1
REMARK VINA RESULT:     -12.5      0.000      0.000
REMARK SMILES C[C@@H](C(=O)NCCCCCCNC(=O)c1ccc(-c2c3nc(c(-c4c(F)c(F)c(F)c(F)c4F)c4ccc([nH]4)c(-c4c(F)c(F)c(F)c(F)c4F)c4nc(c(-c5c(F)c(F)c(F)c(F)c5F)c5ccc2[nH]5)C=C4)C=C3)cc1)c1ccc(O[C@H]2CCCC2=O)cc1F
REMARK SMILES IDX 8 1 7 2 6 3 5 4 3 5 4 6 2 8 1 9 78 10 79 11 90 12 80 13
REMARK SMILES IDX 89 14 91 15 81 16 82 17 83 18 84 19 87 20 85 21 86 22 88 23
REMARK SMILES IDX 9 24 10 25 11 26 12 27 13 28 14 30 15 31 16 32 77 33 17 34
REMARK SMILES IDX 76 35 18 36 19 37 20 38 70 39 21 40 75 41 69 42 71 43 22 44
REMARK SMILES IDX 74 45 68 46 67 47 23 49 55 50 35 51 54 52 36 53 39 54 53 55
REMARK SMILES IDX 72 56 37 57 38 58 52 60 73 61 40 62 24 63 25 64 33 65 26 66
REMARK SMILES IDX 27 67 31 68 34 69 28 70 29 71 32 72 30 73 56 74 57 75 65 76
REMARK SMILES IDX 58 77 59 78 63 79 66 80 60 81 61 82 64 83 62 84 41 85 42 86
REMARK SMILES IDX 50 87 43 88 44 89 48 90 51 91 45 92 46 93 49 94 47 95
REMARK H PARENT 5 7 12 29 71 48 39 59
REMARK Flexibility Score: inf
ROOT
ATOM      1  C   UNL A   1      32.570  29.987  27.225  1.00  0.00     0.002 C 
ENDROOT
BRANCH   1   2
ATOM      2  C   UNL A   1      33.874  29.482  26.589  1.00  0.00     0.021 C 
BRANCH   2   3
ATOM      3  C   UNL A   1      33.692  28.298  25.631  1.00  0.00     0.116 C 
BRANCH   3   4
ATOM      4  N   UNL A   1      33.126  27.170  26.340  1.00  0.00    -0.356 N 
ATOM      5  C   UNL A   1      32.149  26.304  25.943  1.00  0.00     0.227 C 
ATOM      6  O   UNL A   1      31.525  25.751  26.849  1.00  0.00    -0.274 OA
ATOM      7  H   UNL A   1      33.499  27.004  27.236  1.00  0.00     0.163 HD
BRANCH   5   8
ATOM      8  C   UNL A   1      31.883  26.096  24.443  1.00  0.00     0.108 C 
ATOM      9  C   UNL A   1      33.221  26.111  23.690  1.00  0.00     0.023 C 
BRANCH   8  10
ATOM     10  C   UNL A   1      30.893  27.050  23.771  1.00  0.00     0.000 A 
ATOM     11  C   UNL A   1      31.247  28.106  22.924  1.00  0.00     0.011 A 
ATOM     12  C   UNL A   1      29.521  26.861  23.997  1.00  0.00     0.130 A 
ATOM     13  C   UNL A   1      30.267  28.890  22.303  1.00  0.00     0.047 A 
ATOM     14  C   UNL A   1      28.539  27.629  23.370  1.00  0.00     0.086 A 
ATOM     15  F   UNL A   1      29.116  25.903  24.845  1.00  0.00    -0.207 F 
ATOM     16  C   UNL A   1      28.909  28.640  22.497  1.00  0.00     0.123 A 
BRANCH  16  17
ATOM     17  O   UNL A   1      28.087  29.470  21.800  1.00  0.00    -0.483 OA
BRANCH  17  18
ATOM     18  C   UNL A   1      27.810  30.775  22.246  1.00  0.00     0.239 C 
ATOM     19  C   UNL A   1      28.186  31.040  23.711  1.00  0.00     0.054 C 
ATOM     20  C   UNL A   1      28.291  32.018  21.511  1.00  0.00     0.173 C 
ATOM     21  C   UNL A   1      29.003  32.331  23.739  1.00  0.00     0.012 C 
ATOM     22  C   UNL A   1      28.684  33.105  22.469  1.00  0.00     0.080 C 
ATOM     23  O   UNL A   1      28.320  32.149  20.293  1.00  0.00    -0.296 OA
ENDBRANCH  17  18
ENDBRANCH  16  17
ENDBRANCH   8  10
ENDBRANCH   5   8
ENDBRANCH   3   4
ENDBRANCH   2   3
ENDBRANCH   1   2
BRANCH   1  24
ATOM     24  C   UNL A   1      31.644  30.749  26.275  1.00  0.00     0.002 C 
BRANCH  24  25
ATOM     25  C   UNL A   1      31.440  32.222  26.632  1.00  0.00     0.021 C 
BRANCH  25  26
ATOM     26  C   UNL A   1      32.664  32.895  27.240  1.00  0.00     0.116 C 
BRANCH  26  27
ATOM     27  N   UNL A   1      32.401  34.279  27.604  1.00  0.00    -0.352 N 
ATOM     28  C   UNL A   1      32.954  35.028  28.611  1.00  0.00     0.251 C 
ATOM     29  H   UNL A   1      31.733  34.744  27.048  1.00  0.00     0.163 HD
ATOM     30  O   UNL A   1      32.474  36.119  28.912  1.00  0.00    -0.269 OA
BRANCH  28  31
ATOM     31  C   UNL A   1      34.121  34.508  29.352  1.00  0.00     0.039 A 
ATOM     32  C   UNL A   1      33.918  33.891  30.588  1.00  0.00     0.014 A 
ATOM     33  C   UNL A   1      35.411  34.623  28.824  1.00  0.00     0.014 A 
ATOM     34  C   UNL A   1      35.003  33.335  31.269  1.00  0.00     0.010 A 
ATOM     35  C   UNL A   1      36.477  33.998  29.465  1.00  0.00     0.010 A 
ATOM     36  C   UNL A   1      36.285  33.353  30.695  1.00  0.00    -0.014 A 
BRANCH  36  37
ATOM     37  C   UNL A   1      37.435  32.698  31.368  1.00  0.00     0.031 A 
ATOM     38  C   UNL A   1      38.144  31.547  30.707  1.00  0.00     0.074 A 
ATOM     39  C   UNL A   1      37.803  33.100  32.599  1.00  0.00     0.049 A 
ATOM     40  N   UNL A   1      39.126  30.810  31.160  1.00  0.00    -0.248 NA
ATOM     41  C   UNL A   1      37.666  31.157  29.372  1.00  0.00     0.031 C 
ATOM     42  C   UNL A   1      37.165  34.174  33.363  1.00  0.00     0.029 A 
ATOM     43  N   UNL A   1      38.797  32.648  33.431  1.00  0.00    -0.354 N 
ATOM     44  C   UNL A   1      39.375  29.866  30.172  1.00  0.00     0.074 A 
ATOM     45  C   UNL A   1      38.403  30.084  29.123  1.00  0.00     0.031 C 
ATOM     46  C   UNL A   1      37.799  34.314  34.538  1.00  0.00     0.029 A 
ATOM     47  C   UNL A   1      38.857  33.313  34.631  1.00  0.00     0.049 A 
ATOM     48  H   UNL A   1      39.409  31.915  33.189  1.00  0.00     0.167 HD
ATOM     49  C   UNL A   1      40.344  28.920  30.133  1.00  0.00     0.037 A 
ATOM     50  C   UNL A   1      39.669  33.131  35.690  1.00  0.00     0.037 A 
ATOM     51  C   UNL A   1      41.319  28.718  31.173  1.00  0.00     0.049 A 
ATOM     52  C   UNL A   1      40.722  32.058  35.629  1.00  0.00     0.074 A 
ATOM     53  C   UNL A   1      42.374  27.824  31.204  1.00  0.00     0.029 A 
ATOM     54  N   UNL A   1      41.354  29.417  32.370  1.00  0.00    -0.354 N 
ATOM     55  N   UNL A   1      40.995  31.218  34.660  1.00  0.00    -0.248 NA
ATOM     56  C   UNL A   1      41.586  31.912  36.809  1.00  0.00     0.031 C 
ATOM     57  C   UNL A   1      43.011  27.941  32.443  1.00  0.00     0.029 A 
ATOM     58  C   UNL A   1      42.395  28.955  33.159  1.00  0.00     0.049 A 
ATOM     59  H   UNL A   1      40.730  30.137  32.623  1.00  0.00     0.167 HD
ATOM     60  C   UNL A   1      42.079  30.469  35.098  1.00  0.00     0.074 A 
ATOM     61  C   UNL A   1      42.423  30.963  36.414  1.00  0.00     0.031 C 
ATOM     62  C   UNL A   1      42.731  29.462  34.465  1.00  0.00     0.037 A 
BRANCH  49  63
ATOM     63  C   UNL A   1      40.396  28.026  28.926  1.00  0.00     0.064 A 
ATOM     64  C   UNL A   1      41.169  28.351  27.799  1.00  0.00     0.173 A 
ATOM     65  C   UNL A   1      39.695  26.811  28.908  1.00  0.00     0.173 A 
ATOM     66  F   UNL A   1      41.851  29.506  27.758  1.00  0.00    -0.203 F 
ATOM     67  C   UNL A   1      41.212  27.509  26.691  1.00  0.00     0.198 A 
ATOM     68  C   UNL A   1      39.769  25.955  27.812  1.00  0.00     0.198 A 
ATOM     69  F   UNL A   1      38.945  26.447  29.960  1.00  0.00    -0.203 F 
ATOM     70  F   UNL A   1      41.914  27.867  25.607  1.00  0.00    -0.200 F 
ATOM     71  C   UNL A   1      40.518  26.309  26.701  1.00  0.00     0.200 A 
ATOM     72  F   UNL A   1      39.110  24.788  27.830  1.00  0.00    -0.200 F 
ATOM     73  F   UNL A   1      40.569  25.495  25.638  1.00  0.00    -0.200 F 
ENDBRANCH  49  63
BRANCH  50  74
ATOM     74  C   UNL A   1      39.530  33.996  36.892  1.00  0.00     0.064 A 
ATOM     75  C   UNL A   1      40.168  35.242  36.963  1.00  0.00     0.173 A 
ATOM     76  C   UNL A   1      38.766  33.593  37.998  1.00  0.00     0.173 A 
ATOM     77  F   UNL A   1      40.927  35.664  35.939  1.00  0.00    -0.203 F 
ATOM     78  C   UNL A   1      40.071  36.039  38.101  1.00  0.00     0.198 A 
ATOM     79  C   UNL A   1      38.642  34.405  39.123  1.00  0.00     0.198 A 
ATOM     80  F   UNL A   1      38.129  32.412  37.981  1.00  0.00    -0.203 F 
ATOM     81  F   UNL A   1      40.735  37.202  38.162  1.00  0.00    -0.200 F 
ATOM     82  C   UNL A   1      39.303  35.623  39.178  1.00  0.00     0.200 A 
ATOM     83  F   UNL A   1      37.885  34.007  40.154  1.00  0.00    -0.200 F 
ATOM     84  F   UNL A   1      39.206  36.391  40.271  1.00  0.00    -0.200 F 
ENDBRANCH  50  74
BRANCH  62  85
ATOM     85  C   UNL A   1      43.912  28.854  35.169  1.00  0.00     0.064 A 
ATOM     86  C   UNL A   1      43.767  27.798  36.080  1.00  0.00     0.173 A 
ATOM     87  C   UNL A   1      45.211  29.310  34.895  1.00  0.00     0.173 A 
ATOM     88  F   UNL A   1      42.546  27.334  36.388  1.00  0.00    -0.203 F 
ATOM     89  C   UNL A   1      44.876  27.241  36.713  1.00  0.00     0.198 A 
ATOM     90  C   UNL A   1      46.319  28.728  35.501  1.00  0.00     0.198 A 
ATOM     91  F   UNL A   1      45.407  30.313  34.024  1.00  0.00    -0.203 F 
ATOM     92  F   UNL A   1      44.709  26.268  37.620  1.00  0.00    -0.200 F 
ATOM     93  C   UNL A   1      46.151  27.700  36.416  1.00  0.00     0.200 A 
ATOM     94  F   UNL A   1      47.551  29.161  35.201  1.00  0.00    -0.200 F 
ATOM     95  F   UNL A   1      47.217  27.157  37.019  1.00  0.00    -0.200 F 
ENDBRANCH  62  85
ENDBRANCH  36  37
ENDBRANCH  28  31
ENDBRANCH  26  27
ENDBRANCH  25  26
ENDBRANCH  24  25
ENDBRANCH   1  24
TORSDOF 16
ENDMDL
MODEL 2
REMARK VINA RESULT:     -12.4      6.422     11.852
REMARK SMILES C[C@@H](C(=O)NCCCCCCNC(=O)c1ccc(-c2c3nc(c(-c4c(F)c(F)c(F)c(F)c4F)c4ccc([nH]4)c(-c4c(F)c(F)c(F)c(F)c4F)c4nc(c(-c5c(F)c(F)c(F)c(F)c5F)c5ccc2[nH]5)C=C4)C=C3)cc1)c1ccc(O[C@H]2CCCC2=O)cc1F
REMARK SMILES IDX 8 1 7 2 6 3 5 4 3 5 4 6 2 8 1 9 78 10 79 11 90 12 80 13
REMARK SMILES IDX 89 14 91 15 81 16 82 17 83 18 84 19 87 20 85 21 86 22 88 23
REMARK SMILES IDX 9 24 10 25 11 26 12 27 13 28 14 30 15 31 16 32 77 33 17 34
REMARK SMILES IDX 76 35 18 36 19 37 20 38 70 39 21 40 75 41 69 42 71 43 22 44
REMARK SMILES IDX 74 45 68 46 67 47 23 49 55 50 35 51 54 52 36 53 39 54 53 55
REMARK SMILES IDX 72 56 37 57 38 58 52 60 73 61 40 62 24 63 25 64 33 65 26 66
REMARK SMILES IDX 27 67 31 68 34 69 28 70 29 71 32 72 30 73 56 74 57 75 65 76
REMARK SMILES IDX 58 77 59 78 63 79 66 80 60 81 61 82 64 83 62 84 41 85 42 86
REMARK SMILES IDX 50 87 43 88 44 89 48 90 51 91 45 92 46 93 49 94 47 95
REMARK H PARENT 5 7 12 29 71 48 39 59
REMARK Flexibility Score: inf
ROOT
ATOM      1  C   UNL A   1      37.098  22.175  24.676  1.00  0.00     0.002 C 
ENDROOT
BRANCH   1   2
ATOM      2  C   UNL A   1      36.637  22.649  23.289  1.00  0.00     0.021 C 
BRANCH   2   3
ATOM      3  C   UNL A   1      35.407  23.564  23.311  1.00  0.00     0.116 C 
BRANCH   3   4
ATOM      4  N   UNL A   1      35.059  23.893  24.677  1.00  0.00    -0.356 N 
ATOM      5  C   UNL A   1      33.825  24.070  25.234  1.00  0.00     0.227 C 
ATOM      6  O   UNL A   1      33.790  24.780  26.239  1.00  0.00    -0.274 OA
ATOM      7  H   UNL A   1      35.820  24.006  25.292  1.00  0.00     0.163 HD
BRANCH   5   8
ATOM      8  C   UNL A   1      32.598  23.412  24.583  1.00  0.00     0.108 C 
ATOM      9  C   UNL A   1      31.330  23.900  25.298  1.00  0.00     0.023 C 
BRANCH   8  10
ATOM     10  C   UNL A   1      32.592  21.885  24.489  1.00  0.00     0.000 A 
ATOM     11  C   UNL A   1      32.786  21.015  25.567  1.00  0.00     0.011 A 
ATOM     12  C   UNL A   1      32.364  21.291  23.238  1.00  0.00     0.130 A 
ATOM     13  C   UNL A   1      32.701  19.628  25.397  1.00  0.00     0.047 A 
ATOM     14  C   UNL A   1      32.263  19.910  23.065  1.00  0.00     0.086 A 
ATOM     15  F   UNL A   1      32.228  22.068  22.151  1.00  0.00    -0.207 F 
ATOM     16  C   UNL A   1      32.411  19.067  24.155  1.00  0.00     0.123 A 
BRANCH  16  17
ATOM     17  O   UNL A   1      32.334  17.709  24.164  1.00  0.00    -0.483 OA
BRANCH  17  18
ATOM     18  C   UNL A   1      33.483  16.907  24.036  1.00  0.00     0.239 C 
ATOM     19  C   UNL A   1      34.809  17.675  24.130  1.00  0.00     0.054 C 
ATOM     20  C   UNL A   1      33.717  15.661  24.878  1.00  0.00     0.173 C 
ATOM     21  C   UNL A   1      35.686  16.936  25.139  1.00  0.00     0.012 C 
ATOM     22  C   UNL A   1      35.165  15.511  25.245  1.00  0.00     0.080 C 
ATOM     23  O   UNL A   1      32.854  14.849  25.190  1.00  0.00    -0.296 OA
ENDBRANCH  17  18
ENDBRANCH  16  17
ENDBRANCH   8  10
ENDBRANCH   5   8
ENDBRANCH   3   4
ENDBRANCH   2   3
ENDBRANCH   1   2
BRANCH   1  24
ATOM     24  C   UNL A   1      36.825  20.700  24.976  1.00  0.00     0.002 C 
BRANCH  24  25
ATOM     25  C   UNL A   1      38.053  19.795  24.885  1.00  0.00     0.021 C 
BRANCH  25  26
ATOM     26  C   UNL A   1      39.207  20.209  25.789  1.00  0.00     0.116 C 
BRANCH  26  27
ATOM     27  N   UNL A   1      40.203  19.158  25.920  1.00  0.00    -0.352 N 
ATOM     28  C   UNL A   1      41.559  19.269  26.094  1.00  0.00     0.251 C 
ATOM     29  H   UNL A   1      39.856  18.237  25.878  1.00  0.00     0.163 HD
ATOM     30  O   UNL A   1      42.284  18.283  25.981  1.00  0.00    -0.269 OA
BRANCH  28  31
ATOM     31  C   UNL A   1      42.151  20.587  26.398  1.00  0.00     0.039 A 
ATOM     32  C   UNL A   1      42.562  21.404  25.343  1.00  0.00     0.014 A 
ATOM     33  C   UNL A   1      42.292  21.019  27.721  1.00  0.00     0.014 A 
ATOM     34  C   UNL A   1      43.062  22.680  25.612  1.00  0.00     0.010 A 
ATOM     35  C   UNL A   1      42.714  22.319  27.982  1.00  0.00     0.010 A 
ATOM     36  C   UNL A   1      43.108  23.161  26.932  1.00  0.00    -0.014 A 
BRANCH  36  37
ATOM     37  C   UNL A   1      43.562  24.543  27.229  1.00  0.00     0.031 A 
ATOM     38  C   UNL A   1      42.590  25.561  27.758  1.00  0.00     0.074 A 
ATOM     39  C   UNL A   1      44.834  24.896  26.965  1.00  0.00     0.049 A 
ATOM     40  N   UNL A   1      42.781  26.829  28.021  1.00  0.00    -0.248 NA
ATOM     41  C   UNL A   1      41.214  25.099  27.998  1.00  0.00     0.031 C 
ATOM     42  C   UNL A   1      45.859  24.012  26.408  1.00  0.00     0.029 A 
ATOM     43  N   UNL A   1      45.482  26.096  27.122  1.00  0.00    -0.354 N 
ATOM     44  C   UNL A   1      41.552  27.316  28.446  1.00  0.00     0.074 A 
ATOM     45  C   UNL A   1      40.607  26.224  28.349  1.00  0.00     0.031 C 
ATOM     46  C   UNL A   1      47.011  24.691  26.293  1.00  0.00     0.029 A 
ATOM     47  C   UNL A   1      46.797  26.068  26.726  1.00  0.00     0.049 A 
ATOM     48  H   UNL A   1      45.045  26.901  27.484  1.00  0.00     0.167 HD
ATOM     49  C   UNL A   1      41.244  28.555  28.900  1.00  0.00     0.037 A 
ATOM     50  C   UNL A   1      47.724  27.045  26.706  1.00  0.00     0.037 A 
ATOM     51  C   UNL A   1      42.192  29.633  29.010  1.00  0.00     0.049 A 
ATOM     52  C   UNL A   1      47.350  28.419  27.195  1.00  0.00     0.074 A 
ATOM     53  C   UNL A   1      41.993  30.908  29.509  1.00  0.00     0.029 A 
ATOM     54  N   UNL A   1      43.517  29.565  28.607  1.00  0.00    -0.354 N 
ATOM     55  N   UNL A   1      46.203  28.848  27.663  1.00  0.00    -0.248 NA
ATOM     56  C   UNL A   1      48.404  29.443  27.161  1.00  0.00     0.031 C 
ATOM     57  C   UNL A   1      43.181  31.629  29.354  1.00  0.00     0.029 A 
ATOM     58  C   UNL A   1      44.141  30.784  28.820  1.00  0.00     0.049 A 
ATOM     59  H   UNL A   1      43.952  28.767  28.226  1.00  0.00     0.167 HD
ATOM     60  C   UNL A   1      46.405  30.178  28.008  1.00  0.00     0.074 A 
ATOM     61  C   UNL A   1      47.788  30.481  27.709  1.00  0.00     0.031 C 
ATOM     62  C   UNL A   1      45.523  31.068  28.526  1.00  0.00     0.037 A 
BRANCH  49  63
ATOM     63  C   UNL A   1      39.822  28.813  29.312  1.00  0.00     0.064 A 
ATOM     64  C   UNL A   1      38.866  29.296  28.404  1.00  0.00     0.173 A 
ATOM     65  C   UNL A   1      39.400  28.538  30.621  1.00  0.00     0.173 A 
ATOM     66  F   UNL A   1      39.218  29.585  27.143  1.00  0.00    -0.203 F 
ATOM     67  C   UNL A   1      37.551  29.523  28.800  1.00  0.00     0.198 A 
ATOM     68  C   UNL A   1      38.075  28.734  31.004  1.00  0.00     0.198 A 
ATOM     69  F   UNL A   1      40.269  28.069  31.529  1.00  0.00    -0.203 F 
ATOM     70  F   UNL A   1      36.670  30.035  27.930  1.00  0.00    -0.200 F 
ATOM     71  C   UNL A   1      37.154  29.235  30.097  1.00  0.00     0.200 A 
ATOM     72  F   UNL A   1      37.690  28.440  32.254  1.00  0.00    -0.200 F 
ATOM     73  F   UNL A   1      35.886  29.445  30.474  1.00  0.00    -0.200 F 
ENDBRANCH  49  63
BRANCH  50  74
ATOM     74  C   UNL A   1      49.100  26.758  26.222  1.00  0.00     0.064 A 
ATOM     75  C   UNL A   1      49.460  26.994  24.888  1.00  0.00     0.173 A 
ATOM     76  C   UNL A   1      50.081  26.234  27.078  1.00  0.00     0.173 A 
ATOM     77  F   UNL A   1      48.553  27.476  24.025  1.00  0.00    -0.203 F 
ATOM     78  C   UNL A   1      50.738  26.692  24.422  1.00  0.00     0.198 A 
ATOM     79  C   UNL A   1      51.368  25.964  26.619  1.00  0.00     0.198 A 
ATOM     80  F   UNL A   1      49.791  25.995  28.366  1.00  0.00    -0.203 F 
ATOM     81  F   UNL A   1      51.039  26.879  23.129  1.00  0.00    -0.200 F 
ATOM     82  C   UNL A   1      51.693  26.183  25.288  1.00  0.00     0.200 A 
ATOM     83  F   UNL A   1      52.293  25.488  27.464  1.00  0.00    -0.200 F 
ATOM     84  F   UNL A   1      52.923  25.897  24.841  1.00  0.00    -0.200 F 
ENDBRANCH  50  74
BRANCH  62  85
ATOM     85  C   UNL A   1      46.036  32.445  28.845  1.00  0.00     0.064 A 
ATOM     86  C   UNL A   1      46.600  32.754  30.091  1.00  0.00     0.173 A 
ATOM     87  C   UNL A   1      45.997  33.457  27.873  1.00  0.00     0.173 A 
ATOM     88  F   UNL A   1      46.648  31.827  31.060  1.00  0.00    -0.203 F 
ATOM     89  C   UNL A   1      47.080  34.033  30.362  1.00  0.00     0.198 A 
ATOM     90  C   UNL A   1      46.510  34.723  28.135  1.00  0.00     0.198 A 
ATOM     91  F   UNL A   1      45.475  33.212  26.661  1.00  0.00    -0.203 F 
ATOM     92  F   UNL A   1      47.566  34.321  31.577  1.00  0.00    -0.200 F 
ATOM     93  C   UNL A   1      47.042  35.013  29.381  1.00  0.00     0.200 A 
ATOM     94  F   UNL A   1      46.488  35.664  27.181  1.00  0.00    -0.200 F 
ATOM     95  F   UNL A   1      47.513  36.241  29.641  1.00  0.00    -0.200 F 
ENDBRANCH  62  85
ENDBRANCH  36  37
ENDBRANCH  28  31
ENDBRANCH  26  27
ENDBRANCH  25  26
ENDBRANCH  24  25
ENDBRANCH   1  24
TORSDOF 16
ENDMDL
MODEL 3
REMARK VINA RESULT:     -12.2      1.963      7.802
REMARK SMILES C[C@@H](C(=O)NCCCCCCNC(=O)c1ccc(-c2c3nc(c(-c4c(F)c(F)c(F)c(F)c4F)c4ccc([nH]4)c(-c4c(F)c(F)c(F)c(F)c4F)c4nc(c(-c5c(F)c(F)c(F)c(F)c5F)c5ccc2[nH]5)C=C4)C=C3)cc1)c1ccc(O[C@H]2CCCC2=O)cc1F
REMARK SMILES IDX 8 1 7 2 6 3 5 4 3 5 4 6 2 8 1 9 78 10 79 11 90 12 80 13
REMARK SMILES IDX 89 14 91 15 81 16 82 17 83 18 84 19 87 20 85 21 86 22 88 23
REMARK SMILES IDX 9 24 10 25 11 26 12 27 13 28 14 30 15 31 16 32 77 33 17 34
REMARK SMILES IDX 76 35 18 36 19 37 20 38 70 39 21 40 75 41 69 42 71 43 22 44
REMARK SMILES IDX 74 45 68 46 67 47 23 49 55 50 35 51 54 52 36 53 39 54 53 55
REMARK SMILES IDX 72 56 37 57 38 58 52 60 73 61 40 62 24 63 25 64 33 65 26 66
REMARK SMILES IDX 27 67 31 68 34 69 28 70 29 71 32 72 30 73 56 74 57 75 65 76
REMARK SMILES IDX 58 77 59 78 63 79 66 80 60 81 61 82 64 83 62 84 41 85 42 86
REMARK SMILES IDX 50 87 43 88 44 89 48 90 51 91 45 92 46 93 49 94 47 95
REMARK H PARENT 5 7 12 29 71 48 39 59
REMARK Flexibility Score: inf
ROOT
ATOM      1  C   UNL A   1      33.512  26.856  25.743  1.00  0.00     0.002 C 
ENDROOT
BRANCH   1   2
ATOM      2  C   UNL A   1      34.407  25.607  25.755  1.00  0.00     0.021 C 
BRANCH   2   3
ATOM      3  C   UNL A   1      33.889  24.451  24.891  1.00  0.00     0.116 C 
BRANCH   3   4
ATOM      4  N   UNL A   1      33.031  23.591  25.678  1.00  0.00    -0.356 N 
ATOM      5  C   UNL A   1      31.691  23.362  25.553  1.00  0.00     0.227 C 
ATOM      6  O   UNL A   1      31.116  22.989  26.576  1.00  0.00    -0.274 OA
ATOM      7  H   UNL A   1      33.477  23.101  26.406  1.00  0.00     0.163 HD
BRANCH   5   8
ATOM      8  C   UNL A   1      31.004  23.596  24.198  1.00  0.00     0.108 C 
ATOM      9  C   UNL A   1      31.712  22.756  23.125  1.00  0.00     0.023 C 
BRANCH   8  10
ATOM     10  C   UNL A   1      30.871  25.045  23.725  1.00  0.00     0.000 A 
ATOM     11  C   UNL A   1      31.423  25.557  22.546  1.00  0.00     0.011 A 
ATOM     12  C   UNL A   1      30.131  25.942  24.511  1.00  0.00     0.130 A 
ATOM     13  C   UNL A   1      31.195  26.885  22.161  1.00  0.00     0.047 A 
ATOM     14  C   UNL A   1      29.888  27.261  24.126  1.00  0.00     0.086 A 
ATOM     15  F   UNL A   1      29.623  25.531  25.684  1.00  0.00    -0.207 F 
ATOM     16  C   UNL A   1      30.404  27.736  22.931  1.00  0.00     0.123 A 
BRANCH  16  17
ATOM     17  O   UNL A   1      30.256  28.982  22.405  1.00  0.00    -0.483 OA
BRANCH  17  18
ATOM     18  C   UNL A   1      29.186  29.815  22.779  1.00  0.00     0.239 C 
ATOM     19  C   UNL A   1      29.527  30.835  23.876  1.00  0.00     0.054 C 
ATOM     20  C   UNL A   1      28.372  30.615  21.772  1.00  0.00     0.173 C 
ATOM     21  C   UNL A   1      29.044  32.200  23.387  1.00  0.00     0.012 C 
ATOM     22  C   UNL A   1      27.987  31.958  22.320  1.00  0.00     0.080 C 
ATOM     23  O   UNL A   1      28.028  30.212  20.667  1.00  0.00    -0.296 OA
ENDBRANCH  17  18
ENDBRANCH  16  17
ENDBRANCH   8  10
ENDBRANCH   5   8
ENDBRANCH   3   4
ENDBRANCH   2   3
ENDBRANCH   1   2
BRANCH   1  24
ATOM     24  C   UNL A   1      33.740  27.800  24.561  1.00  0.00     0.002 C 
BRANCH  24  25
ATOM     25  C   UNL A   1      33.192  29.213  24.761  1.00  0.00     0.021 C 
BRANCH  25  26
ATOM     26  C   UNL A   1      32.684  29.496  26.170  1.00  0.00     0.116 C 
BRANCH  26  27
ATOM     27  N   UNL A   1      32.522  30.920  26.416  1.00  0.00    -0.352 N 
ATOM     28  C   UNL A   1      33.239  31.740  27.248  1.00  0.00     0.251 C 
ATOM     29  H   UNL A   1      31.795  31.357  25.914  1.00  0.00     0.163 HD
ATOM     30  O   UNL A   1      32.843  32.877  27.496  1.00  0.00    -0.269 OA
BRANCH  28  31
ATOM     31  C   UNL A   1      34.484  31.243  27.869  1.00  0.00     0.039 A 
ATOM     32  C   UNL A   1      35.554  32.124  28.041  1.00  0.00     0.014 A 
ATOM     33  C   UNL A   1      34.592  29.912  28.284  1.00  0.00     0.014 A 
ATOM     34  C   UNL A   1      36.712  31.685  28.686  1.00  0.00     0.010 A 
ATOM     35  C   UNL A   1      35.714  29.500  28.997  1.00  0.00     0.010 A 
ATOM     36  C   UNL A   1      36.787  30.380  29.201  1.00  0.00    -0.014 A 
BRANCH  36  37
ATOM     37  C   UNL A   1      37.979  29.922  29.958  1.00  0.00     0.031 A 
ATOM     38  C   UNL A   1      38.226  30.421  31.355  1.00  0.00     0.074 A 
ATOM     39  C   UNL A   1      38.870  29.104  29.365  1.00  0.00     0.049 A 
ATOM     40  N   UNL A   1      39.238  30.185  32.152  1.00  0.00    -0.248 NA
ATOM     41  C   UNL A   1      37.216  31.329  31.920  1.00  0.00     0.031 C 
ATOM     42  C   UNL A   1      38.765  28.589  27.999  1.00  0.00     0.029 A 
ATOM     43  N   UNL A   1      40.044  28.569  29.832  1.00  0.00    -0.354 N 
ATOM     44  C   UNL A   1      38.990  30.919  33.304  1.00  0.00     0.074 A 
ATOM     45  C   UNL A   1      37.766  31.657  33.081  1.00  0.00     0.031 C 
ATOM     46  C   UNL A   1      39.816  27.793  27.747  1.00  0.00     0.029 A 
ATOM     47  C   UNL A   1      40.692  27.777  28.915  1.00  0.00     0.049 A 
ATOM     48  H   UNL A   1      40.391  28.738  30.738  1.00  0.00     0.167 HD
ATOM     49  C   UNL A   1      39.707  30.955  34.453  1.00  0.00     0.037 A 
ATOM     50  C   UNL A   1      41.863  27.118  29.003  1.00  0.00     0.037 A 
ATOM     51  C   UNL A   1      40.916  30.206  34.675  1.00  0.00     0.049 A 
ATOM     52  C   UNL A   1      42.650  27.193  30.284  1.00  0.00     0.074 A 
ATOM     53  C   UNL A   1      41.685  30.131  35.823  1.00  0.00     0.029 A 
ATOM     54  N   UNL A   1      41.536  29.407  33.727  1.00  0.00    -0.354 N 
ATOM     55  N   UNL A   1      42.369  27.833  31.393  1.00  0.00    -0.248 NA
ATOM     56  C   UNL A   1      43.915  26.446  30.327  1.00  0.00     0.031 C 
ATOM     57  C   UNL A   1      42.801  29.335  35.550  1.00  0.00     0.029 A 
ATOM     58  C   UNL A   1      42.694  28.858  34.253  1.00  0.00     0.049 A 
ATOM     59  H   UNL A   1      41.203  29.252  32.812  1.00  0.00     0.167 HD
ATOM     60  C   UNL A   1      43.402  27.541  32.274  1.00  0.00     0.074 A 
ATOM     61  C   UNL A   1      44.308  26.654  31.576  1.00  0.00     0.031 C 
ATOM     62  C   UNL A   1      43.583  27.968  33.549  1.00  0.00     0.037 A 
BRANCH  49  63
ATOM     63  C   UNL A   1      39.202  31.836  35.561  1.00  0.00     0.064 A 
ATOM     64  C   UNL A   1      38.343  31.349  36.559  1.00  0.00     0.173 A 
ATOM     65  C   UNL A   1      39.611  33.175  35.648  1.00  0.00     0.173 A 
ATOM     66  F   UNL A   1      37.912  30.079  36.518  1.00  0.00    -0.203 F 
ATOM     67  C   UNL A   1      37.889  32.177  37.583  1.00  0.00     0.198 A 
ATOM     68  C   UNL A   1      39.183  33.991  36.693  1.00  0.00     0.198 A 
ATOM     69  F   UNL A   1      40.436  33.693  34.725  1.00  0.00    -0.203 F 
ATOM     70  F   UNL A   1      37.028  31.703  38.493  1.00  0.00    -0.200 F 
ATOM     71  C   UNL A   1      38.316  33.494  37.653  1.00  0.00     0.200 A 
ATOM     72  F   UNL A   1      39.609  35.260  36.768  1.00  0.00    -0.200 F 
ATOM     73  F   UNL A   1      37.886  34.287  38.645  1.00  0.00    -0.200 F 
ENDBRANCH  49  63
BRANCH  50  74
ATOM     74  C   UNL A   1      42.355  26.316  27.852  1.00  0.00     0.064 A 
ATOM     75  C   UNL A   1      41.940  24.990  27.665  1.00  0.00     0.173 A 
ATOM     76  C   UNL A   1      43.257  26.852  26.920  1.00  0.00     0.173 A 
ATOM     77  F   UNL A   1      41.093  24.425  28.540  1.00  0.00    -0.203 F 
ATOM     78  C   UNL A   1      42.427  24.224  26.609  1.00  0.00     0.198 A 
ATOM     79  C   UNL A   1      43.718  26.096  25.845  1.00  0.00     0.198 A 
ATOM     80  F   UNL A   1      43.683  28.118  27.048  1.00  0.00    -0.203 F 
ATOM     81  F   UNL A   1      42.053  22.943  26.485  1.00  0.00    -0.200 F 
ATOM     82  C   UNL A   1      43.311  24.778  25.696  1.00  0.00     0.200 A 
ATOM     83  F   UNL A   1      44.559  26.641  24.956  1.00  0.00    -0.200 F 
ATOM     84  F   UNL A   1      43.776  24.043  24.678  1.00  0.00    -0.200 F 
ENDBRANCH  50  74
BRANCH  62  85
ATOM     85  C   UNL A   1      44.784  27.450  34.288  1.00  0.00     0.064 A 
ATOM     86  C   UNL A   1      45.996  28.154  34.317  1.00  0.00     0.173 A 
ATOM     87  C   UNL A   1      44.706  26.249  35.011  1.00  0.00     0.173 A 
ATOM     88  F   UNL A   1      46.128  29.301  33.632  1.00  0.00    -0.203 F 
ATOM     89  C   UNL A   1      47.094  27.661  35.018  1.00  0.00     0.198 A 
ATOM     90  C   UNL A   1      45.793  25.778  35.739  1.00  0.00     0.198 A 
ATOM     91  F   UNL A   1      43.566  25.539  35.023  1.00  0.00    -0.203 F 
ATOM     92  F   UNL A   1      48.259  28.324  34.989  1.00  0.00    -0.200 F 
ATOM     93  C   UNL A   1      46.989  26.479  35.735  1.00  0.00     0.200 A 
ATOM     94  F   UNL A   1      45.684  24.644  36.445  1.00  0.00    -0.200 F 
ATOM     95  F   UNL A   1      48.044  26.011  36.417  1.00  0.00    -0.200 F 
ENDBRANCH  62  85
ENDBRANCH  36  37
ENDBRANCH  28  31
ENDBRANCH  26  27
ENDBRANCH  25  26
ENDBRANCH  24  25
ENDBRANCH   1  24
TORSDOF 16
ENDMDL
