MODEL 1
REMARK VINA RESULT:     -11.8      0.000      0.000
REMARK SMILES C[NH2+][C@]1(C(=O)NCCCCCCNC(=O)c2ccc(-c3c4nc(c(-c5c(F)c(F)c(F)c(F)c5F)c5ccc([nH]5)c(-c5c(F)c(F)c(F)c(F)c5F)c5nc(c(-c6c(F)c(F)c(F)c(F)c6F)c6ccc3[nH]6)C=C5)C=C4)cc2)CCC[C@@H]([N@H+]2CC[C@@H](C)C2)C1
REMARK SMILES IDX 10 1 9 2 8 3 7 4 6 5 4 6 5 7 3 9 79 10 89 11 80 12 82 13
REMARK SMILES IDX 81 14 2 15 1 16 83 19 84 20 88 21 85 23 86 24 87 25 11 26
REMARK SMILES IDX 12 27 13 28 14 29 15 31 16 32 17 33 78 34 18 35 77 36 19 37
REMARK SMILES IDX 20 38 21 39 71 40 22 41 76 42 70 43 72 44 23 45 75 46 69 47
REMARK SMILES IDX 68 48 24 50 56 51 36 52 55 53 37 54 40 55 54 56 73 57 38 58
REMARK SMILES IDX 39 59 53 61 74 62 41 63 25 64 26 65 34 66 27 67 28 68 32 69
REMARK SMILES IDX 35 70 29 71 30 72 33 73 31 74 57 75 58 76 66 77 59 78 60 79
REMARK SMILES IDX 64 80 67 81 61 82 62 83 65 84 63 85 42 86 43 87 51 88 44 89
REMARK SMILES IDX 45 90 49 91 52 92 46 93 47 94 50 95 48 96
REMARK H PARENT 6 8 2 17 2 18 83 22 13 30 72 49 40 60
REMARK Flexibility Score: inf
ROOT
ATOM      1  C   UNL A   1      41.450  21.327  27.065  1.00  0.00     0.002 C 
ENDROOT
BRANCH   1   2
ATOM      2  C   UNL A   1      40.228  22.219  26.816  1.00  0.00     0.002 C 
BRANCH   2   3
ATOM      3  C   UNL A   1      39.173  21.620  25.878  1.00  0.00     0.021 C 
BRANCH   3   4
ATOM      4  C   UNL A   1      37.874  22.420  25.839  1.00  0.00     0.116 C 
BRANCH   4   5
ATOM      5  N   UNL A   1      37.562  22.807  24.473  1.00  0.00    -0.351 N 
ATOM      6  C   UNL A   1      36.432  22.706  23.710  1.00  0.00     0.281 C 
ATOM      7  O   UNL A   1      36.586  22.990  22.517  1.00  0.00    -0.268 OA
ATOM      8  H   UNL A   1      38.318  23.226  24.001  1.00  0.00     0.163 HD
BRANCH   6   9
ATOM      9  C   UNL A   1      35.029  22.346  24.337  1.00  0.00     0.181 C 
ATOM     10  C   UNL A   1      33.882  22.637  23.339  1.00  0.00     0.079 C 
ATOM     11  C   UNL A   1      35.085  20.858  24.736  1.00  0.00     0.144 C 
ATOM     12  C   UNL A   1      32.552  21.973  23.717  1.00  0.00     0.013 C 
ATOM     13  C   UNL A   1      33.745  20.225  25.124  1.00  0.00     0.190 C 
ATOM     14  C   UNL A   1      32.704  20.481  24.019  1.00  0.00     0.065 C 
BRANCH   9  15
ATOM     15  N   UNL A   1      34.756  23.234  25.509  1.00  0.00    -0.336 N 
ATOM     16  C   UNL A   1      34.567  24.649  25.223  1.00  0.00     0.331 C 
ATOM     17  H   UNL A   1      33.910  22.894  25.966  1.00  0.00     0.346 HD
ATOM     18  H   UNL A   1      35.596  23.185  26.086  1.00  0.00     0.346 HD
ENDBRANCH   9  15
BRANCH  13  19
ATOM     19  N   UNL A   1      33.861  18.793  25.461  1.00  0.00    -0.332 N 
ATOM     20  C   UNL A   1      32.613  18.040  25.628  1.00  0.00     0.262 C 
ATOM     21  C   UNL A   1      34.751  18.025  24.576  1.00  0.00     0.265 C 
ATOM     22  H   UNL A   1      34.281  18.876  26.386  1.00  0.00     0.348 HD
ATOM     23  C   UNL A   1      32.845  16.673  24.991  1.00  0.00     0.070 C 
ATOM     24  C   UNL A   1      33.912  16.919  23.935  1.00  0.00     0.047 C 
ATOM     25  C   UNL A   1      33.300  17.295  22.584  1.00  0.00     0.014 C 
ENDBRANCH  13  19
ENDBRANCH   6   9
ENDBRANCH   4   5
ENDBRANCH   3   4
ENDBRANCH   2   3
ENDBRANCH   1   2
BRANCH   1  26
ATOM     26  C   UNL A   1      41.571  20.117  26.135  1.00  0.00     0.021 C 
BRANCH  26  27
ATOM     27  C   UNL A   1      42.756  19.204  26.434  1.00  0.00     0.116 C 
BRANCH  27  28
ATOM     28  N   UNL A   1      43.511  18.878  25.235  1.00  0.00    -0.352 N 
ATOM     29  C   UNL A   1      44.253  19.700  24.425  1.00  0.00     0.251 C 
ATOM     30  H   UNL A   1      43.487  17.931  24.966  1.00  0.00     0.163 HD
ATOM     31  O   UNL A   1      44.668  19.294  23.345  1.00  0.00    -0.269 OA
BRANCH  29  32
ATOM     32  C   UNL A   1      44.536  21.088  24.847  1.00  0.00     0.039 A 
ATOM     33  C   UNL A   1      44.077  22.140  24.052  1.00  0.00     0.014 A 
ATOM     34  C   UNL A   1      45.260  21.351  26.013  1.00  0.00     0.014 A 
ATOM     35  C   UNL A   1      44.297  23.459  24.454  1.00  0.00     0.010 A 
ATOM     36  C   UNL A   1      45.420  22.663  26.448  1.00  0.00     0.010 A 
ATOM     37  C   UNL A   1      44.944  23.731  25.670  1.00  0.00    -0.014 A 
BRANCH  37  38
ATOM     38  C   UNL A   1      45.131  25.125  26.146  1.00  0.00     0.031 A 
ATOM     39  C   UNL A   1      46.487  25.769  26.082  1.00  0.00     0.074 A 
ATOM     40  C   UNL A   1      44.094  25.784  26.695  1.00  0.00     0.049 A 
ATOM     41  N   UNL A   1      46.865  26.948  26.511  1.00  0.00    -0.248 NA
ATOM     42  C   UNL A   1      47.570  24.973  25.483  1.00  0.00     0.031 C 
ATOM     43  C   UNL A   1      42.742  25.248  26.856  1.00  0.00     0.029 A 
ATOM     44  N   UNL A   1      44.017  27.046  27.229  1.00  0.00    -0.354 N 
ATOM     45  C   UNL A   1      48.227  27.026  26.249  1.00  0.00     0.074 A 
ATOM     46  C   UNL A   1      48.619  25.760  25.670  1.00  0.00     0.031 C 
ATOM     47  C   UNL A   1      41.966  26.180  27.433  1.00  0.00     0.029 A 
ATOM     48  C   UNL A   1      42.772  27.363  27.715  1.00  0.00     0.049 A 
ATOM     49  H   UNL A   1      44.782  27.665  27.262  1.00  0.00     0.167 HD
ATOM     50  C   UNL A   1      49.066  28.068  26.454  1.00  0.00     0.037 A 
ATOM     51  C   UNL A   1      42.333  28.479  28.326  1.00  0.00     0.037 A 
ATOM     52  C   UNL A   1      48.664  29.336  27.003  1.00  0.00     0.049 A 
ATOM     53  C   UNL A   1      43.285  29.625  28.536  1.00  0.00     0.074 A 
ATOM     54  C   UNL A   1      49.425  30.479  27.185  1.00  0.00     0.029 A 
ATOM     55  N   UNL A   1      47.388  29.630  27.462  1.00  0.00    -0.354 N 
ATOM     56  N   UNL A   1      44.554  29.714  28.219  1.00  0.00    -0.248 NA
ATOM     57  C   UNL A   1      42.743  30.828  29.183  1.00  0.00     0.031 C 
ATOM     58  C   UNL A   1      48.623  31.446  27.798  1.00  0.00     0.029 A 
ATOM     59  C   UNL A   1      47.347  30.926  27.949  1.00  0.00     0.049 A 
ATOM     60  H   UNL A   1      46.624  29.008  27.444  1.00  0.00     0.167 HD
ATOM     61  C   UNL A   1      44.955  30.988  28.602  1.00  0.00     0.074 A 
ATOM     62  C   UNL A   1      43.789  31.641  29.160  1.00  0.00     0.031 C 
ATOM     63  C   UNL A   1      46.177  31.564  28.498  1.00  0.00     0.037 A 
BRANCH  50  64
ATOM     64  C   UNL A   1      50.509  27.884  26.079  1.00  0.00     0.064 A 
ATOM     65  C   UNL A   1      50.946  27.998  24.752  1.00  0.00     0.173 A 
ATOM     66  C   UNL A   1      51.472  27.629  27.068  1.00  0.00     0.173 A 
ATOM     67  F   UNL A   1      50.064  28.229  23.768  1.00  0.00    -0.203 F 
ATOM     68  C   UNL A   1      52.290  27.836  24.422  1.00  0.00     0.198 A 
ATOM     69  C   UNL A   1      52.820  27.498  26.739  1.00  0.00     0.198 A 
ATOM     70  F   UNL A   1      51.110  27.515  28.353  1.00  0.00    -0.203 F 
ATOM     71  F   UNL A   1      52.677  27.902  23.140  1.00  0.00    -0.200 F 
ATOM     72  C   UNL A   1      53.225  27.594  25.416  1.00  0.00     0.200 A 
ATOM     73  F   UNL A   1      53.724  27.278  27.702  1.00  0.00    -0.200 F 
ATOM     74  F   UNL A   1      54.520  27.447  25.099  1.00  0.00    -0.200 F 
ENDBRANCH  50  64
BRANCH  51  75
ATOM     75  C   UNL A   1      40.916  28.576  28.762  1.00  0.00     0.064 A 
ATOM     76  C   UNL A   1      39.922  29.027  27.883  1.00  0.00     0.173 A 
ATOM     77  C   UNL A   1      40.526  28.218  30.061  1.00  0.00     0.173 A 
ATOM     78  F   UNL A   1      40.250  29.401  26.637  1.00  0.00    -0.203 F 
ATOM     79  C   UNL A   1      38.594  29.135  28.292  1.00  0.00     0.198 A 
ATOM     80  C   UNL A   1      39.193  28.299  30.460  1.00  0.00     0.198 A 
ATOM     81  F   UNL A   1      41.437  27.773  30.938  1.00  0.00    -0.203 F 
ATOM     82  F   UNL A   1      37.671  29.610  27.445  1.00  0.00    -0.200 F 
ATOM     83  C   UNL A   1      38.229  28.764  29.577  1.00  0.00     0.200 A 
ATOM     84  F   UNL A   1      38.843  27.925  31.697  1.00  0.00    -0.200 F 
ATOM     85  F   UNL A   1      36.952  28.862  29.968  1.00  0.00    -0.200 F 
ENDBRANCH  51  75
BRANCH  63  86
ATOM     86  C   UNL A   1      46.313  32.982  28.969  1.00  0.00     0.064 A 
ATOM     87  C   UNL A   1      46.690  33.288  30.285  1.00  0.00     0.173 A 
ATOM     88  C   UNL A   1      46.101  34.048  28.081  1.00  0.00     0.173 A 
ATOM     89  F   UNL A   1      46.888  32.306  31.177  1.00  0.00    -0.203 F 
ATOM     90  C   UNL A   1      46.827  34.611  30.700  1.00  0.00     0.198 A 
ATOM     91  C   UNL A   1      46.269  35.368  28.492  1.00  0.00     0.198 A 
ATOM     92  F   UNL A   1      45.745  33.809  26.810  1.00  0.00    -0.203 F 
ATOM     93  F   UNL A   1      47.143  34.881  31.975  1.00  0.00    -0.200 F 
ATOM     94  C   UNL A   1      46.625  35.648  29.802  1.00  0.00     0.200 A 
ATOM     95  F   UNL A   1      46.086  36.368  27.619  1.00  0.00    -0.200 F 
ATOM     96  F   UNL A   1      46.765  36.919  30.203  1.00  0.00    -0.200 F 
ENDBRANCH  63  86
ENDBRANCH  37  38
ENDBRANCH  29  32
ENDBRANCH  27  28
ENDBRANCH  26  27
ENDBRANCH   1  26
TORSDOF 15
ENDMDL
MODEL 2
REMARK VINA RESULT:     -11.6      6.311     10.827
REMARK SMILES C[NH2+][C@]1(C(=O)NCCCCCCNC(=O)c2ccc(-c3c4nc(c(-c5c(F)c(F)c(F)c(F)c5F)c5ccc([nH]5)c(-c5c(F)c(F)c(F)c(F)c5F)c5nc(c(-c6c(F)c(F)c(F)c(F)c6F)c6ccc3[nH]6)C=C5)C=C4)cc2)CCC[C@@H]([N@H+]2CC[C@@H](C)C2)C1
REMARK SMILES IDX 10 1 9 2 8 3 7 4 6 5 4 6 5 7 3 9 79 10 89 11 80 12 82 13
REMARK SMILES IDX 81 14 2 15 1 16 83 19 84 20 88 21 85 23 86 24 87 25 11 26
REMARK SMILES IDX 12 27 13 28 14 29 15 31 16 32 17 33 78 34 18 35 77 36 19 37
REMARK SMILES IDX 20 38 21 39 71 40 22 41 76 42 70 43 72 44 23 45 75 46 69 47
REMARK SMILES IDX 68 48 24 50 56 51 36 52 55 53 37 54 40 55 54 56 73 57 38 58
REMARK SMILES IDX 39 59 53 61 74 62 41 63 25 64 26 65 34 66 27 67 28 68 32 69
REMARK SMILES IDX 35 70 29 71 30 72 33 73 31 74 57 75 58 76 66 77 59 78 60 79
REMARK SMILES IDX 64 80 67 81 61 82 62 83 65 84 63 85 42 86 43 87 51 88 44 89
REMARK SMILES IDX 45 90 49 91 52 92 46 93 47 94 50 95 48 96
REMARK H PARENT 6 8 2 17 2 18 83 22 13 30 72 49 40 60
REMARK Flexibility Score: inf
ROOT
ATOM      1  C   UNL A   1      31.459  30.790  26.386  1.00  0.00     0.002 C 
ENDROOT
BRANCH   1   2
ATOM      2  C   UNL A   1      32.526  30.079  27.226  1.00  0.00     0.002 C 
BRANCH   2   3
ATOM      3  C   UNL A   1      32.653  28.573  26.967  1.00  0.00     0.021 C 
BRANCH   3   4
ATOM      4  C   UNL A   1      33.994  28.175  26.357  1.00  0.00     0.116 C 
BRANCH   4   5
ATOM      5  N   UNL A   1      34.123  28.729  25.019  1.00  0.00    -0.351 N 
ATOM      6  C   UNL A   1      33.872  28.224  23.774  1.00  0.00     0.281 C 
ATOM      7  O   UNL A   1      34.265  28.932  22.840  1.00  0.00    -0.268 OA
ATOM      8  H   UNL A   1      34.460  29.654  25.008  1.00  0.00     0.163 HD
BRANCH   6   9
ATOM      9  C   UNL A   1      33.058  26.889  23.560  1.00  0.00     0.181 C 
ATOM     10  C   UNL A   1      32.989  26.512  22.060  1.00  0.00     0.079 C 
ATOM     11  C   UNL A   1      33.755  25.800  24.399  1.00  0.00     0.144 C 
ATOM     12  C   UNL A   1      32.557  25.064  21.807  1.00  0.00     0.013 C 
ATOM     13  C   UNL A   1      33.293  24.363  24.136  1.00  0.00     0.190 C 
ATOM     14  C   UNL A   1      33.363  24.056  22.629  1.00  0.00     0.065 C 
BRANCH   9  15
ATOM     15  N   UNL A   1      31.635  27.092  23.972  1.00  0.00    -0.336 N 
ATOM     16  C   UNL A   1      30.981  28.295  23.478  1.00  0.00     0.331 C 
ATOM     17  H   UNL A   1      31.098  26.290  23.643  1.00  0.00     0.346 HD
ATOM     18  H   UNL A   1      31.660  27.196  24.987  1.00  0.00     0.346 HD
ENDBRANCH   9  15
BRANCH  13  19
ATOM     19  N   UNL A   1      34.023  23.367  24.944  1.00  0.00    -0.332 N 
ATOM     20  C   UNL A   1      33.949  21.968  24.510  1.00  0.00     0.262 C 
ATOM     21  C   UNL A   1      35.433  23.699  25.200  1.00  0.00     0.265 C 
ATOM     22  H   UNL A   1      33.489  23.435  25.810  1.00  0.00     0.348 HD
ATOM     23  C   UNL A   1      35.341  21.378  24.716  1.00  0.00     0.070 C 
ATOM     24  C   UNL A   1      36.280  22.570  24.614  1.00  0.00     0.047 C 
ATOM     25  C   UNL A   1      36.741  22.810  23.175  1.00  0.00     0.014 C 
ENDBRANCH  13  19
ENDBRANCH   6   9
ENDBRANCH   4   5
ENDBRANCH   3   4
ENDBRANCH   2   3
ENDBRANCH   1   2
BRANCH   1  26
ATOM     26  C   UNL A   1      31.429  32.314  26.530  1.00  0.00     0.021 C 
BRANCH  26  27
ATOM     27  C   UNL A   1      32.627  32.905  27.267  1.00  0.00     0.116 C 
BRANCH  27  28
ATOM     28  N   UNL A   1      32.402  34.287  27.658  1.00  0.00    -0.352 N 
ATOM     29  C   UNL A   1      32.993  35.014  28.659  1.00  0.00     0.251 C 
ATOM     30  H   UNL A   1      31.728  34.771  27.126  1.00  0.00     0.163 HD
ATOM     31  O   UNL A   1      32.546  36.112  28.974  1.00  0.00    -0.269 OA
BRANCH  29  32
ATOM     32  C   UNL A   1      34.162  34.464  29.376  1.00  0.00     0.039 A 
ATOM     33  C   UNL A   1      33.958  33.804  30.590  1.00  0.00     0.014 A 
ATOM     34  C   UNL A   1      35.453  34.608  28.862  1.00  0.00     0.014 A 
ATOM     35  C   UNL A   1      35.044  33.241  31.263  1.00  0.00     0.010 A 
ATOM     36  C   UNL A   1      36.525  33.988  29.497  1.00  0.00     0.010 A 
ATOM     37  C   UNL A   1      36.331  33.301  30.707  1.00  0.00    -0.014 A 
BRANCH  37  38
ATOM     38  C   UNL A   1      37.488  32.653  31.375  1.00  0.00     0.031 A 
ATOM     39  C   UNL A   1      38.204  31.512  30.708  1.00  0.00     0.074 A 
ATOM     40  C   UNL A   1      37.851  33.050  32.609  1.00  0.00     0.049 A 
ATOM     41  N   UNL A   1      39.188  30.775  31.159  1.00  0.00    -0.248 NA
ATOM     42  C   UNL A   1      37.734  31.130  29.367  1.00  0.00     0.031 C 
ATOM     43  C   UNL A   1      37.203  34.113  33.379  1.00  0.00     0.029 A 
ATOM     44  N   UNL A   1      38.846  32.598  33.439  1.00  0.00    -0.354 N 
ATOM     45  C   UNL A   1      39.441  29.835  30.169  1.00  0.00     0.074 A 
ATOM     46  C   UNL A   1      38.478  30.063  29.114  1.00  0.00     0.031 C 
ATOM     47  C   UNL A   1      37.828  34.244  34.559  1.00  0.00     0.029 A 
ATOM     48  C   UNL A   1      38.895  33.251  34.646  1.00  0.00     0.049 A 
ATOM     49  H   UNL A   1      39.465  31.874  33.192  1.00  0.00     0.167 HD
ATOM     50  C   UNL A   1      40.404  28.884  30.135  1.00  0.00     0.037 A 
ATOM     51  C   UNL A   1      39.703  33.064  35.706  1.00  0.00     0.037 A 
ATOM     52  C   UNL A   1      41.378  28.680  31.174  1.00  0.00     0.049 A 
ATOM     53  C   UNL A   1      40.769  32.004  35.640  1.00  0.00     0.074 A 
ATOM     54  C   UNL A   1      42.438  27.789  31.201  1.00  0.00     0.029 A 
ATOM     55  N   UNL A   1      41.412  29.378  32.373  1.00  0.00    -0.354 N 
ATOM     56  N   UNL A   1      41.045  31.169  34.668  1.00  0.00    -0.248 NA
ATOM     57  C   UNL A   1      41.640  31.866  36.816  1.00  0.00     0.031 C 
ATOM     58  C   UNL A   1      43.082  27.914  32.437  1.00  0.00     0.029 A 
ATOM     59  C   UNL A   1      42.459  28.920  33.158  1.00  0.00     0.049 A 
ATOM     60  H   UNL A   1      40.785  30.092  32.629  1.00  0.00     0.167 HD
ATOM     61  C   UNL A   1      42.135  30.426  35.102  1.00  0.00     0.074 A 
ATOM     62  C   UNL A   1      42.479  30.920  36.418  1.00  0.00     0.031 C 
ATOM     63  C   UNL A   1      42.792  29.425  34.465  1.00  0.00     0.037 A 
BRANCH  50  64
ATOM     64  C   UNL A   1      40.454  27.988  28.931  1.00  0.00     0.064 A 
ATOM     65  C   UNL A   1      39.733  26.786  28.876  1.00  0.00     0.173 A 
ATOM     66  C   UNL A   1      41.201  28.356  27.801  1.00  0.00     0.173 A 
ATOM     67  F   UNL A   1      39.012  26.382  29.933  1.00  0.00    -0.203 F 
ATOM     68  C   UNL A   1      39.780  25.971  27.747  1.00  0.00     0.198 A 
ATOM     69  C   UNL A   1      41.221  27.555  26.662  1.00  0.00     0.198 A 
ATOM     70  F   UNL A   1      41.904  29.497  27.797  1.00  0.00    -0.203 F 
ATOM     71  F   UNL A   1      39.122  24.803  27.737  1.00  0.00    -0.200 F 
ATOM     72  C   UNL A   1      40.518  26.360  26.640  1.00  0.00     0.200 A 
ATOM     73  F   UNL A   1      41.923  27.938  25.587  1.00  0.00    -0.200 F 
ATOM     74  F   UNL A   1      40.555  25.580  25.550  1.00  0.00    -0.200 F 
ENDBRANCH  50  64
BRANCH  51  75
ATOM     75  C   UNL A   1      39.551  33.919  36.913  1.00  0.00     0.064 A 
ATOM     76  C   UNL A   1      38.802  33.482  38.014  1.00  0.00     0.173 A 
ATOM     77  C   UNL A   1      40.150  35.184  36.991  1.00  0.00     0.173 A 
ATOM     78  F   UNL A   1      38.193  32.287  37.978  1.00  0.00    -0.203 F 
ATOM     79  C   UNL A   1      38.642  34.285  39.140  1.00  0.00     0.198 A 
ATOM     80  C   UNL A   1      40.013  35.975  38.130  1.00  0.00     0.198 A 
ATOM     81  F   UNL A   1      40.882  35.646  35.967  1.00  0.00    -0.203 F 
ATOM     82  F   UNL A   1      37.886  33.861  40.162  1.00  0.00    -0.200 F 
ATOM     83  C   UNL A   1      39.253  35.528  39.201  1.00  0.00     0.200 A 
ATOM     84  F   UNL A   1      40.618  37.169  38.190  1.00  0.00    -0.200 F 
ATOM     85  F   UNL A   1      39.105  36.299  40.286  1.00  0.00    -0.200 F 
ENDBRANCH  51  75
BRANCH  63  86
ATOM     86  C   UNL A   1      43.969  28.817  35.169  1.00  0.00     0.064 A 
ATOM     87  C   UNL A   1      43.823  27.733  36.047  1.00  0.00     0.173 A 
ATOM     88  C   UNL A   1      45.265  29.300  34.930  1.00  0.00     0.173 A 
ATOM     89  F   UNL A   1      42.603  27.245  36.321  1.00  0.00    -0.203 F 
ATOM     90  C   UNL A   1      44.930  27.171  36.679  1.00  0.00     0.198 A 
ATOM     91  C   UNL A   1      46.372  28.715  35.540  1.00  0.00     0.198 A 
ATOM     92  F   UNL A   1      45.459  30.331  34.094  1.00  0.00    -0.203 F 
ATOM     93  F   UNL A   1      44.762  26.166  37.550  1.00  0.00    -0.200 F 
ATOM     94  C   UNL A   1      46.202  27.656  36.418  1.00  0.00     0.200 A 
ATOM     95  F   UNL A   1      47.601  29.177  35.276  1.00  0.00    -0.200 F 
ATOM     96  F   UNL A   1      47.266  27.108  37.021  1.00  0.00    -0.200 F 
ENDBRANCH  63  86
ENDBRANCH  37  38
ENDBRANCH  29  32
ENDBRANCH  27  28
ENDBRANCH  26  27
ENDBRANCH   1  26
TORSDOF 15
ENDMDL
MODEL 3
REMARK VINA RESULT:     -11.6      6.312     10.822
REMARK SMILES C[NH2+][C@]1(C(=O)NCCCCCCNC(=O)c2ccc(-c3c4nc(c(-c5c(F)c(F)c(F)c(F)c5F)c5ccc([nH]5)c(-c5c(F)c(F)c(F)c(F)c5F)c5nc(c(-c6c(F)c(F)c(F)c(F)c6F)c6ccc3[nH]6)C=C5)C=C4)cc2)CCC[C@@H]([N@H+]2CC[C@@H](C)C2)C1
REMARK SMILES IDX 10 1 9 2 8 3 7 4 6 5 4 6 5 7 3 9 79 10 89 11 80 12 82 13
REMARK SMILES IDX 81 14 2 15 1 16 83 19 84 20 88 21 85 23 86 24 87 25 11 26
REMARK SMILES IDX 12 27 13 28 14 29 15 31 16 32 17 33 78 34 18 35 77 36 19 37
REMARK SMILES IDX 20 38 21 39 71 40 22 41 76 42 70 43 72 44 23 45 75 46 69 47
REMARK SMILES IDX 68 48 24 50 56 51 36 52 55 53 37 54 40 55 54 56 73 57 38 58
REMARK SMILES IDX 39 59 53 61 74 62 41 63 25 64 26 65 34 66 27 67 28 68 32 69
REMARK SMILES IDX 35 70 29 71 30 72 33 73 31 74 57 75 58 76 66 77 59 78 60 79
REMARK SMILES IDX 64 80 67 81 61 82 62 83 65 84 63 85 42 86 43 87 51 88 44 89
REMARK SMILES IDX 45 90 49 91 52 92 46 93 47 94 50 95 48 96
REMARK H PARENT 6 8 2 17 2 18 83 22 13 30 72 49 40 60
REMARK Flexibility Score: inf
ROOT
ATOM      1  C   UNL A   1      31.518  30.889  26.151  1.00  0.00     0.002 C 
ENDROOT
BRANCH   1   2
ATOM      2  C   UNL A   1      32.611  30.085  26.863  1.00  0.00     0.002 C 
BRANCH   2   3
ATOM      3  C   UNL A   1      32.175  28.700  27.358  1.00  0.00     0.021 C 
BRANCH   3   4
ATOM      4  C   UNL A   1      32.778  27.553  26.552  1.00  0.00     0.116 C 
BRANCH   4   5
ATOM      5  N   UNL A   1      33.335  28.051  25.306  1.00  0.00    -0.351 N 
ATOM      6  C   UNL A   1      33.583  27.464  24.096  1.00  0.00     0.281 C 
ATOM      7  O   UNL A   1      34.232  28.161  23.307  1.00  0.00    -0.268 OA
ATOM      8  H   UNL A   1      33.585  29.002  25.340  1.00  0.00     0.163 HD
BRANCH   6   9
ATOM      9  C   UNL A   1      33.001  26.047  23.717  1.00  0.00     0.181 C 
ATOM     10  C   UNL A   1      33.269  25.714  22.229  1.00  0.00     0.079 C 
ATOM     11  C   UNL A   1      33.655  25.025  24.666  1.00  0.00     0.144 C 
ATOM     12  C   UNL A   1      33.079  24.233  21.885  1.00  0.00     0.013 C 
ATOM     13  C   UNL A   1      33.436  23.552  24.307  1.00  0.00     0.190 C 
ATOM     14  C   UNL A   1      33.832  23.305  22.840  1.00  0.00     0.065 C 
BRANCH   9  15
ATOM     15  N   UNL A   1      31.511  26.063  23.846  1.00  0.00    -0.336 N 
ATOM     16  C   UNL A   1      30.796  27.020  23.014  1.00  0.00     0.331 C 
ATOM     17  H   UNL A   1      31.169  25.131  23.610  1.00  0.00     0.346 HD
ATOM     18  H   UNL A   1      31.326  26.350  24.808  1.00  0.00     0.346 HD
ENDBRANCH   9  15
BRANCH  13  19
ATOM     19  N   UNL A   1      34.117  22.626  25.233  1.00  0.00    -0.332 N 
ATOM     20  C   UNL A   1      34.882  21.525  24.638  1.00  0.00     0.262 C 
ATOM     21  C   UNL A   1      34.958  23.282  26.247  1.00  0.00     0.265 C 
ATOM     22  H   UNL A   1      33.300  22.209  25.679  1.00  0.00     0.348 HD
ATOM     23  C   UNL A   1      36.151  21.381  25.473  1.00  0.00     0.070 C 
ATOM     24  C   UNL A   1      36.385  22.767  26.056  1.00  0.00     0.047 C 
ATOM     25  C   UNL A   1      37.249  23.633  25.136  1.00  0.00     0.014 C 
ENDBRANCH  13  19
ENDBRANCH   6   9
ENDBRANCH   4   5
ENDBRANCH   3   4
ENDBRANCH   2   3
ENDBRANCH   1   2
BRANCH   1  26
ATOM     26  C   UNL A   1      31.335  32.323  26.655  1.00  0.00     0.021 C 
BRANCH  26  27
ATOM     27  C   UNL A   1      32.582  32.938  27.283  1.00  0.00     0.116 C 
BRANCH  27  28
ATOM     28  N   UNL A   1      32.373  34.324  27.671  1.00  0.00    -0.352 N 
ATOM     29  C   UNL A   1      32.978  35.048  28.666  1.00  0.00     0.251 C 
ATOM     30  H   UNL A   1      31.700  34.812  27.143  1.00  0.00     0.163 HD
ATOM     31  O   UNL A   1      32.544  36.151  28.980  1.00  0.00    -0.269 OA
BRANCH  29  32
ATOM     32  C   UNL A   1      34.146  34.489  29.377  1.00  0.00     0.039 A 
ATOM     33  C   UNL A   1      33.949  33.865  30.610  1.00  0.00     0.014 A 
ATOM     34  C   UNL A   1      35.432  34.590  28.837  1.00  0.00     0.014 A 
ATOM     35  C   UNL A   1      35.033  33.293  31.279  1.00  0.00     0.010 A 
ATOM     36  C   UNL A   1      36.500  33.961  29.469  1.00  0.00     0.010 A 
ATOM     37  C   UNL A   1      36.312  33.310  30.699  1.00  0.00    -0.014 A 
BRANCH  37  38
ATOM     38  C   UNL A   1      37.465  32.652  31.364  1.00  0.00     0.031 A 
ATOM     39  C   UNL A   1      38.160  31.496  30.701  1.00  0.00     0.074 A 
ATOM     40  C   UNL A   1      37.843  33.055  32.591  1.00  0.00     0.049 A 
ATOM     41  N   UNL A   1      39.137  30.749  31.151  1.00  0.00    -0.248 NA
ATOM     42  C   UNL A   1      37.674  31.108  29.367  1.00  0.00     0.031 C 
ATOM     43  C   UNL A   1      37.216  34.134  33.356  1.00  0.00     0.029 A 
ATOM     44  N   UNL A   1      38.839  32.597  33.417  1.00  0.00    -0.354 N 
ATOM     45  C   UNL A   1      39.370  29.797  30.167  1.00  0.00     0.074 A 
ATOM     46  C   UNL A   1      38.401  30.029  29.118  1.00  0.00     0.031 C 
ATOM     47  C   UNL A   1      37.853  34.266  34.531  1.00  0.00     0.029 A 
ATOM     48  C   UNL A   1      38.907  33.259  34.618  1.00  0.00     0.049 A 
ATOM     49  H   UNL A   1      39.447  31.862  33.172  1.00  0.00     0.167 HD
ATOM     50  C   UNL A   1      40.319  28.833  30.134  1.00  0.00     0.037 A 
ATOM     51  C   UNL A   1      39.721  33.071  35.673  1.00  0.00     0.037 A 
ATOM     52  C   UNL A   1      41.300  28.625  31.166  1.00  0.00     0.049 A 
ATOM     53  C   UNL A   1      40.772  31.996  35.608  1.00  0.00     0.074 A 
ATOM     54  C   UNL A   1      42.347  27.720  31.193  1.00  0.00     0.029 A 
ATOM     55  N   UNL A   1      41.352  29.332  32.359  1.00  0.00    -0.354 N 
ATOM     56  N   UNL A   1      41.028  31.148  34.641  1.00  0.00    -0.248 NA
ATOM     57  C   UNL A   1      41.650  31.856  36.777  1.00  0.00     0.031 C 
ATOM     58  C   UNL A   1      43.002  27.846  32.422  1.00  0.00     0.029 A 
ATOM     59  C   UNL A   1      42.399  28.867  33.139  1.00  0.00     0.049 A 
ATOM     60  H   UNL A   1      40.737  30.058  32.614  1.00  0.00     0.167 HD
ATOM     61  C   UNL A   1      42.112  30.394  35.072  1.00  0.00     0.074 A 
ATOM     62  C   UNL A   1      42.473  30.896  36.382  1.00  0.00     0.031 C 
ATOM     63  C   UNL A   1      42.750  29.379  34.439  1.00  0.00     0.037 A 
BRANCH  50  64
ATOM     64  C   UNL A   1      40.348  27.925  28.937  1.00  0.00     0.064 A 
ATOM     65  C   UNL A   1      41.104  28.233  27.797  1.00  0.00     0.173 A 
ATOM     66  C   UNL A   1      39.641  26.713  28.948  1.00  0.00     0.173 A 
ATOM     67  F   UNL A   1      41.788  29.385  27.730  1.00  0.00    -0.203 F 
ATOM     68  C   UNL A   1      41.129  27.375  26.700  1.00  0.00     0.198 A 
ATOM     69  C   UNL A   1      39.694  25.842  27.862  1.00  0.00     0.198 A 
ATOM     70  F   UNL A   1      38.907  26.366  30.015  1.00  0.00    -0.203 F 
ATOM     71  F   UNL A   1      41.820  27.713  25.602  1.00  0.00    -0.200 F 
ATOM     72  C   UNL A   1      40.431  26.178  26.736  1.00  0.00     0.200 A 
ATOM     73  F   UNL A   1      39.030  24.679  27.904  1.00  0.00    -0.200 F 
ATOM     74  F   UNL A   1      40.464  25.348  25.684  1.00  0.00    -0.200 F 
ENDBRANCH  50  64
BRANCH  51  75
ATOM     75  C   UNL A   1      39.590  33.938  36.873  1.00  0.00     0.064 A 
ATOM     76  C   UNL A   1      40.236  35.180  36.937  1.00  0.00     0.173 A 
ATOM     77  C   UNL A   1      38.818  33.545  37.976  1.00  0.00     0.173 A 
ATOM     78  F   UNL A   1      41.002  35.590  35.915  1.00  0.00    -0.203 F 
ATOM     79  C   UNL A   1      40.129  35.989  38.067  1.00  0.00     0.198 A 
ATOM     80  C   UNL A   1      38.690  34.367  39.093  1.00  0.00     0.198 A 
ATOM     81  F   UNL A   1      38.175  32.368  37.962  1.00  0.00    -0.203 F 
ATOM     82  F   UNL A   1      40.791  37.153  38.119  1.00  0.00    -0.200 F 
ATOM     83  C   UNL A   1      39.351  35.586  39.141  1.00  0.00     0.200 A 
ATOM     84  F   UNL A   1      37.924  33.980  40.122  1.00  0.00    -0.200 F 
ATOM     85  F   UNL A   1      39.244  36.366  40.224  1.00  0.00    -0.200 F 
ENDBRANCH  51  75
BRANCH  63  86
ATOM     86  C   UNL A   1      43.925  28.761  35.139  1.00  0.00     0.064 A 
ATOM     87  C   UNL A   1      45.226  29.255  34.969  1.00  0.00     0.173 A 
ATOM     88  C   UNL A   1      43.739  27.688  36.024  1.00  0.00     0.173 A 
ATOM     89  F   UNL A   1      45.459  30.269  34.121  1.00  0.00    -0.203 F 
ATOM     90  C   UNL A   1      46.303  28.679  35.640  1.00  0.00     0.198 A 
ATOM     91  C   UNL A   1      44.813  27.135  36.717  1.00  0.00     0.198 A 
ATOM     92  F   UNL A   1      42.513  27.184  36.227  1.00  0.00    -0.203 F 
ATOM     93  F   UNL A   1      47.545  29.136  35.426  1.00  0.00    -0.200 F 
ATOM     94  C   UNL A   1      46.094  27.627  36.518  1.00  0.00     0.200 A 
ATOM     95  F   UNL A   1      44.607  26.128  37.575  1.00  0.00    -0.200 F 
ATOM     96  F   UNL A   1      47.130  27.080  37.169  1.00  0.00    -0.200 F 
ENDBRANCH  63  86
ENDBRANCH  37  38
ENDBRANCH  29  32
ENDBRANCH  27  28
ENDBRANCH  26  27
ENDBRANCH   1  26
TORSDOF 15
ENDMDL
