MODEL 1
REMARK VINA RESULT:     -12.7      0.000      0.000
REMARK SMILES O=C(NCCCCCCNC(=O)[C@H]1C[C@](O)(c2ccc(Cl)cc2)[C@@H](c2ccc(Cl)cc2)O1)c1ccc(-c2c3nc(c(-c4c(F)c(F)c(F)c(F)c4F)c4ccc([nH]4)c(-c4c(F)c(F)c(F)c(F)c4F)c4nc(c(-c5c(F)c(F)c(F)c(F)c5F)c5ccc2[nH]5)C=C4)C=C3)cc1
REMARK SMILES IDX 6 1 5 2 4 3 3 4 1 5 2 6 33 8 34 9 95 10 35 11 94 12 36 13
REMARK SMILES IDX 37 14 38 15 88 16 39 17 93 18 87 19 89 20 40 21 92 22 86 23
REMARK SMILES IDX 85 24 41 26 73 27 53 28 72 29 54 30 57 31 71 32 90 33 55 34
REMARK SMILES IDX 56 35 70 37 91 38 58 39 42 40 43 41 51 42 44 43 45 44 49 45
REMARK SMILES IDX 52 46 46 47 47 48 50 49 48 50 74 51 75 52 83 53 76 54 77 55
REMARK SMILES IDX 81 56 84 57 78 58 79 59 82 60 80 61 59 62 60 63 68 64 61 65
REMARK SMILES IDX 62 66 66 67 69 68 63 69 64 70 67 71 65 72 7 73 8 74 9 75
REMARK SMILES IDX 10 76 11 77 12 79 13 80 14 81 32 82 15 83 24 84 17 85 18 86
REMARK SMILES IDX 23 87 19 88 22 89 20 90 21 91 16 92 25 94 26 95 31 96 27 97
REMARK SMILES IDX 30 98 28 99 29 100
REMARK H PARENT 3 7 89 25 57 36 10 78 16 93
REMARK Flexibility Score: inf
ROOT
ATOM      1  C   UNL A   1      31.614  30.851  26.412  1.00  0.00     0.002 C 
ENDROOT
BRANCH   1   2
ATOM      2  C   UNL A   1      31.432  32.335  26.731  1.00  0.00     0.021 C 
BRANCH   2   3
ATOM      3  C   UNL A   1      32.722  33.055  27.108  1.00  0.00     0.116 C 
BRANCH   3   4
ATOM      4  N   UNL A   1      32.466  34.374  27.660  1.00  0.00    -0.352 N 
ATOM      5  O   UNL A   1      32.558  36.010  29.212  1.00  0.00    -0.269 OA
ATOM      6  C   UNL A   1      33.030  34.976  28.757  1.00  0.00     0.251 C 
ATOM      7  H   UNL A   1      31.795  34.911  27.181  1.00  0.00     0.163 HD
BRANCH   6   8
ATOM      8  C   UNL A   1      34.207  34.357  29.401  1.00  0.00     0.039 A 
ATOM      9  C   UNL A   1      34.057  33.524  30.514  1.00  0.00     0.014 A 
ATOM     10  C   UNL A   1      35.474  34.603  28.867  1.00  0.00     0.014 A 
ATOM     11  C   UNL A   1      35.183  33.027  31.163  1.00  0.00     0.010 A 
ATOM     12  C   UNL A   1      36.596  34.043  29.476  1.00  0.00     0.010 A 
ATOM     13  C   UNL A   1      36.461  33.268  30.639  1.00  0.00    -0.014 A 
BRANCH  13  14
ATOM     14  C   UNL A   1      37.657  32.658  31.271  1.00  0.00     0.031 A 
ATOM     15  C   UNL A   1      38.367  31.511  30.614  1.00  0.00     0.074 A 
ATOM     16  C   UNL A   1      38.063  33.113  32.469  1.00  0.00     0.049 A 
ATOM     17  N   UNL A   1      39.352  30.778  31.069  1.00  0.00    -0.248 NA
ATOM     18  C   UNL A   1      37.901  31.131  29.274  1.00  0.00     0.031 C 
ATOM     19  C   UNL A   1      37.446  34.219  33.202  1.00  0.00     0.029 A 
ATOM     20  N   UNL A   1      39.073  32.688  33.295  1.00  0.00    -0.354 N 
ATOM     21  C   UNL A   1      39.606  29.834  30.085  1.00  0.00     0.074 A 
ATOM     22  C   UNL A   1      38.655  30.070  29.019  1.00  0.00     0.031 C 
ATOM     23  C   UNL A   1      38.087  34.385  34.367  1.00  0.00     0.029 A 
ATOM     24  C   UNL A   1      39.114  33.355  34.492  1.00  0.00     0.049 A 
ATOM     25  H   UNL A   1      39.706  31.973  33.050  1.00  0.00     0.167 HD
ATOM     26  C   UNL A   1      40.548  28.860  30.077  1.00  0.00     0.037 A 
ATOM     27  C   UNL A   1      39.860  33.137  35.591  1.00  0.00     0.037 A 
ATOM     28  C   UNL A   1      41.485  28.636  31.150  1.00  0.00     0.049 A 
ATOM     29  C   UNL A   1      40.865  32.022  35.582  1.00  0.00     0.074 A 
ATOM     30  C   UNL A   1      42.509  27.707  31.223  1.00  0.00     0.029 A 
ATOM     31  N   UNL A   1      41.497  29.337  32.349  1.00  0.00    -0.354 N 
ATOM     32  N   UNL A   1      41.131  31.161  34.631  1.00  0.00    -0.248 NA
ATOM     33  C   UNL A   1      41.674  31.848  36.795  1.00  0.00     0.031 C 
ATOM     34  C   UNL A   1      43.093  27.800  32.490  1.00  0.00     0.029 A 
ATOM     35  C   UNL A   1      42.487  28.837  33.181  1.00  0.00     0.049 A 
ATOM     36  H   UNL A   1      40.891  30.079  32.576  1.00  0.00     0.167 HD
ATOM     37  C   UNL A   1      42.156  30.361  35.114  1.00  0.00     0.074 A 
ATOM     38  C   UNL A   1      42.465  30.840  36.447  1.00  0.00     0.031 C 
ATOM     39  C   UNL A   1      42.790  29.330  34.503  1.00  0.00     0.037 A 
BRANCH  26  40
ATOM     40  C   UNL A   1      40.583  27.937  28.891  1.00  0.00     0.064 A 
ATOM     41  C   UNL A   1      41.371  28.203  27.761  1.00  0.00     0.173 A 
ATOM     42  C   UNL A   1      39.814  26.761  28.886  1.00  0.00     0.173 A 
ATOM     43  F   UNL A   1      42.120  29.316  27.706  1.00  0.00    -0.203 F 
ATOM     44  C   UNL A   1      41.351  27.357  26.655  1.00  0.00     0.198 A 
ATOM     45  C   UNL A   1      39.826  25.898  27.795  1.00  0.00     0.198 A 
ATOM     46  F   UNL A   1      39.050  26.448  29.943  1.00  0.00    -0.203 F 
ATOM     47  F   UNL A   1      42.057  27.671  25.560  1.00  0.00    -0.200 F 
ATOM     48  C   UNL A   1      40.582  26.203  26.675  1.00  0.00     0.200 A 
ATOM     49  F   UNL A   1      39.095  24.775  27.823  1.00  0.00    -0.200 F 
ATOM     50  F   UNL A   1      40.560  25.392  25.607  1.00  0.00    -0.200 F 
ENDBRANCH  26  40
BRANCH  27  51
ATOM     51  C   UNL A   1      39.654  33.996  36.783  1.00  0.00     0.064 A 
ATOM     52  C   UNL A   1      38.845  33.575  37.846  1.00  0.00     0.173 A 
ATOM     53  C   UNL A   1      40.315  35.228  36.912  1.00  0.00     0.173 A 
ATOM     54  F   UNL A   1      38.183  32.412  37.763  1.00  0.00    -0.203 F 
ATOM     55  C   UNL A   1      38.703  34.354  38.992  1.00  0.00     0.198 A 
ATOM     56  C   UNL A   1      40.196  35.992  38.070  1.00  0.00     0.198 A 
ATOM     57  F   UNL A   1      41.110  35.668  35.926  1.00  0.00    -0.203 F 
ATOM     58  F   UNL A   1      37.906  33.940  39.986  1.00  0.00    -0.200 F 
ATOM     59  C   UNL A   1      39.387  35.556  39.108  1.00  0.00     0.200 A 
ATOM     60  F   UNL A   1      40.876  37.140  38.185  1.00  0.00    -0.200 F 
ATOM     61  F   UNL A   1      39.268  36.293  40.220  1.00  0.00    -0.200 F 
ENDBRANCH  27  51
BRANCH  39  62
ATOM     62  C   UNL A   1      43.922  28.673  35.239  1.00  0.00     0.064 A 
ATOM     63  C   UNL A   1      43.714  27.590  36.104  1.00  0.00     0.173 A 
ATOM     64  C   UNL A   1      45.244  29.082  35.002  1.00  0.00     0.173 A 
ATOM     65  F   UNL A   1      42.469  27.171  36.377  1.00  0.00    -0.203 F 
ATOM     66  C   UNL A   1      44.790  26.945  36.711  1.00  0.00     0.198 A 
ATOM     67  C   UNL A   1      46.317  28.417  35.586  1.00  0.00     0.198 A 
ATOM     68  F   UNL A   1      45.494  30.112  34.179  1.00  0.00    -0.203 F 
ATOM     69  F   UNL A   1      44.568  25.931  37.558  1.00  0.00    -0.200 F 
ATOM     70  C   UNL A   1      46.089  27.350  36.442  1.00  0.00     0.200 A 
ATOM     71  F   UNL A   1      47.571  28.800  35.310  1.00  0.00    -0.200 F 
ATOM     72  F   UNL A   1      47.123  26.712  37.007  1.00  0.00    -0.200 F 
ENDBRANCH  39  62
ENDBRANCH  13  14
ENDBRANCH   6   8
ENDBRANCH   3   4
ENDBRANCH   2   3
ENDBRANCH   1   2
BRANCH   1  73
ATOM     73  C   UNL A   1      32.951  30.261  26.869  1.00  0.00     0.002 C 
BRANCH  73  74
ATOM     74  C   UNL A   1      33.654  29.361  25.837  1.00  0.00     0.021 C 
BRANCH  74  75
ATOM     75  C   UNL A   1      33.831  27.908  26.287  1.00  0.00     0.116 C 
BRANCH  75  76
ATOM     76  N   UNL A   1      32.686  27.504  27.076  1.00  0.00    -0.354 N 
ATOM     77  C   UNL A   1      31.794  26.518  26.772  1.00  0.00     0.249 C 
ATOM     78  H   UNL A   1      32.536  27.993  27.917  1.00  0.00     0.163 HD
ATOM     79  O   UNL A   1      30.612  26.741  27.033  1.00  0.00    -0.272 OA
BRANCH  77  80
ATOM     80  C   UNL A   1      32.303  25.183  26.176  1.00  0.00     0.211 C 
ATOM     81  C   UNL A   1      31.174  24.195  25.864  1.00  0.00     0.085 C 
ATOM     82  O   UNL A   1      33.001  25.425  24.945  1.00  0.00    -0.357 OA
ATOM     83  C   UNL A   1      31.218  23.965  24.348  1.00  0.00     0.123 C 
ATOM     84  C   UNL A   1      32.107  25.137  23.849  1.00  0.00     0.186 C 
BRANCH  83  85
ATOM     85  C   UNL A   1      31.721  22.546  24.020  1.00  0.00    -0.013 A 
ATOM     86  C   UNL A   1      32.045  21.668  25.078  1.00  0.00     0.008 A 
ATOM     87  C   UNL A   1      31.841  22.041  22.712  1.00  0.00     0.008 A 
ATOM     88  C   UNL A   1      32.411  20.338  24.843  1.00  0.00     0.021 A 
ATOM     89  C   UNL A   1      32.194  20.706  22.475  1.00  0.00     0.021 A 
ATOM     90  C   UNL A   1      32.468  19.857  23.541  1.00  0.00     0.041 A 
ATOM     91  Cl  UNL A   1      32.874  18.212  23.249  1.00  0.00    -0.084 Cl
ENDBRANCH  83  85
BRANCH  83  92
ATOM     92  O   UNL A   1      29.909  24.047  23.769  1.00  0.00    -0.382 OA
ATOM     93  H   UNL A   1      29.803  24.904  23.329  1.00  0.00     0.212 HD
ENDBRANCH  83  92
BRANCH  84  94
ATOM     94  C   UNL A   1      31.451  26.424  23.350  1.00  0.00    -0.016 A 
ATOM     95  C   UNL A   1      30.071  26.673  23.420  1.00  0.00     0.008 A 
ATOM     96  C   UNL A   1      32.272  27.434  22.813  1.00  0.00     0.008 A 
ATOM     97  C   UNL A   1      29.535  27.900  23.014  1.00  0.00     0.021 A 
ATOM     98  C   UNL A   1      31.736  28.647  22.375  1.00  0.00     0.021 A 
ATOM     99  C   UNL A   1      30.370  28.880  22.491  1.00  0.00     0.041 A 
ATOM    100  Cl  UNL A   1      29.710  30.386  21.986  1.00  0.00    -0.084 Cl
ENDBRANCH  84  94
ENDBRANCH  77  80
ENDBRANCH  75  76
ENDBRANCH  74  75
ENDBRANCH  73  74
ENDBRANCH   1  73
TORSDOF 16
ENDMDL
MODEL 2
REMARK VINA RESULT:     -12.7      1.254      2.396
REMARK SMILES O=C(NCCCCCCNC(=O)[C@H]1C[C@](O)(c2ccc(Cl)cc2)[C@@H](c2ccc(Cl)cc2)O1)c1ccc(-c2c3nc(c(-c4c(F)c(F)c(F)c(F)c4F)c4ccc([nH]4)c(-c4c(F)c(F)c(F)c(F)c4F)c4nc(c(-c5c(F)c(F)c(F)c(F)c5F)c5ccc2[nH]5)C=C4)C=C3)cc1
REMARK SMILES IDX 6 1 5 2 4 3 3 4 1 5 2 6 33 8 34 9 95 10 35 11 94 12 36 13
REMARK SMILES IDX 37 14 38 15 88 16 39 17 93 18 87 19 89 20 40 21 92 22 86 23
REMARK SMILES IDX 85 24 41 26 73 27 53 28 72 29 54 30 57 31 71 32 90 33 55 34
REMARK SMILES IDX 56 35 70 37 91 38 58 39 42 40 43 41 51 42 44 43 45 44 49 45
REMARK SMILES IDX 52 46 46 47 47 48 50 49 48 50 74 51 75 52 83 53 76 54 77 55
REMARK SMILES IDX 81 56 84 57 78 58 79 59 82 60 80 61 59 62 60 63 68 64 61 65
REMARK SMILES IDX 62 66 66 67 69 68 63 69 64 70 67 71 65 72 7 73 8 74 9 75
REMARK SMILES IDX 10 76 11 77 12 79 13 80 14 81 32 82 15 83 24 84 17 85 18 86
REMARK SMILES IDX 23 87 19 88 22 89 20 90 21 91 16 92 25 94 26 95 31 96 27 97
REMARK SMILES IDX 30 98 28 99 29 100
REMARK H PARENT 3 7 89 25 57 36 10 78 16 93
REMARK Flexibility Score: inf
ROOT
ATOM      1  C   UNL A   1      31.227  30.934  26.041  1.00  0.00     0.002 C 
ENDROOT
BRANCH   1   2
ATOM      2  C   UNL A   1      31.200  32.423  26.388  1.00  0.00     0.021 C 
BRANCH   2   3
ATOM      3  C   UNL A   1      32.404  32.899  27.192  1.00  0.00     0.116 C 
BRANCH   3   4
ATOM      4  N   UNL A   1      32.257  34.277  27.626  1.00  0.00    -0.352 N 
ATOM      5  O   UNL A   1      32.529  36.042  29.006  1.00  0.00    -0.269 OA
ATOM      6  C   UNL A   1      32.913  34.941  28.631  1.00  0.00     0.251 C 
ATOM      7  H   UNL A   1      31.596  34.810  27.129  1.00  0.00     0.163 HD
BRANCH   6   8
ATOM      8  C   UNL A   1      34.084  34.310  29.275  1.00  0.00     0.039 A 
ATOM      9  C   UNL A   1      33.926  33.489  30.396  1.00  0.00     0.014 A 
ATOM     10  C   UNL A   1      35.352  34.533  28.735  1.00  0.00     0.014 A 
ATOM     11  C   UNL A   1      35.047  32.981  31.045  1.00  0.00     0.010 A 
ATOM     12  C   UNL A   1      36.469  33.961  29.344  1.00  0.00     0.010 A 
ATOM     13  C   UNL A   1      36.326  33.198  30.515  1.00  0.00    -0.014 A 
BRANCH  13  14
ATOM     14  C   UNL A   1      37.515  32.576  31.147  1.00  0.00     0.031 A 
ATOM     15  C   UNL A   1      38.219  31.427  30.487  1.00  0.00     0.074 A 
ATOM     16  C   UNL A   1      37.921  33.021  32.349  1.00  0.00     0.049 A 
ATOM     17  N   UNL A   1      39.196  30.684  30.941  1.00  0.00    -0.248 NA
ATOM     18  C   UNL A   1      37.754  31.057  29.143  1.00  0.00     0.031 C 
ATOM     19  C   UNL A   1      37.311  34.128  33.085  1.00  0.00     0.029 A 
ATOM     20  N   UNL A   1      38.926  32.584  33.175  1.00  0.00    -0.354 N 
ATOM     21  C   UNL A   1      39.446  29.742  29.953  1.00  0.00     0.074 A 
ATOM     22  C   UNL A   1      38.501  29.992  28.885  1.00  0.00     0.031 C 
ATOM     23  C   UNL A   1      37.949  34.284  34.253  1.00  0.00     0.029 A 
ATOM     24  C   UNL A   1      38.968  33.246  34.376  1.00  0.00     0.049 A 
ATOM     25  H   UNL A   1      39.554  31.866  32.929  1.00  0.00     0.167 HD
ATOM     26  C   UNL A   1      40.381  28.762  29.943  1.00  0.00     0.037 A 
ATOM     27  C   UNL A   1      39.709  33.016  35.476  1.00  0.00     0.037 A 
ATOM     28  C   UNL A   1      41.313  28.525  31.017  1.00  0.00     0.049 A 
ATOM     29  C   UNL A   1      40.705  31.893  35.464  1.00  0.00     0.074 A 
ATOM     30  C   UNL A   1      42.329  27.588  31.088  1.00  0.00     0.029 A 
ATOM     31  N   UNL A   1      41.326  29.219  32.219  1.00  0.00    -0.354 N 
ATOM     32  N   UNL A   1      40.968  31.035  34.510  1.00  0.00    -0.248 NA
ATOM     33  C   UNL A   1      41.509  31.707  36.679  1.00  0.00     0.031 C 
ATOM     34  C   UNL A   1      42.910  27.670  32.358  1.00  0.00     0.029 A 
ATOM     35  C   UNL A   1      42.310  28.708  33.052  1.00  0.00     0.049 A 
ATOM     36  H   UNL A   1      40.726  29.966  32.448  1.00  0.00     0.167 HD
ATOM     37  C   UNL A   1      41.985  30.224  34.992  1.00  0.00     0.074 A 
ATOM     38  C   UNL A   1      42.293  30.694  36.328  1.00  0.00     0.031 C 
ATOM     39  C   UNL A   1      42.613  29.192  34.378  1.00  0.00     0.037 A 
BRANCH  26  40
ATOM     40  C   UNL A   1      40.412  27.844  28.752  1.00  0.00     0.064 A 
ATOM     41  C   UNL A   1      41.164  28.137  27.604  1.00  0.00     0.173 A 
ATOM     42  C   UNL A   1      39.678  26.647  28.761  1.00  0.00     0.173 A 
ATOM     43  F   UNL A   1      41.879  29.271  27.535  1.00  0.00    -0.203 F 
ATOM     44  C   UNL A   1      41.140  27.295  26.494  1.00  0.00     0.198 A 
ATOM     45  C   UNL A   1      39.687  25.788  27.666  1.00  0.00     0.198 A 
ATOM     46  F   UNL A   1      38.950  26.308  29.836  1.00  0.00    -0.203 F 
ATOM     47  F   UNL A   1      41.809  27.633  25.384  1.00  0.00    -0.200 F 
ATOM     48  C   UNL A   1      40.406  26.119  26.529  1.00  0.00     0.200 A 
ATOM     49  F   UNL A   1      38.989  24.645  27.708  1.00  0.00    -0.200 F 
ATOM     50  F   UNL A   1      40.380  25.312  25.459  1.00  0.00    -0.200 F 
ENDBRANCH  26  40
BRANCH  27  51
ATOM     51  C   UNL A   1      39.506  33.871  36.672  1.00  0.00     0.064 A 
ATOM     52  C   UNL A   1      38.703  33.444  37.737  1.00  0.00     0.173 A 
ATOM     53  C   UNL A   1      40.163  35.104  36.801  1.00  0.00     0.173 A 
ATOM     54  F   UNL A   1      38.045  32.279  37.653  1.00  0.00    -0.203 F 
ATOM     55  C   UNL A   1      38.564  34.219  38.886  1.00  0.00     0.198 A 
ATOM     56  C   UNL A   1      40.048  35.864  37.962  1.00  0.00     0.198 A 
ATOM     57  F   UNL A   1      40.953  35.550  35.813  1.00  0.00    -0.203 F 
ATOM     58  F   UNL A   1      37.773  33.799  39.883  1.00  0.00    -0.200 F 
ATOM     59  C   UNL A   1      39.245  35.422  39.003  1.00  0.00     0.200 A 
ATOM     60  F   UNL A   1      40.725  37.014  38.078  1.00  0.00    -0.200 F 
ATOM     61  F   UNL A   1      39.129  36.155  40.118  1.00  0.00    -0.200 F 
ENDBRANCH  27  51
BRANCH  39  62
ATOM     62  C   UNL A   1      43.737  28.522  35.113  1.00  0.00     0.064 A 
ATOM     63  C   UNL A   1      45.056  28.991  35.038  1.00  0.00     0.173 A 
ATOM     64  C   UNL A   1      43.470  27.446  35.974  1.00  0.00     0.173 A 
ATOM     65  F   UNL A   1      45.367  30.005  34.216  1.00  0.00    -0.203 F 
ATOM     66  C   UNL A   1      46.067  28.402  35.794  1.00  0.00     0.198 A 
ATOM     67  C   UNL A   1      44.476  26.881  36.750  1.00  0.00     0.198 A 
ATOM     68  F   UNL A   1      42.223  26.963  36.084  1.00  0.00    -0.203 F 
ATOM     69  F   UNL A   1      47.327  28.847  35.686  1.00  0.00    -0.200 F 
ATOM     70  C   UNL A   1      45.775  27.358  36.658  1.00  0.00     0.200 A 
ATOM     71  F   UNL A   1      44.186  25.883  37.597  1.00  0.00    -0.200 F 
ATOM     72  F   UNL A   1      46.745  26.810  37.404  1.00  0.00    -0.200 F 
ENDBRANCH  39  62
ENDBRANCH  13  14
ENDBRANCH   6   8
ENDBRANCH   3   4
ENDBRANCH   2   3
ENDBRANCH   1   2
BRANCH   1  73
ATOM     73  C   UNL A   1      30.753  30.602  24.623  1.00  0.00     0.002 C 
BRANCH  73  74
ATOM     74  C   UNL A   1      30.652  29.100  24.304  1.00  0.00     0.021 C 
BRANCH  74  75
ATOM     75  C   UNL A   1      30.440  28.786  22.819  1.00  0.00     0.116 C 
BRANCH  75  76
ATOM     76  N   UNL A   1      31.723  28.710  22.154  1.00  0.00    -0.354 N 
ATOM     77  C   UNL A   1      32.695  27.775  22.363  1.00  0.00     0.249 C 
ATOM     78  H   UNL A   1      31.914  29.404  21.483  1.00  0.00     0.163 HD
ATOM     79  O   UNL A   1      33.859  28.174  22.355  1.00  0.00    -0.272 OA
BRANCH  77  80
ATOM     80  C   UNL A   1      32.300  26.289  22.546  1.00  0.00     0.211 C 
ATOM     81  C   UNL A   1      33.510  25.351  22.621  1.00  0.00     0.085 C 
ATOM     82  O   UNL A   1      31.563  26.120  23.766  1.00  0.00    -0.357 OA
ATOM     83  C   UNL A   1      33.462  24.705  24.011  1.00  0.00     0.123 C 
ATOM     84  C   UNL A   1      32.461  25.614  24.777  1.00  0.00     0.186 C 
BRANCH  83  85
ATOM     85  C   UNL A   1      33.085  23.214  23.914  1.00  0.00    -0.013 A 
ATOM     86  C   UNL A   1      32.430  22.743  22.755  1.00  0.00     0.008 A 
ATOM     87  C   UNL A   1      33.395  22.263  24.904  1.00  0.00     0.008 A 
ATOM     88  C   UNL A   1      32.153  21.384  22.569  1.00  0.00     0.021 A 
ATOM     89  C   UNL A   1      33.131  20.900  24.714  1.00  0.00     0.021 A 
ATOM     90  C   UNL A   1      32.521  20.465  23.543  1.00  0.00     0.041 A 
ATOM     91  Cl  UNL A   1      32.223  18.789  23.300  1.00  0.00    -0.084 Cl
ENDBRANCH  83  85
BRANCH  83  92
ATOM     92  O   UNL A   1      34.747  24.732  24.644  1.00  0.00    -0.382 OA
ATOM     93  H   UNL A   1      34.688  24.313  25.516  1.00  0.00     0.212 HD
ENDBRANCH  83  92
BRANCH  84  94
ATOM     94  C   UNL A   1      32.988  26.761  25.638  1.00  0.00    -0.016 A 
ATOM     95  C   UNL A   1      34.152  27.487  25.342  1.00  0.00     0.008 A 
ATOM     96  C   UNL A   1      32.256  27.136  26.780  1.00  0.00     0.008 A 
ATOM     97  C   UNL A   1      34.547  28.575  26.126  1.00  0.00     0.021 A 
ATOM     98  C   UNL A   1      32.666  28.201  27.586  1.00  0.00     0.021 A 
ATOM     99  C   UNL A   1      33.803  28.925  27.247  1.00  0.00     0.041 A 
ATOM    100  Cl  UNL A   1      34.292  30.260  28.216  1.00  0.00    -0.084 Cl
ENDBRANCH  84  94
ENDBRANCH  77  80
ENDBRANCH  75  76
ENDBRANCH  74  75
ENDBRANCH  73  74
ENDBRANCH   1  73
TORSDOF 16
ENDMDL
MODEL 3
REMARK VINA RESULT:     -12.7      1.331      1.820
REMARK SMILES O=C(NCCCCCCNC(=O)[C@H]1C[C@](O)(c2ccc(Cl)cc2)[C@@H](c2ccc(Cl)cc2)O1)c1ccc(-c2c3nc(c(-c4c(F)c(F)c(F)c(F)c4F)c4ccc([nH]4)c(-c4c(F)c(F)c(F)c(F)c4F)c4nc(c(-c5c(F)c(F)c(F)c(F)c5F)c5ccc2[nH]5)C=C4)C=C3)cc1
REMARK SMILES IDX 6 1 5 2 4 3 3 4 1 5 2 6 33 8 34 9 95 10 35 11 94 12 36 13
REMARK SMILES IDX 37 14 38 15 88 16 39 17 93 18 87 19 89 20 40 21 92 22 86 23
REMARK SMILES IDX 85 24 41 26 73 27 53 28 72 29 54 30 57 31 71 32 90 33 55 34
REMARK SMILES IDX 56 35 70 37 91 38 58 39 42 40 43 41 51 42 44 43 45 44 49 45
REMARK SMILES IDX 52 46 46 47 47 48 50 49 48 50 74 51 75 52 83 53 76 54 77 55
REMARK SMILES IDX 81 56 84 57 78 58 79 59 82 60 80 61 59 62 60 63 68 64 61 65
REMARK SMILES IDX 62 66 66 67 69 68 63 69 64 70 67 71 65 72 7 73 8 74 9 75
REMARK SMILES IDX 10 76 11 77 12 79 13 80 14 81 32 82 15 83 24 84 17 85 18 86
REMARK SMILES IDX 23 87 19 88 22 89 20 90 21 91 16 92 25 94 26 95 31 96 27 97
REMARK SMILES IDX 30 98 28 99 29 100
REMARK H PARENT 3 7 89 25 57 36 10 78 16 93
REMARK Flexibility Score: inf
ROOT
ATOM      1  C   UNL A   1      31.391  30.933  25.841  1.00  0.00     0.002 C 
ENDROOT
BRANCH   1   2
ATOM      2  C   UNL A   1      31.258  32.356  26.383  1.00  0.00     0.021 C 
BRANCH   2   3
ATOM      3  C   UNL A   1      32.437  32.812  27.235  1.00  0.00     0.116 C 
BRANCH   3   4
ATOM      4  N   UNL A   1      32.318  34.205  27.626  1.00  0.00    -0.352 N 
ATOM      5  O   UNL A   1      32.631  36.007  28.949  1.00  0.00    -0.269 OA
ATOM      6  C   UNL A   1      32.993  34.889  28.605  1.00  0.00     0.251 C 
ATOM      7  H   UNL A   1      31.662  34.734  27.118  1.00  0.00     0.163 HD
BRANCH   6   8
ATOM      8  C   UNL A   1      34.158  34.258  29.261  1.00  0.00     0.039 A 
ATOM      9  C   UNL A   1      33.987  33.412  30.361  1.00  0.00     0.014 A 
ATOM     10  C   UNL A   1      35.434  34.506  28.751  1.00  0.00     0.014 A 
ATOM     11  C   UNL A   1      35.100  32.903  31.022  1.00  0.00     0.010 A 
ATOM     12  C   UNL A   1      36.545  33.934  29.371  1.00  0.00     0.010 A 
ATOM     13  C   UNL A   1      36.388  33.145  30.523  1.00  0.00    -0.014 A 
BRANCH  13  14
ATOM     14  C   UNL A   1      37.571  32.524  31.166  1.00  0.00     0.031 A 
ATOM     15  C   UNL A   1      38.272  31.366  30.519  1.00  0.00     0.074 A 
ATOM     16  C   UNL A   1      37.973  32.978  32.366  1.00  0.00     0.049 A 
ATOM     17  N   UNL A   1      39.244  30.623  30.985  1.00  0.00    -0.248 NA
ATOM     18  C   UNL A   1      37.813  30.986  29.177  1.00  0.00     0.031 C 
ATOM     19  C   UNL A   1      37.363  34.094  33.089  1.00  0.00     0.029 A 
ATOM     20  N   UNL A   1      38.971  32.544  33.201  1.00  0.00    -0.354 N 
ATOM     21  C   UNL A   1      39.495  29.671  30.007  1.00  0.00     0.074 A 
ATOM     22  C   UNL A   1      38.555  29.916  28.932  1.00  0.00     0.031 C 
ATOM     23  C   UNL A   1      37.997  34.257  34.259  1.00  0.00     0.029 A 
ATOM     24  C   UNL A   1      39.010  33.215  34.396  1.00  0.00     0.049 A 
ATOM     25  H   UNL A   1      39.598  31.821  32.964  1.00  0.00     0.167 HD
ATOM     26  C   UNL A   1      40.425  28.686  30.009  1.00  0.00     0.037 A 
ATOM     27  C   UNL A   1      39.745  32.992  35.501  1.00  0.00     0.037 A 
ATOM     28  C   UNL A   1      41.350  28.455  31.091  1.00  0.00     0.049 A 
ATOM     29  C   UNL A   1      40.736  31.865  35.505  1.00  0.00     0.074 A 
ATOM     30  C   UNL A   1      42.362  27.514  31.175  1.00  0.00     0.029 A 
ATOM     31  N   UNL A   1      41.361  29.160  32.287  1.00  0.00    -0.354 N 
ATOM     32  N   UNL A   1      41.000  30.997  34.559  1.00  0.00    -0.248 NA
ATOM     33  C   UNL A   1      41.533  31.686  36.725  1.00  0.00     0.031 C 
ATOM     34  C   UNL A   1      42.937  27.604  32.446  1.00  0.00     0.029 A 
ATOM     35  C   UNL A   1      42.338  28.652  33.128  1.00  0.00     0.049 A 
ATOM     36  H   UNL A   1      40.763  29.911  32.506  1.00  0.00     0.167 HD
ATOM     37  C   UNL A   1      42.011  30.186  35.054  1.00  0.00     0.074 A 
ATOM     38  C   UNL A   1      42.315  30.667  36.387  1.00  0.00     0.031 C 
ATOM     39  C   UNL A   1      42.637  29.146  34.451  1.00  0.00     0.037 A 
BRANCH  26  40
ATOM     40  C   UNL A   1      40.458  27.758  28.827  1.00  0.00     0.064 A 
ATOM     41  C   UNL A   1      41.257  28.012  27.701  1.00  0.00     0.173 A 
ATOM     42  C   UNL A   1      39.678  26.591  28.822  1.00  0.00     0.173 A 
ATOM     43  F   UNL A   1      42.017  29.117  27.647  1.00  0.00    -0.203 F 
ATOM     44  C   UNL A   1      41.235  27.162  26.598  1.00  0.00     0.198 A 
ATOM     45  C   UNL A   1      39.688  25.723  27.734  1.00  0.00     0.198 A 
ATOM     46  F   UNL A   1      38.903  26.290  29.875  1.00  0.00    -0.203 F 
ATOM     47  F   UNL A   1      41.952  27.465  25.507  1.00  0.00    -0.200 F 
ATOM     48  C   UNL A   1      40.455  26.016  26.617  1.00  0.00     0.200 A 
ATOM     49  F   UNL A   1      38.945  24.607  27.761  1.00  0.00    -0.200 F 
ATOM     50  F   UNL A   1      40.431  25.202  25.553  1.00  0.00    -0.200 F 
ENDBRANCH  26  40
BRANCH  27  51
ATOM     51  C   UNL A   1      39.540  33.858  36.689  1.00  0.00     0.064 A 
ATOM     52  C   UNL A   1      38.723  33.448  37.750  1.00  0.00     0.173 A 
ATOM     53  C   UNL A   1      40.209  35.086  36.815  1.00  0.00     0.173 A 
ATOM     54  F   UNL A   1      38.054  32.289  37.669  1.00  0.00    -0.203 F 
ATOM     55  C   UNL A   1      38.582  34.233  38.892  1.00  0.00     0.198 A 
ATOM     56  C   UNL A   1      40.090  35.856  37.969  1.00  0.00     0.198 A 
ATOM     57  F   UNL A   1      41.012  35.516  35.830  1.00  0.00    -0.203 F 
ATOM     58  F   UNL A   1      37.777  33.829  39.884  1.00  0.00    -0.200 F 
ATOM     59  C   UNL A   1      39.274  35.431  39.005  1.00  0.00     0.200 A 
ATOM     60  F   UNL A   1      40.778  37.000  38.082  1.00  0.00    -0.200 F 
ATOM     61  F   UNL A   1      39.155  36.174  40.113  1.00  0.00    -0.200 F 
ENDBRANCH  27  51
BRANCH  39  62
ATOM     62  C   UNL A   1      43.755  28.477  35.198  1.00  0.00     0.064 A 
ATOM     63  C   UNL A   1      45.085  28.906  35.083  1.00  0.00     0.173 A 
ATOM     64  C   UNL A   1      43.473  27.447  36.109  1.00  0.00     0.173 A 
ATOM     65  F   UNL A   1      45.410  29.875  34.213  1.00  0.00    -0.203 F 
ATOM     66  C   UNL A   1      46.091  28.323  35.848  1.00  0.00     0.198 A 
ATOM     67  C   UNL A   1      44.476  26.889  36.894  1.00  0.00     0.198 A 
ATOM     68  F   UNL A   1      42.215  27.004  36.259  1.00  0.00    -0.203 F 
ATOM     69  F   UNL A   1      47.361  28.728  35.702  1.00  0.00    -0.200 F 
ATOM     70  C   UNL A   1      45.785  27.325  36.762  1.00  0.00     0.200 A 
ATOM     71  F   UNL A   1      44.174  25.936  37.788  1.00  0.00    -0.200 F 
ATOM     72  F   UNL A   1      46.752  26.784  37.516  1.00  0.00    -0.200 F 
ENDBRANCH  39  62
ENDBRANCH  13  14
ENDBRANCH   6   8
ENDBRANCH   3   4
ENDBRANCH   2   3
ENDBRANCH   1   2
BRANCH   1  73
ATOM     73  C   UNL A   1      32.391  30.054  26.598  1.00  0.00     0.002 C 
BRANCH  73  74
ATOM     74  C   UNL A   1      31.765  28.920  27.428  1.00  0.00     0.021 C 
BRANCH  74  75
ATOM     75  C   UNL A   1      32.348  27.533  27.140  1.00  0.00     0.116 C 
BRANCH  75  76
ATOM     76  N   UNL A   1      31.304  26.538  27.251  1.00  0.00    -0.354 N 
ATOM     77  C   UNL A   1      31.250  25.335  26.608  1.00  0.00     0.249 C 
ATOM     78  H   UNL A   1      30.554  26.750  27.853  1.00  0.00     0.163 HD
ATOM     79  O   UNL A   1      30.147  24.973  26.201  1.00  0.00    -0.272 OA
BRANCH  77  80
ATOM     80  C   UNL A   1      32.537  24.486  26.466  1.00  0.00     0.211 C 
ATOM     81  C   UNL A   1      32.399  23.352  25.445  1.00  0.00     0.085 C 
ATOM     82  O   UNL A   1      33.629  25.311  26.032  1.00  0.00    -0.357 OA
ATOM     83  C   UNL A   1      33.428  23.642  24.346  1.00  0.00     0.123 C 
ATOM     84  C   UNL A   1      33.804  25.126  24.610  1.00  0.00     0.186 C 
BRANCH  83  85
ATOM     85  C   UNL A   1      34.589  22.630  24.395  1.00  0.00    -0.013 A 
ATOM     86  C   UNL A   1      35.877  23.039  23.985  1.00  0.00     0.008 A 
ATOM     87  C   UNL A   1      34.458  21.312  24.872  1.00  0.00     0.008 A 
ATOM     88  C   UNL A   1      36.987  22.195  24.101  1.00  0.00     0.021 A 
ATOM     89  C   UNL A   1      35.572  20.471  25.002  1.00  0.00     0.021 A 
ATOM     90  C   UNL A   1      36.832  20.919  24.626  1.00  0.00     0.041 A 
ATOM     91  Cl  UNL A   1      38.201  19.894  24.813  1.00  0.00    -0.084 Cl
ENDBRANCH  83  85
BRANCH  83  92
ATOM     92  O   UNL A   1      32.853  23.496  23.040  1.00  0.00    -0.382 OA
ATOM     93  H   UNL A   1      33.368  22.854  22.529  1.00  0.00     0.212 HD
ENDBRANCH  83  92
BRANCH  84  94
ATOM     94  C   UNL A   1      33.088  26.235  23.841  1.00  0.00    -0.016 A 
ATOM     95  C   UNL A   1      31.875  26.054  23.158  1.00  0.00     0.008 A 
ATOM     96  C   UNL A   1      33.655  27.524  23.835  1.00  0.00     0.008 A 
ATOM     97  C   UNL A   1      31.228  27.124  22.532  1.00  0.00     0.021 A 
ATOM     98  C   UNL A   1      33.030  28.588  23.181  1.00  0.00     0.021 A 
ATOM     99  C   UNL A   1      31.810  28.386  22.544  1.00  0.00     0.041 A 
ATOM    100  Cl  UNL A   1      31.017  29.701  21.769  1.00  0.00    -0.084 Cl
ENDBRANCH  84  94
ENDBRANCH  77  80
ENDBRANCH  75  76
ENDBRANCH  74  75
ENDBRANCH  73  74
ENDBRANCH   1  73
TORSDOF 16
ENDMDL
