MODEL 1
REMARK VINA RESULT:     -12.9      0.000      0.000
REMARK SMILES CCn1nc(C)c(NS(=O)(=O)c2cc(C(=O)NCCCCCCNC(=O)c3ccc(-c4c5nc(c(-c6c(F)c(F)c(F)c(F)c6F)c6ccc([nH]6)c(-c6c(F)c(F)c(F)c(F)c6F)c6nc(c(-c7c(F)c(F)c(F)c(F)c7F)c7ccc4[nH]7)C=C6)C=C5)cc3)cc(F)c2C)c1C
REMARK SMILES IDX 19 1 18 2 17 3 15 4 16 5 14 7 12 8 13 9 93 10 91 11 94 12
REMARK SMILES IDX 90 13 92 14 9 15 10 16 11 17 8 18 7 20 3 21 4 22 95 23 5 24
REMARK SMILES IDX 96 25 6 26 2 27 1 28 20 29 21 30 22 31 23 32 24 33 25 34
REMARK SMILES IDX 26 36 27 37 28 38 89 39 29 40 88 41 30 42 31 43 32 44 82 45
REMARK SMILES IDX 33 46 87 47 81 48 83 49 34 50 86 51 80 52 79 53 35 55 67 56
REMARK SMILES IDX 47 57 66 58 48 59 51 60 65 61 84 62 49 63 50 64 64 66 85 67
REMARK SMILES IDX 52 68 36 69 37 70 45 71 38 72 39 73 43 74 46 75 40 76 41 77
REMARK SMILES IDX 44 78 42 79 68 80 69 81 77 82 70 83 71 84 75 85 78 86 72 87
REMARK SMILES IDX 73 88 76 89 74 90 53 91 54 92 62 93 55 94 56 95 60 96 63 97
REMARK SMILES IDX 57 98 58 99 61 100 59 101
REMARK H PARENT 17 6 8 19 24 35 83 54 51 65
REMARK Flexibility Score: inf
ROOT
ATOM      1  C   UNL A   1      33.272  27.443  22.640  1.00  0.00     0.021 C 
ENDROOT
BRANCH   1   2
ATOM      2  C   UNL A   1      32.189  26.679  21.873  1.00  0.00     0.116 C 
BRANCH   2   3
ATOM      3  N   UNL A   1      32.741  25.465  21.308  1.00  0.00    -0.352 N 
ATOM      4  C   UNL A   1      32.906  24.187  21.769  1.00  0.00     0.251 C 
ATOM      5  O   UNL A   1      33.496  23.403  21.024  1.00  0.00    -0.269 OA
ATOM      6  H   UNL A   1      33.071  25.587  20.388  1.00  0.00     0.163 HD
BRANCH   4   7
ATOM      7  C   UNL A   1      32.384  23.678  23.072  1.00  0.00     0.044 A 
ATOM      8  C   UNL A   1      32.454  22.239  25.057  1.00  0.00     0.094 A 
ATOM      9  C   UNL A   1      32.854  22.556  23.742  1.00  0.00     0.036 A 
ATOM     10  C   UNL A   1      31.376  22.909  25.634  1.00  0.00     0.005 A 
ATOM     11  C   UNL A   1      30.861  24.006  24.926  1.00  0.00     0.128 A 
ATOM     12  C   UNL A   1      30.716  22.547  26.925  1.00  0.00     0.049 C 
ATOM     13  C   UNL A   1      31.371  24.411  23.691  1.00  0.00     0.053 A 
ATOM     14  F   UNL A   1      29.859  24.719  25.460  1.00  0.00    -0.207 F 
BRANCH   8  15
ATOM     15  S   UNL A   1      33.500  21.038  25.852  1.00  0.00     0.262 S 
ATOM     16  O   UNL A   1      32.869  19.740  25.662  1.00  0.00    -0.201 OA
ATOM     17  O   UNL A   1      33.739  21.539  27.184  1.00  0.00    -0.201 OA
BRANCH  15  18
ATOM     18  N   UNL A   1      34.994  20.934  25.125  1.00  0.00    -0.276 N 
ATOM     19  H   UNL A   1      35.071  20.213  24.457  1.00  0.00     0.180 HD
BRANCH  18  20
ATOM     20  C   UNL A   1      36.157  21.685  25.292  1.00  0.00     0.093 A 
ATOM     21  N   UNL A   1      38.281  22.055  25.700  1.00  0.00    -0.268 N 
ATOM     22  N   UNL A   1      37.717  23.270  25.793  1.00  0.00    -0.176 NA
ATOM     23  C   UNL A   1      37.410  21.094  25.263  1.00  0.00     0.060 A 
ATOM     24  C   UNL A   1      36.422  23.067  25.504  1.00  0.00     0.084 A 
ATOM     25  C   UNL A   1      37.807  19.711  24.889  1.00  0.00     0.069 C 
ATOM     26  C   UNL A   1      35.530  24.251  25.469  1.00  0.00     0.071 C 
BRANCH  21  27
ATOM     27  C   UNL A   1      39.644  21.868  26.166  1.00  0.00     0.141 C 
ATOM     28  C   UNL A   1      40.033  22.842  27.261  1.00  0.00     0.029 C 
ENDBRANCH  21  27
ENDBRANCH  18  20
ENDBRANCH  15  18
ENDBRANCH   8  15
ENDBRANCH   4   7
ENDBRANCH   2   3
ENDBRANCH   1   2
BRANCH   1  29
ATOM     29  C   UNL A   1      32.758  27.994  23.977  1.00  0.00     0.002 C 
BRANCH  29  30
ATOM     30  C   UNL A   1      32.920  27.033  25.167  1.00  0.00     0.002 C 
BRANCH  30  31
ATOM     31  C   UNL A   1      33.361  27.694  26.484  1.00  0.00     0.021 C 
BRANCH  31  32
ATOM     32  C   UNL A   1      34.393  28.769  26.239  1.00  0.00     0.116 C 
BRANCH  32  33
ATOM     33  N   UNL A   1      33.807  30.087  26.468  1.00  0.00    -0.352 N 
ATOM     34  C   UNL A   1      34.059  30.969  27.487  1.00  0.00     0.251 C 
ATOM     35  H   UNL A   1      33.143  30.382  25.804  1.00  0.00     0.163 HD
ATOM     36  O   UNL A   1      33.248  31.834  27.790  1.00  0.00    -0.269 OA
BRANCH  34  37
ATOM     37  C   UNL A   1      35.357  30.900  28.166  1.00  0.00     0.039 A 
ATOM     38  C   UNL A   1      36.319  31.907  28.006  1.00  0.00     0.014 A 
ATOM     39  C   UNL A   1      35.643  29.738  28.875  1.00  0.00     0.014 A 
ATOM     40  C   UNL A   1      37.588  31.718  28.540  1.00  0.00     0.010 A 
ATOM     41  C   UNL A   1      36.810  29.632  29.551  1.00  0.00     0.010 A 
ATOM     42  C   UNL A   1      37.812  30.562  29.278  1.00  0.00    -0.014 A 
BRANCH  42  43
ATOM     43  C   UNL A   1      39.082  30.115  29.790  1.00  0.00     0.031 A 
ATOM     44  C   UNL A   1      39.653  28.885  29.256  1.00  0.00     0.074 A 
ATOM     45  C   UNL A   1      39.769  31.084  30.435  1.00  0.00     0.049 A 
ATOM     46  N   UNL A   1      40.623  28.257  29.808  1.00  0.00    -0.248 NA
ATOM     47  C   UNL A   1      39.160  28.241  28.040  1.00  0.00     0.031 C 
ATOM     48  C   UNL A   1      41.197  31.257  30.628  1.00  0.00     0.029 A 
ATOM     49  N   UNL A   1      39.208  32.184  31.109  1.00  0.00    -0.354 N 
ATOM     50  C   UNL A   1      41.117  27.391  28.860  1.00  0.00     0.074 A 
ATOM     51  C   UNL A   1      40.079  27.285  27.863  1.00  0.00     0.031 C 
ATOM     52  C   UNL A   1      41.387  32.161  31.612  1.00  0.00     0.029 A 
ATOM     53  C   UNL A   1      40.081  32.467  32.177  1.00  0.00     0.049 A 
ATOM     54  H   UNL A   1      38.375  32.658  30.881  1.00  0.00     0.167 HD
ATOM     55  C   UNL A   1      42.432  27.039  28.946  1.00  0.00     0.037 A 
ATOM     56  C   UNL A   1      39.653  32.138  33.437  1.00  0.00     0.037 A 
ATOM     57  C   UNL A   1      43.060  27.748  30.067  1.00  0.00     0.049 A 
ATOM     58  C   UNL A   1      40.397  30.950  34.013  1.00  0.00     0.074 A 
ATOM     59  C   UNL A   1      43.842  28.888  30.171  1.00  0.00     0.029 A 
ATOM     60  N   UNL A   1      42.588  27.503  31.339  1.00  0.00    -0.354 N 
ATOM     61  N   UNL A   1      41.221  30.206  33.328  1.00  0.00    -0.248 NA
ATOM     62  C   UNL A   1      40.248  30.482  35.386  1.00  0.00     0.031 C 
ATOM     63  C   UNL A   1      43.832  29.306  31.540  1.00  0.00     0.029 A 
ATOM     64  C   UNL A   1      43.048  28.419  32.256  1.00  0.00     0.049 A 
ATOM     65  H   UNL A   1      41.990  26.754  31.566  1.00  0.00     0.167 HD
ATOM     66  C   UNL A   1      41.709  29.198  34.108  1.00  0.00     0.074 A 
ATOM     67  C   UNL A   1      41.044  29.396  35.386  1.00  0.00     0.031 C 
ATOM     68  C   UNL A   1      42.606  28.280  33.636  1.00  0.00     0.037 A 
BRANCH  55  69
ATOM     69  C   UNL A   1      43.234  26.274  27.921  1.00  0.00     0.064 A 
ATOM     70  C   UNL A   1      43.308  24.864  27.995  1.00  0.00     0.173 A 
ATOM     71  C   UNL A   1      43.928  26.839  26.833  1.00  0.00     0.173 A 
ATOM     72  F   UNL A   1      42.632  24.173  28.922  1.00  0.00    -0.203 F 
ATOM     73  C   UNL A   1      44.068  24.098  27.109  1.00  0.00     0.198 A 
ATOM     74  C   UNL A   1      44.716  26.074  25.964  1.00  0.00     0.198 A 
ATOM     75  F   UNL A   1      43.825  28.136  26.527  1.00  0.00    -0.203 F 
ATOM     76  F   UNL A   1      44.089  22.764  27.239  1.00  0.00    -0.200 F 
ATOM     77  C   UNL A   1      44.788  24.705  26.105  1.00  0.00     0.200 A 
ATOM     78  F   UNL A   1      45.392  26.678  24.976  1.00  0.00    -0.200 F 
ATOM     79  F   UNL A   1      45.523  23.970  25.260  1.00  0.00    -0.200 F 
ENDBRANCH  55  69
BRANCH  56  80
ATOM     80  C   UNL A   1      38.187  32.436  33.587  1.00  0.00     0.064 A 
ATOM     81  C   UNL A   1      37.825  33.802  33.630  1.00  0.00     0.173 A 
ATOM     82  C   UNL A   1      37.215  31.531  33.132  1.00  0.00     0.173 A 
ATOM     83  F   UNL A   1      38.705  34.710  34.081  1.00  0.00    -0.203 F 
ATOM     84  C   UNL A   1      36.646  34.257  33.043  1.00  0.00     0.198 A 
ATOM     85  C   UNL A   1      36.016  31.991  32.577  1.00  0.00     0.198 A 
ATOM     86  F   UNL A   1      37.482  30.217  33.088  1.00  0.00    -0.203 F 
ATOM     87  F   UNL A   1      36.418  35.574  32.935  1.00  0.00    -0.200 F 
ATOM     88  C   UNL A   1      35.762  33.353  32.478  1.00  0.00     0.200 A 
ATOM     89  F   UNL A   1      35.147  31.117  32.050  1.00  0.00    -0.200 F 
ATOM     90  F   UNL A   1      34.691  33.797  31.805  1.00  0.00    -0.200 F 
ENDBRANCH  56  80
BRANCH  68  91
ATOM     91  C   UNL A   1      43.124  27.122  34.446  1.00  0.00     0.064 A 
ATOM     92  C   UNL A   1      44.484  26.954  34.726  1.00  0.00     0.173 A 
ATOM     93  C   UNL A   1      42.271  26.086  34.901  1.00  0.00     0.173 A 
ATOM     94  F   UNL A   1      45.399  27.801  34.232  1.00  0.00    -0.203 F 
ATOM     95  C   UNL A   1      44.944  25.892  35.507  1.00  0.00     0.198 A 
ATOM     96  C   UNL A   1      42.740  24.993  35.618  1.00  0.00     0.198 A 
ATOM     97  F   UNL A   1      40.947  26.104  34.703  1.00  0.00    -0.203 F 
ATOM     98  F   UNL A   1      46.242  25.822  35.830  1.00  0.00    -0.200 F 
ATOM     99  C   UNL A   1      44.073  24.913  35.952  1.00  0.00     0.200 A 
ATOM    100  F   UNL A   1      41.884  24.033  35.996  1.00  0.00    -0.200 F 
ATOM    101  F   UNL A   1      44.515  23.895  36.701  1.00  0.00    -0.200 F 
ENDBRANCH  68  91
ENDBRANCH  42  43
ENDBRANCH  34  37
ENDBRANCH  32  33
ENDBRANCH  31  32
ENDBRANCH  30  31
ENDBRANCH  29  30
ENDBRANCH   1  29
TORSDOF 17
ENDMDL
MODEL 2
REMARK VINA RESULT:     -12.9      2.402      4.299
REMARK SMILES CCn1nc(C)c(NS(=O)(=O)c2cc(C(=O)NCCCCCCNC(=O)c3ccc(-c4c5nc(c(-c6c(F)c(F)c(F)c(F)c6F)c6ccc([nH]6)c(-c6c(F)c(F)c(F)c(F)c6F)c6nc(c(-c7c(F)c(F)c(F)c(F)c7F)c7ccc4[nH]7)C=C6)C=C5)cc3)cc(F)c2C)c1C
REMARK SMILES IDX 19 1 18 2 17 3 15 4 16 5 14 7 12 8 13 9 93 10 91 11 94 12
REMARK SMILES IDX 90 13 92 14 9 15 10 16 11 17 8 18 7 20 3 21 4 22 95 23 5 24
REMARK SMILES IDX 96 25 6 26 2 27 1 28 20 29 21 30 22 31 23 32 24 33 25 34
REMARK SMILES IDX 26 36 27 37 28 38 89 39 29 40 88 41 30 42 31 43 32 44 82 45
REMARK SMILES IDX 33 46 87 47 81 48 83 49 34 50 86 51 80 52 79 53 35 55 67 56
REMARK SMILES IDX 47 57 66 58 48 59 51 60 65 61 84 62 49 63 50 64 64 66 85 67
REMARK SMILES IDX 52 68 36 69 37 70 45 71 38 72 39 73 43 74 46 75 40 76 41 77
REMARK SMILES IDX 44 78 42 79 68 80 69 81 77 82 70 83 71 84 75 85 78 86 72 87
REMARK SMILES IDX 73 88 76 89 74 90 53 91 54 92 62 93 55 94 56 95 60 96 63 97
REMARK SMILES IDX 57 98 58 99 61 100 59 101
REMARK H PARENT 17 6 8 19 24 35 83 54 51 65
REMARK Flexibility Score: inf
ROOT
ATOM      1  C   UNL A   1      34.905  30.592  28.035  1.00  0.00     0.021 C 
ENDROOT
BRANCH   1   2
ATOM      2  C   UNL A   1      33.841  30.191  27.010  1.00  0.00     0.116 C 
BRANCH   2   3
ATOM      3  N   UNL A   1      32.851  29.334  27.629  1.00  0.00    -0.352 N 
ATOM      4  C   UNL A   1      32.049  28.322  27.175  1.00  0.00     0.251 C 
ATOM      5  O   UNL A   1      31.250  27.847  27.985  1.00  0.00    -0.269 OA
ATOM      6  H   UNL A   1      32.728  29.521  28.587  1.00  0.00     0.163 HD
BRANCH   4   7
ATOM      7  C   UNL A   1      32.112  27.734  25.805  1.00  0.00     0.044 A 
ATOM      8  C   UNL A   1      32.921  26.129  24.136  1.00  0.00     0.094 A 
ATOM      9  C   UNL A   1      33.034  26.787  25.379  1.00  0.00     0.036 A 
ATOM     10  C   UNL A   1      32.015  26.596  23.184  1.00  0.00     0.005 A 
ATOM     11  C   UNL A   1      31.124  27.598  23.598  1.00  0.00     0.128 A 
ATOM     12  C   UNL A   1      31.928  26.135  21.765  1.00  0.00     0.049 C 
ATOM     13  C   UNL A   1      31.140  28.133  24.887  1.00  0.00     0.053 A 
ATOM     14  F   UNL A   1      30.197  28.046  22.740  1.00  0.00    -0.207 F 
BRANCH   8  15
ATOM     15  S   UNL A   1      33.937  24.674  24.003  1.00  0.00     0.262 S 
ATOM     16  O   UNL A   1      35.112  24.903  24.832  1.00  0.00    -0.201 OA
ATOM     17  O   UNL A   1      34.088  24.421  22.589  1.00  0.00    -0.201 OA
BRANCH  15  18
ATOM     18  N   UNL A   1      33.184  23.328  24.632  1.00  0.00    -0.276 N 
ATOM     19  H   UNL A   1      32.394  23.529  25.185  1.00  0.00     0.180 HD
BRANCH  18  20
ATOM     20  C   UNL A   1      33.473  21.969  24.516  1.00  0.00     0.093 A 
ATOM     21  N   UNL A   1      33.156  19.881  23.922  1.00  0.00    -0.268 N 
ATOM     22  N   UNL A   1      34.147  19.814  24.826  1.00  0.00    -0.176 NA
ATOM     23  C   UNL A   1      32.815  21.166  23.599  1.00  0.00     0.060 A 
ATOM     24  C   UNL A   1      34.382  21.091  25.169  1.00  0.00     0.084 A 
ATOM     25  C   UNL A   1      31.890  21.535  22.495  1.00  0.00     0.069 C 
ATOM     26  C   UNL A   1      35.481  21.356  26.128  1.00  0.00     0.071 C 
BRANCH  21  27
ATOM     27  C   UNL A   1      32.499  18.657  23.499  1.00  0.00     0.141 C 
ATOM     28  C   UNL A   1      33.476  17.556  23.135  1.00  0.00     0.029 C 
ENDBRANCH  21  27
ENDBRANCH  18  20
ENDBRANCH  15  18
ENDBRANCH   8  15
ENDBRANCH   4   7
ENDBRANCH   2   3
ENDBRANCH   1   2
BRANCH   1  29
ATOM     29  C   UNL A   1      34.590  31.938  28.703  1.00  0.00     0.002 C 
BRANCH  29  30
ATOM     30  C   UNL A   1      35.163  33.163  27.971  1.00  0.00     0.002 C 
BRANCH  30  31
ATOM     31  C   UNL A   1      34.625  34.521  28.453  1.00  0.00     0.021 C 
BRANCH  31  32
ATOM     32  C   UNL A   1      33.573  34.346  29.523  1.00  0.00     0.116 C 
BRANCH  32  33
ATOM     33  N   UNL A   1      33.880  35.197  30.669  1.00  0.00    -0.352 N 
ATOM     34  C   UNL A   1      34.610  34.893  31.789  1.00  0.00     0.251 C 
ATOM     35  H   UNL A   1      33.516  36.111  30.633  1.00  0.00     0.163 HD
ATOM     36  O   UNL A   1      34.469  35.525  32.827  1.00  0.00    -0.269 OA
BRANCH  34  37
ATOM     37  C   UNL A   1      35.620  33.833  31.699  1.00  0.00     0.039 A 
ATOM     38  C   UNL A   1      35.431  32.590  32.319  1.00  0.00     0.014 A 
ATOM     39  C   UNL A   1      36.823  34.152  31.077  1.00  0.00     0.014 A 
ATOM     40  C   UNL A   1      36.481  31.680  32.338  1.00  0.00     0.010 A 
ATOM     41  C   UNL A   1      37.778  33.204  30.933  1.00  0.00     0.010 A 
ATOM     42  C   UNL A   1      37.648  32.026  31.666  1.00  0.00    -0.014 A 
BRANCH  42  43
ATOM     43  C   UNL A   1      38.887  31.292  31.686  1.00  0.00     0.031 A 
ATOM     44  C   UNL A   1      39.002  30.101  30.853  1.00  0.00     0.074 A 
ATOM     45  C   UNL A   1      39.922  32.003  32.187  1.00  0.00     0.049 A 
ATOM     46  N   UNL A   1      39.934  29.233  30.985  1.00  0.00    -0.248 NA
ATOM     47  C   UNL A   1      38.051  29.777  29.792  1.00  0.00     0.031 C 
ATOM     48  C   UNL A   1      41.347  31.900  31.931  1.00  0.00     0.029 A 
ATOM     49  N   UNL A   1      39.829  33.040  33.133  1.00  0.00    -0.354 N 
ATOM     50  C   UNL A   1      39.935  28.482  29.831  1.00  0.00     0.074 A 
ATOM     51  C   UNL A   1      38.653  28.730  29.216  1.00  0.00     0.031 C 
ATOM     52  C   UNL A   1      42.003  32.568  32.902  1.00  0.00     0.029 A 
ATOM     53  C   UNL A   1      41.014  32.978  33.889  1.00  0.00     0.049 A 
ATOM     54  H   UNL A   1      39.087  33.678  33.242  1.00  0.00     0.167 HD
ATOM     55  C   UNL A   1      41.111  27.909  29.448  1.00  0.00     0.037 A 
ATOM     56  C   UNL A   1      40.913  32.503  35.171  1.00  0.00     0.037 A 
ATOM     57  C   UNL A   1      42.175  28.291  30.384  1.00  0.00     0.049 A 
ATOM     58  C   UNL A   1      41.522  31.125  35.331  1.00  0.00     0.074 A 
ATOM     59  C   UNL A   1      43.177  29.249  30.368  1.00  0.00     0.029 A 
ATOM     60  N   UNL A   1      42.054  27.902  31.702  1.00  0.00    -0.354 N 
ATOM     61  N   UNL A   1      41.933  30.390  34.333  1.00  0.00    -0.248 NA
ATOM     62  C   UNL A   1      41.684  30.448  36.613  1.00  0.00     0.031 C 
ATOM     63  C   UNL A   1      43.655  29.410  31.707  1.00  0.00     0.029 A 
ATOM     64  C   UNL A   1      42.944  28.550  32.526  1.00  0.00     0.049 A 
ATOM     65  H   UNL A   1      41.403  27.234  32.017  1.00  0.00     0.167 HD
ATOM     66  C   UNL A   1      42.401  29.193  34.789  1.00  0.00     0.074 A 
ATOM     67  C   UNL A   1      42.196  29.264  36.227  1.00  0.00     0.031 C 
ATOM     68  C   UNL A   1      42.905  28.239  33.947  1.00  0.00     0.037 A 
BRANCH  55  69
ATOM     69  C   UNL A   1      41.398  27.219  28.136  1.00  0.00     0.064 A 
ATOM     70  C   UNL A   1      41.386  25.808  28.066  1.00  0.00     0.173 A 
ATOM     71  C   UNL A   1      41.664  27.862  26.911  1.00  0.00     0.173 A 
ATOM     72  F   UNL A   1      41.065  25.055  29.126  1.00  0.00    -0.203 F 
ATOM     73  C   UNL A   1      41.686  25.105  26.898  1.00  0.00     0.198 A 
ATOM     74  C   UNL A   1      41.997  27.159  25.748  1.00  0.00     0.198 A 
ATOM     75  F   UNL A   1      41.551  29.188  26.771  1.00  0.00    -0.203 F 
ATOM     76  F   UNL A   1      41.652  23.765  26.905  1.00  0.00    -0.200 F 
ATOM     77  C   UNL A   1      42.011  25.780  25.743  1.00  0.00     0.200 A 
ATOM     78  F   UNL A   1      42.287  27.831  24.625  1.00  0.00    -0.200 F 
ATOM     79  F   UNL A   1      42.307  25.105  24.624  1.00  0.00    -0.200 F 
ENDBRANCH  55  69
BRANCH  56  80
ATOM     80  C   UNL A   1      39.653  33.007  35.819  1.00  0.00     0.064 A 
ATOM     81  C   UNL A   1      38.684  32.032  36.149  1.00  0.00     0.173 A 
ATOM     82  C   UNL A   1      39.652  34.191  36.572  1.00  0.00     0.173 A 
ATOM     83  F   UNL A   1      38.620  30.891  35.444  1.00  0.00    -0.203 F 
ATOM     84  C   UNL A   1      37.911  32.142  37.303  1.00  0.00     0.198 A 
ATOM     85  C   UNL A   1      38.848  34.310  37.711  1.00  0.00     0.198 A 
ATOM     86  F   UNL A   1      40.529  35.168  36.299  1.00  0.00    -0.203 F 
ATOM     87  F   UNL A   1      37.136  31.117  37.688  1.00  0.00    -0.200 F 
ATOM     88  C   UNL A   1      38.027  33.262  38.108  1.00  0.00     0.200 A 
ATOM     89  F   UNL A   1      38.939  35.405  38.480  1.00  0.00    -0.200 F 
ATOM     90  F   UNL A   1      37.379  33.313  39.280  1.00  0.00    -0.200 F 
ENDBRANCH  56  80
BRANCH  68  91
ATOM     91  C   UNL A   1      43.378  26.885  34.403  1.00  0.00     0.064 A 
ATOM     92  C   UNL A   1      44.729  26.520  34.387  1.00  0.00     0.173 A 
ATOM     93  C   UNL A   1      42.472  25.869  34.796  1.00  0.00     0.173 A 
ATOM     94  F   UNL A   1      45.662  27.356  33.908  1.00  0.00    -0.203 F 
ATOM     95  C   UNL A   1      45.153  25.272  34.845  1.00  0.00     0.198 A 
ATOM     96  C   UNL A   1      42.892  24.603  35.184  1.00  0.00     0.198 A 
ATOM     97  F   UNL A   1      41.149  26.067  34.854  1.00  0.00    -0.203 F 
ATOM     98  F   UNL A   1      46.464  24.999  34.901  1.00  0.00    -0.200 F 
ATOM     99  C   UNL A   1      44.236  24.315  35.243  1.00  0.00     0.200 A 
ATOM    100  F   UNL A   1      41.981  23.678  35.518  1.00  0.00    -0.200 F 
ATOM    101  F   UNL A   1      44.646  23.118  35.681  1.00  0.00    -0.200 F 
ENDBRANCH  68  91
ENDBRANCH  42  43
ENDBRANCH  34  37
ENDBRANCH  32  33
ENDBRANCH  31  32
ENDBRANCH  30  31
ENDBRANCH  29  30
ENDBRANCH   1  29
TORSDOF 17
ENDMDL
MODEL 3
REMARK VINA RESULT:     -12.8      2.805      5.104
REMARK SMILES CCn1nc(C)c(NS(=O)(=O)c2cc(C(=O)NCCCCCCNC(=O)c3ccc(-c4c5nc(c(-c6c(F)c(F)c(F)c(F)c6F)c6ccc([nH]6)c(-c6c(F)c(F)c(F)c(F)c6F)c6nc(c(-c7c(F)c(F)c(F)c(F)c7F)c7ccc4[nH]7)C=C6)C=C5)cc3)cc(F)c2C)c1C
REMARK SMILES IDX 19 1 18 2 17 3 15 4 16 5 14 7 12 8 13 9 93 10 91 11 94 12
REMARK SMILES IDX 90 13 92 14 9 15 10 16 11 17 8 18 7 20 3 21 4 22 95 23 5 24
REMARK SMILES IDX 96 25 6 26 2 27 1 28 20 29 21 30 22 31 23 32 24 33 25 34
REMARK SMILES IDX 26 36 27 37 28 38 89 39 29 40 88 41 30 42 31 43 32 44 82 45
REMARK SMILES IDX 33 46 87 47 81 48 83 49 34 50 86 51 80 52 79 53 35 55 67 56
REMARK SMILES IDX 47 57 66 58 48 59 51 60 65 61 84 62 49 63 50 64 64 66 85 67
REMARK SMILES IDX 52 68 36 69 37 70 45 71 38 72 39 73 43 74 46 75 40 76 41 77
REMARK SMILES IDX 44 78 42 79 68 80 69 81 77 82 70 83 71 84 75 85 78 86 72 87
REMARK SMILES IDX 73 88 76 89 74 90 53 91 54 92 62 93 55 94 56 95 60 96 63 97
REMARK SMILES IDX 57 98 58 99 61 100 59 101
REMARK H PARENT 17 6 8 19 24 35 83 54 51 65
REMARK Flexibility Score: inf
ROOT
ATOM      1  C   UNL A   1      34.336  32.465  28.949  1.00  0.00     0.021 C 
ENDROOT
BRANCH   1   2
ATOM      2  C   UNL A   1      34.250  31.723  27.612  1.00  0.00     0.116 C 
BRANCH   2   3
ATOM      3  N   UNL A   1      35.301  30.731  27.524  1.00  0.00    -0.352 N 
ATOM      4  C   UNL A   1      35.323  29.385  27.273  1.00  0.00     0.251 C 
ATOM      5  O   UNL A   1      36.420  28.828  27.349  1.00  0.00    -0.269 OA
ATOM      6  H   UNL A   1      36.197  31.107  27.679  1.00  0.00     0.163 HD
BRANCH   4   7
ATOM      7  C   UNL A   1      34.136  28.574  26.875  1.00  0.00     0.044 A 
ATOM      8  C   UNL A   1      33.015  26.782  25.629  1.00  0.00     0.094 A 
ATOM      9  C   UNL A   1      34.103  27.656  25.832  1.00  0.00     0.036 A 
ATOM     10  C   UNL A   1      31.823  26.986  26.322  1.00  0.00     0.005 A 
ATOM     11  C   UNL A   1      31.839  27.959  27.334  1.00  0.00     0.128 A 
ATOM     12  C   UNL A   1      30.533  26.276  26.065  1.00  0.00     0.049 C 
ATOM     13  C   UNL A   1      32.975  28.712  27.636  1.00  0.00     0.053 A 
ATOM     14  F   UNL A   1      30.735  28.159  28.069  1.00  0.00    -0.207 F 
BRANCH   8  15
ATOM     15  S   UNL A   1      33.382  25.428  24.534  1.00  0.00     0.262 S 
ATOM     16  O   UNL A   1      34.776  25.074  24.753  1.00  0.00    -0.201 OA
ATOM     17  O   UNL A   1      32.938  25.844  23.224  1.00  0.00    -0.201 OA
BRANCH  15  18
ATOM     18  N   UNL A   1      32.496  24.068  24.907  1.00  0.00    -0.276 N 
ATOM     19  H   UNL A   1      31.520  24.200  24.879  1.00  0.00     0.180 HD
BRANCH  18  20
ATOM     20  C   UNL A   1      32.890  22.775  25.252  1.00  0.00     0.093 A 
ATOM     21  N   UNL A   1      32.989  20.588  25.108  1.00  0.00    -0.268 N 
ATOM     22  N   UNL A   1      33.495  20.857  26.323  1.00  0.00    -0.176 NA
ATOM     23  C   UNL A   1      32.743  21.715  24.372  1.00  0.00     0.060 A 
ATOM     24  C   UNL A   1      33.480  22.196  26.410  1.00  0.00     0.084 A 
ATOM     25  C   UNL A   1      32.364  21.711  22.935  1.00  0.00     0.069 C 
ATOM     26  C   UNL A   1      34.039  22.813  27.637  1.00  0.00     0.071 C 
BRANCH  21  27
ATOM     27  C   UNL A   1      32.655  19.217  24.766  1.00  0.00     0.141 C 
ATOM     28  C   UNL A   1      33.843  18.431  24.246  1.00  0.00     0.029 C 
ENDBRANCH  21  27
ENDBRANCH  18  20
ENDBRANCH  15  18
ENDBRANCH   8  15
ENDBRANCH   4   7
ENDBRANCH   2   3
ENDBRANCH   1   2
BRANCH   1  29
ATOM     29  C   UNL A   1      34.826  33.909  28.781  1.00  0.00     0.002 C 
BRANCH  29  30
ATOM     30  C   UNL A   1      33.736  34.909  28.360  1.00  0.00     0.002 C 
BRANCH  30  31
ATOM     31  C   UNL A   1      33.301  35.899  29.453  1.00  0.00     0.021 C 
BRANCH  31  32
ATOM     32  C   UNL A   1      33.133  35.207  30.785  1.00  0.00     0.116 C 
BRANCH  32  33
ATOM     33  N   UNL A   1      33.576  36.085  31.864  1.00  0.00    -0.352 N 
ATOM     34  C   UNL A   1      34.388  35.790  32.928  1.00  0.00     0.251 C 
ATOM     35  H   UNL A   1      33.249  37.013  31.822  1.00  0.00     0.163 HD
ATOM     36  O   UNL A   1      34.365  36.467  33.948  1.00  0.00    -0.269 OA
BRANCH  34  37
ATOM     37  C   UNL A   1      35.339  34.682  32.795  1.00  0.00     0.039 A 
ATOM     38  C   UNL A   1      35.283  33.566  33.642  1.00  0.00     0.014 A 
ATOM     39  C   UNL A   1      36.372  34.837  31.877  1.00  0.00     0.014 A 
ATOM     40  C   UNL A   1      36.300  32.621  33.581  1.00  0.00     0.010 A 
ATOM     41  C   UNL A   1      37.259  33.833  31.686  1.00  0.00     0.010 A 
ATOM     42  C   UNL A   1      37.287  32.798  32.617  1.00  0.00    -0.014 A 
BRANCH  42  43
ATOM     43  C   UNL A   1      38.490  32.017  32.484  1.00  0.00     0.031 A 
ATOM     44  C   UNL A   1      38.434  30.781  31.713  1.00  0.00     0.074 A 
ATOM     45  C   UNL A   1      39.613  32.711  32.774  1.00  0.00     0.049 A 
ATOM     46  N   UNL A   1      39.348  29.884  31.746  1.00  0.00    -0.248 NA
ATOM     47  C   UNL A   1      37.318  30.440  30.835  1.00  0.00     0.031 C 
ATOM     48  C   UNL A   1      40.975  32.539  32.304  1.00  0.00     0.029 A 
ATOM     49  N   UNL A   1      39.704  33.799  33.662  1.00  0.00    -0.354 N 
ATOM     50  C   UNL A   1      39.142  29.076  30.652  1.00  0.00     0.074 A 
ATOM     51  C   UNL A   1      37.787  29.342  30.232  1.00  0.00     0.031 C 
ATOM     52  C   UNL A   1      41.797  33.230  33.120  1.00  0.00     0.029 A 
ATOM     53  C   UNL A   1      40.992  33.729  34.225  1.00  0.00     0.049 A 
ATOM     54  H   UNL A   1      39.008  34.470  33.851  1.00  0.00     0.167 HD
ATOM     55  C   UNL A   1      40.225  28.438  30.122  1.00  0.00     0.037 A 
ATOM     56  C   UNL A   1      41.081  33.325  35.532  1.00  0.00     0.037 A 
ATOM     57  C   UNL A   1      41.435  28.826  30.856  1.00  0.00     0.049 A 
ATOM     58  C   UNL A   1      41.665  31.935  35.673  1.00  0.00     0.074 A 
ATOM     59  C   UNL A   1      42.450  29.740  30.628  1.00  0.00     0.029 A 
ATOM     60  N   UNL A   1      41.513  28.510  32.196  1.00  0.00    -0.354 N 
ATOM     61  N   UNL A   1      41.890  31.134  34.667  1.00  0.00    -0.248 NA
ATOM     62  C   UNL A   1      42.008  31.319  36.950  1.00  0.00     0.031 C 
ATOM     63  C   UNL A   1      43.140  29.952  31.863  1.00  0.00     0.029 A 
ATOM     64  C   UNL A   1      42.543  29.164  32.832  1.00  0.00     0.049 A 
ATOM     65  H   UNL A   1      40.900  27.885  32.648  1.00  0.00     0.167 HD
ATOM     66  C   UNL A   1      42.387  29.944  35.111  1.00  0.00     0.074 A 
ATOM     67  C   UNL A   1      42.415  30.098  36.557  1.00  0.00     0.031 C 
ATOM     68  C   UNL A   1      42.721  28.929  34.256  1.00  0.00     0.037 A 
BRANCH  55  69
ATOM     69  C   UNL A   1      40.277  27.670  28.823  1.00  0.00     0.064 A 
ATOM     70  C   UNL A   1      39.662  26.401  28.730  1.00  0.00     0.173 A 
ATOM     71  C   UNL A   1      40.881  28.115  27.630  1.00  0.00     0.173 A 
ATOM     72  F   UNL A   1      38.973  25.878  29.753  1.00  0.00    -0.203 F 
ATOM     73  C   UNL A   1      39.712  25.618  27.576  1.00  0.00     0.198 A 
ATOM     74  C   UNL A   1      40.959  27.317  26.483  1.00  0.00     0.198 A 
ATOM     75  F   UNL A   1      41.362  29.357  27.503  1.00  0.00    -0.203 F 
ATOM     76  F   UNL A   1      39.102  24.424  27.559  1.00  0.00    -0.200 F 
ATOM     77  C   UNL A   1      40.377  26.068  26.457  1.00  0.00     0.200 A 
ATOM     78  F   UNL A   1      41.590  27.780  25.394  1.00  0.00    -0.200 F 
ATOM     79  F   UNL A   1      40.432  25.313  25.352  1.00  0.00    -0.200 F 
ENDBRANCH  55  69
BRANCH  56  80
ATOM     80  C   UNL A   1      39.956  33.911  36.340  1.00  0.00     0.064 A 
ATOM     81  C   UNL A   1      38.941  33.015  36.745  1.00  0.00     0.173 A 
ATOM     82  C   UNL A   1      40.155  35.053  37.131  1.00  0.00     0.173 A 
ATOM     83  F   UNL A   1      38.689  31.919  36.011  1.00  0.00    -0.203 F 
ATOM     84  C   UNL A   1      38.317  33.140  37.985  1.00  0.00     0.198 A 
ATOM     85  C   UNL A   1      39.498  35.192  38.359  1.00  0.00     0.198 A 
ATOM     86  F   UNL A   1      41.085  35.958  36.794  1.00  0.00    -0.203 F 
ATOM     87  F   UNL A   1      37.495  32.174  38.420  1.00  0.00    -0.200 F 
ATOM     88  C   UNL A   1      38.630  34.206  38.811  1.00  0.00     0.200 A 
ATOM     89  F   UNL A   1      39.780  36.237  39.152  1.00  0.00    -0.200 F 
ATOM     90  F   UNL A   1      38.126  34.261  40.051  1.00  0.00    -0.200 F 
ENDBRANCH  56  80
BRANCH  68  91
ATOM     91  C   UNL A   1      43.218  27.583  34.709  1.00  0.00     0.064 A 
ATOM     92  C   UNL A   1      42.360  26.494  34.899  1.00  0.00     0.173 A 
ATOM     93  C   UNL A   1      44.575  27.362  35.053  1.00  0.00     0.173 A 
ATOM     94  F   UNL A   1      41.035  26.624  34.733  1.00  0.00    -0.203 F 
ATOM     95  C   UNL A   1      42.842  25.242  35.288  1.00  0.00     0.198 A 
ATOM     96  C   UNL A   1      45.040  26.134  35.508  1.00  0.00     0.198 A 
ATOM     97  F   UNL A   1      45.512  28.311  34.932  1.00  0.00    -0.203 F 
ATOM     98  F   UNL A   1      41.999  24.204  35.365  1.00  0.00    -0.200 F 
ATOM     99  C   UNL A   1      44.180  25.063  35.592  1.00  0.00     0.200 A 
ATOM    100  F   UNL A   1      46.331  26.000  35.843  1.00  0.00    -0.200 F 
ATOM    101  F   UNL A   1      44.640  23.863  35.965  1.00  0.00    -0.200 F 
ENDBRANCH  68  91
ENDBRANCH  42  43
ENDBRANCH  34  37
ENDBRANCH  32  33
ENDBRANCH  31  32
ENDBRANCH  30  31
ENDBRANCH  29  30
ENDBRANCH   1  29
TORSDOF 17
ENDMDL
