MODEL 1
REMARK VINA RESULT:     -12.6      0.000      0.000
REMARK SMILES O=C(C[C@H](C(=O)NCCCCCCNC(=O)c1ccc(-c2c3nc(c(-c4c(F)c(F)c(F)c(F)c4F)c4ccc([nH]4)c(-c4c(F)c(F)c(F)c(F)c4F)c4nc(c(-c5c(F)c(F)c(F)c(F)c5F)c5ccc2[nH]5)C=C4)C=C3)cc1)c1ccccc1)Nc1ccc(Cl)cc1Cl
REMARK SMILES IDX 10 1 9 2 8 3 7 4 5 5 6 6 4 8 3 9 2 10 1 11 86 12 87 14 88 15
REMARK SMILES IDX 93 16 89 17 92 18 94 19 90 20 91 21 80 22 81 23 85 24 82 25
REMARK SMILES IDX 84 26 83 27 11 28 12 29 13 30 14 31 15 32 16 34 17 35 18 36
REMARK SMILES IDX 79 37 19 38 78 39 20 40 21 41 22 42 72 43 23 44 77 45 71 46
REMARK SMILES IDX 73 47 24 48 76 49 70 50 69 51 25 53 57 54 37 55 56 56 38 57
REMARK SMILES IDX 41 58 55 59 74 60 39 61 40 62 54 64 75 65 42 66 26 67 27 68
REMARK SMILES IDX 35 69 28 70 29 71 33 72 36 73 30 74 31 75 34 76 32 77 58 78
REMARK SMILES IDX 59 79 67 80 60 81 61 82 65 83 68 84 62 85 63 86 66 87 64 88
REMARK SMILES IDX 43 89 44 90 52 91 45 92 46 93 50 94 53 95 47 96 48 97 51 98
REMARK SMILES IDX 49 99
REMARK H PARENT 7 7 86 13 14 33 73 52 41 63
REMARK Flexibility Score: inf
ROOT
ATOM      1  C   UNL A   1      32.427  30.048  26.823  1.00  0.00     0.002 C 
ENDROOT
BRANCH   1   2
ATOM      2  C   UNL A   1      31.761  28.792  27.402  1.00  0.00     0.021 C 
BRANCH   2   3
ATOM      3  C   UNL A   1      32.403  27.489  26.926  1.00  0.00     0.116 C 
BRANCH   3   4
ATOM      4  N   UNL A   1      31.459  26.394  27.017  1.00  0.00    -0.356 N 
ATOM      5  C   UNL A   1      30.710  25.829  26.025  1.00  0.00     0.228 C 
ATOM      6  O   UNL A   1      29.746  25.139  26.352  1.00  0.00    -0.274 OA
ATOM      7  H   UNL A   1      31.342  26.004  27.913  1.00  0.00     0.163 HD
BRANCH   5   8
ATOM      8  C   UNL A   1      31.108  26.069  24.565  1.00  0.00     0.118 C 
BRANCH   8   9
ATOM      9  C   UNL A   1      31.017  24.774  23.747  1.00  0.00     0.118 C 
BRANCH   9  10
ATOM     10  C   UNL A   1      32.339  24.024  23.667  1.00  0.00     0.225 C 
ATOM     11  O   UNL A   1      32.797  23.654  22.592  1.00  0.00    -0.275 OA
ATOM     12  N   UNL A   1      32.933  23.787  24.897  1.00  0.00    -0.325 N 
ATOM     13  H   UNL A   1      32.414  24.001  25.706  1.00  0.00     0.169 HD
BRANCH  12  14
ATOM     14  C   UNL A   1      34.236  23.260  25.070  1.00  0.00     0.060 A 
ATOM     15  C   UNL A   1      35.258  24.199  25.277  1.00  0.00     0.029 A 
ATOM     16  C   UNL A   1      34.576  21.894  25.012  1.00  0.00     0.066 A 
ATOM     17  C   UNL A   1      36.576  23.785  25.501  1.00  0.00     0.023 A 
ATOM     18  C   UNL A   1      35.896  21.483  25.239  1.00  0.00     0.043 A 
ATOM     19  Cl  UNL A   1      33.491  20.668  24.443  1.00  0.00    -0.082 Cl
ATOM     20  C   UNL A   1      36.884  22.428  25.493  1.00  0.00     0.042 A 
ATOM     21  Cl  UNL A   1      38.506  21.921  25.757  1.00  0.00    -0.084 Cl
ENDBRANCH  12  14
ENDBRANCH   9  10
ENDBRANCH   8   9
BRANCH   8  22
ATOM     22  C   UNL A   1      30.280  27.183  23.934  1.00  0.00    -0.035 A 
ATOM     23  C   UNL A   1      30.878  28.372  23.489  1.00  0.00     0.004 A 
ATOM     24  C   UNL A   1      28.896  27.020  23.754  1.00  0.00     0.004 A 
ATOM     25  C   UNL A   1      30.118  29.355  22.853  1.00  0.00     0.000 A 
ATOM     26  C   UNL A   1      28.140  27.998  23.105  1.00  0.00     0.000 A 
ATOM     27  C   UNL A   1      28.753  29.164  22.652  1.00  0.00     0.000 A 
ENDBRANCH   8  22
ENDBRANCH   5   8
ENDBRANCH   3   4
ENDBRANCH   2   3
ENDBRANCH   1   2
BRANCH   1  28
ATOM     28  C   UNL A   1      31.496  30.947  25.999  1.00  0.00     0.002 C 
BRANCH  28  29
ATOM     29  C   UNL A   1      31.304  32.358  26.558  1.00  0.00     0.021 C 
BRANCH  29  30
ATOM     30  C   UNL A   1      32.502  32.892  27.336  1.00  0.00     0.116 C 
BRANCH  30  31
ATOM     31  N   UNL A   1      32.350  34.301  27.666  1.00  0.00    -0.352 N 
ATOM     32  C   UNL A   1      32.988  35.039  28.627  1.00  0.00     0.251 C 
ATOM     33  H   UNL A   1      31.695  34.794  27.121  1.00  0.00     0.163 HD
ATOM     34  O   UNL A   1      32.587  36.169  28.910  1.00  0.00    -0.269 OA
BRANCH  32  35
ATOM     35  C   UNL A   1      34.150  34.474  29.341  1.00  0.00     0.039 A 
ATOM     36  C   UNL A   1      33.949  33.851  30.575  1.00  0.00     0.014 A 
ATOM     37  C   UNL A   1      35.435  34.569  28.800  1.00  0.00     0.014 A 
ATOM     38  C   UNL A   1      35.031  33.273  31.240  1.00  0.00     0.010 A 
ATOM     39  C   UNL A   1      36.499  33.931  29.430  1.00  0.00     0.010 A 
ATOM     40  C   UNL A   1      36.310  33.281  30.658  1.00  0.00    -0.014 A 
BRANCH  40  41
ATOM     41  C   UNL A   1      37.460  32.618  31.323  1.00  0.00     0.031 A 
ATOM     42  C   UNL A   1      38.149  31.459  30.659  1.00  0.00     0.074 A 
ATOM     43  C   UNL A   1      37.840  33.020  32.550  1.00  0.00     0.049 A 
ATOM     44  N   UNL A   1      39.124  30.708  31.108  1.00  0.00    -0.248 NA
ATOM     45  C   UNL A   1      37.660  31.073  29.325  1.00  0.00     0.031 C 
ATOM     46  C   UNL A   1      37.222  34.104  33.314  1.00  0.00     0.029 A 
ATOM     47  N   UNL A   1      38.834  32.557  33.376  1.00  0.00    -0.354 N 
ATOM     48  C   UNL A   1      39.352  29.757  30.122  1.00  0.00     0.074 A 
ATOM     49  C   UNL A   1      38.381  29.991  29.074  1.00  0.00     0.031 C 
ATOM     50  C   UNL A   1      37.864  34.239  34.486  1.00  0.00     0.029 A 
ATOM     51  C   UNL A   1      38.912  33.227  34.573  1.00  0.00     0.049 A 
ATOM     52  H   UNL A   1      39.434  31.814  33.133  1.00  0.00     0.167 HD
ATOM     53  C   UNL A   1      40.300  28.790  30.084  1.00  0.00     0.037 A 
ATOM     54  C   UNL A   1      39.733  33.040  35.624  1.00  0.00     0.037 A 
ATOM     55  C   UNL A   1      41.281  28.580  31.116  1.00  0.00     0.049 A 
ATOM     56  C   UNL A   1      40.772  31.953  35.559  1.00  0.00     0.074 A 
ATOM     57  C   UNL A   1      42.325  27.672  31.141  1.00  0.00     0.029 A 
ATOM     58  N   UNL A   1      41.338  29.287  32.308  1.00  0.00    -0.354 N 
ATOM     59  N   UNL A   1      41.025  31.107  34.591  1.00  0.00    -0.248 NA
ATOM     60  C   UNL A   1      41.644  31.801  36.732  1.00  0.00     0.031 C 
ATOM     61  C   UNL A   1      42.982  27.794  32.371  1.00  0.00     0.029 A 
ATOM     62  C   UNL A   1      42.382  28.817  33.088  1.00  0.00     0.049 A 
ATOM     63  H   UNL A   1      40.725  30.015  32.563  1.00  0.00     0.167 HD
ATOM     64  C   UNL A   1      42.101  30.344  35.023  1.00  0.00     0.074 A 
ATOM     65  C   UNL A   1      42.463  30.838  36.335  1.00  0.00     0.031 C 
ATOM     66  C   UNL A   1      42.735  29.326  34.389  1.00  0.00     0.037 A 
BRANCH  53  67
ATOM     67  C   UNL A   1      40.324  27.884  28.887  1.00  0.00     0.064 A 
ATOM     68  C   UNL A   1      41.063  28.200  27.737  1.00  0.00     0.173 A 
ATOM     69  C   UNL A   1      39.631  26.663  28.905  1.00  0.00     0.173 A 
ATOM     70  F   UNL A   1      41.734  29.359  27.663  1.00  0.00    -0.203 F 
ATOM     71  C   UNL A   1      41.084  27.342  26.640  1.00  0.00     0.198 A 
ATOM     72  C   UNL A   1      39.680  25.794  27.819  1.00  0.00     0.198 A 
ATOM     73  F   UNL A   1      38.913  26.310  29.982  1.00  0.00    -0.203 F 
ATOM     74  F   UNL A   1      41.757  27.689  25.534  1.00  0.00    -0.200 F 
ATOM     75  C   UNL A   1      40.400  26.138  26.685  1.00  0.00     0.200 A 
ATOM     76  F   UNL A   1      39.029  24.624  27.869  1.00  0.00    -0.200 F 
ATOM     77  F   UNL A   1      40.428  25.309  25.632  1.00  0.00    -0.200 F 
ENDBRANCH  53  67
BRANCH  54  78
ATOM     78  C   UNL A   1      39.623  33.917  36.819  1.00  0.00     0.064 A 
ATOM     79  C   UNL A   1      38.844  33.534  37.920  1.00  0.00     0.173 A 
ATOM     80  C   UNL A   1      40.281  35.153  36.884  1.00  0.00     0.173 A 
ATOM     81  F   UNL A   1      38.179  32.368  37.897  1.00  0.00    -0.203 F 
ATOM     82  C   UNL A   1      38.709  34.364  39.031  1.00  0.00     0.198 A 
ATOM     83  C   UNL A   1      40.169  35.970  38.007  1.00  0.00     0.198 A 
ATOM     84  F   UNL A   1      41.043  35.564  35.860  1.00  0.00    -0.203 F 
ATOM     85  F   UNL A   1      37.919  33.995  40.048  1.00  0.00    -0.200 F 
ATOM     86  C   UNL A   1      39.375  35.579  39.075  1.00  0.00     0.200 A 
ATOM     87  F   UNL A   1      40.827  37.136  38.053  1.00  0.00    -0.200 F 
ATOM     88  F   UNL A   1      39.248  36.377  40.145  1.00  0.00    -0.200 F 
ENDBRANCH  54  78
BRANCH  66  89
ATOM     89  C   UNL A   1      43.908  28.703  35.088  1.00  0.00     0.064 A 
ATOM     90  C   UNL A   1      43.761  27.594  35.933  1.00  0.00     0.173 A 
ATOM     91  C   UNL A   1      45.203  29.201  34.877  1.00  0.00     0.173 A 
ATOM     92  F   UNL A   1      42.541  27.091  36.179  1.00  0.00    -0.203 F 
ATOM     93  C   UNL A   1      44.863  27.022  36.563  1.00  0.00     0.198 A 
ATOM     94  C   UNL A   1      46.307  28.607  35.482  1.00  0.00     0.198 A 
ATOM     95  F   UNL A   1      45.401  30.256  34.073  1.00  0.00    -0.203 F 
ATOM     96  F   UNL A   1      44.693  25.994  37.405  1.00  0.00    -0.200 F 
ATOM     97  C   UNL A   1      46.135  27.523  36.331  1.00  0.00     0.200 A 
ATOM     98  F   UNL A   1      47.538  29.084  35.246  1.00  0.00    -0.200 F 
ATOM     99  F   UNL A   1      47.196  26.966  36.931  1.00  0.00    -0.200 F 
ENDBRANCH  66  89
ENDBRANCH  40  41
ENDBRANCH  32  35
ENDBRANCH  30  31
ENDBRANCH  29  30
ENDBRANCH  28  29
ENDBRANCH   1  28
TORSDOF 17
ENDMDL
MODEL 2
REMARK VINA RESULT:     -12.4      0.875      7.200
REMARK SMILES O=C(C[C@H](C(=O)NCCCCCCNC(=O)c1ccc(-c2c3nc(c(-c4c(F)c(F)c(F)c(F)c4F)c4ccc([nH]4)c(-c4c(F)c(F)c(F)c(F)c4F)c4nc(c(-c5c(F)c(F)c(F)c(F)c5F)c5ccc2[nH]5)C=C4)C=C3)cc1)c1ccccc1)Nc1ccc(Cl)cc1Cl
REMARK SMILES IDX 10 1 9 2 8 3 7 4 5 5 6 6 4 8 3 9 2 10 1 11 86 12 87 14 88 15
REMARK SMILES IDX 93 16 89 17 92 18 94 19 90 20 91 21 80 22 81 23 85 24 82 25
REMARK SMILES IDX 84 26 83 27 11 28 12 29 13 30 14 31 15 32 16 34 17 35 18 36
REMARK SMILES IDX 79 37 19 38 78 39 20 40 21 41 22 42 72 43 23 44 77 45 71 46
REMARK SMILES IDX 73 47 24 48 76 49 70 50 69 51 25 53 57 54 37 55 56 56 38 57
REMARK SMILES IDX 41 58 55 59 74 60 39 61 40 62 54 64 75 65 42 66 26 67 27 68
REMARK SMILES IDX 35 69 28 70 29 71 33 72 36 73 30 74 31 75 34 76 32 77 58 78
REMARK SMILES IDX 59 79 67 80 60 81 61 82 65 83 68 84 62 85 63 86 66 87 64 88
REMARK SMILES IDX 43 89 44 90 52 91 45 92 46 93 50 94 53 95 47 96 48 97 51 98
REMARK SMILES IDX 49 99
REMARK H PARENT 7 7 86 13 14 33 73 52 41 63
REMARK Flexibility Score: inf
ROOT
ATOM      1  C   UNL A   1      32.566  30.039  26.197  1.00  0.00     0.002 C 
ENDROOT
BRANCH   1   2
ATOM      2  C   UNL A   1      32.213  28.889  27.150  1.00  0.00     0.021 C 
BRANCH   2   3
ATOM      3  C   UNL A   1      32.578  27.510  26.602  1.00  0.00     0.116 C 
BRANCH   3   4
ATOM      4  N   UNL A   1      31.515  26.561  26.863  1.00  0.00    -0.356 N 
ATOM      5  C   UNL A   1      30.640  25.997  25.979  1.00  0.00     0.228 C 
ATOM      6  O   UNL A   1      29.623  25.475  26.430  1.00  0.00    -0.274 OA
ATOM      7  H   UNL A   1      31.410  26.285  27.801  1.00  0.00     0.163 HD
BRANCH   5   8
ATOM      8  C   UNL A   1      30.970  26.030  24.483  1.00  0.00     0.118 C 
BRANCH   8   9
ATOM      9  C   UNL A   1      30.692  24.671  23.825  1.00  0.00     0.118 C 
BRANCH   9  10
ATOM     10  C   UNL A   1      31.953  23.848  23.602  1.00  0.00     0.225 C 
ATOM     11  O   UNL A   1      32.541  23.864  22.527  1.00  0.00    -0.275 OA
ATOM     12  N   UNL A   1      32.333  23.084  24.695  1.00  0.00    -0.325 N 
ATOM     13  H   UNL A   1      31.714  23.036  25.458  1.00  0.00     0.169 HD
BRANCH  12  14
ATOM     14  C   UNL A   1      33.552  22.369  24.788  1.00  0.00     0.060 A 
ATOM     15  C   UNL A   1      33.451  20.970  24.740  1.00  0.00     0.029 A 
ATOM     16  C   UNL A   1      34.824  22.949  24.961  1.00  0.00     0.066 A 
ATOM     17  C   UNL A   1      34.597  20.169  24.782  1.00  0.00     0.023 A 
ATOM     18  C   UNL A   1      35.970  22.143  24.999  1.00  0.00     0.043 A 
ATOM     19  Cl  UNL A   1      35.062  24.618  25.363  1.00  0.00    -0.082 Cl
ATOM     20  C   UNL A   1      35.851  20.761  24.899  1.00  0.00     0.042 A 
ATOM     21  Cl  UNL A   1      37.258  19.774  24.961  1.00  0.00    -0.084 Cl
ENDBRANCH  12  14
ENDBRANCH   9  10
ENDBRANCH   8   9
BRANCH   8  22
ATOM     22  C   UNL A   1      30.224  27.154  23.771  1.00  0.00    -0.035 A 
ATOM     23  C   UNL A   1      28.823  27.160  23.688  1.00  0.00     0.004 A 
ATOM     24  C   UNL A   1      30.933  28.232  23.214  1.00  0.00     0.004 A 
ATOM     25  C   UNL A   1      28.152  28.228  23.092  1.00  0.00     0.000 A 
ATOM     26  C   UNL A   1      30.259  29.307  22.632  1.00  0.00     0.000 A 
ATOM     27  C   UNL A   1      28.867  29.305  22.574  1.00  0.00     0.000 A 
ENDBRANCH   8  22
ENDBRANCH   5   8
ENDBRANCH   3   4
ENDBRANCH   2   3
ENDBRANCH   1   2
BRANCH   1  28
ATOM     28  C   UNL A   1      31.372  30.889  25.744  1.00  0.00     0.002 C 
BRANCH  28  29
ATOM     29  C   UNL A   1      31.207  32.215  26.489  1.00  0.00     0.021 C 
BRANCH  29  30
ATOM     30  C   UNL A   1      32.455  32.674  27.235  1.00  0.00     0.116 C 
BRANCH  30  31
ATOM     31  N   UNL A   1      32.396  34.088  27.572  1.00  0.00    -0.352 N 
ATOM     32  C   UNL A   1      33.103  34.783  28.517  1.00  0.00     0.251 C 
ATOM     33  H   UNL A   1      31.758  34.621  27.046  1.00  0.00     0.163 HD
ATOM     34  O   UNL A   1      32.778  35.934  28.813  1.00  0.00    -0.269 OA
BRANCH  32  35
ATOM     35  C   UNL A   1      34.248  34.147  29.197  1.00  0.00     0.039 A 
ATOM     36  C   UNL A   1      34.003  33.173  30.168  1.00  0.00     0.014 A 
ATOM     37  C   UNL A   1      35.560  34.519  28.887  1.00  0.00     0.014 A 
ATOM     38  C   UNL A   1      35.076  32.531  30.788  1.00  0.00     0.010 A 
ATOM     39  C   UNL A   1      36.627  33.829  29.454  1.00  0.00     0.010 A 
ATOM     40  C   UNL A   1      36.397  32.832  30.414  1.00  0.00    -0.014 A 
BRANCH  40  41
ATOM     41  C   UNL A   1      37.548  32.116  31.018  1.00  0.00     0.031 A 
ATOM     42  C   UNL A   1      38.027  32.484  32.394  1.00  0.00     0.074 A 
ATOM     43  C   UNL A   1      38.200  31.181  30.301  1.00  0.00     0.049 A 
ATOM     44  N   UNL A   1      39.054  32.023  33.064  1.00  0.00    -0.248 NA
ATOM     45  C   UNL A   1      37.268  33.528  33.103  1.00  0.00     0.031 C 
ATOM     46  C   UNL A   1      37.856  30.768  28.940  1.00  0.00     0.029 A 
ATOM     47  N   UNL A   1      39.294  30.413  30.614  1.00  0.00    -0.354 N 
ATOM     48  C   UNL A   1      39.072  32.729  34.260  1.00  0.00     0.074 A 
ATOM     49  C   UNL A   1      37.987  33.686  34.204  1.00  0.00     0.031 C 
ATOM     50  C   UNL A   1      38.707  29.807  28.544  1.00  0.00     0.029 A 
ATOM     51  C   UNL A   1      39.677  29.564  29.605  1.00  0.00     0.049 A 
ATOM     52  H   UNL A   1      39.759  30.468  31.481  1.00  0.00     0.167 HD
ATOM     53  C   UNL A   1      39.905  32.579  35.316  1.00  0.00     0.037 A 
ATOM     54  C   UNL A   1      40.703  28.693  29.544  1.00  0.00     0.037 A 
ATOM     55  C   UNL A   1      40.965  31.607  35.379  1.00  0.00     0.049 A 
ATOM     56  C   UNL A   1      41.618  28.551  30.730  1.00  0.00     0.074 A 
ATOM     57  C   UNL A   1      41.821  31.330  36.430  1.00  0.00     0.029 A 
ATOM     58  N   UNL A   1      41.316  30.755  34.342  1.00  0.00    -0.354 N 
ATOM     59  N   UNL A   1      41.582  29.174  31.882  1.00  0.00    -0.248 NA
ATOM     60  C   UNL A   1      42.714  27.580  30.607  1.00  0.00     0.031 C 
ATOM     61  C   UNL A   1      42.723  30.345  36.013  1.00  0.00     0.029 A 
ATOM     62  C   UNL A   1      42.394  29.969  34.720  1.00  0.00     0.049 A 
ATOM     63  H   UNL A   1      40.867  30.714  33.467  1.00  0.00     0.167 HD
ATOM     64  C   UNL A   1      42.626  28.650  32.632  1.00  0.00     0.074 A 
ATOM     65  C   UNL A   1      43.269  27.648  31.808  1.00  0.00     0.031 C 
ATOM     66  C   UNL A   1      43.017  28.969  33.891  1.00  0.00     0.037 A 
BRANCH  53  67
ATOM     67  C   UNL A   1      39.705  33.486  36.497  1.00  0.00     0.064 A 
ATOM     68  C   UNL A   1      40.360  34.723  36.597  1.00  0.00     0.173 A 
ATOM     69  C   UNL A   1      38.813  33.134  37.521  1.00  0.00     0.173 A 
ATOM     70  F   UNL A   1      41.232  35.103  35.650  1.00  0.00    -0.203 F 
ATOM     71  C   UNL A   1      40.154  35.558  37.692  1.00  0.00     0.198 A 
ATOM     72  C   UNL A   1      38.585  33.985  38.599  1.00  0.00     0.198 A 
ATOM     73  F   UNL A   1      38.155  31.965  37.473  1.00  0.00    -0.203 F 
ATOM     74  F   UNL A   1      40.830  36.711  37.790  1.00  0.00    -0.200 F 
ATOM     75  C   UNL A   1      39.261  35.192  38.687  1.00  0.00     0.200 A 
ATOM     76  F   UNL A   1      37.711  33.636  39.553  1.00  0.00    -0.200 F 
ATOM     77  F   UNL A   1      39.056  36.001  39.736  1.00  0.00    -0.200 F 
ENDBRANCH  53  67
BRANCH  54  78
ATOM     78  C   UNL A   1      40.905  27.868  28.324  1.00  0.00     0.064 A 
ATOM     79  C   UNL A   1      40.286  26.617  28.193  1.00  0.00     0.173 A 
ATOM     80  C   UNL A   1      41.724  28.304  27.272  1.00  0.00     0.173 A 
ATOM     81  F   UNL A   1      39.509  26.147  29.181  1.00  0.00    -0.203 F 
ATOM     82  C   UNL A   1      40.497  25.823  27.067  1.00  0.00     0.198 A 
ATOM     83  C   UNL A   1      41.910  27.523  26.134  1.00  0.00     0.198 A 
ATOM     84  F   UNL A   1      42.334  29.496  27.345  1.00  0.00    -0.203 F 
ATOM     85  F   UNL A   1      39.932  24.611  26.990  1.00  0.00    -0.200 F 
ATOM     86  C   UNL A   1      41.304  26.279  26.036  1.00  0.00     0.200 A 
ATOM     87  F   UNL A   1      42.678  27.974  25.133  1.00  0.00    -0.200 F 
ATOM     88  F   UNL A   1      41.504  25.518  24.952  1.00  0.00    -0.200 F 
ENDBRANCH  54  78
BRANCH  66  89
ATOM     89  C   UNL A   1      44.170  28.201  34.469  1.00  0.00     0.064 A 
ATOM     90  C   UNL A   1      45.488  28.670  34.382  1.00  0.00     0.173 A 
ATOM     91  C   UNL A   1      43.945  26.998  35.156  1.00  0.00     0.173 A 
ATOM     92  F   UNL A   1      45.757  29.808  33.722  1.00  0.00    -0.203 F 
ATOM     93  C   UNL A   1      46.543  27.950  34.937  1.00  0.00     0.198 A 
ATOM     94  C   UNL A   1      44.998  26.297  35.737  1.00  0.00     0.198 A 
ATOM     95  F   UNL A   1      42.702  26.508  35.275  1.00  0.00    -0.203 F 
ATOM     96  F   UNL A   1      47.800  28.393  34.797  1.00  0.00    -0.200 F 
ATOM     97  C   UNL A   1      46.296  26.770  35.620  1.00  0.00     0.200 A 
ATOM     98  F   UNL A   1      44.756  25.163  36.410  1.00  0.00    -0.200 F 
ATOM     99  F   UNL A   1      47.312  26.082  36.161  1.00  0.00    -0.200 F 
ENDBRANCH  66  89
ENDBRANCH  40  41
ENDBRANCH  32  35
ENDBRANCH  30  31
ENDBRANCH  29  30
ENDBRANCH  28  29
ENDBRANCH   1  28
TORSDOF 17
ENDMDL
MODEL 3
REMARK VINA RESULT:     -12.4      5.542     11.105
REMARK SMILES O=C(C[C@H](C(=O)NCCCCCCNC(=O)c1ccc(-c2c3nc(c(-c4c(F)c(F)c(F)c(F)c4F)c4ccc([nH]4)c(-c4c(F)c(F)c(F)c(F)c4F)c4nc(c(-c5c(F)c(F)c(F)c(F)c5F)c5ccc2[nH]5)C=C4)C=C3)cc1)c1ccccc1)Nc1ccc(Cl)cc1Cl
REMARK SMILES IDX 10 1 9 2 8 3 7 4 5 5 6 6 4 8 3 9 2 10 1 11 86 12 87 14 88 15
REMARK SMILES IDX 93 16 89 17 92 18 94 19 90 20 91 21 80 22 81 23 85 24 82 25
REMARK SMILES IDX 84 26 83 27 11 28 12 29 13 30 14 31 15 32 16 34 17 35 18 36
REMARK SMILES IDX 79 37 19 38 78 39 20 40 21 41 22 42 72 43 23 44 77 45 71 46
REMARK SMILES IDX 73 47 24 48 76 49 70 50 69 51 25 53 57 54 37 55 56 56 38 57
REMARK SMILES IDX 41 58 55 59 74 60 39 61 40 62 54 64 75 65 42 66 26 67 27 68
REMARK SMILES IDX 35 69 28 70 29 71 33 72 36 73 30 74 31 75 34 76 32 77 58 78
REMARK SMILES IDX 59 79 67 80 60 81 61 82 65 83 68 84 62 85 63 86 66 87 64 88
REMARK SMILES IDX 43 89 44 90 52 91 45 92 46 93 50 94 53 95 47 96 48 97 51 98
REMARK SMILES IDX 49 99
REMARK H PARENT 7 7 86 13 14 33 73 52 41 63
REMARK Flexibility Score: inf
ROOT
ATOM      1  C   UNL A   1      37.317  22.086  24.601  1.00  0.00     0.002 C 
ENDROOT
BRANCH   1   2
ATOM      2  C   UNL A   1      37.015  23.070  25.740  1.00  0.00     0.021 C 
BRANCH   2   3
ATOM      3  C   UNL A   1      35.673  23.786  25.586  1.00  0.00     0.116 C 
BRANCH   3   4
ATOM      4  N   UNL A   1      35.321  23.910  24.187  1.00  0.00    -0.356 N 
ATOM      5  C   UNL A   1      34.250  23.378  23.526  1.00  0.00     0.228 C 
ATOM      6  O   UNL A   1      34.298  23.327  22.299  1.00  0.00    -0.274 OA
ATOM      7  H   UNL A   1      35.933  24.451  23.639  1.00  0.00     0.163 HD
BRANCH   5   8
ATOM      8  C   UNL A   1      33.047  22.884  24.338  1.00  0.00     0.118 C 
BRANCH   8   9
ATOM      9  C   UNL A   1      31.777  23.666  23.974  1.00  0.00     0.118 C 
BRANCH   9  10
ATOM     10  C   UNL A   1      31.630  24.962  24.758  1.00  0.00     0.225 C 
ATOM     11  O   UNL A   1      30.821  25.064  25.673  1.00  0.00    -0.275 OA
ATOM     12  N   UNL A   1      32.457  25.986  24.322  1.00  0.00    -0.325 N 
ATOM     13  H   UNL A   1      32.966  25.844  23.492  1.00  0.00     0.169 HD
BRANCH  12  14
ATOM     14  C   UNL A   1      32.622  27.224  24.992  1.00  0.00     0.060 A 
ATOM     15  C   UNL A   1      33.637  27.270  25.961  1.00  0.00     0.029 A 
ATOM     16  C   UNL A   1      31.832  28.371  24.787  1.00  0.00     0.066 A 
ATOM     17  C   UNL A   1      33.912  28.454  26.652  1.00  0.00     0.023 A 
ATOM     18  C   UNL A   1      32.112  29.557  25.479  1.00  0.00     0.043 A 
ATOM     19  Cl  UNL A   1      30.356  28.360  23.877  1.00  0.00    -0.082 Cl
ATOM     20  C   UNL A   1      33.156  29.595  26.398  1.00  0.00     0.042 A 
ATOM     21  Cl  UNL A   1      33.488  31.047  27.257  1.00  0.00    -0.084 Cl
ENDBRANCH  12  14
ENDBRANCH   9  10
ENDBRANCH   8   9
BRANCH   8  22
ATOM     22  C   UNL A   1      32.841  21.382  24.174  1.00  0.00    -0.035 A 
ATOM     23  C   UNL A   1      32.275  20.848  23.006  1.00  0.00     0.004 A 
ATOM     24  C   UNL A   1      33.253  20.497  25.185  1.00  0.00     0.004 A 
ATOM     25  C   UNL A   1      32.154  19.468  22.843  1.00  0.00     0.000 A 
ATOM     26  C   UNL A   1      33.143  19.116  25.013  1.00  0.00     0.000 A 
ATOM     27  C   UNL A   1      32.596  18.602  23.840  1.00  0.00     0.000 A 
ENDBRANCH   8  22
ENDBRANCH   5   8
ENDBRANCH   3   4
ENDBRANCH   2   3
ENDBRANCH   1   2
BRANCH   1  28
ATOM     28  C   UNL A   1      36.869  20.643  24.862  1.00  0.00     0.002 C 
BRANCH  28  29
ATOM     29  C   UNL A   1      38.008  19.630  24.994  1.00  0.00     0.021 C 
BRANCH  29  30
ATOM     30  C   UNL A   1      39.210  20.138  25.782  1.00  0.00     0.116 C 
BRANCH  30  31
ATOM     31  N   UNL A   1      40.240  19.120  25.915  1.00  0.00    -0.352 N 
ATOM     32  C   UNL A   1      41.593  19.272  26.068  1.00  0.00     0.251 C 
ATOM     33  H   UNL A   1      39.921  18.189  25.891  1.00  0.00     0.163 HD
ATOM     34  O   UNL A   1      42.343  18.302  25.954  1.00  0.00    -0.269 OA
BRANCH  32  35
ATOM     35  C   UNL A   1      42.158  20.605  26.354  1.00  0.00     0.039 A 
ATOM     36  C   UNL A   1      42.573  21.407  25.289  1.00  0.00     0.014 A 
ATOM     37  C   UNL A   1      42.288  21.058  27.670  1.00  0.00     0.014 A 
ATOM     38  C   UNL A   1      43.068  22.688  25.541  1.00  0.00     0.010 A 
ATOM     39  C   UNL A   1      42.714  22.360  27.915  1.00  0.00     0.010 A 
ATOM     40  C   UNL A   1      43.113  23.187  26.854  1.00  0.00    -0.014 A 
BRANCH  40  41
ATOM     41  C   UNL A   1      43.579  24.568  27.135  1.00  0.00     0.031 A 
ATOM     42  C   UNL A   1      42.612  25.601  27.641  1.00  0.00     0.074 A 
ATOM     43  C   UNL A   1      44.856  24.905  26.874  1.00  0.00     0.049 A 
ATOM     44  N   UNL A   1      42.811  26.874  27.879  1.00  0.00    -0.248 NA
ATOM     45  C   UNL A   1      41.231  25.153  27.884  1.00  0.00     0.031 C 
ATOM     46  C   UNL A   1      45.876  24.001  26.340  1.00  0.00     0.029 A 
ATOM     47  N   UNL A   1      45.513  26.102  27.013  1.00  0.00    -0.354 N 
ATOM     48  C   UNL A   1      41.582  27.378  28.285  1.00  0.00     0.074 A 
ATOM     49  C   UNL A   1      40.631  26.289  28.210  1.00  0.00     0.031 C 
ATOM     50  C   UNL A   1      47.035  24.669  26.219  1.00  0.00     0.029 A 
ATOM     51  C   UNL A   1      46.831  26.054  26.629  1.00  0.00     0.049 A 
ATOM     52  H   UNL A   1      45.079  26.917  27.355  1.00  0.00     0.167 HD
ATOM     53  C   UNL A   1      41.279  28.630  28.702  1.00  0.00     0.037 A 
ATOM     54  C   UNL A   1      47.766  27.024  26.603  1.00  0.00     0.037 A 
ATOM     55  C   UNL A   1      42.234  29.702  28.802  1.00  0.00     0.049 A 
ATOM     56  C   UNL A   1      47.400  28.408  27.065  1.00  0.00     0.074 A 
ATOM     57  C   UNL A   1      42.041  30.988  29.276  1.00  0.00     0.029 A 
ATOM     58  N   UNL A   1      43.564  29.614  28.416  1.00  0.00    -0.354 N 
ATOM     59  N   UNL A   1      46.253  28.855  27.514  1.00  0.00    -0.248 NA
ATOM     60  C   UNL A   1      48.463  29.422  27.021  1.00  0.00     0.031 C 
ATOM     61  C   UNL A   1      43.241  31.693  29.130  1.00  0.00     0.029 A 
ATOM     62  C   UNL A   1      44.196  30.830  28.617  1.00  0.00     0.049 A 
ATOM     63  H   UNL A   1      43.994  28.806  28.052  1.00  0.00     0.167 HD
ATOM     64  C   UNL A   1      46.462  30.189  27.835  1.00  0.00     0.074 A 
ATOM     65  C   UNL A   1      47.851  30.476  27.543  1.00  0.00     0.031 C 
ATOM     66  C   UNL A   1      45.583  31.096  28.329  1.00  0.00     0.037 A 
BRANCH  53  67
ATOM     67  C   UNL A   1      39.854  28.911  29.085  1.00  0.00     0.064 A 
ATOM     68  C   UNL A   1      38.913  29.363  28.147  1.00  0.00     0.173 A 
ATOM     69  C   UNL A   1      39.413  28.686  30.398  1.00  0.00     0.173 A 
ATOM     70  F   UNL A   1      39.285  29.605  26.881  1.00  0.00    -0.203 F 
ATOM     71  C   UNL A   1      37.593  29.608  28.515  1.00  0.00     0.198 A 
ATOM     72  C   UNL A   1      38.084  28.901  30.755  1.00  0.00     0.198 A 
ATOM     73  F   UNL A   1      40.269  28.248  31.333  1.00  0.00    -0.203 F 
ATOM     74  F   UNL A   1      36.725  30.087  27.613  1.00  0.00    -0.200 F 
ATOM     75  C   UNL A   1      37.178  29.369  29.816  1.00  0.00     0.200 A 
ATOM     76  F   UNL A   1      37.682  28.656  32.010  1.00  0.00    -0.200 F 
ATOM     77  F   UNL A   1      35.905  29.596  30.168  1.00  0.00    -0.200 F 
ENDBRANCH  53  67
BRANCH  54  78
ATOM     78  C   UNL A   1      49.146  26.714  26.146  1.00  0.00     0.064 A 
ATOM     79  C   UNL A   1      49.533  26.953  24.820  1.00  0.00     0.173 A 
ATOM     80  C   UNL A   1      50.100  26.166  27.015  1.00  0.00     0.173 A 
ATOM     81  F   UNL A   1      48.649  27.458  23.945  1.00  0.00    -0.203 F 
ATOM     82  C   UNL A   1      50.814  26.635  24.375  1.00  0.00     0.198 A 
ATOM     83  C   UNL A   1      51.390  25.876  26.577  1.00  0.00     0.198 A 
ATOM     84  F   UNL A   1      49.782  25.923  28.296  1.00  0.00    -0.203 F 
ATOM     85  F   UNL A   1      51.142  26.829  23.090  1.00  0.00    -0.200 F 
ATOM     86  C   UNL A   1      51.743  26.102  25.255  1.00  0.00     0.200 A 
ATOM     87  F   UNL A   1      52.290  25.375  27.434  1.00  0.00    -0.200 F 
ATOM     88  F   UNL A   1      52.977  25.799  24.828  1.00  0.00    -0.200 F 
ENDBRANCH  54  78
BRANCH  66  89
ATOM     89  C   UNL A   1      46.105  32.473  28.622  1.00  0.00     0.064 A 
ATOM     90  C   UNL A   1      46.056  33.499  27.668  1.00  0.00     0.173 A 
ATOM     91  C   UNL A   1      46.626  32.777  29.889  1.00  0.00     0.173 A 
ATOM     92  F   UNL A   1      45.582  33.254  26.437  1.00  0.00    -0.203 F 
ATOM     93  C   UNL A   1      46.534  34.774  27.963  1.00  0.00     0.198 A 
ATOM     94  C   UNL A   1      47.073  34.060  30.191  1.00  0.00     0.198 A 
ATOM     95  F   UNL A   1      46.690  31.834  30.840  1.00  0.00    -0.203 F 
ATOM     96  F   UNL A   1      46.523  35.726  27.020  1.00  0.00    -0.200 F 
ATOM     97  C   UNL A   1      47.034  35.055  29.225  1.00  0.00     0.200 A 
ATOM     98  F   UNL A   1      47.543  34.335  31.416  1.00  0.00    -0.200 F 
ATOM     99  F   UNL A   1      47.485  36.284  29.510  1.00  0.00    -0.200 F 
ENDBRANCH  66  89
ENDBRANCH  40  41
ENDBRANCH  32  35
ENDBRANCH  30  31
ENDBRANCH  29  30
ENDBRANCH  28  29
ENDBRANCH   1  28
TORSDOF 17
ENDMDL
