MODEL 1
REMARK VINA RESULT:     -11.9      0.000      0.000
REMARK SMILES C[C@]1(CNC(=O)N2CCOC[C@H]2C(=O)NCCCCCCNC(=O)c2ccc(-c3c4nc(c(-c5c(F)c(F)c(F)c(F)c5F)c5ccc([nH]5)c(-c5c(F)c(F)c(F)c(F)c5F)c5nc(c(-c6c(F)c(F)c(F)c(F)c6F)c6ccc3[nH]6)C=C5)C=C4)cc2)CCCO1
REMARK SMILES IDX 18 1 17 2 16 3 15 4 13 5 14 6 12 8 7 9 8 10 9 11 11 12 10 13
REMARK SMILES IDX 5 14 4 15 6 17 3 18 2 19 1 20 88 21 91 22 89 23 90 24 19 25
REMARK SMILES IDX 20 26 21 27 22 28 23 29 24 31 25 32 26 33 87 34 27 35 86 36
REMARK SMILES IDX 28 37 29 38 30 39 80 40 31 41 85 42 79 43 81 44 32 45 84 46
REMARK SMILES IDX 78 47 77 48 33 50 65 51 45 52 64 53 46 54 49 55 63 56 82 57
REMARK SMILES IDX 47 58 48 59 62 61 83 62 50 63 34 64 35 65 43 66 36 67 37 68
REMARK SMILES IDX 41 69 44 70 38 71 39 72 42 73 40 74 66 75 67 76 75 77 68 78
REMARK SMILES IDX 69 79 73 80 76 81 70 82 71 83 74 84 72 85 51 86 52 87 60 88
REMARK SMILES IDX 53 89 54 90 58 91 61 92 55 93 56 94 59 95 57 96
REMARK H PARENT 15 7 4 16 22 30 81 49 49 60
REMARK Flexibility Score: inf
ROOT
ATOM      1  C   UNL A   1      37.273  21.438  24.368  1.00  0.00     0.002 C 
ENDROOT
BRANCH   1   2
ATOM      2  C   UNL A   1      36.165  22.473  24.578  1.00  0.00     0.021 C 
BRANCH   2   3
ATOM      3  C   UNL A   1      36.298  23.276  25.877  1.00  0.00     0.116 C 
BRANCH   3   4
ATOM      4  N   UNL A   1      35.316  22.874  26.868  1.00  0.00    -0.354 N 
ATOM      5  C   UNL A   1      33.962  22.924  26.960  1.00  0.00     0.245 C 
ATOM      6  O   UNL A   1      33.504  22.375  27.973  1.00  0.00    -0.273 OA
ATOM      7  H   UNL A   1      35.732  22.469  27.664  1.00  0.00     0.163 HD
BRANCH   5   8
ATOM      8  C   UNL A   1      32.992  23.605  25.952  1.00  0.00     0.202 C 
ATOM      9  N   UNL A   1      31.969  22.747  25.313  1.00  0.00    -0.308 N 
ATOM     10  C   UNL A   1      30.769  22.600  26.110  1.00  0.00     0.151 C 
ATOM     11  C   UNL A   1      30.185  23.971  26.443  1.00  0.00     0.182 C 
ATOM     12  C   UNL A   1      32.375  24.932  26.423  1.00  0.00     0.195 C 
ATOM     13  O   UNL A   1      31.134  24.794  27.136  1.00  0.00    -0.377 OA
BRANCH   9  14
ATOM     14  C   UNL A   1      32.277  22.134  24.141  1.00  0.00     0.318 C 
ATOM     15  N   UNL A   1      32.823  20.908  24.073  1.00  0.00    -0.335 N 
ATOM     16  H   UNL A   1      33.245  20.755  23.197  1.00  0.00     0.165 HD
ATOM     17  O   UNL A   1      32.032  22.654  23.052  1.00  0.00    -0.249 OA
BRANCH  15  18
ATOM     18  C   UNL A   1      32.963  19.741  24.939  1.00  0.00     0.152 C 
BRANCH  18  19
ATOM     19  C   UNL A   1      32.935  18.372  24.218  1.00  0.00     0.083 C 
ATOM     20  C   UNL A   1      32.245  18.476  22.855  1.00  0.00     0.044 C 
ATOM     21  C   UNL A   1      34.305  17.703  24.109  1.00  0.00     0.039 C 
ATOM     22  O   UNL A   1      32.123  17.472  25.016  1.00  0.00    -0.373 OA
ATOM     23  C   UNL A   1      33.967  16.233  24.206  1.00  0.00     0.031 C 
ATOM     24  C   UNL A   1      32.837  16.243  25.209  1.00  0.00     0.161 C 
ENDBRANCH  18  19
ENDBRANCH  15  18
ENDBRANCH   9  14
ENDBRANCH   5   8
ENDBRANCH   3   4
ENDBRANCH   2   3
ENDBRANCH   1   2
BRANCH   1  25
ATOM     25  C   UNL A   1      36.926  20.014  24.820  1.00  0.00     0.002 C 
BRANCH  25  26
ATOM     26  C   UNL A   1      38.115  19.111  25.162  1.00  0.00     0.021 C 
BRANCH  26  27
ATOM     27  C   UNL A   1      39.284  19.800  25.865  1.00  0.00     0.116 C 
BRANCH  27  28
ATOM     28  N   UNL A   1      40.462  18.950  25.939  1.00  0.00    -0.352 N 
ATOM     29  C   UNL A   1      41.788  19.274  26.053  1.00  0.00     0.251 C 
ATOM     30  H   UNL A   1      40.275  17.984  25.901  1.00  0.00     0.163 HD
ATOM     31  O   UNL A   1      42.644  18.408  25.890  1.00  0.00    -0.269 OA
BRANCH  29  32
ATOM     32  C   UNL A   1      42.207  20.658  26.363  1.00  0.00     0.039 A 
ATOM     33  C   UNL A   1      42.358  21.028  27.703  1.00  0.00     0.014 A 
ATOM     34  C   UNL A   1      42.391  21.605  25.352  1.00  0.00     0.014 A 
ATOM     35  C   UNL A   1      42.743  22.331  28.027  1.00  0.00     0.010 A 
ATOM     36  C   UNL A   1      42.831  22.889  25.674  1.00  0.00     0.010 A 
ATOM     37  C   UNL A   1      43.007  23.265  27.013  1.00  0.00    -0.014 A 
BRANCH  37  38
ATOM     38  C   UNL A   1      43.471  24.638  27.342  1.00  0.00     0.031 A 
ATOM     39  C   UNL A   1      42.508  25.655  27.891  1.00  0.00     0.074 A 
ATOM     40  C   UNL A   1      44.749  24.982  27.092  1.00  0.00     0.049 A 
ATOM     41  N   UNL A   1      42.716  26.913  28.189  1.00  0.00    -0.248 NA
ATOM     42  C   UNL A   1      41.125  25.208  28.111  1.00  0.00     0.031 C 
ATOM     43  C   UNL A   1      45.765  24.098  26.518  1.00  0.00     0.029 A 
ATOM     44  N   UNL A   1      45.410  26.170  27.278  1.00  0.00    -0.354 N 
ATOM     45  C   UNL A   1      41.490  27.410  28.610  1.00  0.00     0.074 A 
ATOM     46  C   UNL A   1      40.533  26.330  28.495  1.00  0.00     0.031 C 
ATOM     47  C   UNL A   1      46.924  24.768  26.417  1.00  0.00     0.029 A 
ATOM     48  C   UNL A   1      46.727  26.135  26.889  1.00  0.00     0.049 A 
ATOM     49  H   UNL A   1      44.981  26.973  27.654  1.00  0.00     0.167 HD
ATOM     50  C   UNL A   1      41.195  28.651  29.066  1.00  0.00     0.037 A 
ATOM     51  C   UNL A   1      47.666  27.099  26.907  1.00  0.00     0.037 A 
ATOM     52  C   UNL A   1      42.157  29.709  29.222  1.00  0.00     0.049 A 
ATOM     53  C   UNL A   1      47.309  28.463  27.434  1.00  0.00     0.074 A 
ATOM     54  C   UNL A   1      41.973  30.970  29.763  1.00  0.00     0.029 A 
ATOM     55  N   UNL A   1      43.486  29.630  28.837  1.00  0.00    -0.354 N 
ATOM     56  N   UNL A   1      46.167  28.894  27.908  1.00  0.00    -0.248 NA
ATOM     57  C   UNL A   1      48.378  29.472  27.432  1.00  0.00     0.031 C 
ATOM     58  C   UNL A   1      43.181  31.669  29.666  1.00  0.00     0.029 A 
ATOM     59  C   UNL A   1      44.128  30.829  29.105  1.00  0.00     0.049 A 
ATOM     60  H   UNL A   1      43.912  28.839  28.434  1.00  0.00     0.167 HD
ATOM     61  C   UNL A   1      46.386  30.211  28.289  1.00  0.00     0.074 A 
ATOM     62  C   UNL A   1      47.774  30.503  28.005  1.00  0.00     0.031 C 
ATOM     63  C   UNL A   1      45.514  31.098  28.826  1.00  0.00     0.037 A 
BRANCH  50  64
ATOM     64  C   UNL A   1      39.770  28.939  29.442  1.00  0.00     0.064 A 
ATOM     65  C   UNL A   1      38.839  29.397  28.498  1.00  0.00     0.173 A 
ATOM     66  C   UNL A   1      39.316  28.690  30.746  1.00  0.00     0.173 A 
ATOM     67  F   UNL A   1      39.225  29.657  27.240  1.00  0.00    -0.203 F 
ATOM     68  C   UNL A   1      37.509  29.610  28.850  1.00  0.00     0.198 A 
ATOM     69  C   UNL A   1      37.980  28.881  31.088  1.00  0.00     0.198 A 
ATOM     70  F   UNL A   1      40.166  28.247  31.684  1.00  0.00    -0.203 F 
ATOM     71  F   UNL A   1      36.644  30.078  27.941  1.00  0.00    -0.200 F 
ATOM     72  C   UNL A   1      37.079  29.344  30.142  1.00  0.00     0.200 A 
ATOM     73  F   UNL A   1      37.565  28.613  32.333  1.00  0.00    -0.200 F 
ATOM     74  F   UNL A   1      35.795  29.538  30.476  1.00  0.00    -0.200 F 
ENDBRANCH  50  64
BRANCH  51  75
ATOM     75  C   UNL A   1      49.045  26.808  26.436  1.00  0.00     0.064 A 
ATOM     76  C   UNL A   1      49.396  26.985  25.090  1.00  0.00     0.173 A 
ATOM     77  C   UNL A   1      50.029  26.322  27.308  1.00  0.00     0.173 A 
ATOM     78  F   UNL A   1      48.481  27.427  24.213  1.00  0.00    -0.203 F 
ATOM     79  C   UNL A   1      50.670  26.664  24.629  1.00  0.00     0.198 A 
ATOM     80  C   UNL A   1      51.312  26.027  26.851  1.00  0.00     0.198 A 
ATOM     81  F   UNL A   1      49.746  26.138  28.606  1.00  0.00    -0.203 F 
ATOM     82  F   UNL A   1      50.962  26.793  23.327  1.00  0.00    -0.200 F 
ATOM     83  C   UNL A   1      51.628  26.188  25.512  1.00  0.00     0.200 A 
ATOM     84  F   UNL A   1      52.239  25.579  27.709  1.00  0.00    -0.200 F 
ATOM     85  F   UNL A   1      52.853  25.875  25.068  1.00  0.00    -0.200 F 
ENDBRANCH  51  75
BRANCH  63  86
ATOM     86  C   UNL A   1      46.046  32.458  29.173  1.00  0.00     0.064 A 
ATOM     87  C   UNL A   1      45.995  33.520  28.260  1.00  0.00     0.173 A 
ATOM     88  C   UNL A   1      46.588  32.705  30.443  1.00  0.00     0.173 A 
ATOM     89  F   UNL A   1      45.501  33.329  27.027  1.00  0.00    -0.203 F 
ATOM     90  C   UNL A   1      46.490  34.777  28.598  1.00  0.00     0.198 A 
ATOM     91  C   UNL A   1      47.057  33.970  30.787  1.00  0.00     0.198 A 
ATOM     92  F   UNL A   1      46.655  31.722  31.353  1.00  0.00    -0.203 F 
ATOM     93  F   UNL A   1      46.475  35.766  27.693  1.00  0.00    -0.200 F 
ATOM     94  C   UNL A   1      47.013  35.003  29.862  1.00  0.00     0.200 A 
ATOM     95  F   UNL A   1      47.552  34.189  32.012  1.00  0.00    -0.200 F 
ATOM     96  F   UNL A   1      47.487  36.213  30.186  1.00  0.00    -0.200 F 
ENDBRANCH  63  86
ENDBRANCH  37  38
ENDBRANCH  29  32
ENDBRANCH  27  28
ENDBRANCH  26  27
ENDBRANCH  25  26
ENDBRANCH   1  25
TORSDOF 16
ENDMDL
MODEL 2
REMARK VINA RESULT:     -11.8      0.740      7.154
REMARK SMILES C[C@]1(CNC(=O)N2CCOC[C@H]2C(=O)NCCCCCCNC(=O)c2ccc(-c3c4nc(c(-c5c(F)c(F)c(F)c(F)c5F)c5ccc([nH]5)c(-c5c(F)c(F)c(F)c(F)c5F)c5nc(c(-c6c(F)c(F)c(F)c(F)c6F)c6ccc3[nH]6)C=C5)C=C4)cc2)CCCO1
REMARK SMILES IDX 18 1 17 2 16 3 15 4 13 5 14 6 12 8 7 9 8 10 9 11 11 12 10 13
REMARK SMILES IDX 5 14 4 15 6 17 3 18 2 19 1 20 88 21 91 22 89 23 90 24 19 25
REMARK SMILES IDX 20 26 21 27 22 28 23 29 24 31 25 32 26 33 87 34 27 35 86 36
REMARK SMILES IDX 28 37 29 38 30 39 80 40 31 41 85 42 79 43 81 44 32 45 84 46
REMARK SMILES IDX 78 47 77 48 33 50 65 51 45 52 64 53 46 54 49 55 63 56 82 57
REMARK SMILES IDX 47 58 48 59 62 61 83 62 50 63 34 64 35 65 43 66 36 67 37 68
REMARK SMILES IDX 41 69 44 70 38 71 39 72 42 73 40 74 66 75 67 76 75 77 68 78
REMARK SMILES IDX 69 79 73 80 76 81 70 82 71 83 74 84 72 85 51 86 52 87 60 88
REMARK SMILES IDX 53 89 54 90 58 91 61 92 55 93 56 94 59 95 57 96
REMARK H PARENT 15 7 4 16 22 30 81 49 49 60
REMARK Flexibility Score: inf
ROOT
ATOM      1  C   UNL A   1      37.779  21.852  24.886  1.00  0.00     0.002 C 
ENDROOT
BRANCH   1   2
ATOM      2  C   UNL A   1      36.673  22.904  24.785  1.00  0.00     0.021 C 
BRANCH   2   3
ATOM      3  C   UNL A   1      36.385  23.637  26.100  1.00  0.00     0.116 C 
BRANCH   3   4
ATOM      4  N   UNL A   1      35.384  22.953  26.898  1.00  0.00    -0.354 N 
ATOM      5  C   UNL A   1      34.035  22.801  26.830  1.00  0.00     0.245 C 
ATOM      6  O   UNL A   1      33.569  22.042  27.692  1.00  0.00    -0.273 OA
ATOM      7  H   UNL A   1      35.775  22.488  27.673  1.00  0.00     0.163 HD
BRANCH   5   8
ATOM      8  C   UNL A   1      33.077  23.493  25.818  1.00  0.00     0.202 C 
ATOM      9  N   UNL A   1      31.972  22.677  25.268  1.00  0.00    -0.308 N 
ATOM     10  C   UNL A   1      30.797  22.663  26.114  1.00  0.00     0.151 C 
ATOM     11  C   UNL A   1      30.325  24.090  26.385  1.00  0.00     0.182 C 
ATOM     12  C   UNL A   1      32.575  24.886  26.231  1.00  0.00     0.195 C 
ATOM     13  O   UNL A   1      31.357  24.879  26.995  1.00  0.00    -0.377 OA
BRANCH   9  14
ATOM     14  C   UNL A   1      32.189  21.978  24.124  1.00  0.00     0.318 C 
ATOM     15  N   UNL A   1      32.747  20.755  24.103  1.00  0.00    -0.335 N 
ATOM     16  H   UNL A   1      33.095  20.539  23.209  1.00  0.00     0.165 HD
ATOM     17  O   UNL A   1      31.844  22.410  23.023  1.00  0.00    -0.249 OA
BRANCH  15  18
ATOM     18  C   UNL A   1      32.978  19.660  25.041  1.00  0.00     0.152 C 
BRANCH  18  19
ATOM     19  C   UNL A   1      33.136  18.261  24.401  1.00  0.00     0.083 C 
ATOM     20  C   UNL A   1      32.478  18.205  23.019  1.00  0.00     0.044 C 
ATOM     21  C   UNL A   1      34.578  17.757  24.362  1.00  0.00     0.039 C 
ATOM     22  O   UNL A   1      32.414  17.315  25.232  1.00  0.00    -0.373 OA
ATOM     23  C   UNL A   1      34.417  16.266  24.537  1.00  0.00     0.031 C 
ATOM     24  C   UNL A   1      33.265  16.194  25.512  1.00  0.00     0.161 C 
ENDBRANCH  18  19
ENDBRANCH  15  18
ENDBRANCH   9  14
ENDBRANCH   5   8
ENDBRANCH   3   4
ENDBRANCH   2   3
ENDBRANCH   1   2
BRANCH   1  25
ATOM     25  C   UNL A   1      37.365  20.432  24.483  1.00  0.00     0.002 C 
BRANCH  25  26
ATOM     26  C   UNL A   1      38.238  19.297  25.029  1.00  0.00     0.021 C 
BRANCH  26  27
ATOM     27  C   UNL A   1      39.279  19.711  26.069  1.00  0.00     0.116 C 
BRANCH  27  28
ATOM     28  N   UNL A   1      40.482  18.897  25.999  1.00  0.00    -0.352 N 
ATOM     29  C   UNL A   1      41.804  19.256  26.044  1.00  0.00     0.251 C 
ATOM     30  H   UNL A   1      40.320  17.930  25.903  1.00  0.00     0.163 HD
ATOM     31  O   UNL A   1      42.670  18.432  25.760  1.00  0.00    -0.269 OA
BRANCH  29  32
ATOM     32  C   UNL A   1      42.206  20.627  26.426  1.00  0.00     0.039 A 
ATOM     33  C   UNL A   1      42.520  21.539  25.414  1.00  0.00     0.014 A 
ATOM     34  C   UNL A   1      42.334  21.000  27.767  1.00  0.00     0.014 A 
ATOM     35  C   UNL A   1      42.912  22.839  25.744  1.00  0.00     0.010 A 
ATOM     36  C   UNL A   1      42.670  22.314  28.094  1.00  0.00     0.010 A 
ATOM     37  C   UNL A   1      42.966  23.243  27.087  1.00  0.00    -0.014 A 
BRANCH  37  38
ATOM     38  C   UNL A   1      43.327  24.638  27.450  1.00  0.00     0.031 A 
ATOM     39  C   UNL A   1      44.769  25.065  27.487  1.00  0.00     0.074 A 
ATOM     40  C   UNL A   1      42.355  25.503  27.800  1.00  0.00     0.049 A 
ATOM     41  N   UNL A   1      45.280  26.222  27.828  1.00  0.00    -0.248 NA
ATOM     42  C   UNL A   1      45.770  24.054  27.116  1.00  0.00     0.031 C 
ATOM     43  C   UNL A   1      40.925  25.194  27.847  1.00  0.00     0.029 A 
ATOM     44  N   UNL A   1      42.424  26.817  28.193  1.00  0.00    -0.354 N 
ATOM     45  C   UNL A   1      46.657  26.070  27.734  1.00  0.00     0.074 A 
ATOM     46  C   UNL A   1      46.906  24.700  27.338  1.00  0.00     0.031 C 
ATOM     47  C   UNL A   1      40.251  26.291  28.227  1.00  0.00     0.029 A 
ATOM     48  C   UNL A   1      41.201  27.370  28.481  1.00  0.00     0.049 A 
ATOM     49  H   UNL A   1      43.271  27.315  28.263  1.00  0.00     0.167 HD
ATOM     50  C   UNL A   1      47.623  26.996  27.942  1.00  0.00     0.037 A 
ATOM     51  C   UNL A   1      40.884  28.608  28.905  1.00  0.00     0.037 A 
ATOM     52  C   UNL A   1      47.371  28.369  28.291  1.00  0.00     0.049 A 
ATOM     53  C   UNL A   1      41.980  29.618  29.112  1.00  0.00     0.074 A 
ATOM     54  C   UNL A   1      48.279  29.404  28.432  1.00  0.00     0.029 A 
ATOM     55  N   UNL A   1      46.118  28.899  28.553  1.00  0.00    -0.354 N 
ATOM     56  N   UNL A   1      43.271  29.485  28.937  1.00  0.00    -0.248 NA
ATOM     57  C   UNL A   1      41.571  30.952  29.572  1.00  0.00     0.031 C 
ATOM     58  C   UNL A   1      47.579  30.551  28.821  1.00  0.00     0.029 A 
ATOM     59  C   UNL A   1      46.230  30.241  28.881  1.00  0.00     0.049 A 
ATOM     60  H   UNL A   1      45.271  28.396  28.512  1.00  0.00     0.167 HD
ATOM     61  C   UNL A   1      43.825  30.723  29.234  1.00  0.00     0.074 A 
ATOM     62  C   UNL A   1      42.728  31.598  29.586  1.00  0.00     0.031 C 
ATOM     63  C   UNL A   1      45.126  31.100  29.217  1.00  0.00     0.037 A 
BRANCH  50  64
ATOM     64  C   UNL A   1      49.053  26.563  27.792  1.00  0.00     0.064 A 
ATOM     65  C   UNL A   1      49.661  26.456  26.532  1.00  0.00     0.173 A 
ATOM     66  C   UNL A   1      49.842  26.319  28.926  1.00  0.00     0.173 A 
ATOM     67  F   UNL A   1      48.946  26.672  25.418  1.00  0.00    -0.203 F 
ATOM     68  C   UNL A   1      51.003  26.105  26.413  1.00  0.00     0.198 A 
ATOM     69  C   UNL A   1      51.190  25.992  28.804  1.00  0.00     0.198 A 
ATOM     70  F   UNL A   1      49.310  26.413  30.154  1.00  0.00    -0.203 F 
ATOM     71  F   UNL A   1      51.555  25.976  25.199  1.00  0.00    -0.200 F 
ATOM     72  C   UNL A   1      51.768  25.881  27.548  1.00  0.00     0.200 A 
ATOM     73  F   UNL A   1      51.930  25.788  29.902  1.00  0.00    -0.200 F 
ATOM     74  F   UNL A   1      53.063  25.555  27.432  1.00  0.00    -0.200 F 
ENDBRANCH  50  64
BRANCH  51  75
ATOM     75  C   UNL A   1      39.463  28.976  29.139  1.00  0.00     0.064 A 
ATOM     76  C   UNL A   1      38.675  29.494  28.102  1.00  0.00     0.173 A 
ATOM     77  C   UNL A   1      38.873  28.847  30.404  1.00  0.00     0.173 A 
ATOM     78  F   UNL A   1      39.203  29.657  26.879  1.00  0.00    -0.203 F 
ATOM     79  C   UNL A   1      37.360  29.892  28.326  1.00  0.00     0.198 A 
ATOM     80  C   UNL A   1      37.548  29.220  30.621  1.00  0.00     0.198 A 
ATOM     81  F   UNL A   1      39.582  28.354  31.430  1.00  0.00    -0.203 F 
ATOM     82  F   UNL A   1      36.646  30.433  27.328  1.00  0.00    -0.200 F 
ATOM     83  C   UNL A   1      36.796  29.752  29.585  1.00  0.00     0.200 A 
ATOM     84  F   UNL A   1      37.003  29.072  31.836  1.00  0.00    -0.200 F 
ATOM     85  F   UNL A   1      35.532  30.139  29.802  1.00  0.00    -0.200 F 
ENDBRANCH  51  75
BRANCH  63  86
ATOM     86  C   UNL A   1      45.430  32.530  29.556  1.00  0.00     0.064 A 
ATOM     87  C   UNL A   1      45.420  33.534  28.578  1.00  0.00     0.173 A 
ATOM     88  C   UNL A   1      45.706  32.902  30.880  1.00  0.00     0.173 A 
ATOM     89  F   UNL A   1      45.177  33.225  27.295  1.00  0.00    -0.203 F 
ATOM     90  C   UNL A   1      45.701  34.857  28.909  1.00  0.00     0.198 A 
ATOM     91  C   UNL A   1      45.959  34.229  31.213  1.00  0.00     0.198 A 
ATOM     92  F   UNL A   1      45.722  31.978  31.853  1.00  0.00    -0.203 F 
ATOM     93  F   UNL A   1      45.734  35.793  27.951  1.00  0.00    -0.200 F 
ATOM     94  C   UNL A   1      45.963  35.204  30.226  1.00  0.00     0.200 A 
ATOM     95  F   UNL A   1      46.201  34.565  32.487  1.00  0.00    -0.200 F 
ATOM     96  F   UNL A   1      46.230  36.478  30.544  1.00  0.00    -0.200 F 
ENDBRANCH  63  86
ENDBRANCH  37  38
ENDBRANCH  29  32
ENDBRANCH  27  28
ENDBRANCH  26  27
ENDBRANCH  25  26
ENDBRANCH   1  25
TORSDOF 16
ENDMDL
MODEL 3
REMARK VINA RESULT:     -11.8      0.517      7.407
REMARK SMILES C[C@]1(CNC(=O)N2CCOC[C@H]2C(=O)NCCCCCCNC(=O)c2ccc(-c3c4nc(c(-c5c(F)c(F)c(F)c(F)c5F)c5ccc([nH]5)c(-c5c(F)c(F)c(F)c(F)c5F)c5nc(c(-c6c(F)c(F)c(F)c(F)c6F)c6ccc3[nH]6)C=C5)C=C4)cc2)CCCO1
REMARK SMILES IDX 18 1 17 2 16 3 15 4 13 5 14 6 12 8 7 9 8 10 9 11 11 12 10 13
REMARK SMILES IDX 5 14 4 15 6 17 3 18 2 19 1 20 88 21 91 22 89 23 90 24 19 25
REMARK SMILES IDX 20 26 21 27 22 28 23 29 24 31 25 32 26 33 87 34 27 35 86 36
REMARK SMILES IDX 28 37 29 38 30 39 80 40 31 41 85 42 79 43 81 44 32 45 84 46
REMARK SMILES IDX 78 47 77 48 33 50 65 51 45 52 64 53 46 54 49 55 63 56 82 57
REMARK SMILES IDX 47 58 48 59 62 61 83 62 50 63 34 64 35 65 43 66 36 67 37 68
REMARK SMILES IDX 41 69 44 70 38 71 39 72 42 73 40 74 66 75 67 76 75 77 68 78
REMARK SMILES IDX 69 79 73 80 76 81 70 82 71 83 74 84 72 85 51 86 52 87 60 88
REMARK SMILES IDX 53 89 54 90 58 91 61 92 55 93 56 94 59 95 57 96
REMARK H PARENT 15 7 4 16 22 30 81 49 49 60
REMARK Flexibility Score: inf
ROOT
ATOM      1  C   UNL A   1      37.567  21.759  24.581  1.00  0.00     0.002 C 
ENDROOT
BRANCH   1   2
ATOM      2  C   UNL A   1      36.393  22.740  24.611  1.00  0.00     0.021 C 
BRANCH   2   3
ATOM      3  C   UNL A   1      36.279  23.540  25.913  1.00  0.00     0.116 C 
BRANCH   3   4
ATOM      4  N   UNL A   1      35.324  22.950  26.834  1.00  0.00    -0.354 N 
ATOM      5  C   UNL A   1      33.971  22.846  26.885  1.00  0.00     0.245 C 
ATOM      6  O   UNL A   1      33.552  22.164  27.832  1.00  0.00    -0.273 OA
ATOM      7  H   UNL A   1      35.763  22.521  27.605  1.00  0.00     0.163 HD
BRANCH   5   8
ATOM      8  C   UNL A   1      32.956  23.508  25.909  1.00  0.00     0.202 C 
ATOM      9  N   UNL A   1      31.921  22.633  25.315  1.00  0.00    -0.308 N 
ATOM     10  C   UNL A   1      30.753  22.477  26.157  1.00  0.00     0.151 C 
ATOM     11  C   UNL A   1      30.165  23.844  26.501  1.00  0.00     0.182 C 
ATOM     12  C   UNL A   1      32.341  24.831  26.393  1.00  0.00     0.195 C 
ATOM     13  O   UNL A   1      31.129  24.684  27.153  1.00  0.00    -0.377 OA
BRANCH   9  14
ATOM     14  C   UNL A   1      32.193  22.014  24.137  1.00  0.00     0.318 C 
ATOM     15  N   UNL A   1      32.870  20.857  24.052  1.00  0.00    -0.335 N 
ATOM     16  H   UNL A   1      33.227  20.720  23.145  1.00  0.00     0.165 HD
ATOM     17  O   UNL A   1      31.793  22.462  23.061  1.00  0.00    -0.249 OA
BRANCH  15  18
ATOM     18  C   UNL A   1      33.223  19.748  24.933  1.00  0.00     0.152 C 
BRANCH  18  19
ATOM     19  C   UNL A   1      33.047  18.336  24.325  1.00  0.00     0.083 C 
ATOM     20  C   UNL A   1      32.403  18.405  22.938  1.00  0.00     0.044 C 
ATOM     21  C   UNL A   1      34.329  17.504  24.313  1.00  0.00     0.039 C 
ATOM     22  O   UNL A   1      32.117  17.608  25.169  1.00  0.00    -0.373 OA
ATOM     23  C   UNL A   1      33.817  16.098  24.519  1.00  0.00     0.031 C 
ATOM     24  C   UNL A   1      32.676  16.325  25.483  1.00  0.00     0.161 C 
ENDBRANCH  18  19
ENDBRANCH  15  18
ENDBRANCH   9  14
ENDBRANCH   5   8
ENDBRANCH   3   4
ENDBRANCH   2   3
ENDBRANCH   1   2
BRANCH   1  25
ATOM     25  C   UNL A   1      37.176  20.276  24.618  1.00  0.00     0.002 C 
BRANCH  25  26
ATOM     26  C   UNL A   1      38.254  19.311  25.123  1.00  0.00     0.021 C 
BRANCH  26  27
ATOM     27  C   UNL A   1      39.306  19.924  26.046  1.00  0.00     0.116 C 
BRANCH  27  28
ATOM     28  N   UNL A   1      40.536  19.149  26.072  1.00  0.00    -0.352 N 
ATOM     29  C   UNL A   1      41.844  19.555  26.128  1.00  0.00     0.251 C 
ATOM     30  H   UNL A   1      40.408  18.173  26.045  1.00  0.00     0.163 HD
ATOM     31  O   UNL A   1      42.744  18.743  25.931  1.00  0.00    -0.269 OA
BRANCH  29  32
ATOM     32  C   UNL A   1      42.190  20.964  26.416  1.00  0.00     0.039 A 
ATOM     33  C   UNL A   1      42.320  21.363  27.750  1.00  0.00     0.014 A 
ATOM     34  C   UNL A   1      42.324  21.904  25.390  1.00  0.00     0.014 A 
ATOM     35  C   UNL A   1      42.636  22.689  28.052  1.00  0.00     0.010 A 
ATOM     36  C   UNL A   1      42.695  23.214  25.691  1.00  0.00     0.010 A 
ATOM     37  C   UNL A   1      42.851  23.620  27.024  1.00  0.00    -0.014 A 
BRANCH  37  38
ATOM     38  C   UNL A   1      43.242  25.020  27.331  1.00  0.00     0.031 A 
ATOM     39  C   UNL A   1      44.649  25.488  27.082  1.00  0.00     0.074 A 
ATOM     40  C   UNL A   1      42.339  25.852  27.886  1.00  0.00     0.049 A 
ATOM     41  N   UNL A   1      45.188  26.655  27.332  1.00  0.00    -0.248 NA
ATOM     42  C   UNL A   1      45.580  24.511  26.498  1.00  0.00     0.031 C 
ATOM     43  C   UNL A   1      40.957  25.501  28.217  1.00  0.00     0.029 A 
ATOM     44  N   UNL A   1      42.452  27.162  28.280  1.00  0.00    -0.354 N 
ATOM     45  C   UNL A   1      46.521  26.545  26.958  1.00  0.00     0.074 A 
ATOM     46  C   UNL A   1      46.720  25.188  26.496  1.00  0.00     0.031 C 
ATOM     47  C   UNL A   1      40.346  26.573  28.745  1.00  0.00     0.029 A 
ATOM     48  C   UNL A   1      41.299  27.676  28.819  1.00  0.00     0.049 A 
ATOM     49  H   UNL A   1      43.282  27.684  28.185  1.00  0.00     0.167 HD
ATOM     50  C   UNL A   1      47.485  27.496  26.981  1.00  0.00     0.037 A 
ATOM     51  C   UNL A   1      41.042  28.899  29.320  1.00  0.00     0.037 A 
ATOM     52  C   UNL A   1      47.272  28.857  27.398  1.00  0.00     0.049 A 
ATOM     53  C   UNL A   1      42.131  29.938  29.318  1.00  0.00     0.074 A 
ATOM     54  C   UNL A   1      48.163  29.917  27.370  1.00  0.00     0.029 A 
ATOM     55  N   UNL A   1      46.085  29.347  27.918  1.00  0.00    -0.354 N 
ATOM     56  N   UNL A   1      43.362  29.845  28.882  1.00  0.00    -0.248 NA
ATOM     57  C   UNL A   1      41.788  31.255  29.875  1.00  0.00     0.031 C 
ATOM     58  C   UNL A   1      47.527  31.038  27.913  1.00  0.00     0.029 A 
ATOM     59  C   UNL A   1      46.227  30.688  28.239  1.00  0.00     0.049 A 
ATOM     60  H   UNL A   1      45.262  28.820  28.042  1.00  0.00     0.167 HD
ATOM     61  C   UNL A   1      43.932  31.096  29.082  1.00  0.00     0.074 A 
ATOM     62  C   UNL A   1      42.907  31.934  29.665  1.00  0.00     0.031 C 
ATOM     63  C   UNL A   1      45.192  31.511  28.808  1.00  0.00     0.037 A 
BRANCH  50  64
ATOM     64  C   UNL A   1      48.865  27.107  26.537  1.00  0.00     0.064 A 
ATOM     65  C   UNL A   1      49.812  26.600  27.438  1.00  0.00     0.173 A 
ATOM     66  C   UNL A   1      49.219  27.180  25.181  1.00  0.00     0.173 A 
ATOM     67  F   UNL A   1      49.524  26.519  28.746  1.00  0.00    -0.203 F 
ATOM     68  C   UNL A   1      51.071  26.195  27.001  1.00  0.00     0.198 A 
ATOM     69  C   UNL A   1      50.470  26.751  24.744  1.00  0.00     0.198 A 
ATOM     70  F   UNL A   1      48.347  27.653  24.278  1.00  0.00    -0.203 F 
ATOM     71  F   UNL A   1      51.972  25.745  27.883  1.00  0.00    -0.200 F 
ATOM     72  C   UNL A   1      51.395  26.263  25.654  1.00  0.00     0.200 A 
ATOM     73  F   UNL A   1      50.777  26.807  23.441  1.00  0.00    -0.200 F 
ATOM     74  F   UNL A   1      52.602  25.861  25.232  1.00  0.00    -0.200 F 
ENDBRANCH  50  64
BRANCH  51  75
ATOM     75  C   UNL A   1      39.690  29.223  29.845  1.00  0.00     0.064 A 
ATOM     76  C   UNL A   1      39.396  29.085  31.209  1.00  0.00     0.173 A 
ATOM     77  C   UNL A   1      38.658  29.647  28.995  1.00  0.00     0.173 A 
ATOM     78  F   UNL A   1      40.346  28.661  32.057  1.00  0.00    -0.203 F 
ATOM     79  C   UNL A   1      38.117  29.335  31.699  1.00  0.00     0.198 A 
ATOM     80  C   UNL A   1      37.385  29.923  29.492  1.00  0.00     0.198 A 
ATOM     81  F   UNL A   1      38.887  29.797  27.683  1.00  0.00    -0.203 F 
ATOM     82  F   UNL A   1      37.852  29.144  33.000  1.00  0.00    -0.200 F 
ATOM     83  C   UNL A   1      37.113  29.757  30.841  1.00  0.00     0.200 A 
ATOM     84  F   UNL A   1      36.421  30.342  28.661  1.00  0.00    -0.200 F 
ATOM     85  F   UNL A   1      35.882  29.992  31.312  1.00  0.00    -0.200 F 
ENDBRANCH  51  75
BRANCH  63  86
ATOM     86  C   UNL A   1      45.520  32.944  29.103  1.00  0.00     0.064 A 
ATOM     87  C   UNL A   1      46.076  33.332  30.330  1.00  0.00     0.173 A 
ATOM     88  C   UNL A   1      45.302  33.937  28.136  1.00  0.00     0.173 A 
ATOM     89  F   UNL A   1      46.288  32.423  31.293  1.00  0.00    -0.203 F 
ATOM     90  C   UNL A   1      46.378  34.667  30.588  1.00  0.00     0.198 A 
ATOM     91  C   UNL A   1      45.631  35.265  28.386  1.00  0.00     0.198 A 
ATOM     92  F   UNL A   1      44.777  33.615  26.944  1.00  0.00    -0.203 F 
ATOM     93  F   UNL A   1      46.864  35.022  31.785  1.00  0.00    -0.200 F 
ATOM     94  C   UNL A   1      46.163  35.630  29.614  1.00  0.00     0.200 A 
ATOM     95  F   UNL A   1      45.432  36.193  27.440  1.00  0.00    -0.200 F 
ATOM     96  F   UNL A   1      46.457  36.913  29.863  1.00  0.00    -0.200 F 
ENDBRANCH  63  86
ENDBRANCH  37  38
ENDBRANCH  29  32
ENDBRANCH  27  28
ENDBRANCH  26  27
ENDBRANCH  25  26
ENDBRANCH   1  25
TORSDOF 16
ENDMDL
