MODEL 1
REMARK VINA RESULT:     -13.3      0.000      0.000
REMARK SMILES COc1c(C(=O)NCCCCCCNC(=O)c2ccc(-c3c4nc(c(-c5c(F)c(F)c(F)c(F)c5F)c5ccc([nH]5)c(-c5c(F)c(F)c(F)c(F)c5F)c5nc(c(-c6c(F)c(F)c(F)c(F)c6F)c6ccc3[nH]6)C=C5)C=C4)cc2)cccc1-c1ccc2ccccc2c1
REMARK SMILES IDX 11 1 10 2 9 3 8 4 7 5 5 6 6 7 4 9 3 10 83 11 80 12 82 13
REMARK SMILES IDX 81 14 2 15 1 16 84 17 85 18 93 19 86 20 92 21 87 22 91 23
REMARK SMILES IDX 88 24 90 25 89 26 12 27 13 28 14 29 15 30 16 32 17 33 18 34
REMARK SMILES IDX 79 35 19 36 78 37 20 38 21 39 22 40 72 41 23 42 77 43 71 44
REMARK SMILES IDX 73 45 24 46 76 47 70 48 69 49 25 51 57 52 37 53 56 54 38 55
REMARK SMILES IDX 41 56 55 57 74 58 39 59 40 60 54 62 75 63 42 64 26 65 27 66
REMARK SMILES IDX 35 67 28 68 29 69 33 70 36 71 30 72 31 73 34 74 32 75 58 76
REMARK SMILES IDX 59 77 67 78 60 79 61 80 65 81 68 82 62 83 63 84 66 85 64 86
REMARK SMILES IDX 43 87 44 88 52 89 45 90 46 91 50 92 53 93 47 94 48 95 51 96
REMARK SMILES IDX 49 97
REMARK H PARENT 7 8 14 31 73 50 41 61
REMARK Flexibility Score: inf
ROOT
ATOM      1  C   UNL A   1      31.565  30.738  26.182  1.00  0.00     0.002 C 
ENDROOT
BRANCH   1   2
ATOM      2  C   UNL A   1      32.258  29.794  27.170  1.00  0.00     0.002 C 
BRANCH   2   3
ATOM      3  C   UNL A   1      32.228  28.298  26.861  1.00  0.00     0.021 C 
BRANCH   3   4
ATOM      4  C   UNL A   1      32.788  27.857  25.519  1.00  0.00     0.116 C 
BRANCH   4   5
ATOM      5  N   UNL A   1      31.867  27.591  24.449  1.00  0.00    -0.352 N 
ATOM      6  C   UNL A   1      31.056  26.482  24.287  1.00  0.00     0.255 C 
ATOM      7  O   UNL A   1      30.201  26.532  23.401  1.00  0.00    -0.269 OA
ATOM      8  H   UNL A   1      31.805  28.280  23.749  1.00  0.00     0.163 HD
BRANCH   6   9
ATOM      9  C   UNL A   1      31.264  25.182  25.017  1.00  0.00     0.082 A 
ATOM     10  C   UNL A   1      32.275  24.218  24.785  1.00  0.00     0.139 A 
ATOM     11  C   UNL A   1      32.196  22.952  25.435  1.00  0.00     0.025 A 
ATOM     12  C   UNL A   1      30.288  24.929  26.003  1.00  0.00     0.018 A 
ATOM     13  C   UNL A   1      31.216  22.760  26.433  1.00  0.00     0.012 A 
ATOM     14  C   UNL A   1      30.284  23.746  26.732  1.00  0.00     0.002 A 
BRANCH  10  15
ATOM     15  O   UNL A   1      33.356  24.627  24.037  1.00  0.00    -0.495 OA
ATOM     16  C   UNL A   1      33.361  24.389  22.631  1.00  0.00     0.278 C 
ENDBRANCH  10  15
BRANCH  11  17
ATOM     17  C   UNL A   1      32.887  21.743  24.956  1.00  0.00    -0.014 A 
ATOM     18  C   UNL A   1      34.183  21.517  25.453  1.00  0.00     0.009 A 
ATOM     19  C   UNL A   1      32.307  20.770  24.130  1.00  0.00     0.017 A 
ATOM     20  C   UNL A   1      34.836  20.307  25.245  1.00  0.00     0.009 A 
ATOM     21  C   UNL A   1      32.955  19.534  23.913  1.00  0.00    -0.018 A 
ATOM     22  C   UNL A   1      34.218  19.296  24.509  1.00  0.00    -0.018 A 
ATOM     23  C   UNL A   1      32.372  18.504  23.154  1.00  0.00     0.009 A 
ATOM     24  C   UNL A   1      34.839  18.047  24.371  1.00  0.00     0.009 A 
ATOM     25  C   UNL A   1      33.014  17.271  23.004  1.00  0.00     0.001 A 
ATOM     26  C   UNL A   1      34.239  17.039  23.622  1.00  0.00     0.001 A 
ENDBRANCH  11  17
ENDBRANCH   6   9
ENDBRANCH   4   5
ENDBRANCH   3   4
ENDBRANCH   2   3
ENDBRANCH   1   2
BRANCH   1  27
ATOM     27  C   UNL A   1      31.418  32.206  26.588  1.00  0.00     0.021 C 
BRANCH  27  28
ATOM     28  C   UNL A   1      32.630  32.859  27.243  1.00  0.00     0.116 C 
BRANCH  28  29
ATOM     29  N   UNL A   1      32.386  34.229  27.660  1.00  0.00    -0.352 N 
ATOM     30  C   UNL A   1      33.004  34.986  28.621  1.00  0.00     0.251 C 
ATOM     31  H   UNL A   1      31.661  34.687  27.175  1.00  0.00     0.163 HD
ATOM     32  O   UNL A   1      32.552  36.093  28.913  1.00  0.00    -0.269 OA
BRANCH  30  33
ATOM     33  C   UNL A   1      34.194  34.477  29.339  1.00  0.00     0.039 A 
ATOM     34  C   UNL A   1      34.017  33.876  30.588  1.00  0.00     0.014 A 
ATOM     35  C   UNL A   1      35.479  34.603  28.803  1.00  0.00     0.014 A 
ATOM     36  C   UNL A   1      35.114  33.340  31.265  1.00  0.00     0.010 A 
ATOM     37  C   UNL A   1      36.562  34.003  29.444  1.00  0.00     0.010 A 
ATOM     38  C   UNL A   1      36.389  33.360  30.680  1.00  0.00    -0.014 A 
BRANCH  38  39
ATOM     39  C   UNL A   1      37.543  32.689  31.333  1.00  0.00     0.031 A 
ATOM     40  C   UNL A   1      38.225  31.524  30.676  1.00  0.00     0.074 A 
ATOM     41  C   UNL A   1      37.933  33.091  32.559  1.00  0.00     0.049 A 
ATOM     42  N   UNL A   1      39.204  30.775  31.123  1.00  0.00    -0.248 NA
ATOM     43  C   UNL A   1      37.724  31.128  29.352  1.00  0.00     0.031 C 
ATOM     44  C   UNL A   1      37.317  34.175  33.324  1.00  0.00     0.029 A 
ATOM     45  N   UNL A   1      38.928  32.625  33.382  1.00  0.00    -0.354 N 
ATOM     46  C   UNL A   1      39.429  29.821  30.140  1.00  0.00     0.074 A 
ATOM     47  C   UNL A   1      38.445  30.046  29.103  1.00  0.00     0.031 C 
ATOM     48  C   UNL A   1      37.953  34.298  34.500  1.00  0.00     0.029 A 
ATOM     49  C   UNL A   1      38.992  33.277  34.589  1.00  0.00     0.049 A 
ATOM     50  H   UNL A   1      39.537  31.893  33.131  1.00  0.00     0.167 HD
ATOM     51  C   UNL A   1      40.385  28.860  30.096  1.00  0.00     0.037 A 
ATOM     52  C   UNL A   1      39.784  33.065  35.658  1.00  0.00     0.037 A 
ATOM     53  C   UNL A   1      41.361  28.642  31.134  1.00  0.00     0.049 A 
ATOM     54  C   UNL A   1      40.823  31.979  35.599  1.00  0.00     0.074 A 
ATOM     55  C   UNL A   1      42.405  27.733  31.159  1.00  0.00     0.029 A 
ATOM     56  N   UNL A   1      41.404  29.331  32.338  1.00  0.00    -0.354 N 
ATOM     57  N   UNL A   1      41.079  31.133  34.630  1.00  0.00    -0.248 NA
ATOM     58  C   UNL A   1      41.687  31.824  36.777  1.00  0.00     0.031 C 
ATOM     59  C   UNL A   1      43.038  27.829  32.403  1.00  0.00     0.029 A 
ATOM     60  C   UNL A   1      42.434  28.843  33.128  1.00  0.00     0.049 A 
ATOM     61  H   UNL A   1      40.793  30.061  32.592  1.00  0.00     0.167 HD
ATOM     62  C   UNL A   1      42.143  30.357  35.073  1.00  0.00     0.074 A 
ATOM     63  C   UNL A   1      42.496  30.849  36.389  1.00  0.00     0.031 C 
ATOM     64  C   UNL A   1      42.768  29.331  34.444  1.00  0.00     0.037 A 
BRANCH  51  65
ATOM     65  C   UNL A   1      40.406  27.963  28.888  1.00  0.00     0.064 A 
ATOM     66  C   UNL A   1      39.699  26.750  28.854  1.00  0.00     0.173 A 
ATOM     67  C   UNL A   1      41.137  28.323  27.746  1.00  0.00     0.173 A 
ATOM     68  F   UNL A   1      38.989  26.352  29.920  1.00  0.00    -0.203 F 
ATOM     69  C   UNL A   1      39.764  25.911  27.745  1.00  0.00     0.198 A 
ATOM     70  C   UNL A   1      41.169  27.499  26.623  1.00  0.00     0.198 A 
ATOM     71  F   UNL A   1      41.824  29.475  27.716  1.00  0.00    -0.203 F 
ATOM     72  F   UNL A   1      39.138  24.725  27.767  1.00  0.00    -0.200 F 
ATOM     73  C   UNL A   1      40.495  26.288  26.629  1.00  0.00     0.200 A 
ATOM     74  F   UNL A   1      41.862  27.873  25.539  1.00  0.00    -0.200 F 
ATOM     75  F   UNL A   1      40.558  25.478  25.563  1.00  0.00    -0.200 F 
ENDBRANCH  51  65
BRANCH  52  76
ATOM     76  C   UNL A   1      39.617  33.909  36.869  1.00  0.00     0.064 A 
ATOM     77  C   UNL A   1      40.227  35.167  36.967  1.00  0.00     0.173 A 
ATOM     78  C   UNL A   1      38.818  33.486  37.943  1.00  0.00     0.173 A 
ATOM     79  F   UNL A   1      41.016  35.607  35.976  1.00  0.00    -0.203 F 
ATOM     80  C   UNL A   1      40.054  35.964  38.097  1.00  0.00     0.198 A 
ATOM     81  C   UNL A   1      38.621  34.297  39.058  1.00  0.00     0.198 A 
ATOM     82  F   UNL A   1      38.207  32.293  37.896  1.00  0.00    -0.203 F 
ATOM     83  F   UNL A   1      40.679  37.146  38.181  1.00  0.00    -0.200 F 
ATOM     84  C   UNL A   1      39.244  35.533  39.137  1.00  0.00     0.200 A 
ATOM     85  F   UNL A   1      37.823  33.883  40.051  1.00  0.00    -0.200 F 
ATOM     86  F   UNL A   1      39.065  36.307  40.216  1.00  0.00    -0.200 F 
ENDBRANCH  52  76
BRANCH  64  87
ATOM     87  C   UNL A   1      43.914  28.676  35.165  1.00  0.00     0.064 A 
ATOM     88  C   UNL A   1      45.221  29.176  35.078  1.00  0.00     0.173 A 
ATOM     89  C   UNL A   1      43.692  27.560  35.986  1.00  0.00     0.173 A 
ATOM     90  F   UNL A   1      45.490  30.232  34.295  1.00  0.00    -0.203 F 
ATOM     91  C   UNL A   1      46.268  28.567  35.765  1.00  0.00     0.198 A 
ATOM     92  C   UNL A   1      44.735  26.974  36.699  1.00  0.00     0.198 A 
ATOM     93  F   UNL A   1      42.460  27.045  36.110  1.00  0.00    -0.203 F 
ATOM     94  F   UNL A   1      47.518  29.032  35.628  1.00  0.00    -0.200 F 
ATOM     95  C   UNL A   1      46.023  27.473  36.581  1.00  0.00     0.200 A 
ATOM     96  F   UNL A   1      44.493  25.927  37.500  1.00  0.00    -0.200 F 
ATOM     97  F   UNL A   1      47.030  26.894  37.250  1.00  0.00    -0.200 F 
ENDBRANCH  64  87
ENDBRANCH  38  39
ENDBRANCH  30  33
ENDBRANCH  28  29
ENDBRANCH  27  28
ENDBRANCH   1  27
TORSDOF 15
ENDMDL
MODEL 2
REMARK VINA RESULT:     -13.2      0.782      1.907
REMARK SMILES COc1c(C(=O)NCCCCCCNC(=O)c2ccc(-c3c4nc(c(-c5c(F)c(F)c(F)c(F)c5F)c5ccc([nH]5)c(-c5c(F)c(F)c(F)c(F)c5F)c5nc(c(-c6c(F)c(F)c(F)c(F)c6F)c6ccc3[nH]6)C=C5)C=C4)cc2)cccc1-c1ccc2ccccc2c1
REMARK SMILES IDX 11 1 10 2 9 3 8 4 7 5 5 6 6 7 4 9 3 10 83 11 80 12 82 13
REMARK SMILES IDX 81 14 2 15 1 16 84 17 85 18 93 19 86 20 92 21 87 22 91 23
REMARK SMILES IDX 88 24 90 25 89 26 12 27 13 28 14 29 15 30 16 32 17 33 18 34
REMARK SMILES IDX 79 35 19 36 78 37 20 38 21 39 22 40 72 41 23 42 77 43 71 44
REMARK SMILES IDX 73 45 24 46 76 47 70 48 69 49 25 51 57 52 37 53 56 54 38 55
REMARK SMILES IDX 41 56 55 57 74 58 39 59 40 60 54 62 75 63 42 64 26 65 27 66
REMARK SMILES IDX 35 67 28 68 29 69 33 70 36 71 30 72 31 73 34 74 32 75 58 76
REMARK SMILES IDX 59 77 67 78 60 79 61 80 65 81 68 82 62 83 63 84 66 85 64 86
REMARK SMILES IDX 43 87 44 88 52 89 45 90 46 91 50 92 53 93 47 94 48 95 51 96
REMARK SMILES IDX 49 97
REMARK H PARENT 7 8 14 31 73 50 41 61
REMARK Flexibility Score: inf
ROOT
ATOM      1  C   UNL A   1      31.544  30.610  26.156  1.00  0.00     0.002 C 
ENDROOT
BRANCH   1   2
ATOM      2  C   UNL A   1      32.267  29.701  27.155  1.00  0.00     0.002 C 
BRANCH   2   3
ATOM      3  C   UNL A   1      33.774  29.516  26.983  1.00  0.00     0.021 C 
BRANCH   3   4
ATOM      4  C   UNL A   1      34.237  28.303  26.194  1.00  0.00     0.116 C 
BRANCH   4   5
ATOM      5  N   UNL A   1      34.008  28.281  24.777  1.00  0.00    -0.352 N 
ATOM      6  C   UNL A   1      33.068  27.539  24.084  1.00  0.00     0.255 C 
ATOM      7  O   UNL A   1      32.907  27.805  22.890  1.00  0.00    -0.269 OA
ATOM      8  H   UNL A   1      34.587  28.863  24.235  1.00  0.00     0.163 HD
BRANCH   6   9
ATOM      9  C   UNL A   1      32.359  26.342  24.659  1.00  0.00     0.082 A 
ATOM     10  C   UNL A   1      32.721  24.980  24.518  1.00  0.00     0.139 A 
ATOM     11  C   UNL A   1      31.818  23.969  24.960  1.00  0.00     0.025 A 
ATOM     12  C   UNL A   1      31.188  26.671  25.371  1.00  0.00     0.018 A 
ATOM     13  C   UNL A   1      30.673  24.350  25.691  1.00  0.00     0.012 A 
ATOM     14  C   UNL A   1      30.370  25.688  25.916  1.00  0.00     0.002 A 
BRANCH  10  15
ATOM     15  O   UNL A   1      34.000  24.724  24.079  1.00  0.00    -0.495 OA
ATOM     16  C   UNL A   1      35.026  24.467  25.035  1.00  0.00     0.278 C 
ENDBRANCH  10  15
BRANCH  11  17
ATOM     17  C   UNL A   1      31.853  22.577  24.479  1.00  0.00    -0.014 A 
ATOM     18  C   UNL A   1      31.703  22.383  23.093  1.00  0.00     0.009 A 
ATOM     19  C   UNL A   1      32.123  21.463  25.286  1.00  0.00     0.017 A 
ATOM     20  C   UNL A   1      31.941  21.145  22.507  1.00  0.00     0.009 A 
ATOM     21  C   UNL A   1      32.371  20.199  24.705  1.00  0.00    -0.018 A 
ATOM     22  C   UNL A   1      32.311  20.056  23.298  1.00  0.00    -0.018 A 
ATOM     23  C   UNL A   1      32.721  19.076  25.475  1.00  0.00     0.009 A 
ATOM     24  C   UNL A   1      32.632  18.831  22.699  1.00  0.00     0.009 A 
ATOM     25  C   UNL A   1      33.016  17.852  24.866  1.00  0.00     0.001 A 
ATOM     26  C   UNL A   1      32.984  17.733  23.480  1.00  0.00     0.001 A 
ENDBRANCH  11  17
ENDBRANCH   6   9
ENDBRANCH   4   5
ENDBRANCH   3   4
ENDBRANCH   2   3
ENDBRANCH   1   2
BRANCH   1  27
ATOM     27  C   UNL A   1      31.422  32.095  26.508  1.00  0.00     0.021 C 
BRANCH  27  28
ATOM     28  C   UNL A   1      32.600  32.721  27.246  1.00  0.00     0.116 C 
BRANCH  28  29
ATOM     29  N   UNL A   1      32.367  34.104  27.626  1.00  0.00    -0.352 N 
ATOM     30  C   UNL A   1      32.991  34.881  28.567  1.00  0.00     0.251 C 
ATOM     31  H   UNL A   1      31.647  34.554  27.128  1.00  0.00     0.163 HD
ATOM     32  O   UNL A   1      32.548  36.000  28.828  1.00  0.00    -0.269 OA
BRANCH  30  33
ATOM     33  C   UNL A   1      34.176  34.382  29.299  1.00  0.00     0.039 A 
ATOM     34  C   UNL A   1      33.982  33.702  30.504  1.00  0.00     0.014 A 
ATOM     35  C   UNL A   1      35.472  34.595  28.820  1.00  0.00     0.014 A 
ATOM     36  C   UNL A   1      35.076  33.174  31.191  1.00  0.00     0.010 A 
ATOM     37  C   UNL A   1      36.557  34.005  29.467  1.00  0.00     0.010 A 
ATOM     38  C   UNL A   1      36.370  33.283  30.656  1.00  0.00    -0.014 A 
BRANCH  38  39
ATOM     39  C   UNL A   1      37.529  32.625  31.314  1.00  0.00     0.031 A 
ATOM     40  C   UNL A   1      38.212  31.453  30.669  1.00  0.00     0.074 A 
ATOM     41  C   UNL A   1      37.922  33.043  32.533  1.00  0.00     0.049 A 
ATOM     42  N   UNL A   1      39.195  30.714  31.123  1.00  0.00    -0.248 NA
ATOM     43  C   UNL A   1      37.708  31.039  29.353  1.00  0.00     0.031 C 
ATOM     44  C   UNL A   1      37.305  34.135  33.287  1.00  0.00     0.029 A 
ATOM     45  N   UNL A   1      38.922  32.592  33.358  1.00  0.00    -0.354 N 
ATOM     46  C   UNL A   1      39.420  29.748  30.151  1.00  0.00     0.074 A 
ATOM     47  C   UNL A   1      38.431  29.956  29.115  1.00  0.00     0.031 C 
ATOM     48  C   UNL A   1      37.945  34.276  34.458  1.00  0.00     0.029 A 
ATOM     49  C   UNL A   1      38.988  33.259  34.557  1.00  0.00     0.049 A 
ATOM     50  H   UNL A   1      39.532  31.859  33.115  1.00  0.00     0.167 HD
ATOM     51  C   UNL A   1      40.379  28.789  30.116  1.00  0.00     0.037 A 
ATOM     52  C   UNL A   1      39.785  33.064  35.625  1.00  0.00     0.037 A 
ATOM     53  C   UNL A   1      41.360  28.588  31.152  1.00  0.00     0.049 A 
ATOM     54  C   UNL A   1      40.827  31.981  35.576  1.00  0.00     0.074 A 
ATOM     55  C   UNL A   1      42.407  27.683  31.185  1.00  0.00     0.029 A 
ATOM     56  N   UNL A   1      41.405  29.293  32.347  1.00  0.00    -0.354 N 
ATOM     57  N   UNL A   1      41.083  31.123  34.617  1.00  0.00    -0.248 NA
ATOM     58  C   UNL A   1      41.696  31.844  36.752  1.00  0.00     0.031 C 
ATOM     59  C   UNL A   1      43.044  27.797  32.426  1.00  0.00     0.029 A 
ATOM     60  C   UNL A   1      42.439  28.819  33.140  1.00  0.00     0.049 A 
ATOM     61  H   UNL A   1      40.793  30.024  32.594  1.00  0.00     0.167 HD
ATOM     62  C   UNL A   1      42.151  30.357  35.066  1.00  0.00     0.074 A 
ATOM     63  C   UNL A   1      42.507  30.867  36.374  1.00  0.00     0.031 C 
ATOM     64  C   UNL A   1      42.777  29.325  34.448  1.00  0.00     0.037 A 
BRANCH  51  65
ATOM     65  C   UNL A   1      40.399  27.877  28.920  1.00  0.00     0.064 A 
ATOM     66  C   UNL A   1      41.129  28.191  27.762  1.00  0.00     0.173 A 
ATOM     67  C   UNL A   1      39.683  26.670  28.931  1.00  0.00     0.173 A 
ATOM     68  F   UNL A   1      41.826  29.336  27.692  1.00  0.00    -0.203 F 
ATOM     69  C   UNL A   1      41.102  27.358  26.647  1.00  0.00     0.198 A 
ATOM     70  C   UNL A   1      39.690  25.820  27.827  1.00  0.00     0.198 A 
ATOM     71  F   UNL A   1      38.975  26.313  30.012  1.00  0.00    -0.203 F 
ATOM     72  F   UNL A   1      41.751  27.717  25.529  1.00  0.00    -0.200 F 
ATOM     73  C   UNL A   1      40.387  26.171  26.681  1.00  0.00     0.200 A 
ATOM     74  F   UNL A   1      39.011  24.666  27.869  1.00  0.00    -0.200 F 
ATOM     75  F   UNL A   1      40.361  25.371  25.607  1.00  0.00    -0.200 F 
ENDBRANCH  51  65
BRANCH  52  76
ATOM     76  C   UNL A   1      39.619  33.923  36.826  1.00  0.00     0.064 A 
ATOM     77  C   UNL A   1      40.235  35.179  36.910  1.00  0.00     0.173 A 
ATOM     78  C   UNL A   1      38.818  33.516  37.903  1.00  0.00     0.173 A 
ATOM     79  F   UNL A   1      41.027  35.605  35.915  1.00  0.00    -0.203 F 
ATOM     80  C   UNL A   1      40.062  35.991  38.030  1.00  0.00     0.198 A 
ATOM     81  C   UNL A   1      38.622  34.341  39.008  1.00  0.00     0.198 A 
ATOM     82  F   UNL A   1      38.202  32.325  37.870  1.00  0.00    -0.203 F 
ATOM     83  F   UNL A   1      40.692  37.171  38.101  1.00  0.00    -0.200 F 
ATOM     84  C   UNL A   1      39.249  35.575  39.074  1.00  0.00     0.200 A 
ATOM     85  F   UNL A   1      37.821  33.942  40.005  1.00  0.00    -0.200 F 
ATOM     86  F   UNL A   1      39.073  36.363  40.143  1.00  0.00    -0.200 F 
ENDBRANCH  52  76
BRANCH  64  87
ATOM     87  C   UNL A   1      43.928  28.684  35.173  1.00  0.00     0.064 A 
ATOM     88  C   UNL A   1      43.732  27.634  36.082  1.00  0.00     0.173 A 
ATOM     89  C   UNL A   1      45.245  29.097  34.923  1.00  0.00     0.173 A 
ATOM     90  F   UNL A   1      42.492  27.210  36.368  1.00  0.00    -0.203 F 
ATOM     91  C   UNL A   1      44.811  27.040  36.733  1.00  0.00     0.198 A 
ATOM     92  C   UNL A   1      46.323  28.479  35.550  1.00  0.00     0.198 A 
ATOM     93  F   UNL A   1      45.489  30.094  34.058  1.00  0.00    -0.203 F 
ATOM     94  F   UNL A   1      44.597  26.072  37.635  1.00  0.00    -0.200 F 
ATOM     95  C   UNL A   1      46.106  27.457  36.460  1.00  0.00     0.200 A 
ATOM     96  F   UNL A   1      47.574  28.872  35.273  1.00  0.00    -0.200 F 
ATOM     97  F   UNL A   1      47.143  26.877  37.080  1.00  0.00    -0.200 F 
ENDBRANCH  64  87
ENDBRANCH  38  39
ENDBRANCH  30  33
ENDBRANCH  28  29
ENDBRANCH  27  28
ENDBRANCH   1  27
TORSDOF 15
ENDMDL
MODEL 3
REMARK VINA RESULT:     -13.2      1.404      2.789
REMARK SMILES COc1c(C(=O)NCCCCCCNC(=O)c2ccc(-c3c4nc(c(-c5c(F)c(F)c(F)c(F)c5F)c5ccc([nH]5)c(-c5c(F)c(F)c(F)c(F)c5F)c5nc(c(-c6c(F)c(F)c(F)c(F)c6F)c6ccc3[nH]6)C=C5)C=C4)cc2)cccc1-c1ccc2ccccc2c1
REMARK SMILES IDX 11 1 10 2 9 3 8 4 7 5 5 6 6 7 4 9 3 10 83 11 80 12 82 13
REMARK SMILES IDX 81 14 2 15 1 16 84 17 85 18 93 19 86 20 92 21 87 22 91 23
REMARK SMILES IDX 88 24 90 25 89 26 12 27 13 28 14 29 15 30 16 32 17 33 18 34
REMARK SMILES IDX 79 35 19 36 78 37 20 38 21 39 22 40 72 41 23 42 77 43 71 44
REMARK SMILES IDX 73 45 24 46 76 47 70 48 69 49 25 51 57 52 37 53 56 54 38 55
REMARK SMILES IDX 41 56 55 57 74 58 39 59 40 60 54 62 75 63 42 64 26 65 27 66
REMARK SMILES IDX 35 67 28 68 29 69 33 70 36 71 30 72 31 73 34 74 32 75 58 76
REMARK SMILES IDX 59 77 67 78 60 79 61 80 65 81 68 82 62 83 63 84 66 85 64 86
REMARK SMILES IDX 43 87 44 88 52 89 45 90 46 91 50 92 53 93 47 94 48 95 51 96
REMARK SMILES IDX 49 97
REMARK H PARENT 7 8 14 31 73 50 41 61
REMARK Flexibility Score: inf
ROOT
ATOM      1  C   UNL A   1      31.604  30.723  26.116  1.00  0.00     0.002 C 
ENDROOT
BRANCH   1   2
ATOM      2  C   UNL A   1      32.160  29.658  27.067  1.00  0.00     0.002 C 
BRANCH   2   3
ATOM      3  C   UNL A   1      33.396  28.881  26.616  1.00  0.00     0.021 C 
BRANCH   3   4
ATOM      4  C   UNL A   1      33.258  27.374  26.484  1.00  0.00     0.116 C 
BRANCH   4   5
ATOM      5  N   UNL A   1      31.941  26.803  26.530  1.00  0.00    -0.352 N 
ATOM      6  C   UNL A   1      31.553  25.538  26.124  1.00  0.00     0.255 C 
ATOM      7  O   UNL A   1      30.413  25.174  26.422  1.00  0.00    -0.269 OA
ATOM      8  H   UNL A   1      31.230  27.379  26.894  1.00  0.00     0.163 HD
BRANCH   6   9
ATOM      9  C   UNL A   1      32.377  24.662  25.219  1.00  0.00     0.082 A 
ATOM     10  C   UNL A   1      33.482  23.853  25.580  1.00  0.00     0.139 A 
ATOM     11  C   UNL A   1      34.270  23.250  24.556  1.00  0.00     0.025 A 
ATOM     12  C   UNL A   1      31.987  24.727  23.866  1.00  0.00     0.018 A 
ATOM     13  C   UNL A   1      33.821  23.322  23.220  1.00  0.00     0.012 A 
ATOM     14  C   UNL A   1      32.678  24.035  22.878  1.00  0.00     0.002 A 
BRANCH  10  15
ATOM     15  O   UNL A   1      33.642  23.591  26.922  1.00  0.00    -0.495 OA
ATOM     16  C   UNL A   1      32.858  22.568  27.530  1.00  0.00     0.278 C 
ENDBRANCH  10  15
BRANCH  11  17
ATOM     17  C   UNL A   1      35.654  22.788  24.757  1.00  0.00    -0.014 A 
ATOM     18  C   UNL A   1      36.570  23.732  25.255  1.00  0.00     0.009 A 
ATOM     19  C   UNL A   1      36.083  21.464  24.584  1.00  0.00     0.017 A 
ATOM     20  C   UNL A   1      37.835  23.353  25.689  1.00  0.00     0.009 A 
ATOM     21  C   UNL A   1      37.364  21.062  25.025  1.00  0.00    -0.018 A 
ATOM     22  C   UNL A   1      38.229  22.017  25.614  1.00  0.00    -0.018 A 
ATOM     23  C   UNL A   1      37.802  19.729  24.939  1.00  0.00     0.009 A 
ATOM     24  C   UNL A   1      39.470  21.620  26.129  1.00  0.00     0.009 A 
ATOM     25  C   UNL A   1      39.053  19.351  25.436  1.00  0.00     0.001 A 
ATOM     26  C   UNL A   1      39.881  20.293  26.041  1.00  0.00     0.001 A 
ENDBRANCH  11  17
ENDBRANCH   6   9
ENDBRANCH   4   5
ENDBRANCH   3   4
ENDBRANCH   2   3
ENDBRANCH   1   2
BRANCH   1  27
ATOM     27  C   UNL A   1      31.396  32.133  26.674  1.00  0.00     0.021 C 
BRANCH  27  28
ATOM     28  C   UNL A   1      32.625  32.829  27.250  1.00  0.00     0.116 C 
BRANCH  28  29
ATOM     29  N   UNL A   1      32.372  34.205  27.642  1.00  0.00    -0.352 N 
ATOM     30  C   UNL A   1      32.974  34.977  28.601  1.00  0.00     0.251 C 
ATOM     31  H   UNL A   1      31.655  34.653  27.138  1.00  0.00     0.163 HD
ATOM     32  O   UNL A   1      32.515  36.088  28.869  1.00  0.00    -0.269 OA
BRANCH  30  33
ATOM     33  C   UNL A   1      34.153  34.482  29.345  1.00  0.00     0.039 A 
ATOM     34  C   UNL A   1      33.955  33.888  30.595  1.00  0.00     0.014 A 
ATOM     35  C   UNL A   1      35.447  34.612  28.834  1.00  0.00     0.014 A 
ATOM     36  C   UNL A   1      35.041  33.364  31.298  1.00  0.00     0.010 A 
ATOM     37  C   UNL A   1      36.521  34.024  29.500  1.00  0.00     0.010 A 
ATOM     38  C   UNL A   1      36.328  33.389  30.737  1.00  0.00    -0.014 A 
BRANCH  38  39
ATOM     39  C   UNL A   1      37.474  32.731  31.418  1.00  0.00     0.031 A 
ATOM     40  C   UNL A   1      38.161  31.550  30.794  1.00  0.00     0.074 A 
ATOM     41  C   UNL A   1      37.850  33.158  32.639  1.00  0.00     0.049 A 
ATOM     42  N   UNL A   1      39.133  30.810  31.269  1.00  0.00    -0.248 NA
ATOM     43  C   UNL A   1      37.674  31.127  29.473  1.00  0.00     0.031 C 
ATOM     44  C   UNL A   1      37.227  34.259  33.374  1.00  0.00     0.029 A 
ATOM     45  N   UNL A   1      38.835  32.709  33.484  1.00  0.00    -0.354 N 
ATOM     46  C   UNL A   1      39.368  29.835  30.309  1.00  0.00     0.074 A 
ATOM     47  C   UNL A   1      38.395  30.038  29.256  1.00  0.00     0.031 C 
ATOM     48  C   UNL A   1      37.851  34.407  34.554  1.00  0.00     0.029 A 
ATOM     49  C   UNL A   1      38.886  33.386  34.677  1.00  0.00     0.049 A 
ATOM     50  H   UNL A   1      39.445  31.971  33.256  1.00  0.00     0.167 HD
ATOM     51  C   UNL A   1      40.322  28.871  30.297  1.00  0.00     0.037 A 
ATOM     52  C   UNL A   1      39.665  33.196  35.759  1.00  0.00     0.037 A 
ATOM     53  C   UNL A   1      41.286  28.674  31.349  1.00  0.00     0.049 A 
ATOM     54  C   UNL A   1      40.703  32.108  35.736  1.00  0.00     0.074 A 
ATOM     55  C   UNL A   1      42.328  27.764  31.406  1.00  0.00     0.029 A 
ATOM     56  N   UNL A   1      41.317  29.389  32.539  1.00  0.00    -0.354 N 
ATOM     57  N   UNL A   1      40.969  31.240  34.788  1.00  0.00    -0.248 NA
ATOM     58  C   UNL A   1      41.553  31.977  36.926  1.00  0.00     0.031 C 
ATOM     59  C   UNL A   1      42.947  27.886  32.656  1.00  0.00     0.029 A 
ATOM     60  C   UNL A   1      42.336  28.917  33.351  1.00  0.00     0.049 A 
ATOM     61  H   UNL A   1      40.704  30.125  32.771  1.00  0.00     0.167 HD
ATOM     62  C   UNL A   1      42.026  30.473  35.260  1.00  0.00     0.074 A 
ATOM     63  C   UNL A   1      42.365  30.992  36.568  1.00  0.00     0.031 C 
ATOM     64  C   UNL A   1      42.657  29.433  34.660  1.00  0.00     0.037 A 
BRANCH  51  65
ATOM     65  C   UNL A   1      40.356  27.949  29.109  1.00  0.00     0.064 A 
ATOM     66  C   UNL A   1      41.099  28.253  27.956  1.00  0.00     0.173 A 
ATOM     67  C   UNL A   1      39.640  26.741  29.123  1.00  0.00     0.173 A 
ATOM     68  F   UNL A   1      41.796  29.397  27.885  1.00  0.00    -0.203 F 
ATOM     69  C   UNL A   1      41.085  27.409  26.848  1.00  0.00     0.198 A 
ATOM     70  C   UNL A   1      39.659  25.881  28.027  1.00  0.00     0.198 A 
ATOM     71  F   UNL A   1      38.920  26.393  30.199  1.00  0.00    -0.203 F 
ATOM     72  F   UNL A   1      41.746  27.759  25.735  1.00  0.00    -0.200 F 
ATOM     73  C   UNL A   1      40.370  26.223  26.886  1.00  0.00     0.200 A 
ATOM     74  F   UNL A   1      38.981  24.727  28.071  1.00  0.00    -0.200 F 
ATOM     75  F   UNL A   1      40.356  25.413  25.818  1.00  0.00    -0.200 F 
ENDBRANCH  51  65
BRANCH  52  76
ATOM     76  C   UNL A   1      39.486  34.067  36.950  1.00  0.00     0.064 A 
ATOM     77  C   UNL A   1      38.738  33.639  38.055  1.00  0.00     0.173 A 
ATOM     78  C   UNL A   1      40.084  35.334  37.018  1.00  0.00     0.173 A 
ATOM     79  F   UNL A   1      38.130  32.444  38.031  1.00  0.00    -0.203 F 
ATOM     80  C   UNL A   1      38.587  34.451  39.179  1.00  0.00     0.198 A 
ATOM     81  C   UNL A   1      39.957  36.131  38.152  1.00  0.00     0.198 A 
ATOM     82  F   UNL A   1      40.815  35.788  35.988  1.00  0.00    -0.203 F 
ATOM     83  F   UNL A   1      37.836  34.033  40.206  1.00  0.00    -0.200 F 
ATOM     84  C   UNL A   1      39.204  35.692  39.230  1.00  0.00     0.200 A 
ATOM     85  F   UNL A   1      40.571  37.321  38.204  1.00  0.00    -0.200 F 
ATOM     86  F   UNL A   1      39.070  36.465  40.316  1.00  0.00    -0.200 F 
ENDBRANCH  52  76
BRANCH  64  87
ATOM     87  C   UNL A   1      43.793  28.792  35.408  1.00  0.00     0.064 A 
ATOM     88  C   UNL A   1      43.579  27.746  36.317  1.00  0.00     0.173 A 
ATOM     89  C   UNL A   1      45.115  29.202  35.181  1.00  0.00     0.173 A 
ATOM     90  F   UNL A   1      42.333  27.325  36.583  1.00  0.00    -0.203 F 
ATOM     91  C   UNL A   1      44.645  27.152  36.990  1.00  0.00     0.198 A 
ATOM     92  C   UNL A   1      46.181  28.584  35.829  1.00  0.00     0.198 A 
ATOM     93  F   UNL A   1      45.377  30.195  34.317  1.00  0.00    -0.203 F 
ATOM     94  F   UNL A   1      44.412  26.188  37.892  1.00  0.00    -0.200 F 
ATOM     95  C   UNL A   1      45.945  27.566  36.739  1.00  0.00     0.200 A 
ATOM     96  F   UNL A   1      47.437  28.975  35.573  1.00  0.00    -0.200 F 
ATOM     97  F   UNL A   1      46.969  26.987  37.380  1.00  0.00    -0.200 F 
ENDBRANCH  64  87
ENDBRANCH  38  39
ENDBRANCH  30  33
ENDBRANCH  28  29
ENDBRANCH  27  28
ENDBRANCH   1  27
TORSDOF 15
ENDMDL
