MODEL 1
REMARK VINA RESULT:     -11.5      0.000      0.000
REMARK SMILES C[C@H]([NH2+]Cc1ccccc1F)C(=O)NCCCCCCNC(=O)c1ccc(-c2c3nc(c(-c4c(F)c(F)c(F)c(F)c4F)c4ccc([nH]4)c(-c4c(F)c(F)c(F)c(F)c4F)c4nc(c(-c5c(F)c(F)c(F)c(F)c5F)c5ccc2[nH]5)C=C4)C=C3)cc1
REMARK SMILES IDX 17 1 16 2 15 3 14 4 12 5 13 6 2 8 1 9 3 10 4 13 5 14 6 15
REMARK SMILES IDX 10 16 7 17 9 18 11 19 8 20 18 21 19 22 20 23 21 24 22 25
REMARK SMILES IDX 23 27 24 28 25 29 86 30 26 31 85 32 27 33 28 34 29 35 79 36
REMARK SMILES IDX 30 37 84 38 78 39 80 40 31 41 83 42 77 43 76 44 32 46 64 47
REMARK SMILES IDX 44 48 63 49 45 50 48 51 62 52 81 53 46 54 47 55 61 57 82 58
REMARK SMILES IDX 49 59 33 60 34 61 42 62 35 63 36 64 40 65 43 66 37 67 38 68
REMARK SMILES IDX 41 69 39 70 65 71 66 72 74 73 67 74 68 75 72 76 75 77 69 78
REMARK SMILES IDX 70 79 73 80 71 81 50 82 51 83 59 84 52 85 53 86 57 87 60 88
REMARK SMILES IDX 54 89 55 90 58 91 56 92
REMARK H PARENT 14 7 3 11 3 12 21 26 80 45 48 56
REMARK Flexibility Score: inf
ROOT
ATOM      1  C   UNL A   1      32.574  29.898  27.006  1.00  0.00     0.002 C 
ENDROOT
BRANCH   1   2
ATOM      2  C   UNL A   1      33.806  29.356  26.272  1.00  0.00     0.021 C 
BRANCH   2   3
ATOM      3  C   UNL A   1      33.508  28.218  25.297  1.00  0.00     0.116 C 
BRANCH   3   4
ATOM      4  N   UNL A   1      34.001  28.507  23.965  1.00  0.00    -0.351 N 
ATOM      5  C   UNL A   1      33.747  27.907  22.767  1.00  0.00     0.277 C 
ATOM      6  O   UNL A   1      34.321  28.364  21.772  1.00  0.00    -0.268 OA
ATOM      7  H   UNL A   1      34.628  29.265  23.918  1.00  0.00     0.163 HD
BRANCH   5   8
ATOM      8  C   UNL A   1      32.740  26.743  22.628  1.00  0.00     0.269 C 
ATOM      9  C   UNL A   1      33.365  25.580  21.851  1.00  0.00     0.086 C 
BRANCH   8  10
ATOM     10  N   UNL A   1      31.463  27.240  22.075  1.00  0.00    -0.332 N 
ATOM     11  H   UNL A   1      31.135  26.584  21.366  1.00  0.00     0.347 HD
ATOM     12  H   UNL A   1      31.633  28.163  21.676  1.00  0.00     0.347 HD
BRANCH  10  13
ATOM     13  C   UNL A   1      30.431  27.377  23.103  1.00  0.00     0.301 C 
BRANCH  13  14
ATOM     14  C   UNL A   1      29.528  28.540  22.786  1.00  0.00     0.042 A 
ATOM     15  C   UNL A   1      30.029  29.676  22.133  1.00  0.00     0.012 A 
ATOM     16  C   UNL A   1      28.169  28.501  23.106  1.00  0.00     0.132 A 
ATOM     17  C   UNL A   1      29.186  30.747  21.828  1.00  0.00     0.001 A 
ATOM     18  C   UNL A   1      27.322  29.564  22.805  1.00  0.00     0.040 A 
ATOM     19  F   UNL A   1      27.653  27.417  23.706  1.00  0.00    -0.206 F 
ATOM     20  C   UNL A   1      27.833  30.693  22.165  1.00  0.00     0.003 A 
ENDBRANCH  13  14
ENDBRANCH  10  13
ENDBRANCH   8  10
ENDBRANCH   5   8
ENDBRANCH   3   4
ENDBRANCH   2   3
ENDBRANCH   1   2
BRANCH   1  21
ATOM     21  C   UNL A   1      31.630  30.763  26.162  1.00  0.00     0.002 C 
BRANCH  21  22
ATOM     22  C   UNL A   1      31.428  32.197  26.661  1.00  0.00     0.021 C 
BRANCH  22  23
ATOM     23  C   UNL A   1      32.695  32.897  27.143  1.00  0.00     0.116 C 
BRANCH  23  24
ATOM     24  N   UNL A   1      32.443  34.261  27.580  1.00  0.00    -0.352 N 
ATOM     25  C   UNL A   1      33.017  34.972  28.602  1.00  0.00     0.251 C 
ATOM     26  H   UNL A   1      31.759  34.747  27.064  1.00  0.00     0.163 HD
ATOM     27  O   UNL A   1      32.554  36.065  28.927  1.00  0.00    -0.269 OA
BRANCH  25  28
ATOM     28  C   UNL A   1      34.177  34.424  29.337  1.00  0.00     0.039 A 
ATOM     29  C   UNL A   1      33.948  33.738  30.533  1.00  0.00     0.014 A 
ATOM     30  C   UNL A   1      35.482  34.602  28.869  1.00  0.00     0.014 A 
ATOM     31  C   UNL A   1      35.022  33.177  31.228  1.00  0.00     0.010 A 
ATOM     32  C   UNL A   1      36.546  33.990  29.530  1.00  0.00     0.010 A 
ATOM     33  C   UNL A   1      36.326  33.270  30.714  1.00  0.00    -0.014 A 
BRANCH  33  34
ATOM     34  C   UNL A   1      37.463  32.603  31.396  1.00  0.00     0.031 A 
ATOM     35  C   UNL A   1      38.181  31.458  30.741  1.00  0.00     0.074 A 
ATOM     36  C   UNL A   1      37.817  33.000  32.633  1.00  0.00     0.049 A 
ATOM     37  N   UNL A   1      39.167  30.729  31.201  1.00  0.00    -0.248 NA
ATOM     38  C   UNL A   1      37.717  31.065  29.402  1.00  0.00     0.031 C 
ATOM     39  C   UNL A   1      37.169  34.072  33.390  1.00  0.00     0.029 A 
ATOM     40  N   UNL A   1      38.804  32.548  33.473  1.00  0.00    -0.354 N 
ATOM     41  C   UNL A   1      39.435  29.790  30.216  1.00  0.00     0.074 A 
ATOM     42  C   UNL A   1      38.477  30.008  29.152  1.00  0.00     0.031 C 
ATOM     43  C   UNL A   1      37.795  34.216  34.569  1.00  0.00     0.029 A 
ATOM     44  C   UNL A   1      38.864  33.226  34.665  1.00  0.00     0.049 A 
ATOM     45  H   UNL A   1      39.412  31.809  33.242  1.00  0.00     0.167 HD
ATOM     46  C   UNL A   1      40.407  28.849  30.190  1.00  0.00     0.037 A 
ATOM     47  C   UNL A   1      39.689  33.070  35.718  1.00  0.00     0.037 A 
ATOM     48  C   UNL A   1      41.374  28.651  31.238  1.00  0.00     0.049 A 
ATOM     49  C   UNL A   1      40.755  32.013  35.670  1.00  0.00     0.074 A 
ATOM     50  C   UNL A   1      42.434  27.762  31.275  1.00  0.00     0.029 A 
ATOM     51  N   UNL A   1      41.398  29.351  32.435  1.00  0.00    -0.354 N 
ATOM     52  N   UNL A   1      41.032  31.164  34.710  1.00  0.00    -0.248 NA
ATOM     53  C   UNL A   1      41.622  31.889  36.850  1.00  0.00     0.031 C 
ATOM     54  C   UNL A   1      43.074  27.895  32.511  1.00  0.00     0.029 A 
ATOM     55  C   UNL A   1      42.441  28.898  33.227  1.00  0.00     0.049 A 
ATOM     56  H   UNL A   1      40.767  30.065  32.685  1.00  0.00     0.167 HD
ATOM     57  C   UNL A   1      42.112  30.417  35.161  1.00  0.00     0.074 A 
ATOM     58  C   UNL A   1      42.450  30.922  36.476  1.00  0.00     0.031 C 
ATOM     59  C   UNL A   1      42.762  29.405  34.538  1.00  0.00     0.037 A 
BRANCH  46  60
ATOM     60  C   UNL A   1      40.487  27.962  28.982  1.00  0.00     0.064 A 
ATOM     61  C   UNL A   1      41.253  28.338  27.870  1.00  0.00     0.173 A 
ATOM     62  C   UNL A   1      39.760  26.764  28.906  1.00  0.00     0.173 A 
ATOM     63  F   UNL A   1      41.962  29.476  27.889  1.00  0.00    -0.203 F 
ATOM     64  C   UNL A   1      41.284  27.550  26.721  1.00  0.00     0.198 A 
ATOM     65  C   UNL A   1      39.815  25.965  27.766  1.00  0.00     0.198 A 
ATOM     66  F   UNL A   1      39.021  26.355  29.947  1.00  0.00    -0.203 F 
ATOM     67  F   UNL A   1      42.003  27.942  25.660  1.00  0.00    -0.200 F 
ATOM     68  C   UNL A   1      40.570  26.363  26.673  1.00  0.00     0.200 A 
ATOM     69  F   UNL A   1      39.143  24.806  27.730  1.00  0.00    -0.200 F 
ATOM     70  F   UNL A   1      40.611  25.598  25.573  1.00  0.00    -0.200 F 
ENDBRANCH  46  60
BRANCH  47  71
ATOM     71  C   UNL A   1      39.554  33.974  36.888  1.00  0.00     0.064 A 
ATOM     72  C   UNL A   1      40.225  35.204  36.943  1.00  0.00     0.173 A 
ATOM     73  C   UNL A   1      38.787  33.595  37.997  1.00  0.00     0.173 A 
ATOM     74  F   UNL A   1      40.976  35.608  35.908  1.00  0.00    -0.203 F 
ATOM     75  C   UNL A   1      40.150  36.012  38.075  1.00  0.00     0.198 A 
ATOM     76  C   UNL A   1      38.695  34.414  39.120  1.00  0.00     0.198 A 
ATOM     77  F   UNL A   1      38.113  32.436  37.980  1.00  0.00    -0.203 F 
ATOM     78  F   UNL A   1      40.829  37.166  38.119  1.00  0.00    -0.200 F 
ATOM     79  C   UNL A   1      39.385  35.617  39.163  1.00  0.00     0.200 A 
ATOM     80  F   UNL A   1      37.940  34.037  40.161  1.00  0.00    -0.200 F 
ATOM     81  F   UNL A   1      39.311  36.395  40.251  1.00  0.00    -0.200 F 
ENDBRANCH  47  71
BRANCH  59  82
ATOM     82  C   UNL A   1      43.909  28.767  35.264  1.00  0.00     0.064 A 
ATOM     83  C   UNL A   1      45.219  29.236  35.076  1.00  0.00     0.173 A 
ATOM     84  C   UNL A   1      43.721  27.649  36.087  1.00  0.00     0.173 A 
ATOM     85  F   UNL A   1      45.451  30.299  34.292  1.00  0.00    -0.203 F 
ATOM     86  C   UNL A   1      46.300  28.596  35.676  1.00  0.00     0.198 A 
ATOM     87  C   UNL A   1      44.802  27.027  36.706  1.00  0.00     0.198 A 
ATOM     88  F   UNL A   1      42.486  27.173  36.307  1.00  0.00    -0.203 F 
ATOM     89  F   UNL A   1      47.545  29.041  35.458  1.00  0.00    -0.200 F 
ATOM     90  C   UNL A   1      46.090  27.495  36.492  1.00  0.00     0.200 A 
ATOM     91  F   UNL A   1      44.597  25.976  37.511  1.00  0.00    -0.200 F 
ATOM     92  F   UNL A   1      47.131  26.885  37.075  1.00  0.00    -0.200 F 
ENDBRANCH  59  82
ENDBRANCH  33  34
ENDBRANCH  25  28
ENDBRANCH  23  24
ENDBRANCH  22  23
ENDBRANCH  21  22
ENDBRANCH   1  21
TORSDOF 16
ENDMDL
MODEL 2
REMARK VINA RESULT:     -11.3      6.565     11.762
REMARK SMILES C[C@H]([NH2+]Cc1ccccc1F)C(=O)NCCCCCCNC(=O)c1ccc(-c2c3nc(c(-c4c(F)c(F)c(F)c(F)c4F)c4ccc([nH]4)c(-c4c(F)c(F)c(F)c(F)c4F)c4nc(c(-c5c(F)c(F)c(F)c(F)c5F)c5ccc2[nH]5)C=C4)C=C3)cc1
REMARK SMILES IDX 17 1 16 2 15 3 14 4 12 5 13 6 2 8 1 9 3 10 4 13 5 14 6 15
REMARK SMILES IDX 10 16 7 17 9 18 11 19 8 20 18 21 19 22 20 23 21 24 22 25
REMARK SMILES IDX 23 27 24 28 25 29 86 30 26 31 85 32 27 33 28 34 29 35 79 36
REMARK SMILES IDX 30 37 84 38 78 39 80 40 31 41 83 42 77 43 76 44 32 46 64 47
REMARK SMILES IDX 44 48 63 49 45 50 48 51 62 52 81 53 46 54 47 55 61 57 82 58
REMARK SMILES IDX 49 59 33 60 34 61 42 62 35 63 36 64 40 65 43 66 37 67 38 68
REMARK SMILES IDX 41 69 39 70 65 71 66 72 74 73 67 74 68 75 72 76 75 77 69 78
REMARK SMILES IDX 70 79 73 80 71 81 50 82 51 83 59 84 52 85 53 86 57 87 60 88
REMARK SMILES IDX 54 89 55 90 58 91 56 92
REMARK H PARENT 14 7 3 11 3 12 21 26 80 45 48 56
REMARK Flexibility Score: inf
ROOT
ATOM      1  C   UNL A   1      37.536  21.865  25.119  1.00  0.00     0.002 C 
ENDROOT
BRANCH   1   2
ATOM      2  C   UNL A   1      36.641  22.945  24.499  1.00  0.00     0.021 C 
BRANCH   2   3
ATOM      3  C   UNL A   1      36.045  23.925  25.508  1.00  0.00     0.116 C 
BRANCH   3   4
ATOM      4  N   UNL A   1      35.470  23.239  26.648  1.00  0.00    -0.351 N 
ATOM      5  C   UNL A   1      34.207  22.771  26.867  1.00  0.00     0.277 C 
ATOM      6  O   UNL A   1      33.988  22.222  27.952  1.00  0.00    -0.268 OA
ATOM      7  H   UNL A   1      36.097  23.086  27.392  1.00  0.00     0.163 HD
BRANCH   5   8
ATOM      8  C   UNL A   1      33.100  22.860  25.792  1.00  0.00     0.269 C 
ATOM      9  C   UNL A   1      31.730  23.062  26.447  1.00  0.00     0.086 C 
BRANCH   8  10
ATOM     10  N   UNL A   1      33.185  21.701  24.879  1.00  0.00    -0.332 N 
ATOM     11  H   UNL A   1      34.071  21.221  25.040  1.00  0.00     0.347 HD
ATOM     12  H   UNL A   1      33.121  22.050  23.923  1.00  0.00     0.347 HD
BRANCH  10  13
ATOM     13  C   UNL A   1      32.090  20.753  25.086  1.00  0.00     0.301 C 
BRANCH  13  14
ATOM     14  C   UNL A   1      32.491  19.380  24.613  1.00  0.00     0.042 A 
ATOM     15  C   UNL A   1      32.874  18.391  25.531  1.00  0.00     0.012 A 
ATOM     16  C   UNL A   1      32.458  19.052  23.255  1.00  0.00     0.132 A 
ATOM     17  C   UNL A   1      33.231  17.115  25.089  1.00  0.00     0.001 A 
ATOM     18  C   UNL A   1      32.812  17.782  22.808  1.00  0.00     0.040 A 
ATOM     19  F   UNL A   1      32.069  19.967  22.354  1.00  0.00    -0.206 F 
ATOM     20  C   UNL A   1      33.203  16.811  23.727  1.00  0.00     0.003 A 
ENDBRANCH  13  14
ENDBRANCH  10  13
ENDBRANCH   8  10
ENDBRANCH   5   8
ENDBRANCH   3   4
ENDBRANCH   2   3
ENDBRANCH   1   2
BRANCH   1  21
ATOM     21  C   UNL A   1      37.162  20.419  24.772  1.00  0.00     0.002 C 
BRANCH  21  22
ATOM     22  C   UNL A   1      38.226  19.367  25.099  1.00  0.00     0.021 C 
BRANCH  22  23
ATOM     23  C   UNL A   1      39.435  19.890  25.871  1.00  0.00     0.116 C 
BRANCH  23  24
ATOM     24  N   UNL A   1      40.511  18.915  25.942  1.00  0.00    -0.352 N 
ATOM     25  C   UNL A   1      41.858  19.111  26.106  1.00  0.00     0.251 C 
ATOM     26  H   UNL A   1      40.231  17.974  25.862  1.00  0.00     0.163 HD
ATOM     27  O   UNL A   1      42.637  18.166  25.975  1.00  0.00    -0.269 OA
BRANCH  25  28
ATOM     28  C   UNL A   1      42.388  20.455  26.415  1.00  0.00     0.039 A 
ATOM     29  C   UNL A   1      42.907  21.227  25.372  1.00  0.00     0.014 A 
ATOM     30  C   UNL A   1      42.398  20.948  27.723  1.00  0.00     0.014 A 
ATOM     31  C   UNL A   1      43.378  22.516  25.629  1.00  0.00     0.010 A 
ATOM     32  C   UNL A   1      42.812  22.256  27.970  1.00  0.00     0.010 A 
ATOM     33  C   UNL A   1      43.304  23.053  26.926  1.00  0.00    -0.014 A 
BRANCH  33  34
ATOM     34  C   UNL A   1      43.719  24.452  27.195  1.00  0.00     0.031 A 
ATOM     35  C   UNL A   1      42.725  25.461  27.693  1.00  0.00     0.074 A 
ATOM     36  C   UNL A   1      44.988  24.825  26.943  1.00  0.00     0.049 A 
ATOM     37  N   UNL A   1      42.896  26.735  27.945  1.00  0.00    -0.248 NA
ATOM     38  C   UNL A   1      41.353  24.984  27.918  1.00  0.00     0.031 C 
ATOM     39  C   UNL A   1      46.034  23.947  26.418  1.00  0.00     0.029 A 
ATOM     40  N   UNL A   1      45.613  26.038  27.089  1.00  0.00    -0.354 N 
ATOM     41  C   UNL A   1      41.657  27.211  28.348  1.00  0.00     0.074 A 
ATOM     42  C   UNL A   1      40.729  26.102  28.262  1.00  0.00     0.031 C 
ATOM     43  C   UNL A   1      47.179  24.641  26.316  1.00  0.00     0.029 A 
ATOM     44  C   UNL A   1      46.939  26.020  26.735  1.00  0.00     0.049 A 
ATOM     45  H   UNL A   1      45.154  26.845  27.418  1.00  0.00     0.167 HD
ATOM     46  C   UNL A   1      41.328  28.452  28.775  1.00  0.00     0.037 A 
ATOM     47  C   UNL A   1      47.860  27.002  26.747  1.00  0.00     0.037 A 
ATOM     48  C   UNL A   1      42.257  29.547  28.883  1.00  0.00     0.049 A 
ATOM     49  C   UNL A   1      47.470  28.374  27.216  1.00  0.00     0.074 A 
ATOM     50  C   UNL A   1      42.030  30.825  29.362  1.00  0.00     0.029 A 
ATOM     51  N   UNL A   1      43.591  29.492  28.506  1.00  0.00    -0.354 N 
ATOM     52  N   UNL A   1      46.306  28.799  27.644  1.00  0.00    -0.248 NA
ATOM     53  C   UNL A   1      48.518  29.404  27.203  1.00  0.00     0.031 C 
ATOM     54  C   UNL A   1      43.215  31.557  29.236  1.00  0.00     0.029 A 
ATOM     55  C   UNL A   1      44.194  30.721  28.721  1.00  0.00     0.049 A 
ATOM     56  H   UNL A   1      44.043  28.697  28.141  1.00  0.00     0.167 HD
ATOM     57  C   UNL A   1      46.484  30.137  27.966  1.00  0.00     0.074 A 
ATOM     58  C   UNL A   1      47.872  30.452  27.698  1.00  0.00     0.031 C 
ATOM     59  C   UNL A   1      45.575  31.023  28.441  1.00  0.00     0.037 A 
BRANCH  46  60
ATOM     60  C   UNL A   1      39.902  28.698  29.171  1.00  0.00     0.064 A 
ATOM     61  C   UNL A   1      38.981  29.207  28.243  1.00  0.00     0.173 A 
ATOM     62  C   UNL A   1      39.460  28.482  30.484  1.00  0.00     0.173 A 
ATOM     63  F   UNL A   1      39.353  29.438  26.976  1.00  0.00    -0.203 F 
ATOM     64  C   UNL A   1      37.671  29.496  28.619  1.00  0.00     0.198 A 
ATOM     65  C   UNL A   1      38.142  28.746  30.849  1.00  0.00     0.198 A 
ATOM     66  F   UNL A   1      40.299  27.986  31.406  1.00  0.00    -0.203 F 
ATOM     67  F   UNL A   1      36.814  30.005  27.722  1.00  0.00    -0.200 F 
ATOM     68  C   UNL A   1      37.252  29.260  29.919  1.00  0.00     0.200 A 
ATOM     69  F   UNL A   1      37.732  28.494  32.101  1.00  0.00    -0.200 F 
ATOM     70  F   UNL A   1      35.987  29.524  30.276  1.00  0.00    -0.200 F 
ENDBRANCH  46  60
BRANCH  47  71
ATOM     71  C   UNL A   1      49.254  26.697  26.334  1.00  0.00     0.064 A 
ATOM     72  C   UNL A   1      50.210  26.256  27.259  1.00  0.00     0.173 A 
ATOM     73  C   UNL A   1      49.664  26.893  25.009  1.00  0.00     0.173 A 
ATOM     74  F   UNL A   1      49.867  26.059  28.540  1.00  0.00    -0.203 F 
ATOM     75  C   UNL A   1      51.533  26.043  26.877  1.00  0.00     0.198 A 
ATOM     76  C   UNL A   1      50.981  26.658  24.623  1.00  0.00     0.198 A 
ATOM     77  F   UNL A   1      48.778  27.296  24.086  1.00  0.00    -0.203 F 
ATOM     78  F   UNL A   1      52.438  25.656  27.786  1.00  0.00    -0.200 F 
ATOM     79  C   UNL A   1      51.917  26.243  25.559  1.00  0.00     0.200 A 
ATOM     80  F   UNL A   1      51.345  26.834  23.345  1.00  0.00    -0.200 F 
ATOM     81  F   UNL A   1      53.189  26.035  25.191  1.00  0.00    -0.200 F 
ENDBRANCH  47  71
BRANCH  59  82
ATOM     82  C   UNL A   1      46.044  32.423  28.707  1.00  0.00     0.064 A 
ATOM     83  C   UNL A   1      45.995  33.395  27.695  1.00  0.00     0.173 A 
ATOM     84  C   UNL A   1      46.609  32.781  29.938  1.00  0.00     0.173 A 
ATOM     85  F   UNL A   1      45.470  33.099  26.498  1.00  0.00    -0.203 F 
ATOM     86  C   UNL A   1      46.508  34.672  27.905  1.00  0.00     0.198 A 
ATOM     87  C   UNL A   1      47.099  34.067  30.153  1.00  0.00     0.198 A 
ATOM     88  F   UNL A   1      46.666  31.890  30.940  1.00  0.00    -0.203 F 
ATOM     89  F   UNL A   1      46.479  35.575  26.916  1.00  0.00    -0.200 F 
ATOM     90  C   UNL A   1      47.057  35.007  29.134  1.00  0.00     0.200 A 
ATOM     91  F   UNL A   1      47.610  34.397  31.347  1.00  0.00    -0.200 F 
ATOM     92  F   UNL A   1      47.544  36.239  29.337  1.00  0.00    -0.200 F 
ENDBRANCH  59  82
ENDBRANCH  33  34
ENDBRANCH  25  28
ENDBRANCH  23  24
ENDBRANCH  22  23
ENDBRANCH  21  22
ENDBRANCH   1  21
TORSDOF 16
ENDMDL
MODEL 3
REMARK VINA RESULT:     -11.2      2.183      8.275
REMARK SMILES C[C@H]([NH2+]Cc1ccccc1F)C(=O)NCCCCCCNC(=O)c1ccc(-c2c3nc(c(-c4c(F)c(F)c(F)c(F)c4F)c4ccc([nH]4)c(-c4c(F)c(F)c(F)c(F)c4F)c4nc(c(-c5c(F)c(F)c(F)c(F)c5F)c5ccc2[nH]5)C=C4)C=C3)cc1
REMARK SMILES IDX 17 1 16 2 15 3 14 4 12 5 13 6 2 8 1 9 3 10 4 13 5 14 6 15
REMARK SMILES IDX 10 16 7 17 9 18 11 19 8 20 18 21 19 22 20 23 21 24 22 25
REMARK SMILES IDX 23 27 24 28 25 29 86 30 26 31 85 32 27 33 28 34 29 35 79 36
REMARK SMILES IDX 30 37 84 38 78 39 80 40 31 41 83 42 77 43 76 44 32 46 64 47
REMARK SMILES IDX 44 48 63 49 45 50 48 51 62 52 81 53 46 54 47 55 61 57 82 58
REMARK SMILES IDX 49 59 33 60 34 61 42 62 35 63 36 64 40 65 43 66 37 67 38 68
REMARK SMILES IDX 41 69 39 70 65 71 66 72 74 73 67 74 68 75 72 76 75 77 69 78
REMARK SMILES IDX 70 79 73 80 71 81 50 82 51 83 59 84 52 85 53 86 57 87 60 88
REMARK SMILES IDX 54 89 55 90 58 91 56 92
REMARK H PARENT 14 7 3 11 3 12 21 26 80 45 48 56
REMARK Flexibility Score: inf
ROOT
ATOM      1  C   UNL A   1      32.308  29.808  26.990  1.00  0.00     0.002 C 
ENDROOT
BRANCH   1   2
ATOM      2  C   UNL A   1      31.573  28.560  27.496  1.00  0.00     0.021 C 
BRANCH   2   3
ATOM      3  C   UNL A   1      31.405  27.460  26.449  1.00  0.00     0.116 C 
BRANCH   3   4
ATOM      4  N   UNL A   1      31.402  26.142  27.050  1.00  0.00    -0.351 N 
ATOM      5  C   UNL A   1      31.555  24.905  26.494  1.00  0.00     0.277 C 
ATOM      6  O   UNL A   1      31.502  23.933  27.256  1.00  0.00    -0.268 OA
ATOM      7  H   UNL A   1      31.266  26.137  28.025  1.00  0.00     0.163 HD
BRANCH   5   8
ATOM      8  C   UNL A   1      31.843  24.711  24.989  1.00  0.00     0.269 C 
ATOM      9  C   UNL A   1      30.779  23.814  24.348  1.00  0.00     0.086 C 
BRANCH   8  10
ATOM     10  N   UNL A   1      33.236  24.254  24.794  1.00  0.00    -0.332 N 
ATOM     11  H   UNL A   1      33.691  24.194  25.704  1.00  0.00     0.347 HD
ATOM     12  H   UNL A   1      33.704  24.929  24.188  1.00  0.00     0.347 HD
BRANCH  10  13
ATOM     13  C   UNL A   1      33.302  22.945  24.144  1.00  0.00     0.301 C 
BRANCH  13  14
ATOM     14  C   UNL A   1      34.682  22.359  24.291  1.00  0.00     0.042 A 
ATOM     15  C   UNL A   1      35.811  23.072  23.861  1.00  0.00     0.012 A 
ATOM     16  C   UNL A   1      34.871  21.108  24.886  1.00  0.00     0.132 A 
ATOM     17  C   UNL A   1      37.090  22.531  24.012  1.00  0.00     0.001 A 
ATOM     18  C   UNL A   1      36.142  20.563  25.039  1.00  0.00     0.040 A 
ATOM     19  F   UNL A   1      33.814  20.413  25.332  1.00  0.00    -0.206 F 
ATOM     20  C   UNL A   1      37.256  21.276  24.599  1.00  0.00     0.003 A 
ENDBRANCH  13  14
ENDBRANCH  10  13
ENDBRANCH   8  10
ENDBRANCH   5   8
ENDBRANCH   3   4
ENDBRANCH   2   3
ENDBRANCH   1   2
BRANCH   1  21
ATOM     21  C   UNL A   1      31.488  30.732  26.081  1.00  0.00     0.002 C 
BRANCH  21  22
ATOM     22  C   UNL A   1      31.363  32.182  26.558  1.00  0.00     0.021 C 
BRANCH  22  23
ATOM     23  C   UNL A   1      32.629  32.771  27.174  1.00  0.00     0.116 C 
BRANCH  23  24
ATOM     24  N   UNL A   1      32.442  34.141  27.623  1.00  0.00    -0.352 N 
ATOM     25  C   UNL A   1      33.085  34.830  28.618  1.00  0.00     0.251 C 
ATOM     26  H   UNL A   1      31.751  34.650  27.140  1.00  0.00     0.163 HD
ATOM     27  O   UNL A   1      32.673  35.937  28.966  1.00  0.00    -0.269 OA
BRANCH  25  28
ATOM     28  C   UNL A   1      34.259  34.244  29.298  1.00  0.00     0.039 A 
ATOM     29  C   UNL A   1      34.049  33.420  30.408  1.00  0.00     0.014 A 
ATOM     30  C   UNL A   1      35.560  34.517  28.865  1.00  0.00     0.014 A 
ATOM     31  C   UNL A   1      35.138  32.822  31.046  1.00  0.00     0.010 A 
ATOM     32  C   UNL A   1      36.641  33.872  29.463  1.00  0.00     0.010 A 
ATOM     33  C   UNL A   1      36.441  33.017  30.557  1.00  0.00    -0.014 A 
BRANCH  33  34
ATOM     34  C   UNL A   1      37.596  32.316  31.170  1.00  0.00     0.031 A 
ATOM     35  C   UNL A   1      38.074  32.689  32.544  1.00  0.00     0.074 A 
ATOM     36  C   UNL A   1      38.247  31.373  30.464  1.00  0.00     0.049 A 
ATOM     37  N   UNL A   1      39.089  32.215  33.223  1.00  0.00    -0.248 NA
ATOM     38  C   UNL A   1      37.328  33.746  33.240  1.00  0.00     0.031 C 
ATOM     39  C   UNL A   1      37.905  30.954  29.104  1.00  0.00     0.029 A 
ATOM     40  N   UNL A   1      39.334  30.600  30.787  1.00  0.00    -0.354 N 
ATOM     41  C   UNL A   1      39.108  32.919  34.417  1.00  0.00     0.074 A 
ATOM     42  C   UNL A   1      38.034  33.888  34.354  1.00  0.00     0.031 C 
ATOM     43  C   UNL A   1      38.744  29.979  28.721  1.00  0.00     0.029 A 
ATOM     44  C   UNL A   1      39.703  29.728  29.793  1.00  0.00     0.049 A 
ATOM     45  H   UNL A   1      39.804  30.664  31.650  1.00  0.00     0.167 HD
ATOM     46  C   UNL A   1      39.931  32.757  35.480  1.00  0.00     0.037 A 
ATOM     47  C   UNL A   1      40.702  28.825  29.750  1.00  0.00     0.037 A 
ATOM     48  C   UNL A   1      40.982  31.776  35.550  1.00  0.00     0.049 A 
ATOM     49  C   UNL A   1      41.608  28.669  30.937  1.00  0.00     0.074 A 
ATOM     50  C   UNL A   1      41.829  31.496  36.609  1.00  0.00     0.029 A 
ATOM     51  N   UNL A   1      41.332  30.916  34.520  1.00  0.00    -0.354 N 
ATOM     52  N   UNL A   1      41.584  29.306  32.083  1.00  0.00    -0.248 NA
ATOM     53  C   UNL A   1      42.680  27.670  30.829  1.00  0.00     0.031 C 
ATOM     54  C   UNL A   1      42.719  30.496  36.204  1.00  0.00     0.029 A 
ATOM     55  C   UNL A   1      42.397  30.120  34.910  1.00  0.00     0.049 A 
ATOM     56  H   UNL A   1      40.888  30.877  33.641  1.00  0.00     0.167 HD
ATOM     57  C   UNL A   1      42.623  28.777  32.835  1.00  0.00     0.074 A 
ATOM     58  C   UNL A   1      43.251  27.755  32.024  1.00  0.00     0.031 C 
ATOM     59  C   UNL A   1      43.019  29.112  34.087  1.00  0.00     0.037 A 
BRANCH  46  60
ATOM     60  C   UNL A   1      39.723  33.653  36.665  1.00  0.00     0.064 A 
ATOM     61  C   UNL A   1      38.868  33.269  37.709  1.00  0.00     0.173 A 
ATOM     62  C   UNL A   1      40.329  34.915  36.743  1.00  0.00     0.173 A 
ATOM     63  F   UNL A   1      38.259  32.074  37.680  1.00  0.00    -0.203 F 
ATOM     64  C   UNL A   1      38.622  34.120  38.783  1.00  0.00     0.198 A 
ATOM     65  C   UNL A   1      40.102  35.753  37.833  1.00  0.00     0.198 A 
ATOM     66  F   UNL A   1      41.163  35.324  35.777  1.00  0.00    -0.203 F 
ATOM     67  F   UNL A   1      37.781  33.743  39.757  1.00  0.00    -0.200 F 
ATOM     68  C   UNL A   1      39.243  35.358  38.847  1.00  0.00     0.200 A 
ATOM     69  F   UNL A   1      40.723  36.939  37.905  1.00  0.00    -0.200 F 
ATOM     70  F   UNL A   1      39.017  36.170  39.889  1.00  0.00    -0.200 F 
ENDBRANCH  46  60
BRANCH  47  71
ATOM     71  C   UNL A   1      40.861  27.974  28.543  1.00  0.00     0.064 A 
ATOM     72  C   UNL A   1      41.626  28.396  27.447  1.00  0.00     0.173 A 
ATOM     73  C   UNL A   1      40.203  26.741  28.449  1.00  0.00     0.173 A 
ATOM     74  F   UNL A   1      42.269  29.571  27.488  1.00  0.00    -0.203 F 
ATOM     75  C   UNL A   1      41.709  27.623  26.290  1.00  0.00     0.198 A 
ATOM     76  C   UNL A   1      40.305  25.959  27.301  1.00  0.00     0.198 A 
ATOM     77  F   UNL A   1      39.476  26.289  29.481  1.00  0.00    -0.203 F 
ATOM     78  F   UNL A   1      42.417  28.064  25.242  1.00  0.00    -0.200 F 
ATOM     79  C   UNL A   1      41.050  26.405  26.219  1.00  0.00     0.200 A 
ATOM     80  F   UNL A   1      39.682  24.774  27.242  1.00  0.00    -0.200 F 
ATOM     81  F   UNL A   1      41.132  25.660  25.107  1.00  0.00    -0.200 F 
ENDBRANCH  47  71
BRANCH  59  82
ATOM     82  C   UNL A   1      44.185  28.369  34.668  1.00  0.00     0.064 A 
ATOM     83  C   UNL A   1      43.988  27.175  35.378  1.00  0.00     0.173 A 
ATOM     84  C   UNL A   1      45.489  28.878  34.582  1.00  0.00     0.173 A 
ATOM     85  F   UNL A   1      42.759  26.652  35.493  1.00  0.00    -0.203 F 
ATOM     86  C   UNL A   1      45.054  26.526  35.994  1.00  0.00     0.198 A 
ATOM     87  C   UNL A   1      46.556  28.212  35.178  1.00  0.00     0.198 A 
ATOM     88  F   UNL A   1      45.729  30.009  33.902  1.00  0.00    -0.203 F 
ATOM     89  F   UNL A   1      44.838  25.403  36.694  1.00  0.00    -0.200 F 
ATOM     90  C   UNL A   1      46.336  27.042  35.892  1.00  0.00     0.200 A 
ATOM     91  F   UNL A   1      47.798  28.701  35.060  1.00  0.00    -0.200 F 
ATOM     92  F   UNL A   1      47.362  26.412  36.479  1.00  0.00    -0.200 F 
ENDBRANCH  59  82
ENDBRANCH  33  34
ENDBRANCH  25  28
ENDBRANCH  23  24
ENDBRANCH  22  23
ENDBRANCH  21  22
ENDBRANCH   1  21
TORSDOF 16
ENDMDL
