MODEL 1
REMARK VINA RESULT:     -11.5      0.000      0.000
REMARK SMILES Cc1cs/c(=N\S(=O)(=O)c2ccc(/C=C/C(=O)NCCCCCCNC(=O)c3ccc(-c4c5nc(c(-c6c(F)c(F)c(F)c(F)c6F)c6ccc([nH]6)c(-c6c(F)c(F)c(F)c(F)c6F)c6nc(c(-c7c(F)c(F)c(F)c(F)c7F)c7ccc4[nH]7)C=C6)C=C5)cc3)cc2)[nH]1
REMARK SMILES IDX 21 1 20 2 19 3 18 4 16 5 17 6 15 8 14 9 13 10 10 11 11 12
REMARK SMILES IDX 92 13 12 14 91 15 7 16 8 17 9 18 6 19 1 20 2 21 3 22 93 23
REMARK SMILES IDX 4 24 5 25 22 27 23 28 24 29 25 30 26 31 27 33 28 34 29 35
REMARK SMILES IDX 90 36 30 37 89 38 31 39 32 40 33 41 83 42 34 43 88 44 82 45
REMARK SMILES IDX 84 46 35 47 87 48 81 49 80 50 36 52 68 53 48 54 67 55 49 56
REMARK SMILES IDX 52 57 66 58 85 59 50 60 51 61 65 63 86 64 53 65 37 66 38 67
REMARK SMILES IDX 46 68 39 69 40 70 44 71 47 72 41 73 42 74 45 75 43 76 69 77
REMARK SMILES IDX 70 78 78 79 71 80 72 81 76 82 79 83 73 84 74 85 77 86 75 87
REMARK SMILES IDX 54 88 55 89 63 90 56 91 57 92 61 93 64 94 58 95 59 96 62 97
REMARK SMILES IDX 60 98
REMARK H PARENT 18 7 93 26 25 32 84 51 52 62
REMARK Flexibility Score: inf
ROOT
ATOM      1  C   UNL A   1      35.337  33.708  29.088  1.00  0.00     0.002 C 
ENDROOT
BRANCH   1   2
ATOM      2  C   UNL A   1      35.548  32.529  28.129  1.00  0.00     0.021 C 
BRANCH   2   3
ATOM      3  C   UNL A   1      34.490  31.432  28.257  1.00  0.00     0.116 C 
BRANCH   3   4
ATOM      4  N   UNL A   1      33.295  31.786  27.514  1.00  0.00    -0.353 N 
ATOM      5  C   UNL A   1      32.363  31.006  26.909  1.00  0.00     0.243 C 
ATOM      6  O   UNL A   1      31.367  31.521  26.407  1.00  0.00    -0.270 OA
ATOM      7  H   UNL A   1      33.133  32.754  27.436  1.00  0.00     0.163 HD
BRANCH   5   8
ATOM      8  C   UNL A   1      32.485  29.533  26.927  1.00  0.00     0.072 C 
ATOM      9  C   UNL A   1      32.588  28.770  25.829  1.00  0.00     0.014 C 
BRANCH   9  10
ATOM     10  C   UNL A   1      32.676  27.306  25.892  1.00  0.00    -0.025 A 
ATOM     11  C   UNL A   1      32.814  24.516  26.085  1.00  0.00     0.089 A 
ATOM     12  C   UNL A   1      33.932  25.241  25.663  1.00  0.00     0.023 A 
ATOM     13  C   UNL A   1      31.626  25.171  26.417  1.00  0.00     0.023 A 
ATOM     14  C   UNL A   1      33.861  26.632  25.569  1.00  0.00     0.009 A 
ATOM     15  C   UNL A   1      31.564  26.566  26.324  1.00  0.00     0.009 A 
BRANCH  11  16
ATOM     16  S   UNL A   1      32.979  22.744  26.233  1.00  0.00     0.285 S 
ATOM     17  O   UNL A   1      31.926  22.350  27.153  1.00  0.00    -0.199 OA
ATOM     18  O   UNL A   1      34.375  22.520  26.537  1.00  0.00    -0.199 OA
BRANCH  16  19
ATOM     19  N   UNL A   1      32.646  22.164  24.762  1.00  0.00    -0.130 NA
ATOM     20  C   UNL A   1      32.191  18.203  21.999  1.00  0.00     0.065 C 
ATOM     21  C   UNL A   1      32.464  18.929  23.270  1.00  0.00     0.024 A 
ATOM     22  C   UNL A   1      32.776  18.362  24.448  1.00  0.00     0.089 A 
ATOM     23  N   UNL A   1      32.410  20.309  23.328  1.00  0.00    -0.334 N 
ATOM     24  S   UNL A   1      33.027  19.570  25.690  1.00  0.00    -0.104 S 
ATOM     25  C   UNL A   1      32.671  20.894  24.545  1.00  0.00     0.199 A 
ATOM     26  H   UNL A   1      32.195  20.849  22.534  1.00  0.00     0.169 HD
ENDBRANCH  16  19
ENDBRANCH  11  16
ENDBRANCH   9  10
ENDBRANCH   5   8
ENDBRANCH   3   4
ENDBRANCH   2   3
ENDBRANCH   1   2
BRANCH   1  27
ATOM     27  C   UNL A   1      35.127  35.069  28.413  1.00  0.00     0.002 C 
BRANCH  27  28
ATOM     28  C   UNL A   1      33.815  35.777  28.763  1.00  0.00     0.021 C 
BRANCH  28  29
ATOM     29  C   UNL A   1      32.867  34.965  29.642  1.00  0.00     0.116 C 
BRANCH  29  30
ATOM     30  N   UNL A   1      32.363  35.741  30.764  1.00  0.00    -0.352 N 
ATOM     31  C   UNL A   1      32.759  35.729  32.077  1.00  0.00     0.251 C 
ATOM     32  H   UNL A   1      31.632  36.366  30.549  1.00  0.00     0.163 HD
ATOM     33  O   UNL A   1      32.097  36.311  32.929  1.00  0.00    -0.269 OA
BRANCH  31  34
ATOM     34  C   UNL A   1      33.982  34.998  32.474  1.00  0.00     0.039 A 
ATOM     35  C   UNL A   1      33.858  33.705  32.991  1.00  0.00     0.014 A 
ATOM     36  C   UNL A   1      35.242  35.593  32.365  1.00  0.00     0.014 A 
ATOM     37  C   UNL A   1      35.002  32.988  33.348  1.00  0.00     0.010 A 
ATOM     38  C   UNL A   1      36.385  34.856  32.664  1.00  0.00     0.010 A 
ATOM     39  C   UNL A   1      36.275  33.550  33.166  1.00  0.00    -0.014 A 
BRANCH  39  40
ATOM     40  C   UNL A   1      37.505  32.789  33.498  1.00  0.00     0.031 A 
ATOM     41  C   UNL A   1      38.253  33.082  34.767  1.00  0.00     0.074 A 
ATOM     42  C   UNL A   1      37.984  31.882  32.626  1.00  0.00     0.049 A 
ATOM     43  N   UNL A   1      39.381  32.578  35.201  1.00  0.00    -0.248 NA
ATOM     44  C   UNL A   1      37.668  34.099  35.655  1.00  0.00     0.031 C 
ATOM     45  C   UNL A   1      37.371  31.540  31.341  1.00  0.00     0.029 A 
ATOM     46  N   UNL A   1      39.103  31.091  32.683  1.00  0.00    -0.354 N 
ATOM     47  C   UNL A   1      39.651  33.230  36.396  1.00  0.00     0.074 A 
ATOM     48  C   UNL A   1      38.593  34.196  36.600  1.00  0.00     0.031 C 
ATOM     49  C   UNL A   1      38.109  30.592  30.743  1.00  0.00     0.029 A 
ATOM     50  C   UNL A   1      39.262  30.284  31.584  1.00  0.00     0.049 A 
ATOM     51  H   UNL A   1      39.732  31.101  33.441  1.00  0.00     0.167 HD
ATOM     52  C   UNL A   1      40.677  33.026  37.255  1.00  0.00     0.037 A 
ATOM     53  C   UNL A   1      40.231  29.397  31.290  1.00  0.00     0.037 A 
ATOM     54  C   UNL A   1      41.708  32.039  37.068  1.00  0.00     0.049 A 
ATOM     55  C   UNL A   1      41.356  29.182  32.264  1.00  0.00     0.074 A 
ATOM     56  C   UNL A   1      42.747  31.702  37.918  1.00  0.00     0.029 A 
ATOM     57  N   UNL A   1      41.828  31.229  35.948  1.00  0.00    -0.354 N 
ATOM     58  N   UNL A   1      41.567  29.757  33.421  1.00  0.00    -0.248 NA
ATOM     59  C   UNL A   1      42.374  28.192  31.889  1.00  0.00     0.031 C 
ATOM     60  C   UNL A   1      43.520  30.716  37.294  1.00  0.00     0.029 A 
ATOM     61  C   UNL A   1      42.938  30.409  36.075  1.00  0.00     0.049 A 
ATOM     62  H   UNL A   1      41.215  31.235  35.178  1.00  0.00     0.167 HD
ATOM     63  C   UNL A   1      42.724  29.184  33.927  1.00  0.00     0.074 A 
ATOM     64  C   UNL A   1      43.166  28.207  32.952  1.00  0.00     0.031 C 
ATOM     65  C   UNL A   1      43.363  29.441  35.096  1.00  0.00     0.037 A 
BRANCH  52  66
ATOM     66  C   UNL A   1      40.735  33.893  38.479  1.00  0.00     0.064 A 
ATOM     67  C   UNL A   1      41.485  35.079  38.506  1.00  0.00     0.173 A 
ATOM     68  C   UNL A   1      40.019  33.542  39.633  1.00  0.00     0.173 A 
ATOM     69  F   UNL A   1      42.196  35.453  37.433  1.00  0.00    -0.203 F 
ATOM     70  C   UNL A   1      41.543  35.864  39.655  1.00  0.00     0.198 A 
ATOM     71  C   UNL A   1      40.057  34.345  40.772  1.00  0.00     0.198 A 
ATOM     72  F   UNL A   1      39.283  32.421  39.659  1.00  0.00    -0.203 F 
ATOM     73  F   UNL A   1      42.308  36.963  39.675  1.00  0.00    -0.200 F 
ATOM     74  C   UNL A   1      40.826  35.499  40.785  1.00  0.00     0.200 A 
ATOM     75  F   UNL A   1      39.355  33.996  41.858  1.00  0.00    -0.200 F 
ATOM     76  F   UNL A   1      40.882  36.255  41.890  1.00  0.00    -0.200 F 
ENDBRANCH  52  66
BRANCH  53  77
ATOM     77  C   UNL A   1      40.154  28.618  30.028  1.00  0.00     0.064 A 
ATOM     78  C   UNL A   1      40.749  29.099  28.854  1.00  0.00     0.173 A 
ATOM     79  C   UNL A   1      39.505  27.376  29.972  1.00  0.00     0.173 A 
ATOM     80  F   UNL A   1      41.363  30.292  28.856  1.00  0.00    -0.203 F 
ATOM     81  C   UNL A   1      40.690  28.373  27.667  1.00  0.00     0.198 A 
ATOM     82  C   UNL A   1      39.466  26.640  28.790  1.00  0.00     0.198 A 
ATOM     83  F   UNL A   1      38.924  26.871  31.070  1.00  0.00    -0.203 F 
ATOM     84  F   UNL A   1      41.240  28.871  26.551  1.00  0.00    -0.200 F 
ATOM     85  C   UNL A   1      40.054  27.141  27.638  1.00  0.00     0.200 A 
ATOM     86  F   UNL A   1      38.862  25.445  28.768  1.00  0.00    -0.200 F 
ATOM     87  F   UNL A   1      40.004  26.438  26.498  1.00  0.00    -0.200 F 
ENDBRANCH  53  77
BRANCH  65  88
ATOM     88  C   UNL A   1      44.592  28.637  35.396  1.00  0.00     0.064 A 
ATOM     89  C   UNL A   1      45.870  29.087  35.032  1.00  0.00     0.173 A 
ATOM     90  C   UNL A   1      44.494  27.422  36.089  1.00  0.00     0.173 A 
ATOM     91  F   UNL A   1      46.013  30.235  34.354  1.00  0.00    -0.203 F 
ATOM     92  C   UNL A   1      47.004  28.338  35.335  1.00  0.00     0.198 A 
ATOM     93  C   UNL A   1      45.632  26.688  36.412  1.00  0.00     0.198 A 
ATOM     94  F   UNL A   1      43.295  26.951  36.463  1.00  0.00    -0.203 F 
ATOM     95  F   UNL A   1      48.211  28.767  34.942  1.00  0.00    -0.200 F 
ATOM     96  C   UNL A   1      46.885  27.144  36.031  1.00  0.00     0.200 A 
ATOM     97  F   UNL A   1      45.517  25.540  37.094  1.00  0.00    -0.200 F 
ATOM     98  F   UNL A   1      47.979  26.428  36.326  1.00  0.00    -0.200 F 
ENDBRANCH  65  88
ENDBRANCH  39  40
ENDBRANCH  31  34
ENDBRANCH  29  30
ENDBRANCH  28  29
ENDBRANCH  27  28
ENDBRANCH   1  27
TORSDOF 16
ENDMDL
MODEL 2
REMARK VINA RESULT:     -11.5      6.875     12.586
REMARK SMILES Cc1cs/c(=N\S(=O)(=O)c2ccc(/C=C/C(=O)NCCCCCCNC(=O)c3ccc(-c4c5nc(c(-c6c(F)c(F)c(F)c(F)c6F)c6ccc([nH]6)c(-c6c(F)c(F)c(F)c(F)c6F)c6nc(c(-c7c(F)c(F)c(F)c(F)c7F)c7ccc4[nH]7)C=C6)C=C5)cc3)cc2)[nH]1
REMARK SMILES IDX 21 1 20 2 19 3 18 4 16 5 17 6 15 8 14 9 13 10 10 11 11 12
REMARK SMILES IDX 92 13 12 14 91 15 7 16 8 17 9 18 6 19 1 20 2 21 3 22 93 23
REMARK SMILES IDX 4 24 5 25 22 27 23 28 24 29 25 30 26 31 27 33 28 34 29 35
REMARK SMILES IDX 90 36 30 37 89 38 31 39 32 40 33 41 83 42 34 43 88 44 82 45
REMARK SMILES IDX 84 46 35 47 87 48 81 49 80 50 36 52 68 53 48 54 67 55 49 56
REMARK SMILES IDX 52 57 66 58 85 59 50 60 51 61 65 63 86 64 53 65 37 66 38 67
REMARK SMILES IDX 46 68 39 69 40 70 44 71 47 72 41 73 42 74 45 75 43 76 69 77
REMARK SMILES IDX 70 78 78 79 71 80 72 81 76 82 79 83 73 84 74 85 77 86 75 87
REMARK SMILES IDX 54 88 55 89 63 90 56 91 57 92 61 93 64 94 58 95 59 96 62 97
REMARK SMILES IDX 60 98
REMARK H PARENT 18 7 93 26 25 32 84 51 52 62
REMARK Flexibility Score: inf
ROOT
ATOM      1  C   UNL A   1      42.019  21.418  27.454  1.00  0.00     0.002 C 
ENDROOT
BRANCH   1   2
ATOM      2  C   UNL A   1      41.292  22.068  26.269  1.00  0.00     0.021 C 
BRANCH   2   3
ATOM      3  C   UNL A   1      39.775  22.143  26.443  1.00  0.00     0.116 C 
BRANCH   3   4
ATOM      4  N   UNL A   1      39.143  20.941  25.931  1.00  0.00    -0.353 N 
ATOM      5  C   UNL A   1      38.035  20.780  25.162  1.00  0.00     0.243 C 
ATOM      6  O   UNL A   1      37.727  19.660  24.762  1.00  0.00    -0.270 OA
ATOM      7  H   UNL A   1      39.592  20.102  26.184  1.00  0.00     0.163 HD
BRANCH   5   8
ATOM      8  C   UNL A   1      37.246  21.949  24.721  1.00  0.00     0.072 C 
ATOM      9  C   UNL A   1      35.995  22.212  25.125  1.00  0.00     0.014 C 
BRANCH   9  10
ATOM     10  C   UNL A   1      35.235  23.369  24.636  1.00  0.00    -0.025 A 
ATOM     11  C   UNL A   1      33.834  25.579  23.641  1.00  0.00     0.089 A 
ATOM     12  C   UNL A   1      34.306  25.589  24.958  1.00  0.00     0.023 A 
ATOM     13  C   UNL A   1      34.059  24.477  22.814  1.00  0.00     0.023 A 
ATOM     14  C   UNL A   1      35.006  24.486  25.450  1.00  0.00     0.009 A 
ATOM     15  C   UNL A   1      34.765  23.377  23.314  1.00  0.00     0.009 A 
BRANCH  11  16
ATOM     16  S   UNL A   1      32.988  27.037  23.050  1.00  0.00     0.285 S 
ATOM     17  O   UNL A   1      33.160  27.005  21.608  1.00  0.00    -0.199 OA
ATOM     18  O   UNL A   1      33.505  28.123  23.853  1.00  0.00    -0.199 OA
BRANCH  16  19
ATOM     19  N   UNL A   1      31.430  26.796  23.406  1.00  0.00    -0.130 NA
ATOM     20  C   UNL A   1      26.928  28.592  23.220  1.00  0.00     0.065 C 
ATOM     21  C   UNL A   1      28.397  28.623  22.978  1.00  0.00     0.024 A 
ATOM     22  C   UNL A   1      29.073  29.614  22.373  1.00  0.00     0.089 A 
ATOM     23  N   UNL A   1      29.207  27.578  23.378  1.00  0.00    -0.334 N 
ATOM     24  S   UNL A   1      30.787  29.264  22.296  1.00  0.00    -0.104 S 
ATOM     25  C   UNL A   1      30.552  27.690  23.109  1.00  0.00     0.199 A 
ATOM     26  H   UNL A   1      28.839  26.789  23.837  1.00  0.00     0.169 HD
ENDBRANCH  16  19
ENDBRANCH  11  16
ENDBRANCH   9  10
ENDBRANCH   5   8
ENDBRANCH   3   4
ENDBRANCH   2   3
ENDBRANCH   1   2
BRANCH   1  27
ATOM     27  C   UNL A   1      41.759  19.917  27.636  1.00  0.00     0.002 C 
BRANCH  27  28
ATOM     28  C   UNL A   1      42.668  18.992  26.823  1.00  0.00     0.021 C 
BRANCH  28  29
ATOM     29  C   UNL A   1      42.608  19.204  25.313  1.00  0.00     0.116 C 
BRANCH  29  30
ATOM     30  N   UNL A   1      43.846  18.815  24.657  1.00  0.00    -0.352 N 
ATOM     31  C   UNL A   1      44.916  19.591  24.292  1.00  0.00     0.251 C 
ATOM     32  H   UNL A   1      43.927  17.857  24.444  1.00  0.00     0.163 HD
ATOM     33  O   UNL A   1      45.799  19.131  23.575  1.00  0.00    -0.269 OA
BRANCH  31  34
ATOM     34  C   UNL A   1      45.004  20.994  24.750  1.00  0.00     0.039 A 
ATOM     35  C   UNL A   1      45.438  21.253  26.053  1.00  0.00     0.014 A 
ATOM     36  C   UNL A   1      44.633  22.049  23.911  1.00  0.00     0.014 A 
ATOM     37  C   UNL A   1      45.552  22.572  26.498  1.00  0.00     0.010 A 
ATOM     38  C   UNL A   1      44.804  23.364  24.333  1.00  0.00     0.010 A 
ATOM     39  C   UNL A   1      45.258  23.638  25.633  1.00  0.00    -0.014 A 
BRANCH  39  40
ATOM     40  C   UNL A   1      45.415  25.048  26.070  1.00  0.00     0.031 A 
ATOM     41  C   UNL A   1      46.757  25.716  25.991  1.00  0.00     0.074 A 
ATOM     42  C   UNL A   1      44.365  25.702  26.600  1.00  0.00     0.049 A 
ATOM     43  N   UNL A   1      47.113  26.913  26.386  1.00  0.00    -0.248 NA
ATOM     44  C   UNL A   1      47.854  24.924  25.413  1.00  0.00     0.031 C 
ATOM     45  C   UNL A   1      43.022  25.145  26.770  1.00  0.00     0.029 A 
ATOM     46  N   UNL A   1      44.266  26.974  27.104  1.00  0.00    -0.354 N 
ATOM     47  C   UNL A   1      48.473  27.007  26.127  1.00  0.00     0.074 A 
ATOM     48  C   UNL A   1      48.890  25.734  25.581  1.00  0.00     0.031 C 
ATOM     49  C   UNL A   1      42.228  26.079  27.317  1.00  0.00     0.029 A 
ATOM     50  C   UNL A   1      43.011  27.285  27.566  1.00  0.00     0.049 A 
ATOM     51  H   UNL A   1      45.022  27.603  27.131  1.00  0.00     0.167 HD
ATOM     52  C   UNL A   1      49.296  28.068  26.310  1.00  0.00     0.037 A 
ATOM     53  C   UNL A   1      42.548  28.417  28.129  1.00  0.00     0.037 A 
ATOM     54  C   UNL A   1      48.871  29.345  26.821  1.00  0.00     0.049 A 
ATOM     55  C   UNL A   1      43.478  29.583  28.314  1.00  0.00     0.074 A 
ATOM     56  C   UNL A   1      49.610  30.505  26.971  1.00  0.00     0.029 A 
ATOM     57  N   UNL A   1      47.587  29.628  27.266  1.00  0.00    -0.354 N 
ATOM     58  N   UNL A   1      44.748  29.685  28.007  1.00  0.00    -0.248 NA
ATOM     59  C   UNL A   1      42.909  30.793  28.923  1.00  0.00     0.031 C 
ATOM     60  C   UNL A   1      48.784  31.478  27.545  1.00  0.00     0.029 A 
ATOM     61  C   UNL A   1      47.520  30.938  27.713  1.00  0.00     0.049 A 
ATOM     62  H   UNL A   1      46.836  28.992  27.263  1.00  0.00     0.167 HD
ATOM     63  C   UNL A   1      45.124  30.973  28.357  1.00  0.00     0.074 A 
ATOM     64  C   UNL A   1      43.944  31.620  28.895  1.00  0.00     0.031 C 
ATOM     65  C   UNL A   1      46.338  31.567  28.243  1.00  0.00     0.037 A 
BRANCH  52  66
ATOM     66  C   UNL A   1      50.743  27.887  25.957  1.00  0.00     0.064 A 
ATOM     67  C   UNL A   1      51.711  27.610  26.935  1.00  0.00     0.173 A 
ATOM     68  C   UNL A   1      51.165  27.976  24.622  1.00  0.00     0.173 A 
ATOM     69  F   UNL A   1      51.361  27.526  28.227  1.00  0.00    -0.203 F 
ATOM     70  C   UNL A   1      53.053  27.463  26.593  1.00  0.00     0.198 A 
ATOM     71  C   UNL A   1      52.504  27.800  24.280  1.00  0.00     0.198 A 
ATOM     72  F   UNL A   1      50.280  28.235  23.648  1.00  0.00    -0.203 F 
ATOM     73  F   UNL A   1      53.967  27.253  27.550  1.00  0.00    -0.200 F 
ATOM     74  C   UNL A   1      53.448  27.553  25.267  1.00  0.00     0.200 A 
ATOM     75  F   UNL A   1      52.882  27.877  22.997  1.00  0.00    -0.200 F 
ATOM     76  F   UNL A   1      54.740  27.412  24.939  1.00  0.00    -0.200 F 
ENDBRANCH  52  66
BRANCH  53  77
ATOM     77  C   UNL A   1      41.119  28.510  28.522  1.00  0.00     0.064 A 
ATOM     78  C   UNL A   1      40.161  28.989  27.618  1.00  0.00     0.173 A 
ATOM     79  C   UNL A   1      40.680  28.109  29.791  1.00  0.00     0.173 A 
ATOM     80  F   UNL A   1      40.538  29.404  26.399  1.00  0.00    -0.203 F 
ATOM     81  C   UNL A   1      38.816  29.073  27.973  1.00  0.00     0.198 A 
ATOM     82  C   UNL A   1      39.332  28.172  30.137  1.00  0.00     0.198 A 
ATOM     83  F   UNL A   1      41.558  27.639  30.688  1.00  0.00    -0.203 F 
ATOM     84  F   UNL A   1      37.925  29.565  27.101  1.00  0.00    -0.200 F 
ATOM     85  C   UNL A   1      38.402  28.659  29.230  1.00  0.00     0.200 A 
ATOM     86  F   UNL A   1      38.933  27.759  31.347  1.00  0.00    -0.200 F 
ATOM     87  F   UNL A   1      37.108  28.732  29.569  1.00  0.00    -0.200 F 
ENDBRANCH  53  77
BRANCH  65  88
ATOM     88  C   UNL A   1      46.445  32.996  28.683  1.00  0.00     0.064 A 
ATOM     89  C   UNL A   1      46.812  33.335  29.993  1.00  0.00     0.173 A 
ATOM     90  C   UNL A   1      46.215  34.039  27.773  1.00  0.00     0.173 A 
ATOM     91  F   UNL A   1      47.026  32.373  30.904  1.00  0.00    -0.203 F 
ATOM     92  C   UNL A   1      46.926  34.667  30.382  1.00  0.00     0.198 A 
ATOM     93  C   UNL A   1      46.354  35.369  28.158  1.00  0.00     0.198 A 
ATOM     94  F   UNL A   1      45.866  33.766  26.507  1.00  0.00    -0.203 F 
ATOM     95  F   UNL A   1      47.238  34.968  31.650  1.00  0.00    -0.200 F 
ATOM     96  C   UNL A   1      46.704  35.682  29.463  1.00  0.00     0.200 A 
ATOM     97  F   UNL A   1      46.150  36.348  27.266  1.00  0.00    -0.200 F 
ATOM     98  F   UNL A   1      46.820  36.963  29.838  1.00  0.00    -0.200 F 
ENDBRANCH  65  88
ENDBRANCH  39  40
ENDBRANCH  31  34
ENDBRANCH  29  30
ENDBRANCH  28  29
ENDBRANCH  27  28
ENDBRANCH   1  27
TORSDOF 16
ENDMDL
MODEL 3
REMARK VINA RESULT:     -11.3      1.873      2.951
REMARK SMILES Cc1cs/c(=N\S(=O)(=O)c2ccc(/C=C/C(=O)NCCCCCCNC(=O)c3ccc(-c4c5nc(c(-c6c(F)c(F)c(F)c(F)c6F)c6ccc([nH]6)c(-c6c(F)c(F)c(F)c(F)c6F)c6nc(c(-c7c(F)c(F)c(F)c(F)c7F)c7ccc4[nH]7)C=C6)C=C5)cc3)cc2)[nH]1
REMARK SMILES IDX 21 1 20 2 19 3 18 4 16 5 17 6 15 8 14 9 13 10 10 11 11 12
REMARK SMILES IDX 92 13 12 14 91 15 7 16 8 17 9 18 6 19 1 20 2 21 3 22 93 23
REMARK SMILES IDX 4 24 5 25 22 27 23 28 24 29 25 30 26 31 27 33 28 34 29 35
REMARK SMILES IDX 90 36 30 37 89 38 31 39 32 40 33 41 83 42 34 43 88 44 82 45
REMARK SMILES IDX 84 46 35 47 87 48 81 49 80 50 36 52 68 53 48 54 67 55 49 56
REMARK SMILES IDX 52 57 66 58 85 59 50 60 51 61 65 63 86 64 53 65 37 66 38 67
REMARK SMILES IDX 46 68 39 69 40 70 44 71 47 72 41 73 42 74 45 75 43 76 69 77
REMARK SMILES IDX 70 78 78 79 71 80 72 81 76 82 79 83 73 84 74 85 77 86 75 87
REMARK SMILES IDX 54 88 55 89 63 90 56 91 57 92 61 93 64 94 58 95 59 96 62 97
REMARK SMILES IDX 60 98
REMARK H PARENT 18 7 93 26 25 32 84 51 52 62
REMARK Flexibility Score: inf
ROOT
ATOM      1  C   UNL A   1      34.335  33.873  29.511  1.00  0.00     0.002 C 
ENDROOT
BRANCH   1   2
ATOM      2  C   UNL A   1      35.653  33.651  28.757  1.00  0.00     0.021 C 
BRANCH   2   3
ATOM      3  C   UNL A   1      35.596  32.514  27.736  1.00  0.00     0.116 C 
BRANCH   3   4
ATOM      4  N   UNL A   1      36.300  31.347  28.233  1.00  0.00    -0.353 N 
ATOM      5  C   UNL A   1      36.149  30.029  27.941  1.00  0.00     0.243 C 
ATOM      6  O   UNL A   1      36.927  29.205  28.416  1.00  0.00    -0.270 OA
ATOM      7  H   UNL A   1      37.005  31.543  28.891  1.00  0.00     0.163 HD
BRANCH   5   8
ATOM      8  C   UNL A   1      35.116  29.581  26.983  1.00  0.00     0.072 C 
ATOM      9  C   UNL A   1      33.922  29.085  27.337  1.00  0.00     0.014 C 
BRANCH   9  10
ATOM     10  C   UNL A   1      32.937  28.622  26.351  1.00  0.00    -0.025 A 
ATOM     11  C   UNL A   1      31.083  27.667  24.484  1.00  0.00     0.089 A 
ATOM     12  C   UNL A   1      31.942  28.715  24.139  1.00  0.00     0.023 A 
ATOM     13  C   UNL A   1      31.143  27.087  25.753  1.00  0.00     0.023 A 
ATOM     14  C   UNL A   1      32.866  29.188  25.071  1.00  0.00     0.009 A 
ATOM     15  C   UNL A   1      32.076  27.565  26.681  1.00  0.00     0.009 A 
BRANCH  11  16
ATOM     16  S   UNL A   1      29.954  27.071  23.235  1.00  0.00     0.285 S 
ATOM     17  O   UNL A   1      30.605  27.375  21.973  1.00  0.00    -0.199 OA
ATOM     18  O   UNL A   1      28.671  27.639  23.585  1.00  0.00    -0.199 OA
BRANCH  16  19
ATOM     19  N   UNL A   1      29.908  25.468  23.437  1.00  0.00    -0.130 NA
ATOM     20  C   UNL A   1      32.283  21.270  22.920  1.00  0.00     0.065 C 
ATOM     21  C   UNL A   1      32.130  22.748  22.817  1.00  0.00     0.024 A 
ATOM     22  C   UNL A   1      33.055  23.603  22.348  1.00  0.00     0.089 A 
ATOM     23  N   UNL A   1      30.966  23.373  23.220  1.00  0.00    -0.334 N 
ATOM     24  S   UNL A   1      32.476  25.254  22.389  1.00  0.00    -0.104 S 
ATOM     25  C   UNL A   1      30.915  24.742  23.093  1.00  0.00     0.199 A 
ATOM     26  H   UNL A   1      30.206  22.862  23.580  1.00  0.00     0.169 HD
ENDBRANCH  16  19
ENDBRANCH  11  16
ENDBRANCH   9  10
ENDBRANCH   5   8
ENDBRANCH   3   4
ENDBRANCH   2   3
ENDBRANCH   1   2
BRANCH   1  27
ATOM     27  C   UNL A   1      33.203  34.490  28.679  1.00  0.00     0.002 C 
BRANCH  27  28
ATOM     28  C   UNL A   1      33.079  36.013  28.770  1.00  0.00     0.021 C 
BRANCH  28  29
ATOM     29  C   UNL A   1      33.482  36.607  30.117  1.00  0.00     0.116 C 
BRANCH  29  30
ATOM     30  N   UNL A   1      32.450  36.421  31.125  1.00  0.00    -0.352 N 
ATOM     31  C   UNL A   1      32.456  35.617  32.237  1.00  0.00     0.251 C 
ATOM     32  H   UNL A   1      31.630  36.949  30.990  1.00  0.00     0.163 HD
ATOM     33  O   UNL A   1      31.426  35.439  32.877  1.00  0.00    -0.269 OA
BRANCH  31  34
ATOM     34  C   UNL A   1      33.706  34.949  32.660  1.00  0.00     0.039 A 
ATOM     35  C   UNL A   1      33.641  33.638  33.140  1.00  0.00     0.014 A 
ATOM     36  C   UNL A   1      34.932  35.619  32.610  1.00  0.00     0.014 A 
ATOM     37  C   UNL A   1      34.812  32.979  33.521  1.00  0.00     0.010 A 
ATOM     38  C   UNL A   1      36.105  34.942  32.932  1.00  0.00     0.010 A 
ATOM     39  C   UNL A   1      36.055  33.619  33.398  1.00  0.00    -0.014 A 
BRANCH  39  40
ATOM     40  C   UNL A   1      37.316  32.922  33.755  1.00  0.00     0.031 A 
ATOM     41  C   UNL A   1      38.007  33.233  35.052  1.00  0.00     0.074 A 
ATOM     42  C   UNL A   1      37.872  32.060  32.883  1.00  0.00     0.049 A 
ATOM     43  N   UNL A   1      39.148  32.785  35.512  1.00  0.00    -0.248 NA
ATOM     44  C   UNL A   1      37.339  34.199  35.938  1.00  0.00     0.031 C 
ATOM     45  C   UNL A   1      37.318  31.709  31.575  1.00  0.00     0.029 A 
ATOM     46  N   UNL A   1      39.031  31.332  32.962  1.00  0.00    -0.354 N 
ATOM     47  C   UNL A   1      39.344  33.429  36.726  1.00  0.00     0.074 A 
ATOM     48  C   UNL A   1      38.228  34.330  36.913  1.00  0.00     0.031 C 
ATOM     49  C   UNL A   1      38.127  30.815  30.984  1.00  0.00     0.029 A 
ATOM     50  C   UNL A   1      39.269  30.556  31.855  1.00  0.00     0.049 A 
ATOM     51  H   UNL A   1      39.635  31.363  33.739  1.00  0.00     0.167 HD
ATOM     52  C   UNL A   1      40.354  33.266  37.614  1.00  0.00     0.037 A 
ATOM     53  C   UNL A   1      40.295  29.731  31.576  1.00  0.00     0.037 A 
ATOM     54  C   UNL A   1      41.445  32.343  37.442  1.00  0.00     0.049 A 
ATOM     55  C   UNL A   1      41.401  29.561  32.581  1.00  0.00     0.074 A 
ATOM     56  C   UNL A   1      42.475  32.049  38.318  1.00  0.00     0.029 A 
ATOM     57  N   UNL A   1      41.644  31.561  36.312  1.00  0.00    -0.354 N 
ATOM     58  N   UNL A   1      41.544  30.126  33.754  1.00  0.00    -0.248 NA
ATOM     59  C   UNL A   1      42.485  28.637  32.221  1.00  0.00     0.031 C 
ATOM     60  C   UNL A   1      43.321  31.119  37.701  1.00  0.00     0.029 A 
ATOM     61  C   UNL A   1      42.795  30.803  36.460  1.00  0.00     0.049 A 
ATOM     62  H   UNL A   1      41.056  31.548  35.524  1.00  0.00     0.167 HD
ATOM     63  C   UNL A   1      42.716  29.609  34.286  1.00  0.00     0.074 A 
ATOM     64  C   UNL A   1      43.242  28.677  33.309  1.00  0.00     0.031 C 
ATOM     65  C   UNL A   1      43.303  29.879  35.478  1.00  0.00     0.037 A 
BRANCH  52  66
ATOM     66  C   UNL A   1      40.326  34.113  38.853  1.00  0.00     0.064 A 
ATOM     67  C   UNL A   1      39.672  33.688  40.020  1.00  0.00     0.173 A 
ATOM     68  C   UNL A   1      40.974  35.357  38.878  1.00  0.00     0.173 A 
ATOM     69  F   UNL A   1      39.028  32.513  40.044  1.00  0.00    -0.203 F 
ATOM     70  C   UNL A   1      39.640  34.494  41.156  1.00  0.00     0.198 A 
ATOM     71  C   UNL A   1      40.963  36.147  40.026  1.00  0.00     0.198 A 
ATOM     72  F   UNL A   1      41.617  35.808  37.791  1.00  0.00    -0.203 F 
ATOM     73  F   UNL A   1      38.964  34.091  42.241  1.00  0.00    -0.200 F 
ATOM     74  C   UNL A   1      40.289  35.719  41.160  1.00  0.00     0.200 A 
ATOM     75  F   UNL A   1      41.600  37.326  40.031  1.00  0.00    -0.200 F 
ATOM     76  F   UNL A   1      40.257  36.493  42.253  1.00  0.00    -0.200 F 
ENDBRANCH  52  66
BRANCH  53  77
ATOM     77  C   UNL A   1      40.301  28.972  30.300  1.00  0.00     0.064 A 
ATOM     78  C   UNL A   1      39.660  27.729  30.206  1.00  0.00     0.173 A 
ATOM     79  C   UNL A   1      40.925  29.475  29.150  1.00  0.00     0.173 A 
ATOM     80  F   UNL A   1      39.067  27.199  31.286  1.00  0.00    -0.203 F 
ATOM     81  C   UNL A   1      39.652  27.012  29.012  1.00  0.00     0.198 A 
ATOM     82  C   UNL A   1      40.897  28.768  27.950  1.00  0.00     0.198 A 
ATOM     83  F   UNL A   1      41.547  30.663  29.188  1.00  0.00    -0.203 F 
ATOM     84  F   UNL A   1      39.060  25.811  28.957  1.00  0.00    -0.200 F 
ATOM     85  C   UNL A   1      40.265  27.535  27.883  1.00  0.00     0.200 A 
ATOM     86  F   UNL A   1      41.479  29.282  26.858  1.00  0.00    -0.200 F 
ATOM     87  F   UNL A   1      40.250  26.849  26.732  1.00  0.00    -0.200 F 
ENDBRANCH  53  77
BRANCH  65  88
ATOM     88  C   UNL A   1      44.567  29.140  35.803  1.00  0.00     0.064 A 
ATOM     89  C   UNL A   1      44.544  27.909  36.474  1.00  0.00     0.173 A 
ATOM     90  C   UNL A   1      45.811  29.651  35.405  1.00  0.00     0.173 A 
ATOM     91  F   UNL A   1      43.379  27.388  36.889  1.00  0.00    -0.203 F 
ATOM     92  C   UNL A   1      45.724  27.224  36.751  1.00  0.00     0.198 A 
ATOM     93  C   UNL A   1      46.987  28.952  35.663  1.00  0.00     0.198 A 
ATOM     94  F   UNL A   1      45.885  30.823  34.757  1.00  0.00    -0.203 F 
ATOM     95  F   UNL A   1      45.683  26.069  37.430  1.00  0.00    -0.200 F 
ATOM     96  C   UNL A   1      46.943  27.742  36.340  1.00  0.00     0.200 A 
ATOM     97  F   UNL A   1      48.163  29.449  35.255  1.00  0.00    -0.200 F 
ATOM     98  F   UNL A   1      48.077  27.080  36.603  1.00  0.00    -0.200 F 
ENDBRANCH  65  88
ENDBRANCH  39  40
ENDBRANCH  31  34
ENDBRANCH  29  30
ENDBRANCH  28  29
ENDBRANCH  27  28
ENDBRANCH   1  27
TORSDOF 16
ENDMDL
