MODEL 1
REMARK VINA RESULT:     -11.5      0.000      0.000
REMARK SMILES Cc1cc2[nH]c(C(=O)NCCCCCCNC(=O)c3ccc(-c4c5nc(c(-c6c(F)c(F)c(F)c(F)c6F)c6ccc([nH]6)c(-c6c(F)c(F)c(F)c(F)c6F)c6nc(c(-c7c(F)c(F)c(F)c(F)c7F)c7ccc4[nH]7)C=C6)C=C5)cc3)c(C=O)c2s1
REMARK SMILES IDX 13 1 12 2 11 3 10 4 9 5 7 6 8 7 6 9 1 10 2 11 3 12 86 13
REMARK SMILES IDX 4 14 85 15 5 16 82 17 83 19 84 20 14 21 15 22 16 23 17 24
REMARK SMILES IDX 18 26 19 27 20 28 81 29 21 30 80 31 22 32 23 33 24 34 74 35
REMARK SMILES IDX 25 36 79 37 73 38 75 39 26 40 78 41 72 42 71 43 27 45 59 46
REMARK SMILES IDX 39 47 58 48 40 49 43 50 57 51 76 52 41 53 42 54 56 56 77 57
REMARK SMILES IDX 44 58 28 59 29 60 37 61 30 62 31 63 35 64 38 65 32 66 33 67
REMARK SMILES IDX 36 68 34 69 60 70 61 71 69 72 62 73 63 74 67 75 70 76 64 77
REMARK SMILES IDX 65 78 68 79 66 80 45 81 46 82 54 83 47 84 48 85 52 86 55 87
REMARK SMILES IDX 49 88 50 89 53 90 51 91
REMARK H PARENT 9 8 5 18 16 25 75 44 43 55
REMARK Flexibility Score: inf
ROOT
ATOM      1  C   UNL A   1      42.076  20.046  27.198  1.00  0.00     0.002 C 
ENDROOT
BRANCH   1   2
ATOM      2  C   UNL A   1      40.739  20.789  27.037  1.00  0.00     0.002 C 
BRANCH   2   3
ATOM      3  C   UNL A   1      39.812  20.345  25.910  1.00  0.00     0.021 C 
BRANCH   3   4
ATOM      4  C   UNL A   1      38.659  21.272  25.561  1.00  0.00     0.116 C 
BRANCH   4   5
ATOM      5  N   UNL A   1      38.794  22.663  25.897  1.00  0.00    -0.351 N 
ATOM      6  C   UNL A   1      37.800  23.589  26.121  1.00  0.00     0.268 C 
ATOM      7  O   UNL A   1      38.170  24.715  26.467  1.00  0.00    -0.268 OA
ATOM      8  H   UNL A   1      39.716  22.997  25.978  1.00  0.00     0.163 HD
BRANCH   6   9
ATOM      9  C   UNL A   1      36.384  23.327  25.862  1.00  0.00     0.116 A 
ATOM     10  C   UNL A   1      30.546  22.470  26.235  1.00  0.00     0.056 C 
ATOM     11  C   UNL A   1      32.002  22.774  26.105  1.00  0.00     0.004 A 
ATOM     12  C   UNL A   1      32.946  22.887  27.111  1.00  0.00     0.041 A 
ATOM     13  S   UNL A   1      32.644  22.995  24.529  1.00  0.00    -0.138 S 
ATOM     14  C   UNL A   1      34.237  23.082  26.548  1.00  0.00     0.058 A 
ATOM     15  C   UNL A   1      34.234  23.096  25.195  1.00  0.00     0.064 A 
ATOM     16  N   UNL A   1      35.537  23.218  26.965  1.00  0.00    -0.349 N 
ATOM     17  C   UNL A   1      35.581  23.114  24.741  1.00  0.00     0.063 A 
ATOM     18  H   UNL A   1      35.829  23.235  27.905  1.00  0.00     0.167 HD
BRANCH  17  19
ATOM     19  C   UNL A   1      35.826  22.892  23.338  1.00  0.00     0.263 C 
ATOM     20  O   UNL A   1      36.875  23.157  22.760  1.00  0.00    -0.298 OA
ENDBRANCH  17  19
ENDBRANCH   6   9
ENDBRANCH   4   5
ENDBRANCH   3   4
ENDBRANCH   2   3
ENDBRANCH   1   2
BRANCH   1  21
ATOM     21  C   UNL A   1      42.444  18.969  26.166  1.00  0.00     0.021 C 
BRANCH  21  22
ATOM     22  C   UNL A   1      43.916  18.596  26.129  1.00  0.00     0.116 C 
BRANCH  22  23
ATOM     23  N   UNL A   1      44.514  18.713  24.797  1.00  0.00    -0.352 N 
ATOM     24  C   UNL A   1      44.641  19.839  24.000  1.00  0.00     0.251 C 
ATOM     25  H   UNL A   1      44.875  17.880  24.417  1.00  0.00     0.163 HD
ATOM     26  O   UNL A   1      44.841  19.751  22.802  1.00  0.00    -0.269 OA
BRANCH  24  27
ATOM     27  C   UNL A   1      44.541  21.165  24.638  1.00  0.00     0.039 A 
ATOM     28  C   UNL A   1      43.480  22.040  24.381  1.00  0.00     0.014 A 
ATOM     29  C   UNL A   1      45.544  21.511  25.535  1.00  0.00     0.014 A 
ATOM     30  C   UNL A   1      43.416  23.238  25.091  1.00  0.00     0.010 A 
ATOM     31  C   UNL A   1      45.358  22.561  26.384  1.00  0.00     0.010 A 
ATOM     32  C   UNL A   1      44.359  23.478  26.100  1.00  0.00    -0.014 A 
BRANCH  32  33
ATOM     33  C   UNL A   1      44.293  24.647  26.962  1.00  0.00     0.031 A 
ATOM     34  C   UNL A   1      45.361  25.648  26.715  1.00  0.00     0.074 A 
ATOM     35  C   UNL A   1      43.202  24.907  27.717  1.00  0.00     0.049 A 
ATOM     36  N   UNL A   1      46.286  26.020  27.533  1.00  0.00    -0.248 NA
ATOM     37  C   UNL A   1      45.511  26.198  25.357  1.00  0.00     0.031 C 
ATOM     38  C   UNL A   1      41.942  24.155  27.803  1.00  0.00     0.029 A 
ATOM     39  N   UNL A   1      42.943  25.994  28.489  1.00  0.00    -0.354 N 
ATOM     40  C   UNL A   1      47.020  26.997  26.866  1.00  0.00     0.074 A 
ATOM     41  C   UNL A   1      46.621  26.927  25.485  1.00  0.00     0.031 C 
ATOM     42  C   UNL A   1      40.990  24.923  28.377  1.00  0.00     0.029 A 
ATOM     43  C   UNL A   1      41.605  26.150  28.842  1.00  0.00     0.049 A 
ATOM     44  H   UNL A   1      43.646  26.620  28.778  1.00  0.00     0.167 HD
ATOM     45  C   UNL A   1      47.709  27.944  27.561  1.00  0.00     0.037 A 
ATOM     46  C   UNL A   1      41.061  27.250  29.424  1.00  0.00     0.037 A 
ATOM     47  C   UNL A   1      47.878  27.550  28.939  1.00  0.00     0.049 A 
ATOM     48  C   UNL A   1      42.186  28.004  30.045  1.00  0.00     0.074 A 
ATOM     49  C   UNL A   1      48.455  26.456  29.558  1.00  0.00     0.029 A 
ATOM     50  N   UNL A   1      47.048  28.110  29.881  1.00  0.00    -0.354 N 
ATOM     51  N   UNL A   1      42.874  27.556  31.062  1.00  0.00    -0.248 NA
ATOM     52  C   UNL A   1      42.866  28.988  29.215  1.00  0.00     0.031 C 
ATOM     53  C   UNL A   1      47.554  26.117  30.610  1.00  0.00     0.029 A 
ATOM     54  C   UNL A   1      46.545  27.080  30.636  1.00  0.00     0.049 A 
ATOM     55  H   UNL A   1      46.851  29.068  29.993  1.00  0.00     0.167 HD
ATOM     56  C   UNL A   1      44.192  27.859  30.756  1.00  0.00     0.074 A 
ATOM     57  C   UNL A   1      44.121  28.792  29.632  1.00  0.00     0.031 C 
ATOM     58  C   UNL A   1      45.225  27.096  31.223  1.00  0.00     0.037 A 
BRANCH  45  59
ATOM     59  C   UNL A   1      47.898  29.369  27.105  1.00  0.00     0.064 A 
ATOM     60  C   UNL A   1      49.179  29.951  27.198  1.00  0.00     0.173 A 
ATOM     61  C   UNL A   1      46.838  30.271  26.871  1.00  0.00     0.173 A 
ATOM     62  F   UNL A   1      50.259  29.191  27.435  1.00  0.00    -0.203 F 
ATOM     63  C   UNL A   1      49.367  31.334  27.145  1.00  0.00     0.198 A 
ATOM     64  C   UNL A   1      47.037  31.645  26.763  1.00  0.00     0.198 A 
ATOM     65  F   UNL A   1      45.558  29.881  26.851  1.00  0.00    -0.203 F 
ATOM     66  F   UNL A   1      50.583  31.848  27.371  1.00  0.00    -0.200 F 
ATOM     67  C   UNL A   1      48.295  32.181  26.935  1.00  0.00     0.200 A 
ATOM     68  F   UNL A   1      45.981  32.450  26.578  1.00  0.00    -0.200 F 
ATOM     69  F   UNL A   1      48.462  33.509  26.949  1.00  0.00    -0.200 F 
ENDBRANCH  45  59
BRANCH  46  70
ATOM     70  C   UNL A   1      39.721  27.846  29.194  1.00  0.00     0.064 A 
ATOM     71  C   UNL A   1      38.807  28.010  30.250  1.00  0.00     0.173 A 
ATOM     72  C   UNL A   1      39.408  28.522  27.996  1.00  0.00     0.173 A 
ATOM     73  F   UNL A   1      39.045  27.441  31.440  1.00  0.00    -0.203 F 
ATOM     74  C   UNL A   1      37.670  28.819  30.124  1.00  0.00     0.198 A 
ATOM     75  C   UNL A   1      38.271  29.322  27.870  1.00  0.00     0.198 A 
ATOM     76  F   UNL A   1      40.247  28.497  26.951  1.00  0.00    -0.203 F 
ATOM     77  F   UNL A   1      36.857  29.000  31.175  1.00  0.00    -0.200 F 
ATOM     78  C   UNL A   1      37.409  29.484  28.938  1.00  0.00     0.200 A 
ATOM     79  F   UNL A   1      38.052  29.988  26.727  1.00  0.00    -0.200 F 
ATOM     80  F   UNL A   1      36.358  30.308  28.836  1.00  0.00    -0.200 F 
ENDBRANCH  46  70
BRANCH  58  81
ATOM     81  C   UNL A   1      44.934  26.037  32.252  1.00  0.00     0.064 A 
ATOM     82  C   UNL A   1      44.833  26.283  33.634  1.00  0.00     0.173 A 
ATOM     83  C   UNL A   1      44.563  24.763  31.802  1.00  0.00     0.173 A 
ATOM     84  F   UNL A   1      45.065  27.499  34.139  1.00  0.00    -0.203 F 
ATOM     85  C   UNL A   1      44.418  25.289  34.520  1.00  0.00     0.198 A 
ATOM     86  C   UNL A   1      44.113  23.784  32.684  1.00  0.00     0.198 A 
ATOM     87  F   UNL A   1      44.583  24.484  30.490  1.00  0.00    -0.203 F 
ATOM     88  F   UNL A   1      44.336  25.550  35.834  1.00  0.00    -0.200 F 
ATOM     89  C   UNL A   1      44.050  24.043  34.043  1.00  0.00     0.200 A 
ATOM     90  F   UNL A   1      43.708  22.598  32.209  1.00  0.00    -0.200 F 
ATOM     91  F   UNL A   1      43.607  23.101  34.888  1.00  0.00    -0.200 F 
ENDBRANCH  58  81
ENDBRANCH  32  33
ENDBRANCH  24  27
ENDBRANCH  22  23
ENDBRANCH  21  22
ENDBRANCH   1  21
TORSDOF 14
ENDMDL
MODEL 2
REMARK VINA RESULT:     -11.2      3.397      5.046
REMARK SMILES Cc1cc2[nH]c(C(=O)NCCCCCCNC(=O)c3ccc(-c4c5nc(c(-c6c(F)c(F)c(F)c(F)c6F)c6ccc([nH]6)c(-c6c(F)c(F)c(F)c(F)c6F)c6nc(c(-c7c(F)c(F)c(F)c(F)c7F)c7ccc4[nH]7)C=C6)C=C5)cc3)c(C=O)c2s1
REMARK SMILES IDX 13 1 12 2 11 3 10 4 9 5 7 6 8 7 6 9 1 10 2 11 3 12 86 13
REMARK SMILES IDX 4 14 85 15 5 16 82 17 83 19 84 20 14 21 15 22 16 23 17 24
REMARK SMILES IDX 18 26 19 27 20 28 81 29 21 30 80 31 22 32 23 33 24 34 74 35
REMARK SMILES IDX 25 36 79 37 73 38 75 39 26 40 78 41 72 42 71 43 27 45 59 46
REMARK SMILES IDX 39 47 58 48 40 49 43 50 57 51 76 52 41 53 42 54 56 56 77 57
REMARK SMILES IDX 44 58 28 59 29 60 37 61 30 62 31 63 35 64 38 65 32 66 33 67
REMARK SMILES IDX 36 68 34 69 60 70 61 71 69 72 62 73 63 74 67 75 70 76 64 77
REMARK SMILES IDX 65 78 68 79 66 80 45 81 46 82 54 83 47 84 48 85 52 86 55 87
REMARK SMILES IDX 49 88 50 89 53 90 51 91
REMARK H PARENT 9 8 5 18 16 25 75 44 43 55
REMARK Flexibility Score: inf
ROOT
ATOM      1  C   UNL A   1      37.786  23.100  25.772  1.00  0.00     0.002 C 
ENDROOT
BRANCH   1   2
ATOM      2  C   UNL A   1      36.552  23.290  24.874  1.00  0.00     0.002 C 
BRANCH   2   3
ATOM      3  C   UNL A   1      35.393  24.114  25.425  1.00  0.00     0.021 C 
BRANCH   3   4
ATOM      4  C   UNL A   1      33.988  23.625  25.112  1.00  0.00     0.116 C 
BRANCH   4   5
ATOM      5  N   UNL A   1      33.072  23.478  26.210  1.00  0.00    -0.351 N 
ATOM      6  C   UNL A   1      31.902  24.166  26.446  1.00  0.00     0.268 C 
ATOM      7  O   UNL A   1      31.247  23.809  27.429  1.00  0.00    -0.268 OA
ATOM      8  H   UNL A   1      33.310  22.797  26.880  1.00  0.00     0.163 HD
BRANCH   6   9
ATOM      9  C   UNL A   1      31.487  25.335  25.669  1.00  0.00     0.116 A 
ATOM     10  C   UNL A   1      28.588  29.306  22.385  1.00  0.00     0.056 C 
ATOM     11  C   UNL A   1      29.302  28.358  23.291  1.00  0.00     0.004 A 
ATOM     12  C   UNL A   1      28.971  27.048  23.593  1.00  0.00     0.041 A 
ATOM     13  S   UNL A   1      30.735  28.903  24.064  1.00  0.00    -0.138 S 
ATOM     14  C   UNL A   1      29.975  26.469  24.417  1.00  0.00     0.058 A 
ATOM     15  C   UNL A   1      30.996  27.315  24.692  1.00  0.00     0.064 A 
ATOM     16  N   UNL A   1      30.263  25.263  25.003  1.00  0.00    -0.349 N 
ATOM     17  C   UNL A   1      32.017  26.588  25.361  1.00  0.00     0.063 A 
ATOM     18  H   UNL A   1      29.691  24.463  24.958  1.00  0.00     0.167 HD
BRANCH  17  19
ATOM     19  C   UNL A   1      33.297  27.225  25.539  1.00  0.00     0.263 C 
ATOM     20  O   UNL A   1      33.570  28.010  26.441  1.00  0.00    -0.298 OA
ENDBRANCH  17  19
ENDBRANCH   6   9
ENDBRANCH   4   5
ENDBRANCH   3   4
ENDBRANCH   2   3
ENDBRANCH   1   2
BRANCH   1  21
ATOM     21  C   UNL A   1      38.551  21.770  25.693  1.00  0.00     0.021 C 
BRANCH  21  22
ATOM     22  C   UNL A   1      39.744  21.663  26.626  1.00  0.00     0.116 C 
BRANCH  22  23
ATOM     23  N   UNL A   1      41.033  21.684  25.930  1.00  0.00    -0.352 N 
ATOM     24  C   UNL A   1      41.907  22.744  25.753  1.00  0.00     0.251 C 
ATOM     25  H   UNL A   1      41.317  20.828  25.535  1.00  0.00     0.163 HD
ATOM     26  O   UNL A   1      42.762  22.726  24.886  1.00  0.00    -0.269 OA
BRANCH  24  27
ATOM     27  C   UNL A   1      41.789  23.906  26.654  1.00  0.00     0.039 A 
ATOM     28  C   UNL A   1      42.437  23.960  27.892  1.00  0.00     0.014 A 
ATOM     29  C   UNL A   1      41.015  24.971  26.212  1.00  0.00     0.014 A 
ATOM     30  C   UNL A   1      42.343  25.130  28.643  1.00  0.00     0.010 A 
ATOM     31  C   UNL A   1      41.113  26.181  26.832  1.00  0.00     0.010 A 
ATOM     32  C   UNL A   1      41.685  26.239  28.092  1.00  0.00    -0.014 A 
BRANCH  32  33
ATOM     33  C   UNL A   1      41.643  27.528  28.761  1.00  0.00     0.031 A 
ATOM     34  C   UNL A   1      42.727  28.460  28.360  1.00  0.00     0.074 A 
ATOM     35  C   UNL A   1      40.561  27.921  29.470  1.00  0.00     0.049 A 
ATOM     36  N   UNL A   1      43.663  28.938  29.108  1.00  0.00    -0.248 NA
ATOM     37  C   UNL A   1      42.880  28.790  26.933  1.00  0.00     0.031 C 
ATOM     38  C   UNL A   1      39.289  27.214  29.675  1.00  0.00     0.029 A 
ATOM     39  N   UNL A   1      40.325  29.119  30.066  1.00  0.00    -0.354 N 
ATOM     40  C   UNL A   1      44.410  29.786  28.296  1.00  0.00     0.074 A 
ATOM     41  C   UNL A   1      44.003  29.510  26.944  1.00  0.00     0.031 C 
ATOM     42  C   UNL A   1      38.353  28.079  30.125  1.00  0.00     0.029 A 
ATOM     43  C   UNL A   1      38.991  29.352  30.393  1.00  0.00     0.049 A 
ATOM     44  H   UNL A   1      41.040  29.770  30.251  1.00  0.00     0.167 HD
ATOM     45  C   UNL A   1      45.119  30.817  28.834  1.00  0.00     0.037 A 
ATOM     46  C   UNL A   1      38.469  30.538  30.799  1.00  0.00     0.037 A 
ATOM     47  C   UNL A   1      45.288  30.638  30.257  1.00  0.00     0.049 A 
ATOM     48  C   UNL A   1      39.610  31.359  31.293  1.00  0.00     0.074 A 
ATOM     49  C   UNL A   1      45.849  29.643  31.036  1.00  0.00     0.029 A 
ATOM     50  N   UNL A   1      44.473  31.351  31.103  1.00  0.00    -0.354 N 
ATOM     51  N   UNL A   1      40.295  31.062  32.365  1.00  0.00    -0.248 NA
ATOM     52  C   UNL A   1      40.303  32.191  30.318  1.00  0.00     0.031 C 
ATOM     53  C   UNL A   1      44.948  29.487  32.130  1.00  0.00     0.029 A 
ATOM     54  C   UNL A   1      43.955  30.460  32.010  1.00  0.00     0.049 A 
ATOM     55  H   UNL A   1      44.293  32.319  31.065  1.00  0.00     0.167 HD
ATOM     56  C   UNL A   1      41.618  31.290  32.013  1.00  0.00     0.074 A 
ATOM     57  C   UNL A   1      41.557  32.039  30.758  1.00  0.00     0.031 C 
ATOM     58  C   UNL A   1      42.640  30.591  32.590  1.00  0.00     0.037 A 
BRANCH  45  59
ATOM     59  C   UNL A   1      45.330  32.151  28.163  1.00  0.00     0.064 A 
ATOM     60  C   UNL A   1      44.211  32.964  27.895  1.00  0.00     0.173 A 
ATOM     61  C   UNL A   1      46.524  32.527  27.510  1.00  0.00     0.173 A 
ATOM     62  F   UNL A   1      43.019  32.691  28.448  1.00  0.00    -0.203 F 
ATOM     63  C   UNL A   1      44.266  34.016  26.978  1.00  0.00     0.198 A 
ATOM     64  C   UNL A   1      46.588  33.612  26.639  1.00  0.00     0.198 A 
ATOM     65  F   UNL A   1      47.644  31.800  27.592  1.00  0.00    -0.203 F 
ATOM     66  F   UNL A   1      43.145  34.676  26.656  1.00  0.00    -0.200 F 
ATOM     67  C   UNL A   1      45.453  34.335  26.345  1.00  0.00     0.200 A 
ATOM     68  F   UNL A   1      47.745  33.892  26.022  1.00  0.00    -0.200 F 
ATOM     69  F   UNL A   1      45.494  35.301  25.418  1.00  0.00    -0.200 F 
ENDBRANCH  45  59
BRANCH  46  70
ATOM     70  C   UNL A   1      37.138  31.116  30.483  1.00  0.00     0.064 A 
ATOM     71  C   UNL A   1      36.241  31.474  31.503  1.00  0.00     0.173 A 
ATOM     72  C   UNL A   1      36.825  31.586  29.190  1.00  0.00     0.173 A 
ATOM     73  F   UNL A   1      36.481  31.109  32.770  1.00  0.00    -0.203 F 
ATOM     74  C   UNL A   1      35.118  32.273  31.251  1.00  0.00     0.198 A 
ATOM     75  C   UNL A   1      35.702  32.378  28.940  1.00  0.00     0.198 A 
ATOM     76  F   UNL A   1      37.651  31.368  28.157  1.00  0.00    -0.203 F 
ATOM     77  F   UNL A   1      34.321  32.646  32.263  1.00  0.00    -0.200 F 
ATOM     78  C   UNL A   1      34.857  32.735  29.972  1.00  0.00     0.200 A 
ATOM     79  F   UNL A   1      35.483  32.846  27.703  1.00  0.00    -0.200 F 
ATOM     80  F   UNL A   1      33.820  33.552  29.741  1.00  0.00    -0.200 F 
ENDBRANCH  46  70
BRANCH  58  81
ATOM     81  C   UNL A   1      42.335  29.709  33.771  1.00  0.00     0.064 A 
ATOM     82  C   UNL A   1      41.904  28.373  33.671  1.00  0.00     0.173 A 
ATOM     83  C   UNL A   1      42.667  30.178  35.049  1.00  0.00     0.173 A 
ATOM     84  F   UNL A   1      41.667  27.810  32.482  1.00  0.00    -0.203 F 
ATOM     85  C   UNL A   1      41.779  27.564  34.801  1.00  0.00     0.198 A 
ATOM     86  C   UNL A   1      42.577  29.358  36.170  1.00  0.00     0.198 A 
ATOM     87  F   UNL A   1      43.138  31.425  35.203  1.00  0.00    -0.203 F 
ATOM     88  F   UNL A   1      41.360  26.294  34.676  1.00  0.00    -0.200 F 
ATOM     89  C   UNL A   1      42.124  28.055  36.048  1.00  0.00     0.200 A 
ATOM     90  F   UNL A   1      42.963  29.823  37.366  1.00  0.00    -0.200 F 
ATOM     91  F   UNL A   1      42.047  27.265  37.128  1.00  0.00    -0.200 F 
ENDBRANCH  58  81
ENDBRANCH  32  33
ENDBRANCH  24  27
ENDBRANCH  22  23
ENDBRANCH  21  22
ENDBRANCH   1  21
TORSDOF 14
ENDMDL
MODEL 3
REMARK VINA RESULT:     -11.2      1.818      2.462
REMARK SMILES Cc1cc2[nH]c(C(=O)NCCCCCCNC(=O)c3ccc(-c4c5nc(c(-c6c(F)c(F)c(F)c(F)c6F)c6ccc([nH]6)c(-c6c(F)c(F)c(F)c(F)c6F)c6nc(c(-c7c(F)c(F)c(F)c(F)c7F)c7ccc4[nH]7)C=C6)C=C5)cc3)c(C=O)c2s1
REMARK SMILES IDX 13 1 12 2 11 3 10 4 9 5 7 6 8 7 6 9 1 10 2 11 3 12 86 13
REMARK SMILES IDX 4 14 85 15 5 16 82 17 83 19 84 20 14 21 15 22 16 23 17 24
REMARK SMILES IDX 18 26 19 27 20 28 81 29 21 30 80 31 22 32 23 33 24 34 74 35
REMARK SMILES IDX 25 36 79 37 73 38 75 39 26 40 78 41 72 42 71 43 27 45 59 46
REMARK SMILES IDX 39 47 58 48 40 49 43 50 57 51 76 52 41 53 42 54 56 56 77 57
REMARK SMILES IDX 44 58 28 59 29 60 37 61 30 62 31 63 35 64 38 65 32 66 33 67
REMARK SMILES IDX 36 68 34 69 60 70 61 71 69 72 62 73 63 74 67 75 70 76 64 77
REMARK SMILES IDX 65 78 68 79 66 80 45 81 46 82 54 83 47 84 48 85 52 86 55 87
REMARK SMILES IDX 49 88 50 89 53 90 51 91
REMARK H PARENT 9 8 5 18 16 25 75 44 43 55
REMARK Flexibility Score: inf
ROOT
ATOM      1  C   UNL A   1      40.699  21.320  26.584  1.00  0.00     0.002 C 
ENDROOT
BRANCH   1   2
ATOM      2  C   UNL A   1      39.295  21.749  26.126  1.00  0.00     0.002 C 
BRANCH   2   3
ATOM      3  C   UNL A   1      38.884  23.199  26.362  1.00  0.00     0.021 C 
BRANCH   3   4
ATOM      4  C   UNL A   1      37.473  23.591  25.957  1.00  0.00     0.116 C 
BRANCH   4   5
ATOM      5  N   UNL A   1      36.403  22.700  26.315  1.00  0.00    -0.351 N 
ATOM      6  C   UNL A   1      35.106  22.692  25.854  1.00  0.00     0.268 C 
ATOM      7  O   UNL A   1      34.386  21.776  26.263  1.00  0.00    -0.268 OA
ATOM      8  H   UNL A   1      36.627  22.006  26.977  1.00  0.00     0.163 HD
BRANCH   6   9
ATOM      9  C   UNL A   1      34.543  23.753  25.019  1.00  0.00     0.116 A 
ATOM     10  C   UNL A   1      32.612  28.870  22.771  1.00  0.00     0.056 C 
ATOM     11  C   UNL A   1      33.177  27.585  23.282  1.00  0.00     0.004 A 
ATOM     12  C   UNL A   1      33.593  27.284  24.567  1.00  0.00     0.041 A 
ATOM     13  S   UNL A   1      33.329  26.275  22.183  1.00  0.00    -0.138 S 
ATOM     14  C   UNL A   1      33.967  25.915  24.650  1.00  0.00     0.058 A 
ATOM     15  C   UNL A   1      33.818  25.247  23.482  1.00  0.00     0.064 A 
ATOM     16  N   UNL A   1      34.403  25.018  25.592  1.00  0.00    -0.349 N 
ATOM     17  C   UNL A   1      34.044  23.865  23.720  1.00  0.00     0.063 A 
ATOM     18  H   UNL A   1      34.590  25.234  26.534  1.00  0.00     0.167 HD
BRANCH  17  19
ATOM     19  C   UNL A   1      33.707  22.933  22.674  1.00  0.00     0.263 C 
ATOM     20  O   UNL A   1      32.735  22.185  22.687  1.00  0.00    -0.298 OA
ENDBRANCH  17  19
ENDBRANCH   6   9
ENDBRANCH   4   5
ENDBRANCH   3   4
ENDBRANCH   2   3
ENDBRANCH   1   2
BRANCH   1  21
ATOM     21  C   UNL A   1      41.254  19.977  26.082  1.00  0.00     0.021 C 
BRANCH  21  22
ATOM     22  C   UNL A   1      42.638  19.626  26.598  1.00  0.00     0.116 C 
BRANCH  22  23
ATOM     23  N   UNL A   1      43.654  19.558  25.545  1.00  0.00    -0.352 N 
ATOM     24  C   UNL A   1      44.205  20.591  24.804  1.00  0.00     0.251 C 
ATOM     25  H   UNL A   1      43.991  18.657  25.336  1.00  0.00     0.163 HD
ATOM     26  O   UNL A   1      44.775  20.383  23.748  1.00  0.00    -0.269 OA
BRANCH  24  27
ATOM     27  C   UNL A   1      44.099  21.965  25.330  1.00  0.00     0.039 A 
ATOM     28  C   UNL A   1      43.280  22.931  24.736  1.00  0.00     0.014 A 
ATOM     29  C   UNL A   1      44.838  22.264  26.468  1.00  0.00     0.014 A 
ATOM     30  C   UNL A   1      43.171  24.179  25.346  1.00  0.00     0.010 A 
ATOM     31  C   UNL A   1      44.554  23.391  27.181  1.00  0.00     0.010 A 
ATOM     32  C   UNL A   1      43.807  24.389  26.578  1.00  0.00    -0.014 A 
BRANCH  32  33
ATOM     33  C   UNL A   1      43.649  25.621  27.333  1.00  0.00     0.031 A 
ATOM     34  C   UNL A   1      44.600  26.695  26.954  1.00  0.00     0.074 A 
ATOM     35  C   UNL A   1      42.562  25.841  28.106  1.00  0.00     0.049 A 
ATOM     36  N   UNL A   1      45.508  27.232  27.696  1.00  0.00    -0.248 NA
ATOM     37  C   UNL A   1      44.651  27.128  25.547  1.00  0.00     0.031 C 
ATOM     38  C   UNL A   1      41.389  24.979  28.311  1.00  0.00     0.029 A 
ATOM     39  N   UNL A   1      42.218  26.964  28.788  1.00  0.00    -0.354 N 
ATOM     40  C   UNL A   1      46.117  28.210  26.915  1.00  0.00     0.074 A 
ATOM     41  C   UNL A   1      45.684  27.973  25.563  1.00  0.00     0.031 C 
ATOM     42  C   UNL A   1      40.382  25.700  28.852  1.00  0.00     0.029 A 
ATOM     43  C   UNL A   1      40.882  27.020  29.180  1.00  0.00     0.049 A 
ATOM     44  H   UNL A   1      42.861  27.682  28.990  1.00  0.00     0.167 HD
ATOM     45  C   UNL A   1      46.728  29.281  27.493  1.00  0.00     0.037 A 
ATOM     46  C   UNL A   1      40.247  28.110  29.683  1.00  0.00     0.037 A 
ATOM     47  C   UNL A   1      46.980  29.037  28.893  1.00  0.00     0.049 A 
ATOM     48  C   UNL A   1      41.309  29.027  30.187  1.00  0.00     0.074 A 
ATOM     49  C   UNL A   1      47.685  28.068  29.583  1.00  0.00     0.029 A 
ATOM     50  N   UNL A   1      46.127  29.597  29.814  1.00  0.00    -0.354 N 
ATOM     51  N   UNL A   1      42.071  28.746  31.211  1.00  0.00    -0.248 NA
ATOM     52  C   UNL A   1      41.858  29.991  29.244  1.00  0.00     0.031 C 
ATOM     53  C   UNL A   1      46.856  27.741  30.698  1.00  0.00     0.029 A 
ATOM     54  C   UNL A   1      45.756  28.597  30.679  1.00  0.00     0.049 A 
ATOM     55  H   UNL A   1      45.836  30.537  29.848  1.00  0.00     0.167 HD
ATOM     56  C   UNL A   1      43.341  29.148  30.825  1.00  0.00     0.074 A 
ATOM     57  C   UNL A   1      43.139  29.960  29.625  1.00  0.00     0.031 C 
ATOM     58  C   UNL A   1      44.461  28.538  31.316  1.00  0.00     0.037 A 
BRANCH  45  59
ATOM     59  C   UNL A   1      46.755  30.669  26.904  1.00  0.00     0.064 A 
ATOM     60  C   UNL A   1      47.966  31.391  26.914  1.00  0.00     0.173 A 
ATOM     61  C   UNL A   1      45.600  31.427  26.612  1.00  0.00     0.173 A 
ATOM     62  F   UNL A   1      49.125  30.777  27.196  1.00  0.00    -0.203 F 
ATOM     63  C   UNL A   1      48.002  32.775  26.730  1.00  0.00     0.198 A 
ATOM     64  C   UNL A   1      45.647  32.798  26.374  1.00  0.00     0.198 A 
ATOM     65  F   UNL A   1      44.370  30.903  26.657  1.00  0.00    -0.203 F 
ATOM     66  F   UNL A   1      49.158  33.435  26.881  1.00  0.00    -0.200 F 
ATOM     67  C   UNL A   1      46.842  33.479  26.467  1.00  0.00     0.200 A 
ATOM     68  F   UNL A   1      44.508  33.465  26.139  1.00  0.00    -0.200 F 
ATOM     69  F   UNL A   1      46.864  34.813  26.355  1.00  0.00    -0.200 F 
ENDBRANCH  45  59
BRANCH  46  70
ATOM     70  C   UNL A   1      38.847  28.547  29.456  1.00  0.00     0.064 A 
ATOM     71  C   UNL A   1      37.977  28.789  30.533  1.00  0.00     0.173 A 
ATOM     72  C   UNL A   1      38.410  29.003  28.194  1.00  0.00     0.173 A 
ATOM     73  F   UNL A   1      38.329  28.429  31.776  1.00  0.00    -0.203 F 
ATOM     74  C   UNL A   1      36.763  29.467  30.364  1.00  0.00     0.198 A 
ATOM     75  C   UNL A   1      37.197  29.674  28.026  1.00  0.00     0.198 A 
ATOM     76  F   UNL A   1      39.193  28.893  27.112  1.00  0.00    -0.203 F 
ATOM     77  F   UNL A   1      35.991  29.735  31.427  1.00  0.00    -0.200 F 
ATOM     78  C   UNL A   1      36.380  29.920  29.113  1.00  0.00     0.200 A 
ATOM     79  F   UNL A   1      36.858  30.137  26.815  1.00  0.00    -0.200 F 
ATOM     80  F   UNL A   1      35.251  30.625  28.960  1.00  0.00    -0.200 F 
ENDBRANCH  46  70
BRANCH  58  81
ATOM     81  C   UNL A   1      44.312  27.556  32.446  1.00  0.00     0.064 A 
ATOM     82  C   UNL A   1      44.171  26.166  32.274  1.00  0.00     0.173 A 
ATOM     83  C   UNL A   1      44.503  28.020  33.755  1.00  0.00     0.173 A 
ATOM     84  F   UNL A   1      44.089  25.625  31.055  1.00  0.00    -0.203 F 
ATOM     85  C   UNL A   1      44.183  25.294  33.364  1.00  0.00     0.198 A 
ATOM     86  C   UNL A   1      44.553  27.145  34.836  1.00  0.00     0.198 A 
ATOM     87  F   UNL A   1      44.701  29.328  33.979  1.00  0.00    -0.203 F 
ATOM     88  F   UNL A   1      44.041  23.974  33.170  1.00  0.00    -0.200 F 
ATOM     89  C   UNL A   1      44.383  25.784  34.642  1.00  0.00     0.200 A 
ATOM     90  F   UNL A   1      44.800  27.621  36.064  1.00  0.00    -0.200 F 
ATOM     91  F   UNL A   1      44.441  24.944  35.685  1.00  0.00    -0.200 F 
ENDBRANCH  58  81
ENDBRANCH  32  33
ENDBRANCH  24  27
ENDBRANCH  22  23
ENDBRANCH  21  22
ENDBRANCH   1  21
TORSDOF 14
ENDMDL
