MODEL 1
REMARK VINA RESULT:     -11.6      0.000      0.000
REMARK SMILES COc1ccc(-c2cc(C(=O)NCCCCCCNC(=O)c3ccc(-c4c5nc(c(-c6c(F)c(F)c(F)c(F)c6F)c6ccc([nH]6)c(-c6c(F)c(F)c(F)c(F)c6F)c6nc(c(-c7c(F)c(F)c(F)c(F)c7F)c7ccc4[nH]7)C=C6)C=C5)cc3)nc(=O)n2C)cc1
REMARK SMILES IDX 15 1 14 2 13 3 12 4 10 5 11 6 9 8 7 9 8 10 88 11 86 12 89 13
REMARK SMILES IDX 85 14 87 15 6 16 3 17 4 18 91 19 5 20 90 21 2 22 1 23 16 24
REMARK SMILES IDX 17 25 18 26 19 27 20 28 21 30 22 31 23 32 84 33 24 34 83 35
REMARK SMILES IDX 25 36 26 37 27 38 77 39 28 40 82 41 76 42 78 43 29 44 81 45
REMARK SMILES IDX 75 46 74 47 30 49 62 50 42 51 61 52 43 53 46 54 60 55 79 56
REMARK SMILES IDX 44 57 45 58 59 60 80 61 47 62 31 63 32 64 40 65 33 66 34 67
REMARK SMILES IDX 38 68 41 69 35 70 36 71 39 72 37 73 63 74 64 75 72 76 65 77
REMARK SMILES IDX 66 78 70 79 73 80 67 81 68 82 71 83 69 84 48 85 49 86 57 87
REMARK SMILES IDX 50 88 51 89 55 90 58 91 52 92 53 93 56 94 54 95
REMARK H PARENT 12 7 19 29 78 48 46 59
REMARK Flexibility Score: inf
ROOT
ATOM      1  C   UNL A   1      32.910  28.161  24.100  1.00  0.00     0.002 C 
ENDROOT
BRANCH   1   2
ATOM      2  C   UNL A   1      31.986  28.589  22.955  1.00  0.00     0.021 C 
BRANCH   2   3
ATOM      3  C   UNL A   1      31.129  27.449  22.409  1.00  0.00     0.116 C 
BRANCH   3   4
ATOM      4  N   UNL A   1      31.848  26.711  21.388  1.00  0.00    -0.351 N 
ATOM      5  C   UNL A   1      32.572  25.547  21.455  1.00  0.00     0.270 C 
ATOM      6  O   UNL A   1      33.172  25.158  20.456  1.00  0.00    -0.268 OA
ATOM      7  H   UNL A   1      31.811  27.115  20.491  1.00  0.00     0.163 HD
BRANCH   5   8
ATOM      8  C   UNL A   1      32.635  24.700  22.729  1.00  0.00     0.136 A 
ATOM      9  C   UNL A   1      34.046  23.585  24.281  1.00  0.00     0.055 A 
ATOM     10  C   UNL A   1      33.987  24.330  23.172  1.00  0.00     0.061 A 
ATOM     11  N   UNL A   1      32.887  23.196  24.934  1.00  0.00    -0.295 N 
ATOM     12  C   UNL A   1      31.626  23.553  24.446  1.00  0.00     0.348 A 
ATOM     13  C   UNL A   1      32.891  22.380  26.137  1.00  0.00     0.155 C 
ATOM     14  N   UNL A   1      31.555  24.342  23.335  1.00  0.00    -0.188 NA
ATOM     15  O   UNL A   1      30.593  23.168  24.992  1.00  0.00    -0.246 OA
BRANCH   9  16
ATOM     16  C   UNL A   1      35.385  23.194  24.748  1.00  0.00    -0.001 A 
ATOM     17  C   UNL A   1      37.907  22.415  25.700  1.00  0.00     0.118 A 
ATOM     18  C   UNL A   1      37.137  21.529  24.946  1.00  0.00     0.047 A 
ATOM     19  C   UNL A   1      37.426  23.698  25.963  1.00  0.00     0.047 A 
ATOM     20  C   UNL A   1      35.880  21.912  24.477  1.00  0.00     0.014 A 
ATOM     21  C   UNL A   1      36.164  24.082  25.499  1.00  0.00     0.014 A 
BRANCH  17  22
ATOM     22  O   UNL A   1      39.129  21.940  26.090  1.00  0.00    -0.497 OA
ATOM     23  C   UNL A   1      39.398  20.590  25.727  1.00  0.00     0.278 C 
ENDBRANCH  17  22
ENDBRANCH   9  16
ENDBRANCH   5   8
ENDBRANCH   3   4
ENDBRANCH   2   3
ENDBRANCH   1   2
BRANCH   1  24
ATOM     24  C   UNL A   1      32.219  27.378  25.224  1.00  0.00     0.002 C 
BRANCH  24  25
ATOM     25  C   UNL A   1      32.666  27.757  26.638  1.00  0.00     0.021 C 
BRANCH  25  26
ATOM     26  C   UNL A   1      34.001  28.489  26.693  1.00  0.00     0.116 C 
BRANCH  26  27
ATOM     27  N   UNL A   1      33.848  29.852  27.178  1.00  0.00    -0.352 N 
ATOM     28  C   UNL A   1      34.669  30.576  28.004  1.00  0.00     0.251 C 
ATOM     29  H   UNL A   1      33.040  30.322  26.869  1.00  0.00     0.163 HD
ATOM     30  O   UNL A   1      34.282  31.632  28.494  1.00  0.00    -0.269 OA
BRANCH  28  31
ATOM     31  C   UNL A   1      36.021  30.069  28.315  1.00  0.00     0.039 A 
ATOM     32  C   UNL A   1      37.034  30.215  27.365  1.00  0.00     0.014 A 
ATOM     33  C   UNL A   1      36.287  29.448  29.539  1.00  0.00     0.014 A 
ATOM     34  C   UNL A   1      38.329  29.792  27.666  1.00  0.00     0.010 A 
ATOM     35  C   UNL A   1      37.593  29.101  29.869  1.00  0.00     0.010 A 
ATOM     36  C   UNL A   1      38.626  29.264  28.934  1.00  0.00    -0.014 A 
BRANCH  36  37
ATOM     37  C   UNL A   1      40.013  28.875  29.298  1.00  0.00     0.031 A 
ATOM     38  C   UNL A   1      40.852  29.786  30.149  1.00  0.00     0.074 A 
ATOM     39  C   UNL A   1      40.531  27.729  28.817  1.00  0.00     0.049 A 
ATOM     40  N   UNL A   1      42.103  29.656  30.518  1.00  0.00    -0.248 NA
ATOM     41  C   UNL A   1      40.212  31.021  30.631  1.00  0.00     0.031 C 
ATOM     42  C   UNL A   1      39.828  26.782  27.950  1.00  0.00     0.029 A 
ATOM     43  N   UNL A   1      41.773  27.168  28.980  1.00  0.00    -0.354 N 
ATOM     44  C   UNL A   1      42.396  30.788  31.265  1.00  0.00     0.074 A 
ATOM     45  C   UNL A   1      41.217  31.626  31.248  1.00  0.00     0.031 C 
ATOM     46  C   UNL A   1      40.640  25.747  27.678  1.00  0.00     0.029 A 
ATOM     47  C   UNL A   1      41.934  25.979  28.311  1.00  0.00     0.049 A 
ATOM     48  H   UNL A   1      42.482  27.580  29.525  1.00  0.00     0.167 HD
ATOM     49  C   UNL A   1      43.537  31.090  31.929  1.00  0.00     0.037 A 
ATOM     50  C   UNL A   1      43.009  25.174  28.210  1.00  0.00     0.037 A 
ATOM     51  C   UNL A   1      44.705  30.248  31.954  1.00  0.00     0.049 A 
ATOM     52  C   UNL A   1      44.278  25.555  28.927  1.00  0.00     0.074 A 
ATOM     53  C   UNL A   1      45.896  30.445  32.630  1.00  0.00     0.029 A 
ATOM     54  N   UNL A   1      44.829  29.049  31.266  1.00  0.00    -0.354 N 
ATOM     55  N   UNL A   1      44.522  26.596  29.686  1.00  0.00    -0.248 NA
ATOM     56  C   UNL A   1      45.421  24.643  28.777  1.00  0.00     0.031 C 
ATOM     57  C   UNL A   1      46.761  29.394  32.307  1.00  0.00     0.029 A 
ATOM     58  C   UNL A   1      46.086  28.509  31.483  1.00  0.00     0.049 A 
ATOM     59  H   UNL A   1      44.127  28.643  30.707  1.00  0.00     0.167 HD
ATOM     60  C   UNL A   1      45.829  26.446  30.132  1.00  0.00     0.074 A 
ATOM     61  C   UNL A   1      46.320  25.204  29.572  1.00  0.00     0.031 C 
ATOM     62  C   UNL A   1      46.556  27.262  30.932  1.00  0.00     0.037 A 
BRANCH  49  63
ATOM     63  C   UNL A   1      43.582  32.385  32.691  1.00  0.00     0.064 A 
ATOM     64  C   UNL A   1      44.029  33.574  32.093  1.00  0.00     0.173 A 
ATOM     65  C   UNL A   1      43.123  32.449  34.015  1.00  0.00     0.173 A 
ATOM     66  F   UNL A   1      44.487  33.565  30.832  1.00  0.00    -0.203 F 
ATOM     67  C   UNL A   1      44.040  34.772  32.801  1.00  0.00     0.198 A 
ATOM     68  C   UNL A   1      43.104  33.657  34.709  1.00  0.00     0.198 A 
ATOM     69  F   UNL A   1      42.679  31.345  34.633  1.00  0.00    -0.203 F 
ATOM     70  F   UNL A   1      44.515  35.885  32.224  1.00  0.00    -0.200 F 
ATOM     71  C   UNL A   1      43.568  34.815  34.105  1.00  0.00     0.200 A 
ATOM     72  F   UNL A   1      42.633  33.700  35.963  1.00  0.00    -0.200 F 
ATOM     73  F   UNL A   1      43.566  35.972  34.780  1.00  0.00    -0.200 F 
ENDBRANCH  49  63
BRANCH  50  74
ATOM     74  C   UNL A   1      42.938  23.923  27.409  1.00  0.00     0.064 A 
ATOM     75  C   UNL A   1      42.510  22.719  27.988  1.00  0.00     0.173 A 
ATOM     76  C   UNL A   1      43.324  23.893  26.061  1.00  0.00     0.173 A 
ATOM     77  F   UNL A   1      42.148  22.689  29.279  1.00  0.00    -0.203 F 
ATOM     78  C   UNL A   1      42.506  21.530  27.261  1.00  0.00     0.198 A 
ATOM     79  C   UNL A   1      43.286  22.711  25.324  1.00  0.00     0.198 A 
ATOM     80  F   UNL A   1      43.736  25.017  25.455  1.00  0.00    -0.203 F 
ATOM     81  F   UNL A   1      42.154  20.384  27.859  1.00  0.00    -0.200 F 
ATOM     82  C   UNL A   1      42.889  21.527  25.929  1.00  0.00     0.200 A 
ATOM     83  F   UNL A   1      43.642  22.716  24.033  1.00  0.00    -0.200 F 
ATOM     84  F   UNL A   1      42.888  20.384  25.231  1.00  0.00    -0.200 F 
ENDBRANCH  50  74
BRANCH  62  85
ATOM     85  C   UNL A   1      47.944  26.818  31.297  1.00  0.00     0.064 A 
ATOM     86  C   UNL A   1      48.186  25.951  32.373  1.00  0.00     0.173 A 
ATOM     87  C   UNL A   1      49.044  27.235  30.532  1.00  0.00     0.173 A 
ATOM     88  F   UNL A   1      47.171  25.533  33.145  1.00  0.00    -0.203 F 
ATOM     89  C   UNL A   1      49.480  25.542  32.687  1.00  0.00     0.198 A 
ATOM     90  C   UNL A   1      50.331  26.796  30.826  1.00  0.00     0.198 A 
ATOM     91  F   UNL A   1      48.869  28.058  29.487  1.00  0.00    -0.203 F 
ATOM     92  F   UNL A   1      49.692  24.758  33.753  1.00  0.00    -0.200 F 
ATOM     93  C   UNL A   1      50.549  25.958  31.908  1.00  0.00     0.200 A 
ATOM     94  F   UNL A   1      51.362  27.183  30.062  1.00  0.00    -0.200 F 
ATOM     95  F   UNL A   1      51.792  25.554  32.205  1.00  0.00    -0.200 F 
ENDBRANCH  62  85
ENDBRANCH  36  37
ENDBRANCH  28  31
ENDBRANCH  26  27
ENDBRANCH  25  26
ENDBRANCH  24  25
ENDBRANCH   1  24
TORSDOF 15
ENDMDL
MODEL 2
REMARK VINA RESULT:     -11.6      4.065      6.218
REMARK SMILES COc1ccc(-c2cc(C(=O)NCCCCCCNC(=O)c3ccc(-c4c5nc(c(-c6c(F)c(F)c(F)c(F)c6F)c6ccc([nH]6)c(-c6c(F)c(F)c(F)c(F)c6F)c6nc(c(-c7c(F)c(F)c(F)c(F)c7F)c7ccc4[nH]7)C=C6)C=C5)cc3)nc(=O)n2C)cc1
REMARK SMILES IDX 15 1 14 2 13 3 12 4 10 5 11 6 9 8 7 9 8 10 88 11 86 12 89 13
REMARK SMILES IDX 85 14 87 15 6 16 3 17 4 18 91 19 5 20 90 21 2 22 1 23 16 24
REMARK SMILES IDX 17 25 18 26 19 27 20 28 21 30 22 31 23 32 84 33 24 34 83 35
REMARK SMILES IDX 25 36 26 37 27 38 77 39 28 40 82 41 76 42 78 43 29 44 81 45
REMARK SMILES IDX 75 46 74 47 30 49 62 50 42 51 61 52 43 53 46 54 60 55 79 56
REMARK SMILES IDX 44 57 45 58 59 60 80 61 47 62 31 63 32 64 40 65 33 66 34 67
REMARK SMILES IDX 38 68 41 69 35 70 36 71 39 72 37 73 63 74 64 75 72 76 65 77
REMARK SMILES IDX 66 78 70 79 73 80 67 81 68 82 71 83 69 84 48 85 49 86 57 87
REMARK SMILES IDX 50 88 51 89 55 90 58 91 52 92 53 93 56 94 54 95
REMARK H PARENT 12 7 19 29 78 48 46 59
REMARK Flexibility Score: inf
ROOT
ATOM      1  C   UNL A   1      34.919  32.746  28.021  1.00  0.00     0.002 C 
ENDROOT
BRANCH   1   2
ATOM      2  C   UNL A   1      34.822  31.223  28.156  1.00  0.00     0.021 C 
BRANCH   2   3
ATOM      3  C   UNL A   1      33.911  30.578  27.114  1.00  0.00     0.116 C 
BRANCH   3   4
ATOM      4  N   UNL A   1      32.948  29.698  27.749  1.00  0.00    -0.351 N 
ATOM      5  C   UNL A   1      32.281  28.596  27.277  1.00  0.00     0.270 C 
ATOM      6  O   UNL A   1      31.436  28.059  27.988  1.00  0.00    -0.268 OA
ATOM      7  H   UNL A   1      32.735  29.933  28.681  1.00  0.00     0.163 HD
BRANCH   5   8
ATOM      8  C   UNL A   1      32.575  27.994  25.900  1.00  0.00     0.136 A 
ATOM      9  C   UNL A   1      33.360  26.092  24.713  1.00  0.00     0.055 A 
ATOM     10  C   UNL A   1      33.096  26.619  25.912  1.00  0.00     0.061 A 
ATOM     11  N   UNL A   1      33.156  26.828  23.557  1.00  0.00    -0.295 N 
ATOM     12  C   UNL A   1      32.687  28.145  23.609  1.00  0.00     0.348 A 
ATOM     13  C   UNL A   1      33.433  26.309  22.227  1.00  0.00     0.155 C 
ATOM     14  N   UNL A   1      32.381  28.681  24.827  1.00  0.00    -0.188 NA
ATOM     15  O   UNL A   1      32.553  28.821  22.590  1.00  0.00    -0.246 OA
BRANCH   9  16
ATOM     16  C   UNL A   1      33.887  24.718  24.692  1.00  0.00    -0.001 A 
ATOM     17  C   UNL A   1      34.875  22.093  24.726  1.00  0.00     0.118 A 
ATOM     18  C   UNL A   1      33.508  22.326  24.571  1.00  0.00     0.047 A 
ATOM     19  C   UNL A   1      35.751  23.172  24.844  1.00  0.00     0.047 A 
ATOM     20  C   UNL A   1      33.013  23.631  24.560  1.00  0.00     0.014 A 
ATOM     21  C   UNL A   1      35.258  24.480  24.839  1.00  0.00     0.014 A 
BRANCH  17  22
ATOM     22  O   UNL A   1      35.249  20.778  24.702  1.00  0.00    -0.497 OA
ATOM     23  C   UNL A   1      36.597  20.524  25.079  1.00  0.00     0.278 C 
ENDBRANCH  17  22
ENDBRANCH   9  16
ENDBRANCH   5   8
ENDBRANCH   3   4
ENDBRANCH   2   3
ENDBRANCH   1   2
BRANCH   1  24
ATOM     24  C   UNL A   1      34.401  33.532  29.232  1.00  0.00     0.002 C 
BRANCH  24  25
ATOM     25  C   UNL A   1      33.251  34.496  28.927  1.00  0.00     0.021 C 
BRANCH  25  26
ATOM     26  C   UNL A   1      33.454  35.901  29.476  1.00  0.00     0.116 C 
BRANCH  26  27
ATOM     27  N   UNL A   1      32.567  36.176  30.596  1.00  0.00    -0.352 N 
ATOM     28  C   UNL A   1      32.624  35.707  31.883  1.00  0.00     0.251 C 
ATOM     29  H   UNL A   1      31.818  36.785  30.402  1.00  0.00     0.163 HD
ATOM     30  O   UNL A   1      31.672  35.859  32.642  1.00  0.00    -0.269 OA
BRANCH  28  31
ATOM     31  C   UNL A   1      33.834  35.001  32.349  1.00  0.00     0.039 A 
ATOM     32  C   UNL A   1      33.705  33.716  32.881  1.00  0.00     0.014 A 
ATOM     33  C   UNL A   1      35.091  35.607  32.265  1.00  0.00     0.014 A 
ATOM     34  C   UNL A   1      34.846  33.015  33.274  1.00  0.00     0.010 A 
ATOM     35  C   UNL A   1      36.233  34.878  32.582  1.00  0.00     0.010 A 
ATOM     36  C   UNL A   1      36.122  33.576  33.095  1.00  0.00    -0.014 A 
BRANCH  36  37
ATOM     37  C   UNL A   1      37.351  32.817  33.439  1.00  0.00     0.031 A 
ATOM     38  C   UNL A   1      38.093  33.119  34.711  1.00  0.00     0.074 A 
ATOM     39  C   UNL A   1      37.827  31.896  32.579  1.00  0.00     0.049 A 
ATOM     40  N   UNL A   1      39.217  32.614  35.154  1.00  0.00    -0.248 NA
ATOM     41  C   UNL A   1      37.508  34.142  35.593  1.00  0.00     0.031 C 
ATOM     42  C   UNL A   1      37.218  31.543  31.296  1.00  0.00     0.029 A 
ATOM     43  N   UNL A   1      38.939  31.093  32.650  1.00  0.00    -0.354 N 
ATOM     44  C   UNL A   1      39.474  33.259  36.356  1.00  0.00     0.074 A 
ATOM     45  C   UNL A   1      38.424  34.236  36.546  1.00  0.00     0.031 C 
ATOM     46  C   UNL A   1      37.948  30.578  30.712  1.00  0.00     0.029 A 
ATOM     47  C   UNL A   1      39.101  30.280  31.555  1.00  0.00     0.049 A 
ATOM     48  H   UNL A   1      39.561  31.102  33.412  1.00  0.00     0.167 HD
ATOM     49  C   UNL A   1      40.479  33.038  37.236  1.00  0.00     0.037 A 
ATOM     50  C   UNL A   1      40.078  29.401  31.260  1.00  0.00     0.037 A 
ATOM     51  C   UNL A   1      41.515  32.056  37.048  1.00  0.00     0.049 A 
ATOM     52  C   UNL A   1      41.205  29.204  32.239  1.00  0.00     0.074 A 
ATOM     53  C   UNL A   1      42.556  31.727  37.901  1.00  0.00     0.029 A 
ATOM     54  N   UNL A   1      41.645  31.248  35.928  1.00  0.00    -0.354 N 
ATOM     55  N   UNL A   1      41.401  29.772  33.404  1.00  0.00    -0.248 NA
ATOM     56  C   UNL A   1      42.246  28.237  31.863  1.00  0.00     0.031 C 
ATOM     57  C   UNL A   1      43.346  30.760  37.272  1.00  0.00     0.029 A 
ATOM     58  C   UNL A   1      42.763  30.439  36.057  1.00  0.00     0.049 A 
ATOM     59  H   UNL A   1      41.033  31.249  35.157  1.00  0.00     0.167 HD
ATOM     60  C   UNL A   1      42.562  29.206  33.915  1.00  0.00     0.074 A 
ATOM     61  C   UNL A   1      43.018  28.238  32.940  1.00  0.00     0.031 C 
ATOM     62  C   UNL A   1      43.195  29.466  35.085  1.00  0.00     0.037 A 
BRANCH  49  63
ATOM     63  C   UNL A   1      40.509  33.869  38.487  1.00  0.00     0.064 A 
ATOM     64  C   UNL A   1      41.256  35.055  38.564  1.00  0.00     0.173 A 
ATOM     65  C   UNL A   1      39.741  33.505  39.604  1.00  0.00     0.173 A 
ATOM     66  F   UNL A   1      42.016  35.443  37.529  1.00  0.00    -0.203 F 
ATOM     67  C   UNL A   1      41.254  35.830  39.721  1.00  0.00     0.198 A 
ATOM     68  C   UNL A   1      39.714  34.302  40.746  1.00  0.00     0.198 A 
ATOM     69  F   UNL A   1      39.002  32.385  39.583  1.00  0.00    -0.203 F 
ATOM     70  F   UNL A   1      42.012  36.933  39.787  1.00  0.00    -0.200 F 
ATOM     71  C   UNL A   1      40.475  35.459  40.807  1.00  0.00     0.200 A 
ATOM     72  F   UNL A   1      38.948  33.950  41.788  1.00  0.00    -0.200 F 
ATOM     73  F   UNL A   1      40.463  36.214  41.914  1.00  0.00    -0.200 F 
ENDBRANCH  49  63
BRANCH  50  74
ATOM     74  C   UNL A   1      40.035  28.630  29.988  1.00  0.00     0.064 A 
ATOM     75  C   UNL A   1      39.429  27.366  29.931  1.00  0.00     0.173 A 
ATOM     76  C   UNL A   1      40.626  29.120  28.814  1.00  0.00     0.173 A 
ATOM     77  F   UNL A   1      38.867  26.843  31.031  1.00  0.00    -0.203 F 
ATOM     78  C   UNL A   1      39.445  26.610  28.761  1.00  0.00     0.198 A 
ATOM     79  C   UNL A   1      40.610  28.378  27.634  1.00  0.00     0.198 A 
ATOM     80  F   UNL A   1      41.214  30.325  28.811  1.00  0.00    -0.203 F 
ATOM     81  F   UNL A   1      38.915  25.380  28.754  1.00  0.00    -0.200 F 
ATOM     82  C   UNL A   1      40.032  27.118  27.612  1.00  0.00     0.200 A 
ATOM     83  F   UNL A   1      41.164  28.881  26.523  1.00  0.00    -0.200 F 
ATOM     84  F   UNL A   1      40.050  26.390  26.488  1.00  0.00    -0.200 F 
ENDBRANCH  50  74
BRANCH  62  85
ATOM     85  C   UNL A   1      44.419  28.657  35.405  1.00  0.00     0.064 A 
ATOM     86  C   UNL A   1      45.706  29.087  35.048  1.00  0.00     0.173 A 
ATOM     87  C   UNL A   1      44.304  27.451  36.114  1.00  0.00     0.173 A 
ATOM     88  F   UNL A   1      45.870  30.225  34.357  1.00  0.00    -0.203 F 
ATOM     89  C   UNL A   1      46.829  28.325  35.364  1.00  0.00     0.198 A 
ATOM     90  C   UNL A   1      45.431  26.712  36.460  1.00  0.00     0.198 A 
ATOM     91  F   UNL A   1      43.099  26.997  36.487  1.00  0.00    -0.203 F 
ATOM     92  F   UNL A   1      48.043  28.729  34.965  1.00  0.00    -0.200 F 
ATOM     93  C   UNL A   1      46.691  27.144  36.077  1.00  0.00     0.200 A 
ATOM     94  F   UNL A   1      45.298  25.579  37.165  1.00  0.00    -0.200 F 
ATOM     95  F   UNL A   1      47.774  26.419  36.390  1.00  0.00    -0.200 F 
ENDBRANCH  62  85
ENDBRANCH  36  37
ENDBRANCH  28  31
ENDBRANCH  26  27
ENDBRANCH  25  26
ENDBRANCH  24  25
ENDBRANCH   1  24
TORSDOF 15
ENDMDL
MODEL 3
REMARK VINA RESULT:     -11.6      3.514      7.960
REMARK SMILES COc1ccc(-c2cc(C(=O)NCCCCCCNC(=O)c3ccc(-c4c5nc(c(-c6c(F)c(F)c(F)c(F)c6F)c6ccc([nH]6)c(-c6c(F)c(F)c(F)c(F)c6F)c6nc(c(-c7c(F)c(F)c(F)c(F)c7F)c7ccc4[nH]7)C=C6)C=C5)cc3)nc(=O)n2C)cc1
REMARK SMILES IDX 15 1 14 2 13 3 12 4 10 5 11 6 9 8 7 9 8 10 88 11 86 12 89 13
REMARK SMILES IDX 85 14 87 15 6 16 3 17 4 18 91 19 5 20 90 21 2 22 1 23 16 24
REMARK SMILES IDX 17 25 18 26 19 27 20 28 21 30 22 31 23 32 84 33 24 34 83 35
REMARK SMILES IDX 25 36 26 37 27 38 77 39 28 40 82 41 76 42 78 43 29 44 81 45
REMARK SMILES IDX 75 46 74 47 30 49 62 50 42 51 61 52 43 53 46 54 60 55 79 56
REMARK SMILES IDX 44 57 45 58 59 60 80 61 47 62 31 63 32 64 40 65 33 66 34 67
REMARK SMILES IDX 38 68 41 69 35 70 36 71 39 72 37 73 63 74 64 75 72 76 65 77
REMARK SMILES IDX 66 78 70 79 73 80 67 81 68 82 71 83 69 84 48 85 49 86 57 87
REMARK SMILES IDX 50 88 51 89 55 90 58 91 52 92 53 93 56 94 54 95
REMARK H PARENT 12 7 19 29 78 48 46 59
REMARK Flexibility Score: inf
ROOT
ATOM      1  C   UNL A   1      36.805  21.697  25.647  1.00  0.00     0.002 C 
ENDROOT
BRANCH   1   2
ATOM      2  C   UNL A   1      35.331  21.605  26.055  1.00  0.00     0.021 C 
BRANCH   2   3
ATOM      3  C   UNL A   1      34.507  20.690  25.151  1.00  0.00     0.116 C 
BRANCH   3   4
ATOM      4  N   UNL A   1      33.097  20.776  25.483  1.00  0.00    -0.351 N 
ATOM      5  C   UNL A   1      32.180  21.776  25.279  1.00  0.00     0.270 C 
ATOM      6  O   UNL A   1      31.046  21.648  25.734  1.00  0.00    -0.268 OA
ATOM      7  H   UNL A   1      32.736  19.979  25.934  1.00  0.00     0.163 HD
BRANCH   5   8
ATOM      8  C   UNL A   1      32.514  23.036  24.477  1.00  0.00     0.136 A 
ATOM      9  C   UNL A   1      32.750  25.400  24.536  1.00  0.00     0.055 A 
ATOM     10  C   UNL A   1      32.464  24.296  25.234  1.00  0.00     0.061 A 
ATOM     11  N   UNL A   1      33.055  25.323  23.186  1.00  0.00    -0.295 N 
ATOM     12  C   UNL A   1      33.057  24.098  22.511  1.00  0.00     0.348 A 
ATOM     13  C   UNL A   1      33.366  26.490  22.376  1.00  0.00     0.155 C 
ATOM     14  N   UNL A   1      32.801  22.961  23.222  1.00  0.00    -0.188 NA
ATOM     15  O   UNL A   1      33.276  24.029  21.303  1.00  0.00    -0.246 OA
BRANCH   9  16
ATOM     16  C   UNL A   1      32.704  26.677  25.264  1.00  0.00    -0.001 A 
ATOM     17  C   UNL A   1      32.616  29.150  26.587  1.00  0.00     0.118 A 
ATOM     18  C   UNL A   1      31.438  28.548  26.143  1.00  0.00     0.047 A 
ATOM     19  C   UNL A   1      33.838  28.507  26.387  1.00  0.00     0.047 A 
ATOM     20  C   UNL A   1      31.480  27.322  25.479  1.00  0.00     0.014 A 
ATOM     21  C   UNL A   1      33.883  27.280  25.718  1.00  0.00     0.014 A 
BRANCH  17  22
ATOM     22  O   UNL A   1      32.453  30.340  27.241  1.00  0.00    -0.497 OA
ATOM     23  C   UNL A   1      33.660  31.004  27.599  1.00  0.00     0.278 C 
ENDBRANCH  17  22
ENDBRANCH   9  16
ENDBRANCH   5   8
ENDBRANCH   3   4
ENDBRANCH   2   3
ENDBRANCH   1   2
BRANCH   1  24
ATOM     24  C   UNL A   1      37.226  20.723  24.540  1.00  0.00     0.002 C 
BRANCH  24  25
ATOM     25  C   UNL A   1      38.142  19.586  25.002  1.00  0.00     0.021 C 
BRANCH  25  26
ATOM     26  C   UNL A   1      39.302  20.039  25.878  1.00  0.00     0.116 C 
BRANCH  26  27
ATOM     27  N   UNL A   1      40.330  19.015  25.984  1.00  0.00    -0.352 N 
ATOM     28  C   UNL A   1      41.690  19.159  26.085  1.00  0.00     0.251 C 
ATOM     29  H   UNL A   1      40.003  18.087  25.983  1.00  0.00     0.163 HD
ATOM     30  O   UNL A   1      42.429  18.190  25.940  1.00  0.00    -0.269 OA
BRANCH  28  31
ATOM     31  C   UNL A   1      42.265  20.492  26.354  1.00  0.00     0.039 A 
ATOM     32  C   UNL A   1      42.657  21.289  25.277  1.00  0.00     0.014 A 
ATOM     33  C   UNL A   1      42.419  20.952  27.666  1.00  0.00     0.014 A 
ATOM     34  C   UNL A   1      43.150  22.573  25.513  1.00  0.00     0.010 A 
ATOM     35  C   UNL A   1      42.834  22.260  27.895  1.00  0.00     0.010 A 
ATOM     36  C   UNL A   1      43.209  23.082  26.822  1.00  0.00    -0.014 A 
BRANCH  36  37
ATOM     37  C   UNL A   1      43.663  24.472  27.086  1.00  0.00     0.031 A 
ATOM     38  C   UNL A   1      42.687  25.501  27.584  1.00  0.00     0.074 A 
ATOM     39  C   UNL A   1      44.938  24.816  26.825  1.00  0.00     0.049 A 
ATOM     40  N   UNL A   1      42.874  26.778  27.810  1.00  0.00    -0.248 NA
ATOM     41  C   UNL A   1      41.312  25.043  27.841  1.00  0.00     0.031 C 
ATOM     42  C   UNL A   1      45.967  23.917  26.301  1.00  0.00     0.029 A 
ATOM     43  N   UNL A   1      45.586  26.020  26.955  1.00  0.00    -0.354 N 
ATOM     44  C   UNL A   1      41.645  27.271  28.227  1.00  0.00     0.074 A 
ATOM     45  C   UNL A   1      40.704  26.174  28.165  1.00  0.00     0.031 C 
ATOM     46  C   UNL A   1      47.122  24.591  26.179  1.00  0.00     0.029 A 
ATOM     47  C   UNL A   1      46.903  25.981  26.568  1.00  0.00     0.049 A 
ATOM     48  H   UNL A   1      45.146  26.834  27.291  1.00  0.00     0.167 HD
ATOM     49  C   UNL A   1      41.336  28.520  28.649  1.00  0.00     0.037 A 
ATOM     50  C   UNL A   1      47.827  26.960  26.521  1.00  0.00     0.037 A 
ATOM     51  C   UNL A   1      42.279  29.606  28.721  1.00  0.00     0.049 A 
ATOM     52  C   UNL A   1      47.444  28.349  26.960  1.00  0.00     0.074 A 
ATOM     53  C   UNL A   1      42.073  30.898  29.173  1.00  0.00     0.029 A 
ATOM     54  N   UNL A   1      43.606  29.527  28.323  1.00  0.00    -0.354 N 
ATOM     55  N   UNL A   1      46.296  28.788  27.415  1.00  0.00    -0.248 NA
ATOM     56  C   UNL A   1      48.490  29.378  26.882  1.00  0.00     0.031 C 
ATOM     57  C   UNL A   1      43.260  31.616  28.998  1.00  0.00     0.029 A 
ATOM     58  C   UNL A   1      44.223  30.755  28.497  1.00  0.00     0.049 A 
ATOM     59  H   UNL A   1      44.043  28.719  27.970  1.00  0.00     0.167 HD
ATOM     60  C   UNL A   1      46.491  30.131  27.713  1.00  0.00     0.074 A 
ATOM     61  C   UNL A   1      47.873  30.430  27.402  1.00  0.00     0.031 C 
ATOM     62  C   UNL A   1      45.606  31.035  28.199  1.00  0.00     0.037 A 
BRANCH  49  63
ATOM     63  C   UNL A   1      39.918  28.784  29.073  1.00  0.00     0.064 A 
ATOM     64  C   UNL A   1      38.946  29.219  28.159  1.00  0.00     0.173 A 
ATOM     65  C   UNL A   1      39.514  28.548  30.396  1.00  0.00     0.173 A 
ATOM     66  F   UNL A   1      39.282  29.468  26.884  1.00  0.00    -0.203 F 
ATOM     67  C   UNL A   1      37.630  29.434  28.559  1.00  0.00     0.198 A 
ATOM     68  C   UNL A   1      38.189  28.731  30.785  1.00  0.00     0.198 A 
ATOM     69  F   UNL A   1      40.400  28.126  31.311  1.00  0.00    -0.203 F 
ATOM     70  F   UNL A   1      36.731  29.894  27.678  1.00  0.00    -0.200 F 
ATOM     71  C   UNL A   1      37.250  29.181  29.869  1.00  0.00     0.200 A 
ATOM     72  F   UNL A   1      37.820  28.470  32.046  1.00  0.00    -0.200 F 
ATOM     73  F   UNL A   1      35.980  29.374  30.248  1.00  0.00    -0.200 F 
ENDBRANCH  49  63
BRANCH  50  74
ATOM     74  C   UNL A   1      49.208  26.668  26.052  1.00  0.00     0.064 A 
ATOM     75  C   UNL A   1      49.587  26.916  24.725  1.00  0.00     0.173 A 
ATOM     76  C   UNL A   1      50.168  26.105  26.906  1.00  0.00     0.173 A 
ATOM     77  F   UNL A   1      48.701  27.436  23.862  1.00  0.00    -0.203 F 
ATOM     78  C   UNL A   1      50.858  26.582  24.262  1.00  0.00     0.198 A 
ATOM     79  C   UNL A   1      51.451  25.803  26.451  1.00  0.00     0.198 A 
ATOM     80  F   UNL A   1      49.862  25.851  28.186  1.00  0.00    -0.203 F 
ATOM     81  F   UNL A   1      51.170  26.771  22.973  1.00  0.00    -0.200 F 
ATOM     82  C   UNL A   1      51.790  26.030  25.126  1.00  0.00     0.200 A 
ATOM     83  F   UNL A   1      52.353  25.285  27.295  1.00  0.00    -0.200 F 
ATOM     84  F   UNL A   1      53.011  25.705  24.680  1.00  0.00    -0.200 F 
ENDBRANCH  50  74
BRANCH  62  85
ATOM     85  C   UNL A   1      46.113  32.421  28.477  1.00  0.00     0.064 A 
ATOM     86  C   UNL A   1      46.045  33.441  27.516  1.00  0.00     0.173 A 
ATOM     87  C   UNL A   1      46.641  32.741  29.737  1.00  0.00     0.173 A 
ATOM     88  F   UNL A   1      45.563  33.184  26.291  1.00  0.00    -0.203 F 
ATOM     89  C   UNL A   1      46.512  34.723  27.799  1.00  0.00     0.198 A 
ATOM     90  C   UNL A   1      47.072  34.032  30.028  1.00  0.00     0.198 A 
ATOM     91  F   UNL A   1      46.722  31.806  30.695  1.00  0.00    -0.203 F 
ATOM     92  F   UNL A   1      46.486  35.667  26.848  1.00  0.00    -0.200 F 
ATOM     93  C   UNL A   1      47.016  35.019  29.056  1.00  0.00     0.200 A 
ATOM     94  F   UNL A   1      47.543  34.321  31.249  1.00  0.00    -0.200 F 
ATOM     95  F   UNL A   1      47.455  36.256  29.329  1.00  0.00    -0.200 F 
ENDBRANCH  62  85
ENDBRANCH  36  37
ENDBRANCH  28  31
ENDBRANCH  26  27
ENDBRANCH  25  26
ENDBRANCH  24  25
ENDBRANCH   1  24
TORSDOF 15
ENDMDL
