MODEL 1
REMARK VINA RESULT:     -13.6      0.000      0.000
REMARK SMILES Cc1cc(C)c(NS(=O)(=O)c2cccc3cc(C)cnc23)c(C(=O)NCCCCCCNC(=O)c2ccc(-c3c4nc(c(-c5c(F)c(F)c(F)c(F)c5F)c5ccc([nH]5)c(-c5c(F)c(F)c(F)c(F)c5F)c5nc(c(-c6c(F)c(F)c(F)c(F)c6F)c6ccc3[nH]6)C=C5)C=C4)cc2)c1
REMARK SMILES IDX 28 1 27 2 26 3 25 4 23 5 24 6 22 8 1 9 2 10 3 11 98 12 4 13
REMARK SMILES IDX 5 14 6 15 7 16 8 18 9 19 10 20 11 21 12 22 21 23 13 24 15 25
REMARK SMILES IDX 20 26 14 27 16 28 19 29 17 30 18 31 29 32 30 33 31 34 32 35
REMARK SMILES IDX 33 36 34 38 35 39 36 40 97 41 37 42 96 43 38 44 39 45 40 46
REMARK SMILES IDX 90 47 41 48 95 49 89 50 91 51 42 52 94 53 88 54 87 55 43 57
REMARK SMILES IDX 75 58 55 59 74 60 56 61 59 62 73 63 92 64 57 65 58 66 72 68
REMARK SMILES IDX 93 69 60 70 44 71 45 72 53 73 46 74 47 75 51 76 54 77 48 78
REMARK SMILES IDX 49 79 52 80 50 81 76 82 77 83 85 84 78 85 79 86 83 87 86 88
REMARK SMILES IDX 80 89 81 90 84 91 82 92 61 93 62 94 70 95 63 96 64 97 68 98
REMARK SMILES IDX 71 99 65 100 66 101 69 102 67 103
REMARK H PARENT 25 7 7 17 32 37 91 56 59 67
REMARK Flexibility Score: inf
ROOT
ATOM      1  C   UNL A   1      32.928  30.160  26.399  1.00  0.00     0.002 C 
ENDROOT
BRANCH   1   2
ATOM      2  C   UNL A   1      32.879  28.796  27.097  1.00  0.00     0.021 C 
BRANCH   2   3
ATOM      3  C   UNL A   1      31.454  28.409  27.501  1.00  0.00     0.116 C 
BRANCH   3   4
ATOM      4  N   UNL A   1      31.228  27.018  27.140  1.00  0.00    -0.352 N 
ATOM      5  C   UNL A   1      30.918  26.402  25.949  1.00  0.00     0.253 C 
ATOM      6  O   UNL A   1      30.617  25.209  25.979  1.00  0.00    -0.269 OA
ATOM      7  H   UNL A   1      31.314  26.395  27.897  1.00  0.00     0.163 HD
BRANCH   5   8
ATOM      8  C   UNL A   1      31.074  27.097  24.637  1.00  0.00     0.064 A 
ATOM      9  C   UNL A   1      29.168  29.760  22.753  1.00  0.00     0.044 C 
ATOM     10  C   UNL A   1      30.284  28.857  23.183  1.00  0.00    -0.050 A 
ATOM     11  C   UNL A   1      31.601  29.039  22.748  1.00  0.00     0.009 A 
ATOM     12  C   UNL A   1      30.029  27.868  24.126  1.00  0.00     0.019 A 
ATOM     13  C   UNL A   1      32.641  28.167  23.147  1.00  0.00    -0.026 A 
ATOM     14  C   UNL A   1      34.037  28.485  22.691  1.00  0.00     0.046 C 
ATOM     15  C   UNL A   1      32.332  27.082  23.982  1.00  0.00     0.065 A 
BRANCH  15  16
ATOM     16  N   UNL A   1      33.229  26.004  24.304  1.00  0.00    -0.278 N 
ATOM     17  H   UNL A   1      33.932  26.215  24.960  1.00  0.00     0.180 HD
BRANCH  16  18
ATOM     18  S   UNL A   1      33.234  24.435  23.706  1.00  0.00     0.264 S 
ATOM     19  O   UNL A   1      31.986  24.340  22.964  1.00  0.00    -0.201 OA
ATOM     20  O   UNL A   1      34.484  24.271  22.989  1.00  0.00    -0.201 OA
BRANCH  18  21
ATOM     21  C   UNL A   1      33.169  23.119  24.894  1.00  0.00     0.114 A 
ATOM     22  C   UNL A   1      33.649  23.472  26.178  1.00  0.00     0.024 A 
ATOM     23  C   UNL A   1      32.893  21.797  24.561  1.00  0.00     0.091 A 
ATOM     24  C   UNL A   1      33.991  22.499  27.102  1.00  0.00     0.002 A 
ATOM     25  C   UNL A   1      33.375  20.821  25.470  1.00  0.00     0.002 A 
ATOM     26  N   UNL A   1      32.263  21.417  23.428  1.00  0.00    -0.255 NA
ATOM     27  C   UNL A   1      33.901  21.169  26.725  1.00  0.00     0.010 A 
ATOM     28  C   UNL A   1      33.392  19.480  25.071  1.00  0.00     0.015 A 
ATOM     29  C   UNL A   1      32.254  20.103  23.098  1.00  0.00     0.115 A 
ATOM     30  C   UNL A   1      32.886  19.114  23.830  1.00  0.00    -0.032 A 
ATOM     31  C   UNL A   1      33.079  17.730  23.303  1.00  0.00     0.046 C 
ENDBRANCH  18  21
ENDBRANCH  16  18
ENDBRANCH  15  16
ENDBRANCH   5   8
ENDBRANCH   3   4
ENDBRANCH   2   3
ENDBRANCH   1   2
BRANCH   1  32
ATOM     32  C   UNL A   1      31.546  30.773  26.134  1.00  0.00     0.002 C 
BRANCH  32  33
ATOM     33  C   UNL A   1      31.409  32.239  26.550  1.00  0.00     0.021 C 
BRANCH  33  34
ATOM     34  C   UNL A   1      32.643  32.801  27.244  1.00  0.00     0.116 C 
BRANCH  34  35
ATOM     35  N   UNL A   1      32.464  34.203  27.591  1.00  0.00    -0.352 N 
ATOM     36  C   UNL A   1      33.020  34.916  28.617  1.00  0.00     0.251 C 
ATOM     37  H   UNL A   1      31.857  34.710  27.004  1.00  0.00     0.163 HD
ATOM     38  O   UNL A   1      32.562  36.014  28.937  1.00  0.00    -0.269 OA
BRANCH  36  39
ATOM     39  C   UNL A   1      34.173  34.359  29.349  1.00  0.00     0.039 A 
ATOM     40  C   UNL A   1      33.951  33.634  30.521  1.00  0.00     0.014 A 
ATOM     41  C   UNL A   1      35.474  34.567  28.881  1.00  0.00     0.014 A 
ATOM     42  C   UNL A   1      35.034  33.074  31.198  1.00  0.00     0.010 A 
ATOM     43  C   UNL A   1      36.543  33.943  29.510  1.00  0.00     0.010 A 
ATOM     44  C   UNL A   1      36.336  33.199  30.681  1.00  0.00    -0.014 A 
BRANCH  44  45
ATOM     45  C   UNL A   1      37.493  32.565  31.357  1.00  0.00     0.031 A 
ATOM     46  C   UNL A   1      38.223  31.430  30.698  1.00  0.00     0.074 A 
ATOM     47  C   UNL A   1      37.844  32.972  32.593  1.00  0.00     0.049 A 
ATOM     48  N   UNL A   1      39.218  30.710  31.150  1.00  0.00    -0.248 NA
ATOM     49  C   UNL A   1      37.753  31.031  29.362  1.00  0.00     0.031 C 
ATOM     50  C   UNL A   1      37.180  34.031  33.353  1.00  0.00     0.029 A 
ATOM     51  N   UNL A   1      38.840  32.536  33.429  1.00  0.00    -0.354 N 
ATOM     52  C   UNL A   1      39.483  29.771  30.163  1.00  0.00     0.074 A 
ATOM     53  C   UNL A   1      38.506  29.969  29.117  1.00  0.00     0.031 C 
ATOM     54  C   UNL A   1      37.805  34.184  34.530  1.00  0.00     0.029 A 
ATOM     55  C   UNL A   1      38.884  33.207  34.627  1.00  0.00     0.049 A 
ATOM     56  H   UNL A   1      39.465  31.813  33.193  1.00  0.00     0.167 HD
ATOM     57  C   UNL A   1      40.470  28.843  30.123  1.00  0.00     0.037 A 
ATOM     58  C   UNL A   1      39.699  33.044  35.685  1.00  0.00     0.037 A 
ATOM     59  C   UNL A   1      41.449  28.663  31.164  1.00  0.00     0.049 A 
ATOM     60  C   UNL A   1      40.775  31.993  35.625  1.00  0.00     0.074 A 
ATOM     61  C   UNL A   1      42.525  27.793  31.196  1.00  0.00     0.029 A 
ATOM     62  N   UNL A   1      41.464  29.362  32.362  1.00  0.00    -0.354 N 
ATOM     63  N   UNL A   1      41.064  31.158  34.657  1.00  0.00    -0.248 NA
ATOM     64  C   UNL A   1      41.642  31.867  36.804  1.00  0.00     0.031 C 
ATOM     65  C   UNL A   1      43.154  27.924  32.438  1.00  0.00     0.029 A 
ATOM     66  C   UNL A   1      42.512  28.922  33.155  1.00  0.00     0.049 A 
ATOM     67  H   UNL A   1      40.826  30.069  32.613  1.00  0.00     0.167 HD
ATOM     68  C   UNL A   1      42.161  30.429  35.096  1.00  0.00     0.074 A 
ATOM     69  C   UNL A   1      42.495  30.932  36.412  1.00  0.00     0.031 C 
ATOM     70  C   UNL A   1      42.832  29.434  34.464  1.00  0.00     0.037 A 
BRANCH  57  71
ATOM     71  C   UNL A   1      40.531  27.948  28.918  1.00  0.00     0.064 A 
ATOM     72  C   UNL A   1      41.314  28.267  27.797  1.00  0.00     0.173 A 
ATOM     73  C   UNL A   1      39.813  26.743  28.888  1.00  0.00     0.173 A 
ATOM     74  F   UNL A   1      42.014  29.412  27.767  1.00  0.00    -0.203 F 
ATOM     75  C   UNL A   1      41.343  27.436  26.680  1.00  0.00     0.198 A 
ATOM     76  C   UNL A   1      39.872  25.897  27.784  1.00  0.00     0.198 A 
ATOM     77  F   UNL A   1      39.051  26.383  29.933  1.00  0.00    -0.203 F 
ATOM     78  F   UNL A   1      42.049  27.796  25.598  1.00  0.00    -0.200 F 
ATOM     79  C   UNL A   1      40.628  26.249  26.676  1.00  0.00     0.200 A 
ATOM     80  F   UNL A   1      39.192  24.742  27.789  1.00  0.00    -0.200 F 
ATOM     81  F   UNL A   1      40.660  25.449  25.602  1.00  0.00    -0.200 F 
ENDBRANCH  57  71
BRANCH  58  82
ATOM     82  C   UNL A   1      39.546  33.917  36.879  1.00  0.00     0.064 A 
ATOM     83  C   UNL A   1      38.785  33.501  37.980  1.00  0.00     0.173 A 
ATOM     84  C   UNL A   1      40.159  35.176  36.947  1.00  0.00     0.173 A 
ATOM     85  F   UNL A   1      38.164  32.312  37.954  1.00  0.00    -0.203 F 
ATOM     86  C   UNL A   1      38.627  34.319  39.097  1.00  0.00     0.198 A 
ATOM     87  C   UNL A   1      40.026  35.981  38.078  1.00  0.00     0.198 A 
ATOM     88  F   UNL A   1      40.903  35.619  35.924  1.00  0.00    -0.203 F 
ATOM     89  F   UNL A   1      37.858  33.916  40.117  1.00  0.00    -0.200 F 
ATOM     90  C   UNL A   1      39.253  35.555  39.148  1.00  0.00     0.200 A 
ATOM     91  F   UNL A   1      40.647  37.167  38.129  1.00  0.00    -0.200 F 
ATOM     92  F   UNL A   1      39.108  36.339  40.224  1.00  0.00    -0.200 F 
ENDBRANCH  58  82
BRANCH  70  93
ATOM     93  C   UNL A   1      44.018  28.845  35.175  1.00  0.00     0.064 A 
ATOM     94  C   UNL A   1      43.893  27.739  36.030  1.00  0.00     0.173 A 
ATOM     95  C   UNL A   1      45.302  29.371  34.966  1.00  0.00     0.173 A 
ATOM     96  F   UNL A   1      42.685  27.209  36.275  1.00  0.00    -0.203 F 
ATOM     97  C   UNL A   1      45.005  27.202  36.672  1.00  0.00     0.198 A 
ATOM     98  C   UNL A   1      46.416  28.809  35.582  1.00  0.00     0.198 A 
ATOM     99  F   UNL A   1      45.478  30.422  34.152  1.00  0.00    -0.203 F 
ATOM    100  F   UNL A   1      44.855  26.180  37.526  1.00  0.00    -0.200 F 
ATOM    101  C   UNL A   1      46.266  27.731  36.441  1.00  0.00     0.200 A 
ATOM    102  F   UNL A   1      47.635  29.311  35.343  1.00  0.00    -0.200 F 
ATOM    103  F   UNL A   1      47.337  27.206  37.053  1.00  0.00    -0.200 F 
ENDBRANCH  70  93
ENDBRANCH  44  45
ENDBRANCH  36  39
ENDBRANCH  34  35
ENDBRANCH  33  34
ENDBRANCH  32  33
ENDBRANCH   1  32
TORSDOF 16
ENDMDL
MODEL 2
REMARK VINA RESULT:     -13.6      0.580      1.220
REMARK SMILES Cc1cc(C)c(NS(=O)(=O)c2cccc3cc(C)cnc23)c(C(=O)NCCCCCCNC(=O)c2ccc(-c3c4nc(c(-c5c(F)c(F)c(F)c(F)c5F)c5ccc([nH]5)c(-c5c(F)c(F)c(F)c(F)c5F)c5nc(c(-c6c(F)c(F)c(F)c(F)c6F)c6ccc3[nH]6)C=C5)C=C4)cc2)c1
REMARK SMILES IDX 28 1 27 2 26 3 25 4 23 5 24 6 22 8 1 9 2 10 3 11 98 12 4 13
REMARK SMILES IDX 5 14 6 15 7 16 8 18 9 19 10 20 11 21 12 22 21 23 13 24 15 25
REMARK SMILES IDX 20 26 14 27 16 28 19 29 17 30 18 31 29 32 30 33 31 34 32 35
REMARK SMILES IDX 33 36 34 38 35 39 36 40 97 41 37 42 96 43 38 44 39 45 40 46
REMARK SMILES IDX 90 47 41 48 95 49 89 50 91 51 42 52 94 53 88 54 87 55 43 57
REMARK SMILES IDX 75 58 55 59 74 60 56 61 59 62 73 63 92 64 57 65 58 66 72 68
REMARK SMILES IDX 93 69 60 70 44 71 45 72 53 73 46 74 47 75 51 76 54 77 48 78
REMARK SMILES IDX 49 79 52 80 50 81 76 82 77 83 85 84 78 85 79 86 83 87 86 88
REMARK SMILES IDX 80 89 81 90 84 91 82 92 61 93 62 94 70 95 63 96 64 97 68 98
REMARK SMILES IDX 71 99 65 100 66 101 69 102 67 103
REMARK H PARENT 25 7 7 17 32 37 91 56 59 67
REMARK Flexibility Score: inf
ROOT
ATOM      1  C   UNL A   1      32.918  30.188  26.359  1.00  0.00     0.002 C 
ENDROOT
BRANCH   1   2
ATOM      2  C   UNL A   1      32.877  28.928  27.231  1.00  0.00     0.021 C 
BRANCH   2   3
ATOM      3  C   UNL A   1      31.443  28.502  27.556  1.00  0.00     0.116 C 
BRANCH   3   4
ATOM      4  N   UNL A   1      31.296  27.087  27.251  1.00  0.00    -0.352 N 
ATOM      5  C   UNL A   1      31.014  26.408  26.088  1.00  0.00     0.253 C 
ATOM      6  O   UNL A   1      30.784  25.202  26.165  1.00  0.00    -0.269 OA
ATOM      7  H   UNL A   1      31.425  26.499  28.030  1.00  0.00     0.163 HD
BRANCH   5   8
ATOM      8  C   UNL A   1      31.118  27.061  24.748  1.00  0.00     0.064 A 
ATOM      9  C   UNL A   1      29.065  29.562  22.799  1.00  0.00     0.044 C 
ATOM     10  C   UNL A   1      30.227  28.727  23.244  1.00  0.00    -0.050 A 
ATOM     11  C   UNL A   1      31.528  28.952  22.781  1.00  0.00     0.009 A 
ATOM     12  C   UNL A   1      30.032  27.763  24.226  1.00  0.00     0.019 A 
ATOM     13  C   UNL A   1      32.613  28.144  23.195  1.00  0.00    -0.026 A 
ATOM     14  C   UNL A   1      33.986  28.508  22.705  1.00  0.00     0.046 C 
ATOM     15  C   UNL A   1      32.366  27.078  24.074  1.00  0.00     0.065 A 
BRANCH  15  16
ATOM     16  N   UNL A   1      33.317  26.055  24.420  1.00  0.00    -0.278 N 
ATOM     17  H   UNL A   1      33.909  26.261  25.179  1.00  0.00     0.180 HD
BRANCH  16  18
ATOM     18  S   UNL A   1      33.547  24.556  23.700  1.00  0.00     0.264 S 
ATOM     19  O   UNL A   1      32.196  24.061  23.482  1.00  0.00    -0.201 OA
ATOM     20  O   UNL A   1      34.400  24.779  22.548  1.00  0.00    -0.201 OA
BRANCH  18  21
ATOM     21  C   UNL A   1      34.347  23.307  24.673  1.00  0.00     0.114 A 
ATOM     22  C   UNL A   1      35.568  23.721  25.258  1.00  0.00     0.024 A 
ATOM     23  C   UNL A   1      33.952  21.974  24.687  1.00  0.00     0.091 A 
ATOM     24  C   UNL A   1      36.475  22.794  25.742  1.00  0.00     0.002 A 
ATOM     25  C   UNL A   1      34.950  21.040  25.065  1.00  0.00     0.002 A 
ATOM     26  N   UNL A   1      32.726  21.544  24.316  1.00  0.00    -0.255 NA
ATOM     27  C   UNL A   1      36.186  21.447  25.597  1.00  0.00     0.010 A 
ATOM     28  C   UNL A   1      34.723  19.680  24.831  1.00  0.00     0.015 A 
ATOM     29  C   UNL A   1      32.527  20.213  24.148  1.00  0.00     0.115 A 
ATOM     30  C   UNL A   1      33.513  19.255  24.296  1.00  0.00    -0.032 A 
ATOM     31  C   UNL A   1      33.327  17.843  23.851  1.00  0.00     0.046 C 
ENDBRANCH  18  21
ENDBRANCH  16  18
ENDBRANCH  15  16
ENDBRANCH   5   8
ENDBRANCH   3   4
ENDBRANCH   2   3
ENDBRANCH   1   2
BRANCH   1  32
ATOM     32  C   UNL A   1      31.538  30.803  26.089  1.00  0.00     0.002 C 
BRANCH  32  33
ATOM     33  C   UNL A   1      31.391  32.259  26.535  1.00  0.00     0.021 C 
BRANCH  33  34
ATOM     34  C   UNL A   1      32.605  32.803  27.277  1.00  0.00     0.116 C 
BRANCH  34  35
ATOM     35  N   UNL A   1      32.431  34.205  27.623  1.00  0.00    -0.352 N 
ATOM     36  C   UNL A   1      32.989  34.916  28.651  1.00  0.00     0.251 C 
ATOM     37  H   UNL A   1      31.828  34.715  27.035  1.00  0.00     0.163 HD
ATOM     38  O   UNL A   1      32.534  36.016  28.969  1.00  0.00    -0.269 OA
BRANCH  36  39
ATOM     39  C   UNL A   1      34.137  34.355  29.385  1.00  0.00     0.039 A 
ATOM     40  C   UNL A   1      33.921  33.723  30.611  1.00  0.00     0.014 A 
ATOM     41  C   UNL A   1      35.431  34.466  28.865  1.00  0.00     0.014 A 
ATOM     42  C   UNL A   1      34.998  33.158  31.293  1.00  0.00     0.010 A 
ATOM     43  C   UNL A   1      36.490  33.834  29.504  1.00  0.00     0.010 A 
ATOM     44  C   UNL A   1      36.286  33.183  30.730  1.00  0.00    -0.014 A 
BRANCH  44  45
ATOM     45  C   UNL A   1      37.434  32.540  31.414  1.00  0.00     0.031 A 
ATOM     46  C   UNL A   1      38.146  31.386  30.770  1.00  0.00     0.074 A 
ATOM     47  C   UNL A   1      37.792  32.958  32.644  1.00  0.00     0.049 A 
ATOM     48  N   UNL A   1      39.131  30.657  31.231  1.00  0.00    -0.248 NA
ATOM     49  C   UNL A   1      37.670  30.976  29.439  1.00  0.00     0.031 C 
ATOM     50  C   UNL A   1      37.144  34.037  33.390  1.00  0.00     0.029 A 
ATOM     51  N   UNL A   1      38.782  32.519  33.485  1.00  0.00    -0.354 N 
ATOM     52  C   UNL A   1      39.381  29.701  30.256  1.00  0.00     0.074 A 
ATOM     53  C   UNL A   1      38.406  29.900  29.207  1.00  0.00     0.031 C 
ATOM     54  C   UNL A   1      37.772  34.196  34.565  1.00  0.00     0.029 A 
ATOM     55  C   UNL A   1      38.836  33.204  34.674  1.00  0.00     0.049 A 
ATOM     56  H   UNL A   1      39.395  31.783  33.258  1.00  0.00     0.167 HD
ATOM     57  C   UNL A   1      40.354  28.758  30.228  1.00  0.00     0.037 A 
ATOM     58  C   UNL A   1      39.650  33.043  35.735  1.00  0.00     0.037 A 
ATOM     59  C   UNL A   1      41.330  28.577  31.270  1.00  0.00     0.049 A 
ATOM     60  C   UNL A   1      40.709  31.975  35.688  1.00  0.00     0.074 A 
ATOM     61  C   UNL A   1      42.393  27.692  31.314  1.00  0.00     0.029 A 
ATOM     62  N   UNL A   1      41.357  29.292  32.460  1.00  0.00    -0.354 N 
ATOM     63  N   UNL A   1      40.985  31.123  34.731  1.00  0.00    -0.248 NA
ATOM     64  C   UNL A   1      41.574  31.852  36.868  1.00  0.00     0.031 C 
ATOM     65  C   UNL A   1      43.025  27.829  32.554  1.00  0.00     0.029 A 
ATOM     66  C   UNL A   1      42.398  28.845  33.257  1.00  0.00     0.049 A 
ATOM     67  H   UNL A   1      40.729  30.011  32.701  1.00  0.00     0.167 HD
ATOM     68  C   UNL A   1      42.071  30.384  35.178  1.00  0.00     0.074 A 
ATOM     69  C   UNL A   1      42.413  30.899  36.488  1.00  0.00     0.031 C 
ATOM     70  C   UNL A   1      42.727  29.370  34.560  1.00  0.00     0.037 A 
BRANCH  57  71
ATOM     71  C   UNL A   1      40.401  27.846  29.034  1.00  0.00     0.064 A 
ATOM     72  C   UNL A   1      41.187  28.140  27.908  1.00  0.00     0.173 A 
ATOM     73  C   UNL A   1      39.666  26.651  29.022  1.00  0.00     0.173 A 
ATOM     74  F   UNL A   1      41.902  29.274  27.862  1.00  0.00    -0.203 F 
ATOM     75  C   UNL A   1      41.203  27.294  26.802  1.00  0.00     0.198 A 
ATOM     76  C   UNL A   1      39.712  25.790  27.928  1.00  0.00     0.198 A 
ATOM     77  F   UNL A   1      38.901  26.316  30.072  1.00  0.00    -0.203 F 
ATOM     78  F   UNL A   1      41.912  27.630  25.715  1.00  0.00    -0.200 F 
ATOM     79  C   UNL A   1      40.471  26.118  26.815  1.00  0.00     0.200 A 
ATOM     80  F   UNL A   1      39.016  24.645  27.950  1.00  0.00    -0.200 F 
ATOM     81  F   UNL A   1      40.490  25.303  25.751  1.00  0.00    -0.200 F 
ENDBRANCH  57  71
BRANCH  58  82
ATOM     82  C   UNL A   1      39.509  33.934  36.917  1.00  0.00     0.064 A 
ATOM     83  C   UNL A   1      38.763  33.533  38.034  1.00  0.00     0.173 A 
ATOM     84  C   UNL A   1      40.122  35.194  36.959  1.00  0.00     0.173 A 
ATOM     85  F   UNL A   1      38.143  32.344  38.033  1.00  0.00    -0.203 F 
ATOM     86  C   UNL A   1      38.618  34.368  39.140  1.00  0.00     0.198 A 
ATOM     87  C   UNL A   1      40.002  36.016  38.078  1.00  0.00     0.198 A 
ATOM     88  F   UNL A   1      40.853  35.622  35.919  1.00  0.00    -0.203 F 
ATOM     89  F   UNL A   1      37.862  33.979  40.175  1.00  0.00    -0.200 F 
ATOM     90  C   UNL A   1      39.244  35.605  39.164  1.00  0.00     0.200 A 
ATOM     91  F   UNL A   1      40.623  37.203  38.104  1.00  0.00    -0.200 F 
ATOM     92  F   UNL A   1      39.110  36.406  40.231  1.00  0.00    -0.200 F 
ENDBRANCH  58  82
BRANCH  70  93
ATOM     93  C   UNL A   1      43.904  28.773  35.278  1.00  0.00     0.064 A 
ATOM     94  C   UNL A   1      45.204  29.270  35.108  1.00  0.00     0.173 A 
ATOM     95  C   UNL A   1      43.719  27.713  36.180  1.00  0.00     0.173 A 
ATOM     96  F   UNL A   1      45.437  30.271  34.245  1.00  0.00    -0.203 F 
ATOM     97  C   UNL A   1      46.280  28.709  35.790  1.00  0.00     0.198 A 
ATOM     98  C   UNL A   1      44.792  27.179  36.888  1.00  0.00     0.198 A 
ATOM     99  F   UNL A   1      42.495  27.205  36.387  1.00  0.00    -0.203 F 
ATOM    100  F   UNL A   1      47.522  29.165  35.571  1.00  0.00    -0.200 F 
ATOM    101  C   UNL A   1      46.073  27.671  36.686  1.00  0.00     0.200 A 
ATOM    102  F   UNL A   1      44.586  26.187  37.765  1.00  0.00    -0.200 F 
ATOM    103  F   UNL A   1      47.109  27.138  37.349  1.00  0.00    -0.200 F 
ENDBRANCH  70  93
ENDBRANCH  44  45
ENDBRANCH  36  39
ENDBRANCH  34  35
ENDBRANCH  33  34
ENDBRANCH  32  33
ENDBRANCH   1  32
TORSDOF 16
ENDMDL
MODEL 3
REMARK VINA RESULT:     -13.5      0.969      2.040
REMARK SMILES Cc1cc(C)c(NS(=O)(=O)c2cccc3cc(C)cnc23)c(C(=O)NCCCCCCNC(=O)c2ccc(-c3c4nc(c(-c5c(F)c(F)c(F)c(F)c5F)c5ccc([nH]5)c(-c5c(F)c(F)c(F)c(F)c5F)c5nc(c(-c6c(F)c(F)c(F)c(F)c6F)c6ccc3[nH]6)C=C5)C=C4)cc2)c1
REMARK SMILES IDX 28 1 27 2 26 3 25 4 23 5 24 6 22 8 1 9 2 10 3 11 98 12 4 13
REMARK SMILES IDX 5 14 6 15 7 16 8 18 9 19 10 20 11 21 12 22 21 23 13 24 15 25
REMARK SMILES IDX 20 26 14 27 16 28 19 29 17 30 18 31 29 32 30 33 31 34 32 35
REMARK SMILES IDX 33 36 34 38 35 39 36 40 97 41 37 42 96 43 38 44 39 45 40 46
REMARK SMILES IDX 90 47 41 48 95 49 89 50 91 51 42 52 94 53 88 54 87 55 43 57
REMARK SMILES IDX 75 58 55 59 74 60 56 61 59 62 73 63 92 64 57 65 58 66 72 68
REMARK SMILES IDX 93 69 60 70 44 71 45 72 53 73 46 74 47 75 51 76 54 77 48 78
REMARK SMILES IDX 49 79 52 80 50 81 76 82 77 83 85 84 78 85 79 86 83 87 86 88
REMARK SMILES IDX 80 89 81 90 84 91 82 92 61 93 62 94 70 95 63 96 64 97 68 98
REMARK SMILES IDX 71 99 65 100 66 101 69 102 67 103
REMARK H PARENT 25 7 7 17 32 37 91 56 59 67
REMARK Flexibility Score: inf
ROOT
ATOM      1  C   UNL A   1      32.988  29.972  26.281  1.00  0.00     0.002 C 
ENDROOT
BRANCH   1   2
ATOM      2  C   UNL A   1      32.922  28.595  26.952  1.00  0.00     0.021 C 
BRANCH   2   3
ATOM      3  C   UNL A   1      31.496  28.233  27.378  1.00  0.00     0.116 C 
BRANCH   3   4
ATOM      4  N   UNL A   1      31.219  26.865  26.967  1.00  0.00    -0.352 N 
ATOM      5  C   UNL A   1      30.843  26.311  25.766  1.00  0.00     0.253 C 
ATOM      6  O   UNL A   1      30.513  25.125  25.756  1.00  0.00    -0.269 OA
ATOM      7  H   UNL A   1      31.323  26.207  27.692  1.00  0.00     0.163 HD
BRANCH   5   8
ATOM      8  C   UNL A   1      30.959  27.060  24.480  1.00  0.00     0.064 A 
ATOM      9  C   UNL A   1      29.433  30.203  23.042  1.00  0.00     0.044 C 
ATOM     10  C   UNL A   1      30.375  29.056  23.250  1.00  0.00    -0.050 A 
ATOM     11  C   UNL A   1      31.625  28.994  22.625  1.00  0.00     0.009 A 
ATOM     12  C   UNL A   1      30.046  28.070  24.174  1.00  0.00     0.019 A 
ATOM     13  C   UNL A   1      32.496  27.895  22.817  1.00  0.00    -0.026 A 
ATOM     14  C   UNL A   1      33.848  27.951  22.166  1.00  0.00     0.046 C 
ATOM     15  C   UNL A   1      32.078  26.835  23.638  1.00  0.00     0.065 A 
BRANCH  15  16
ATOM     16  N   UNL A   1      32.756  25.573  23.765  1.00  0.00    -0.278 N 
ATOM     17  H   UNL A   1      33.402  25.507  24.506  1.00  0.00     0.180 HD
BRANCH  16  18
ATOM     18  S   UNL A   1      32.588  24.197  22.817  1.00  0.00     0.264 S 
ATOM     19  O   UNL A   1      31.148  24.010  22.724  1.00  0.00    -0.201 OA
ATOM     20  O   UNL A   1      33.338  24.442  21.600  1.00  0.00    -0.201 OA
BRANCH  18  21
ATOM     21  C   UNL A   1      33.211  22.676  23.484  1.00  0.00     0.114 A 
ATOM     22  C   UNL A   1      32.206  21.768  23.894  1.00  0.00     0.024 A 
ATOM     23  C   UNL A   1      34.550  22.465  23.797  1.00  0.00     0.091 A 
ATOM     24  C   UNL A   1      32.503  20.711  24.738  1.00  0.00     0.002 A 
ATOM     25  C   UNL A   1      34.805  21.460  24.765  1.00  0.00     0.002 A 
ATOM     26  N   UNL A   1      35.570  23.186  23.283  1.00  0.00    -0.255 NA
ATOM     27  C   UNL A   1      33.798  20.589  25.215  1.00  0.00     0.010 A 
ATOM     28  C   UNL A   1      36.079  21.386  25.338  1.00  0.00     0.015 A 
ATOM     29  C   UNL A   1      36.803  23.051  23.830  1.00  0.00     0.115 A 
ATOM     30  C   UNL A   1      37.087  22.243  24.916  1.00  0.00    -0.032 A 
ATOM     31  C   UNL A   1      38.384  22.319  25.651  1.00  0.00     0.046 C 
ENDBRANCH  18  21
ENDBRANCH  16  18
ENDBRANCH  15  16
ENDBRANCH   5   8
ENDBRANCH   3   4
ENDBRANCH   2   3
ENDBRANCH   1   2
BRANCH   1  32
ATOM     32  C   UNL A   1      31.620  30.641  26.097  1.00  0.00     0.002 C 
BRANCH  32  33
ATOM     33  C   UNL A   1      31.454  31.967  26.842  1.00  0.00     0.021 C 
BRANCH  33  34
ATOM     34  C   UNL A   1      32.771  32.615  27.248  1.00  0.00     0.116 C 
BRANCH  34  35
ATOM     35  N   UNL A   1      32.592  34.022  27.574  1.00  0.00    -0.352 N 
ATOM     36  C   UNL A   1      33.139  34.747  28.598  1.00  0.00     0.251 C 
ATOM     37  H   UNL A   1      31.994  34.523  26.973  1.00  0.00     0.163 HD
ATOM     38  O   UNL A   1      32.679  35.850  28.896  1.00  0.00    -0.269 OA
BRANCH  36  39
ATOM     39  C   UNL A   1      34.280  34.198  29.351  1.00  0.00     0.039 A 
ATOM     40  C   UNL A   1      34.040  33.418  30.483  1.00  0.00     0.014 A 
ATOM     41  C   UNL A   1      35.591  34.466  28.942  1.00  0.00     0.014 A 
ATOM     42  C   UNL A   1      35.115  32.865  31.179  1.00  0.00     0.010 A 
ATOM     43  C   UNL A   1      36.656  33.850  29.587  1.00  0.00     0.010 A 
ATOM     44  C   UNL A   1      36.429  33.052  30.718  1.00  0.00    -0.014 A 
BRANCH  44  45
ATOM     45  C   UNL A   1      37.581  32.427  31.412  1.00  0.00     0.031 A 
ATOM     46  C   UNL A   1      38.298  31.265  30.788  1.00  0.00     0.074 A 
ATOM     47  C   UNL A   1      37.937  32.868  32.634  1.00  0.00     0.049 A 
ATOM     48  N   UNL A   1      39.287  30.550  31.261  1.00  0.00    -0.248 NA
ATOM     49  C   UNL A   1      37.823  30.830  29.465  1.00  0.00     0.031 C 
ATOM     50  C   UNL A   1      37.285  33.958  33.362  1.00  0.00     0.029 A 
ATOM     51  N   UNL A   1      38.930  32.449  33.483  1.00  0.00    -0.354 N 
ATOM     52  C   UNL A   1      39.542  29.578  30.303  1.00  0.00     0.074 A 
ATOM     53  C   UNL A   1      38.565  29.754  29.252  1.00  0.00     0.031 C 
ATOM     54  C   UNL A   1      37.913  34.140  34.533  1.00  0.00     0.029 A 
ATOM     55  C   UNL A   1      38.982  33.155  34.659  1.00  0.00     0.049 A 
ATOM     56  H   UNL A   1      39.547  31.713  33.268  1.00  0.00     0.167 HD
ATOM     57  C   UNL A   1      40.519  28.639  30.291  1.00  0.00     0.037 A 
ATOM     58  C   UNL A   1      39.797  33.017  35.722  1.00  0.00     0.037 A 
ATOM     59  C   UNL A   1      41.497  28.481  31.335  1.00  0.00     0.049 A 
ATOM     60  C   UNL A   1      40.862  31.954  35.693  1.00  0.00     0.074 A 
ATOM     61  C   UNL A   1      42.564  27.603  31.394  1.00  0.00     0.029 A 
ATOM     62  N   UNL A   1      41.521  29.217  32.512  1.00  0.00    -0.354 N 
ATOM     63  N   UNL A   1      41.141  31.087  34.751  1.00  0.00    -0.248 NA
ATOM     64  C   UNL A   1      41.728  31.856  36.875  1.00  0.00     0.031 C 
ATOM     65  C   UNL A   1      43.196  27.765  32.631  1.00  0.00     0.029 A 
ATOM     66  C   UNL A   1      42.565  28.791  33.317  1.00  0.00     0.049 A 
ATOM     67  H   UNL A   1      40.890  29.938  32.741  1.00  0.00     0.167 HD
ATOM     68  C   UNL A   1      42.231  30.361  35.211  1.00  0.00     0.074 A 
ATOM     69  C   UNL A   1      42.571  30.900  36.511  1.00  0.00     0.031 C 
ATOM     70  C   UNL A   1      42.892  29.339  34.609  1.00  0.00     0.037 A 
BRANCH  57  71
ATOM     71  C   UNL A   1      40.570  27.707  29.113  1.00  0.00     0.064 A 
ATOM     72  C   UNL A   1      39.754  26.566  29.036  1.00  0.00     0.173 A 
ATOM     73  C   UNL A   1      41.431  27.966  28.037  1.00  0.00     0.173 A 
ATOM     74  F   UNL A   1      38.919  26.265  30.042  1.00  0.00    -0.203 F 
ATOM     75  C   UNL A   1      39.829  25.702  27.947  1.00  0.00     0.198 A 
ATOM     76  C   UNL A   1      41.477  27.119  26.933  1.00  0.00     0.198 A 
ATOM     77  F   UNL A   1      42.230  29.044  28.053  1.00  0.00    -0.203 F 
ATOM     78  F   UNL A   1      39.085  24.587  27.927  1.00  0.00    -0.200 F 
ATOM     79  C   UNL A   1      40.685  25.982  26.893  1.00  0.00     0.200 A 
ATOM     80  F   UNL A   1      42.294  27.400  25.908  1.00  0.00    -0.200 F 
ATOM     81  F   UNL A   1      40.752  25.151  25.844  1.00  0.00    -0.200 F 
ENDBRANCH  57  71
BRANCH  58  82
ATOM     82  C   UNL A   1      39.653  33.928  36.888  1.00  0.00     0.064 A 
ATOM     83  C   UNL A   1      40.292  35.175  36.909  1.00  0.00     0.173 A 
ATOM     84  C   UNL A   1      38.871  33.576  37.998  1.00  0.00     0.173 A 
ATOM     85  F   UNL A   1      41.066  35.549  35.878  1.00  0.00    -0.203 F 
ATOM     86  C   UNL A   1      40.171  36.029  38.004  1.00  0.00     0.198 A 
ATOM     87  C   UNL A   1      38.726  34.443  39.079  1.00  0.00     0.198 A 
ATOM     88  F   UNL A   1      38.233  32.397  38.025  1.00  0.00    -0.203 F 
ATOM     89  F   UNL A   1      40.828  37.196  38.017  1.00  0.00    -0.200 F 
ATOM     90  C   UNL A   1      39.382  35.665  39.085  1.00  0.00     0.200 A 
ATOM     91  F   UNL A   1      37.949  34.094  40.114  1.00  0.00    -0.200 F 
ATOM     92  F   UNL A   1      39.260  36.488  40.135  1.00  0.00    -0.200 F 
ENDBRANCH  58  82
BRANCH  70  93
ATOM     93  C   UNL A   1      44.072  28.761  35.337  1.00  0.00     0.064 A 
ATOM     94  C   UNL A   1      43.940  27.670  36.210  1.00  0.00     0.173 A 
ATOM     95  C   UNL A   1      45.359  29.281  35.127  1.00  0.00     0.173 A 
ATOM     96  F   UNL A   1      42.730  27.146  36.458  1.00  0.00    -0.203 F 
ATOM     97  C   UNL A   1      45.048  27.142  36.868  1.00  0.00     0.198 A 
ATOM     98  C   UNL A   1      46.468  28.727  35.759  1.00  0.00     0.198 A 
ATOM     99  F   UNL A   1      45.542  30.318  34.296  1.00  0.00    -0.203 F 
ATOM    100  F   UNL A   1      44.891  26.135  37.739  1.00  0.00    -0.200 F 
ATOM    101  C   UNL A   1      46.311  27.665  36.635  1.00  0.00     0.200 A 
ATOM    102  F   UNL A   1      47.690  29.223  35.519  1.00  0.00    -0.200 F 
ATOM    103  F   UNL A   1      47.378  27.149  37.263  1.00  0.00    -0.200 F 
ENDBRANCH  70  93
ENDBRANCH  44  45
ENDBRANCH  36  39
ENDBRANCH  34  35
ENDBRANCH  33  34
ENDBRANCH  32  33
ENDBRANCH   1  32
TORSDOF 16
ENDMDL
