MODEL 1
REMARK VINA RESULT:     -11.1      0.000      0.000
REMARK SMILES O=C(NCCCCCCNC(=O)c1ccc(C[N@@H+](CC(F)(F)F)C2CC2)nc1)c1ccc(-c2c3nc(c(-c4c(F)c(F)c(F)c(F)c4F)c4ccc([nH]4)c(-c4c(F)c(F)c(F)c(F)c4F)c4nc(c(-c5c(F)c(F)c(F)c(F)c5F)c5ccc2[nH]5)C=C4)C=C3)cc1
REMARK SMILES IDX 7 1 6 2 5 3 4 4 3 5 1 6 2 7 29 9 30 10 91 11 31 12 90 13
REMARK SMILES IDX 32 14 33 15 34 16 84 17 35 18 89 19 83 20 85 21 36 22 88 23
REMARK SMILES IDX 82 24 81 25 37 27 69 28 49 29 68 30 50 31 53 32 67 33 86 34
REMARK SMILES IDX 51 35 52 36 66 38 87 39 54 40 38 41 39 42 47 43 40 44 41 45
REMARK SMILES IDX 45 46 48 47 42 48 43 49 46 50 44 51 70 52 71 53 79 54 72 55
REMARK SMILES IDX 73 56 77 57 80 58 74 59 75 60 78 61 76 62 55 63 56 64 64 65
REMARK SMILES IDX 57 66 58 67 62 68 65 69 59 70 60 71 63 72 61 73 8 74 9 75
REMARK SMILES IDX 10 76 11 77 12 79 13 80 14 81 28 82 15 83 27 84 16 85 17 86
REMARK SMILES IDX 18 87 19 89 20 90 21 91 22 92 23 93 24 94 25 95 26 96
REMARK H PARENT 3 8 85 26 53 37 10 78 18 88
REMARK Flexibility Score: inf
ROOT
ATOM      1  C   UNL A   1      32.574  26.845  22.187  1.00  0.00     0.002 C 
ENDROOT
BRANCH   1   2
ATOM      2  C   UNL A   1      33.702  27.613  22.882  1.00  0.00     0.002 C 
BRANCH   2   3
ATOM      3  C   UNL A   1      33.302  28.963  23.476  1.00  0.00     0.021 C 
BRANCH   3   4
ATOM      4  C   UNL A   1      33.661  29.143  24.945  1.00  0.00     0.116 C 
BRANCH   4   5
ATOM      5  N   UNL A   1      32.981  30.278  25.541  1.00  0.00    -0.352 N 
ATOM      6  O   UNL A   1      32.458  31.757  27.163  1.00  0.00    -0.269 OA
ATOM      7  C   UNL A   1      33.252  30.937  26.713  1.00  0.00     0.251 C 
ATOM      8  H   UNL A   1      32.212  30.625  25.032  1.00  0.00     0.163 HD
BRANCH   7   9
ATOM      9  C   UNL A   1      34.500  30.640  27.445  1.00  0.00     0.039 A 
ATOM     10  C   UNL A   1      34.749  29.358  27.944  1.00  0.00     0.014 A 
ATOM     11  C   UNL A   1      35.437  31.660  27.620  1.00  0.00     0.014 A 
ATOM     12  C   UNL A   1      35.877  29.128  28.725  1.00  0.00     0.010 A 
ATOM     13  C   UNL A   1      36.607  31.406  28.336  1.00  0.00     0.010 A 
ATOM     14  C   UNL A   1      36.823  30.146  28.916  1.00  0.00    -0.014 A 
BRANCH  14  15
ATOM     15  C   UNL A   1      38.064  29.872  29.681  1.00  0.00     0.031 A 
ATOM     16  C   UNL A   1      39.115  28.949  29.139  1.00  0.00     0.074 A 
ATOM     17  C   UNL A   1      38.226  30.450  30.887  1.00  0.00     0.049 A 
ATOM     18  N   UNL A   1      40.225  28.538  29.698  1.00  0.00    -0.248 NA
ATOM     19  C   UNL A   1      38.884  28.405  27.791  1.00  0.00     0.031 C 
ATOM     20  C   UNL A   1      37.272  31.364  31.516  1.00  0.00     0.029 A 
ATOM     21  N   UNL A   1      39.243  30.349  31.801  1.00  0.00    -0.354 N 
ATOM     22  C   UNL A   1      40.813  27.673  28.785  1.00  0.00     0.074 A 
ATOM     23  C   UNL A   1      39.925  27.596  27.645  1.00  0.00     0.031 C 
ATOM     24  C   UNL A   1      37.754  31.753  32.704  1.00  0.00     0.029 A 
ATOM     25  C   UNL A   1      39.018  31.067  32.948  1.00  0.00     0.049 A 
ATOM     26  H   UNL A   1      40.056  29.814  31.648  1.00  0.00     0.167 HD
ATOM     27  C   UNL A   1      41.990  27.010  28.890  1.00  0.00     0.037 A 
ATOM     28  C   UNL A   1      39.733  31.140  34.086  1.00  0.00     0.037 A 
ATOM     29  C   UNL A   1      42.869  27.097  30.030  1.00  0.00     0.049 A 
ATOM     30  C   UNL A   1      41.012  30.361  34.197  1.00  0.00     0.074 A 
ATOM     31  C   UNL A   1      44.100  26.493  30.221  1.00  0.00     0.029 A 
ATOM     32  N   UNL A   1      42.601  27.827  31.181  1.00  0.00    -0.354 N 
ATOM     33  N   UNL A   1      41.578  29.573  33.315  1.00  0.00    -0.248 NA
ATOM     34  C   UNL A   1      41.752  30.481  35.459  1.00  0.00     0.031 C 
ATOM     35  C   UNL A   1      44.549  26.810  31.507  1.00  0.00     0.029 A 
ATOM     36  C   UNL A   1      43.631  27.666  32.095  1.00  0.00     0.049 A 
ATOM     37  H   UNL A   1      41.799  28.379  31.325  1.00  0.00     0.167 HD
ATOM     38  C   UNL A   1      42.753  29.126  33.901  1.00  0.00     0.074 A 
ATOM     39  C   UNL A   1      42.822  29.738  35.213  1.00  0.00     0.031 C 
ATOM     40  C   UNL A   1      43.692  28.289  33.394  1.00  0.00     0.037 A 
BRANCH  27  41
ATOM     41  C   UNL A   1      42.383  26.106  27.756  1.00  0.00     0.064 A 
ATOM     42  C   UNL A   1      43.245  26.529  26.733  1.00  0.00     0.173 A 
ATOM     43  C   UNL A   1      41.906  24.786  27.703  1.00  0.00     0.173 A 
ATOM     44  F   UNL A   1      43.723  27.782  26.728  1.00  0.00    -0.203 F 
ATOM     45  C   UNL A   1      43.584  25.679  25.681  1.00  0.00     0.198 A 
ATOM     46  C   UNL A   1      42.273  23.929  26.669  1.00  0.00     0.198 A 
ATOM     47  F   UNL A   1      41.085  24.325  28.658  1.00  0.00    -0.203 F 
ATOM     48  F   UNL A   1      44.361  26.126  24.685  1.00  0.00    -0.200 F 
ATOM     49  C   UNL A   1      43.102  24.379  25.653  1.00  0.00     0.200 A 
ATOM     50  F   UNL A   1      41.818  22.668  26.651  1.00  0.00    -0.200 F 
ATOM     51  F   UNL A   1      43.430  23.564  24.642  1.00  0.00    -0.200 F 
ENDBRANCH  27  41
BRANCH  28  52
ATOM     52  C   UNL A   1      39.239  31.984  35.204  1.00  0.00     0.064 A 
ATOM     53  C   UNL A   1      39.494  33.361  35.233  1.00  0.00     0.173 A 
ATOM     54  C   UNL A   1      38.473  31.437  36.243  1.00  0.00     0.173 A 
ATOM     55  F   UNL A   1      40.236  33.926  34.270  1.00  0.00    -0.203 F 
ATOM     56  C   UNL A   1      39.008  34.159  36.268  1.00  0.00     0.198 A 
ATOM     57  C   UNL A   1      37.962  32.241  37.260  1.00  0.00     0.198 A 
ATOM     58  F   UNL A   1      38.194  30.126  36.255  1.00  0.00    -0.203 F 
ATOM     59  F   UNL A   1      39.294  35.467  36.291  1.00  0.00    -0.200 F 
ATOM     60  C   UNL A   1      38.235  33.600  37.274  1.00  0.00     0.200 A 
ATOM     61  F   UNL A   1      37.199  31.699  38.219  1.00  0.00    -0.200 F 
ATOM     62  F   UNL A   1      37.756  34.371  38.260  1.00  0.00    -0.200 F 
ENDBRANCH  28  52
BRANCH  40  63
ATOM     63  C   UNL A   1      44.904  28.022  34.238  1.00  0.00     0.064 A 
ATOM     64  C   UNL A   1      46.034  28.851  34.195  1.00  0.00     0.173 A 
ATOM     65  C   UNL A   1      44.912  26.947  35.141  1.00  0.00     0.173 A 
ATOM     66  F   UNL A   1      46.085  29.882  33.338  1.00  0.00    -0.203 F 
ATOM     67  C   UNL A   1      47.136  28.600  35.011  1.00  0.00     0.198 A 
ATOM     68  C   UNL A   1      46.002  26.719  35.976  1.00  0.00     0.198 A 
ATOM     69  F   UNL A   1      43.854  26.126  35.224  1.00  0.00    -0.203 F 
ATOM     70  F   UNL A   1      48.223  29.380  34.921  1.00  0.00    -0.200 F 
ATOM     71  C   UNL A   1      47.115  27.542  35.906  1.00  0.00     0.200 A 
ATOM     72  F   UNL A   1      45.972  25.704  36.851  1.00  0.00    -0.200 F 
ATOM     73  F   UNL A   1      48.171  27.311  36.698  1.00  0.00    -0.200 F 
ENDBRANCH  40  63
ENDBRANCH  14  15
ENDBRANCH   7   9
ENDBRANCH   4   5
ENDBRANCH   3   4
ENDBRANCH   2   3
ENDBRANCH   1   2
BRANCH   1  74
ATOM     74  C   UNL A   1      31.162  27.211  22.647  1.00  0.00     0.021 C 
BRANCH  74  75
ATOM     75  C   UNL A   1      30.645  26.373  23.808  1.00  0.00     0.116 C 
BRANCH  75  76
ATOM     76  N   UNL A   1      30.710  27.098  25.065  1.00  0.00    -0.352 N 
ATOM     77  C   UNL A   1      31.286  26.701  26.245  1.00  0.00     0.252 C 
ATOM     78  H   UNL A   1      30.287  27.987  25.070  1.00  0.00     0.163 HD
ATOM     79  O   UNL A   1      31.072  27.315  27.286  1.00  0.00    -0.269 OA
BRANCH  77  80
ATOM     80  C   UNL A   1      32.176  25.534  26.248  1.00  0.00     0.058 A 
ATOM     81  C   UNL A   1      33.510  25.648  25.865  1.00  0.00     0.017 A 
ATOM     82  C   UNL A   1      31.700  24.298  26.650  1.00  0.00     0.125 A 
ATOM     83  C   UNL A   1      34.301  24.513  25.837  1.00  0.00     0.030 A 
ATOM     84  N   UNL A   1      32.467  23.179  26.675  1.00  0.00    -0.255 NA
ATOM     85  C   UNL A   1      33.768  23.308  26.299  1.00  0.00     0.095 A 
BRANCH  85  86
ATOM     86  C   UNL A   1      34.702  22.124  26.473  1.00  0.00     0.320 C 
BRANCH  86  87
ATOM     87  N   UNL A   1      35.091  21.395  25.242  1.00  0.00    -0.320 N 
ATOM     88  H   UNL A   1      35.285  20.466  25.615  1.00  0.00     0.348 HD
BRANCH  87  89
ATOM     89  C   UNL A   1      33.964  21.444  24.263  1.00  0.00     0.379 C 
BRANCH  89  90
ATOM     90  C   UNL A   1      32.988  20.251  24.193  1.00  0.00     0.438 C 
ATOM     91  F   UNL A   1      32.232  20.270  23.075  1.00  0.00    -0.165 F 
ATOM     92  F   UNL A   1      33.673  19.083  24.195  1.00  0.00    -0.165 F 
ATOM     93  F   UNL A   1      32.152  20.223  25.256  1.00  0.00    -0.165 F 
ENDBRANCH  89  90
ENDBRANCH  87  89
BRANCH  87  94
ATOM     94  C   UNL A   1      36.378  21.677  24.560  1.00  0.00     0.185 C 
ATOM     95  C   UNL A   1      36.554  22.661  23.442  1.00  0.00     0.071 C 
ATOM     96  C   UNL A   1      37.183  22.926  24.782  1.00  0.00     0.071 C 
ENDBRANCH  87  94
ENDBRANCH  86  87
ENDBRANCH  85  86
ENDBRANCH  77  80
ENDBRANCH  75  76
ENDBRANCH  74  75
ENDBRANCH   1  74
TORSDOF 18
ENDMDL
MODEL 2
REMARK VINA RESULT:     -11.1      0.947      2.138
REMARK SMILES O=C(NCCCCCCNC(=O)c1ccc(C[N@@H+](CC(F)(F)F)C2CC2)nc1)c1ccc(-c2c3nc(c(-c4c(F)c(F)c(F)c(F)c4F)c4ccc([nH]4)c(-c4c(F)c(F)c(F)c(F)c4F)c4nc(c(-c5c(F)c(F)c(F)c(F)c5F)c5ccc2[nH]5)C=C4)C=C3)cc1
REMARK SMILES IDX 7 1 6 2 5 3 4 4 3 5 1 6 2 7 29 9 30 10 91 11 31 12 90 13
REMARK SMILES IDX 32 14 33 15 34 16 84 17 35 18 89 19 83 20 85 21 36 22 88 23
REMARK SMILES IDX 82 24 81 25 37 27 69 28 49 29 68 30 50 31 53 32 67 33 86 34
REMARK SMILES IDX 51 35 52 36 66 38 87 39 54 40 38 41 39 42 47 43 40 44 41 45
REMARK SMILES IDX 45 46 48 47 42 48 43 49 46 50 44 51 70 52 71 53 79 54 72 55
REMARK SMILES IDX 73 56 77 57 80 58 74 59 75 60 78 61 76 62 55 63 56 64 64 65
REMARK SMILES IDX 57 66 58 67 62 68 65 69 59 70 60 71 63 72 61 73 8 74 9 75
REMARK SMILES IDX 10 76 11 77 12 79 13 80 14 81 28 82 15 83 27 84 16 85 17 86
REMARK SMILES IDX 18 87 19 89 20 90 21 91 22 92 23 93 24 94 25 95 26 96
REMARK H PARENT 3 8 85 26 53 37 10 78 18 88
REMARK Flexibility Score: inf
ROOT
ATOM      1  C   UNL A   1      32.644  26.670  22.338  1.00  0.00     0.002 C 
ENDROOT
BRANCH   1   2
ATOM      2  C   UNL A   1      33.747  27.573  22.897  1.00  0.00     0.002 C 
BRANCH   2   3
ATOM      3  C   UNL A   1      33.265  28.892  23.503  1.00  0.00     0.021 C 
BRANCH   3   4
ATOM      4  C   UNL A   1      33.681  29.117  24.950  1.00  0.00     0.116 C 
BRANCH   4   5
ATOM      5  N   UNL A   1      32.979  30.233  25.556  1.00  0.00    -0.352 N 
ATOM      6  O   UNL A   1      32.421  31.683  27.193  1.00  0.00    -0.269 OA
ATOM      7  C   UNL A   1      33.231  30.881  26.737  1.00  0.00     0.251 C 
ATOM      8  H   UNL A   1      32.208  30.574  25.045  1.00  0.00     0.163 HD
BRANCH   7   9
ATOM      9  C   UNL A   1      34.478  30.595  27.475  1.00  0.00     0.039 A 
ATOM     10  C   UNL A   1      34.723  29.323  28.001  1.00  0.00     0.014 A 
ATOM     11  C   UNL A   1      35.420  31.614  27.626  1.00  0.00     0.014 A 
ATOM     12  C   UNL A   1      35.851  29.105  28.785  1.00  0.00     0.010 A 
ATOM     13  C   UNL A   1      36.590  31.371  28.346  1.00  0.00     0.010 A 
ATOM     14  C   UNL A   1      36.802  30.122  28.953  1.00  0.00    -0.014 A 
BRANCH  14  15
ATOM     15  C   UNL A   1      38.042  29.860  29.723  1.00  0.00     0.031 A 
ATOM     16  C   UNL A   1      39.107  28.953  29.181  1.00  0.00     0.074 A 
ATOM     17  C   UNL A   1      38.190  30.433  30.933  1.00  0.00     0.049 A 
ATOM     18  N   UNL A   1      40.220  28.554  29.743  1.00  0.00    -0.248 NA
ATOM     19  C   UNL A   1      38.890  28.415  27.829  1.00  0.00     0.031 C 
ATOM     20  C   UNL A   1      37.222  31.331  31.563  1.00  0.00     0.029 A 
ATOM     21  N   UNL A   1      39.204  30.340  31.851  1.00  0.00    -0.354 N 
ATOM     22  C   UNL A   1      40.823  27.702  28.828  1.00  0.00     0.074 A 
ATOM     23  C   UNL A   1      39.941  27.620  27.683  1.00  0.00     0.031 C 
ATOM     24  C   UNL A   1      37.693  31.719  32.755  1.00  0.00     0.029 A 
ATOM     25  C   UNL A   1      38.965  31.048  33.002  1.00  0.00     0.049 A 
ATOM     26  H   UNL A   1      40.025  29.816  31.699  1.00  0.00     0.167 HD
ATOM     27  C   UNL A   1      42.008  27.053  28.935  1.00  0.00     0.037 A 
ATOM     28  C   UNL A   1      39.674  31.123  34.143  1.00  0.00     0.037 A 
ATOM     29  C   UNL A   1      42.880  27.144  30.079  1.00  0.00     0.049 A 
ATOM     30  C   UNL A   1      40.961  30.360  34.256  1.00  0.00     0.074 A 
ATOM     31  C   UNL A   1      44.118  26.555  30.273  1.00  0.00     0.029 A 
ATOM     32  N   UNL A   1      42.597  27.864  31.233  1.00  0.00    -0.354 N 
ATOM     33  N   UNL A   1      41.542  29.584  33.372  1.00  0.00    -0.248 NA
ATOM     34  C   UNL A   1      41.693  30.482  35.523  1.00  0.00     0.031 C 
ATOM     35  C   UNL A   1      44.556  26.870  31.563  1.00  0.00     0.029 A 
ATOM     36  C   UNL A   1      43.625  27.711  32.151  1.00  0.00     0.049 A 
ATOM     37  H   UNL A   1      41.788  28.405  31.377  1.00  0.00     0.167 HD
ATOM     38  C   UNL A   1      42.719  29.149  33.961  1.00  0.00     0.074 A 
ATOM     39  C   UNL A   1      42.775  29.754  35.277  1.00  0.00     0.031 C 
ATOM     40  C   UNL A   1      43.671  28.327  33.455  1.00  0.00     0.037 A 
BRANCH  27  41
ATOM     41  C   UNL A   1      42.417  26.160  27.797  1.00  0.00     0.064 A 
ATOM     42  C   UNL A   1      41.911  24.859  27.655  1.00  0.00     0.173 A 
ATOM     43  C   UNL A   1      43.313  26.622  26.820  1.00  0.00     0.173 A 
ATOM     44  F   UNL A   1      41.059  24.363  28.565  1.00  0.00    -0.203 F 
ATOM     45  C   UNL A   1      42.316  24.042  26.601  1.00  0.00     0.198 A 
ATOM     46  C   UNL A   1      43.689  25.815  25.749  1.00  0.00     0.198 A 
ATOM     47  F   UNL A   1      43.823  27.861  26.901  1.00  0.00    -0.203 F 
ATOM     48  F   UNL A   1      41.864  22.783  26.521  1.00  0.00    -0.200 F 
ATOM     49  C   UNL A   1      43.199  24.522  25.647  1.00  0.00     0.200 A 
ATOM     50  F   UNL A   1      44.533  26.286  24.820  1.00  0.00    -0.200 F 
ATOM     51  F   UNL A   1      43.586  23.736  24.634  1.00  0.00    -0.200 F 
ENDBRANCH  27  41
BRANCH  28  52
ATOM     52  C   UNL A   1      39.163  31.954  35.264  1.00  0.00     0.064 A 
ATOM     53  C   UNL A   1      38.421  31.382  36.304  1.00  0.00     0.173 A 
ATOM     54  C   UNL A   1      39.438  33.328  35.334  1.00  0.00     0.173 A 
ATOM     55  F   UNL A   1      38.119  30.076  36.272  1.00  0.00    -0.203 F 
ATOM     56  C   UNL A   1      37.964  32.155  37.370  1.00  0.00     0.198 A 
ATOM     57  C   UNL A   1      39.007  34.093  36.415  1.00  0.00     0.198 A 
ATOM     58  F   UNL A   1      40.153  33.921  34.367  1.00  0.00    -0.203 F 
ATOM     59  F   UNL A   1      37.228  31.590  38.336  1.00  0.00    -0.200 F 
ATOM     60  C   UNL A   1      38.266  33.507  37.429  1.00  0.00     0.200 A 
ATOM     61  F   UNL A   1      39.319  35.395  36.478  1.00  0.00    -0.200 F 
ATOM     62  F   UNL A   1      37.839  34.246  38.463  1.00  0.00    -0.200 F 
ENDBRANCH  28  52
BRANCH  40  63
ATOM     63  C   UNL A   1      44.883  28.071  34.303  1.00  0.00     0.064 A 
ATOM     64  C   UNL A   1      46.003  28.914  34.271  1.00  0.00     0.173 A 
ATOM     65  C   UNL A   1      44.900  26.990  35.199  1.00  0.00     0.173 A 
ATOM     66  F   UNL A   1      46.044  29.950  33.420  1.00  0.00    -0.203 F 
ATOM     67  C   UNL A   1      47.103  28.673  35.090  1.00  0.00     0.198 A 
ATOM     68  C   UNL A   1      45.989  26.772  36.039  1.00  0.00     0.198 A 
ATOM     69  F   UNL A   1      43.853  26.156  35.272  1.00  0.00    -0.203 F 
ATOM     70  F   UNL A   1      48.181  29.466  35.010  1.00  0.00    -0.200 F 
ATOM     71  C   UNL A   1      47.091  27.609  35.978  1.00  0.00     0.200 A 
ATOM     72  F   UNL A   1      45.968  25.751  36.907  1.00  0.00    -0.200 F 
ATOM     73  F   UNL A   1      48.147  27.386  36.775  1.00  0.00    -0.200 F 
ENDBRANCH  40  63
ENDBRANCH  14  15
ENDBRANCH   7   9
ENDBRANCH   4   5
ENDBRANCH   3   4
ENDBRANCH   2   3
ENDBRANCH   1   2
BRANCH   1  74
ATOM     74  C   UNL A   1      31.217  27.157  22.592  1.00  0.00     0.021 C 
BRANCH  74  75
ATOM     75  C   UNL A   1      30.507  26.446  23.735  1.00  0.00     0.116 C 
BRANCH  75  76
ATOM     76  N   UNL A   1      30.650  27.167  24.988  1.00  0.00    -0.352 N 
ATOM     77  C   UNL A   1      31.175  26.715  26.172  1.00  0.00     0.252 C 
ATOM     78  H   UNL A   1      30.330  28.098  24.987  1.00  0.00     0.163 HD
ATOM     79  O   UNL A   1      31.029  27.355  27.209  1.00  0.00    -0.269 OA
BRANCH  77  80
ATOM     80  C   UNL A   1      31.928  25.455  26.185  1.00  0.00     0.058 A 
ATOM     81  C   UNL A   1      33.288  25.429  25.885  1.00  0.00     0.017 A 
ATOM     82  C   UNL A   1      31.294  24.270  26.514  1.00  0.00     0.125 A 
ATOM     83  C   UNL A   1      33.948  24.213  25.862  1.00  0.00     0.030 A 
ATOM     84  N   UNL A   1      31.929  23.071  26.543  1.00  0.00    -0.255 NA
ATOM     85  C   UNL A   1      33.257  23.063  26.248  1.00  0.00     0.095 A 
BRANCH  85  86
ATOM     86  C   UNL A   1      34.041  21.777  26.434  1.00  0.00     0.320 C 
BRANCH  86  87
ATOM     87  N   UNL A   1      34.585  21.144  25.208  1.00  0.00    -0.320 N 
ATOM     88  H   UNL A   1      34.334  21.835  24.501  1.00  0.00     0.348 HD
BRANCH  87  89
ATOM     89  C   UNL A   1      36.055  20.934  25.373  1.00  0.00     0.379 C 
BRANCH  89  90
ATOM     90  C   UNL A   1      37.025  21.967  24.766  1.00  0.00     0.438 C 
ATOM     91  F   UNL A   1      37.092  23.101  25.496  1.00  0.00    -0.165 F 
ATOM     92  F   UNL A   1      38.278  21.456  24.702  1.00  0.00    -0.165 F 
ATOM     93  F   UNL A   1      36.672  22.309  23.506  1.00  0.00    -0.165 F 
ENDBRANCH  89  90
ENDBRANCH  87  89
BRANCH  87  94
ATOM     94  C   UNL A   1      33.953  19.934  24.626  1.00  0.00     0.185 C 
ATOM     95  C   UNL A   1      32.945  19.074  25.331  1.00  0.00     0.071 C 
ATOM     96  C   UNL A   1      32.534  19.889  24.135  1.00  0.00     0.071 C 
ENDBRANCH  87  94
ENDBRANCH  86  87
ENDBRANCH  85  86
ENDBRANCH  77  80
ENDBRANCH  75  76
ENDBRANCH  74  75
ENDBRANCH   1  74
TORSDOF 18
ENDMDL
MODEL 3
REMARK VINA RESULT:     -10.9      4.756      9.929
REMARK SMILES O=C(NCCCCCCNC(=O)c1ccc(C[N@@H+](CC(F)(F)F)C2CC2)nc1)c1ccc(-c2c3nc(c(-c4c(F)c(F)c(F)c(F)c4F)c4ccc([nH]4)c(-c4c(F)c(F)c(F)c(F)c4F)c4nc(c(-c5c(F)c(F)c(F)c(F)c5F)c5ccc2[nH]5)C=C4)C=C3)cc1
REMARK SMILES IDX 7 1 6 2 5 3 4 4 3 5 1 6 2 7 29 9 30 10 91 11 31 12 90 13
REMARK SMILES IDX 32 14 33 15 34 16 84 17 35 18 89 19 83 20 85 21 36 22 88 23
REMARK SMILES IDX 82 24 81 25 37 27 69 28 49 29 68 30 50 31 53 32 67 33 86 34
REMARK SMILES IDX 51 35 52 36 66 38 87 39 54 40 38 41 39 42 47 43 40 44 41 45
REMARK SMILES IDX 45 46 48 47 42 48 43 49 46 50 44 51 70 52 71 53 79 54 72 55
REMARK SMILES IDX 73 56 77 57 80 58 74 59 75 60 78 61 76 62 55 63 56 64 64 65
REMARK SMILES IDX 57 66 58 67 62 68 65 69 59 70 60 71 63 72 61 73 8 74 9 75
REMARK SMILES IDX 10 76 11 77 12 79 13 80 14 81 28 82 15 83 27 84 16 85 17 86
REMARK SMILES IDX 18 87 19 89 20 90 21 91 22 92 23 93 24 94 25 95 26 96
REMARK H PARENT 3 8 85 26 53 37 10 78 18 88
REMARK Flexibility Score: inf
ROOT
ATOM      1  C   UNL A   1      36.791  21.691  25.697  1.00  0.00     0.002 C 
ENDROOT
BRANCH   1   2
ATOM      2  C   UNL A   1      36.849  20.579  24.646  1.00  0.00     0.002 C 
BRANCH   2   3
ATOM      3  C   UNL A   1      38.067  19.659  24.738  1.00  0.00     0.021 C 
BRANCH   3   4
ATOM      4  C   UNL A   1      39.095  20.068  25.784  1.00  0.00     0.116 C 
BRANCH   4   5
ATOM      5  N   UNL A   1      40.164  19.094  25.913  1.00  0.00    -0.352 N 
ATOM      6  O   UNL A   1      42.297  18.368  26.017  1.00  0.00    -0.269 OA
ATOM      7  C   UNL A   1      41.503  19.297  26.125  1.00  0.00     0.251 C 
ATOM      8  H   UNL A   1      39.888  18.152  25.835  1.00  0.00     0.163 HD
BRANCH   7   9
ATOM      9  C   UNL A   1      41.992  20.648  26.467  1.00  0.00     0.039 A 
ATOM     10  C   UNL A   1      42.209  21.016  27.798  1.00  0.00     0.014 A 
ATOM     11  C   UNL A   1      42.249  21.552  25.434  1.00  0.00     0.014 A 
ATOM     12  C   UNL A   1      42.563  22.325  28.104  1.00  0.00     0.010 A 
ATOM     13  C   UNL A   1      42.681  22.843  25.740  1.00  0.00     0.010 A 
ATOM     14  C   UNL A   1      42.817  23.247  27.077  1.00  0.00    -0.014 A 
BRANCH  14  15
ATOM     15  C   UNL A   1      43.273  24.620  27.407  1.00  0.00     0.031 A 
ATOM     16  C   UNL A   1      42.321  25.630  27.975  1.00  0.00     0.074 A 
ATOM     17  C   UNL A   1      44.554  24.955  27.166  1.00  0.00     0.049 A 
ATOM     18  N   UNL A   1      42.523  26.893  28.255  1.00  0.00    -0.248 NA
ATOM     19  C   UNL A   1      40.955  25.164  28.259  1.00  0.00     0.031 C 
ATOM     20  C   UNL A   1      45.569  24.056  26.614  1.00  0.00     0.029 A 
ATOM     21  N   UNL A   1      45.220  26.140  27.345  1.00  0.00    -0.354 N 
ATOM     22  C   UNL A   1      41.310  27.378  28.724  1.00  0.00     0.074 A 
ATOM     23  C   UNL A   1      40.368  26.281  28.667  1.00  0.00     0.031 C 
ATOM     24  C   UNL A   1      46.732  24.715  26.515  1.00  0.00     0.029 A 
ATOM     25  C   UNL A   1      46.529  26.098  26.934  1.00  0.00     0.049 A 
ATOM     26  H   UNL A   1      44.800  26.943  27.731  1.00  0.00     0.167 HD
ATOM     27  C   UNL A   1      41.016  28.625  29.167  1.00  0.00     0.037 A 
ATOM     28  C   UNL A   1      47.454  27.072  26.869  1.00  0.00     0.037 A 
ATOM     29  C   UNL A   1      41.964  29.709  29.221  1.00  0.00     0.049 A 
ATOM     30  C   UNL A   1      47.092  28.457  27.322  1.00  0.00     0.074 A 
ATOM     31  C   UNL A   1      41.776  31.000  29.685  1.00  0.00     0.029 A 
ATOM     32  N   UNL A   1      43.280  29.631  28.784  1.00  0.00    -0.354 N 
ATOM     33  N   UNL A   1      45.952  28.898  27.798  1.00  0.00    -0.248 NA
ATOM     34  C   UNL A   1      48.142  29.478  27.232  1.00  0.00     0.031 C 
ATOM     35  C   UNL A   1      42.958  31.717  29.475  1.00  0.00     0.029 A 
ATOM     36  C   UNL A   1      43.906  30.858  28.943  1.00  0.00     0.049 A 
ATOM     37  H   UNL A   1      43.707  28.823  28.418  1.00  0.00     0.167 HD
ATOM     38  C   UNL A   1      46.154  30.238  28.091  1.00  0.00     0.074 A 
ATOM     39  C   UNL A   1      47.530  30.537  27.747  1.00  0.00     0.031 C 
ATOM     40  C   UNL A   1      45.280  31.139  28.604  1.00  0.00     0.037 A 
BRANCH  27  41
ATOM     41  C   UNL A   1      39.601  28.893  29.597  1.00  0.00     0.064 A 
ATOM     42  C   UNL A   1      39.167  28.658  30.910  1.00  0.00     0.173 A 
ATOM     43  C   UNL A   1      38.670  29.416  28.686  1.00  0.00     0.173 A 
ATOM     44  F   UNL A   1      40.012  28.150  31.820  1.00  0.00    -0.203 F 
ATOM     45  C   UNL A   1      37.847  28.899  31.285  1.00  0.00     0.198 A 
ATOM     46  C   UNL A   1      37.359  29.688  29.072  1.00  0.00     0.198 A 
ATOM     47  F   UNL A   1      39.031  29.668  27.419  1.00  0.00    -0.203 F 
ATOM     48  F   UNL A   1      37.442  28.610  32.529  1.00  0.00    -0.200 F 
ATOM     49  C   UNL A   1      36.946  29.418  30.368  1.00  0.00     0.200 A 
ATOM     50  F   UNL A   1      36.494  30.204  28.187  1.00  0.00    -0.200 F 
ATOM     51  F   UNL A   1      35.677  29.651  30.730  1.00  0.00    -0.200 F 
ENDBRANCH  27  41
BRANCH  28  52
ATOM     52  C   UNL A   1      48.808  26.757  26.347  1.00  0.00     0.064 A 
ATOM     53  C   UNL A   1      49.791  26.208  27.180  1.00  0.00     0.173 A 
ATOM     54  C   UNL A   1      49.134  26.963  24.998  1.00  0.00     0.173 A 
ATOM     55  F   UNL A   1      49.533  26.009  28.481  1.00  0.00    -0.203 F 
ATOM     56  C   UNL A   1      51.054  25.886  26.686  1.00  0.00     0.198 A 
ATOM     57  C   UNL A   1      50.386  26.612  24.498  1.00  0.00     0.198 A 
ATOM     58  F   UNL A   1      48.224  27.477  24.158  1.00  0.00    -0.203 F 
ATOM     59  F   UNL A   1      51.988  25.394  27.511  1.00  0.00    -0.200 F 
ATOM     60  C   UNL A   1      51.347  26.079  25.344  1.00  0.00     0.200 A 
ATOM     61  F   UNL A   1      50.657  26.782  23.197  1.00  0.00    -0.200 F 
ATOM     62  F   UNL A   1      52.556  25.755  24.867  1.00  0.00    -0.200 F 
ENDBRANCH  28  52
BRANCH  40  63
ATOM     63  C   UNL A   1      45.795  32.522  28.876  1.00  0.00     0.064 A 
ATOM     64  C   UNL A   1      45.687  33.552  27.930  1.00  0.00     0.173 A 
ATOM     65  C   UNL A   1      46.361  32.831  30.123  1.00  0.00     0.173 A 
ATOM     66  F   UNL A   1      45.171  33.306  26.717  1.00  0.00    -0.203 F 
ATOM     67  C   UNL A   1      46.146  34.836  28.217  1.00  0.00     0.198 A 
ATOM     68  C   UNL A   1      46.788  34.123  30.416  1.00  0.00     0.198 A 
ATOM     69  F   UNL A   1      46.483  31.883  31.063  1.00  0.00    -0.203 F 
ATOM     70  F   UNL A   1      46.073  35.795  27.283  1.00  0.00    -0.200 F 
ATOM     71  C   UNL A   1      46.686  35.122  29.462  1.00  0.00     0.200 A 
ATOM     72  F   UNL A   1      47.296  34.399  31.625  1.00  0.00    -0.200 F 
ATOM     73  F   UNL A   1      47.115  36.361  29.740  1.00  0.00    -0.200 F 
ENDBRANCH  40  63
ENDBRANCH  14  15
ENDBRANCH   7   9
ENDBRANCH   4   5
ENDBRANCH   3   4
ENDBRANCH   2   3
ENDBRANCH   1   2
BRANCH   1  74
ATOM     74  C   UNL A   1      35.417  22.336  25.881  1.00  0.00     0.021 C 
BRANCH  74  75
ATOM     75  C   UNL A   1      34.504  21.599  26.850  1.00  0.00     0.116 C 
BRANCH  75  76
ATOM     76  N   UNL A   1      33.864  20.456  26.223  1.00  0.00    -0.352 N 
ATOM     77  C   UNL A   1      32.717  20.432  25.471  1.00  0.00     0.252 C 
ATOM     78  H   UNL A   1      34.310  19.589  26.354  1.00  0.00     0.163 HD
ATOM     79  O   UNL A   1      32.170  19.369  25.192  1.00  0.00    -0.269 OA
BRANCH  77  80
ATOM     80  C   UNL A   1      32.152  21.698  24.990  1.00  0.00     0.058 A 
ATOM     81  C   UNL A   1      32.430  22.168  23.708  1.00  0.00     0.017 A 
ATOM     82  C   UNL A   1      31.315  22.440  25.805  1.00  0.00     0.125 A 
ATOM     83  C   UNL A   1      31.916  23.390  23.313  1.00  0.00     0.030 A 
ATOM     84  N   UNL A   1      30.761  23.619  25.425  1.00  0.00    -0.255 NA
ATOM     85  C   UNL A   1      31.043  24.063  24.170  1.00  0.00     0.095 A 
BRANCH  85  86
ATOM     86  C   UNL A   1      30.312  25.284  23.644  1.00  0.00     0.320 C 
BRANCH  86  87
ATOM     87  N   UNL A   1      31.046  26.572  23.690  1.00  0.00    -0.320 N 
ATOM     88  H   UNL A   1      31.697  26.402  24.456  1.00  0.00     0.348 HD
BRANCH  87  89
ATOM     89  C   UNL A   1      31.697  26.817  22.368  1.00  0.00     0.379 C 
BRANCH  89  90
ATOM     90  C   UNL A   1      33.233  26.712  22.267  1.00  0.00     0.438 C 
ATOM     91  F   UNL A   1      33.791  27.830  21.755  1.00  0.00    -0.165 F 
ATOM     92  F   UNL A   1      33.773  26.519  23.493  1.00  0.00    -0.165 F 
ATOM     93  F   UNL A   1      33.616  25.669  21.495  1.00  0.00    -0.165 F 
ENDBRANCH  89  90
ENDBRANCH  87  89
BRANCH  87  94
ATOM     94  C   UNL A   1      30.388  27.811  24.177  1.00  0.00     0.185 C 
ATOM     95  C   UNL A   1      31.105  29.088  24.500  1.00  0.00     0.071 C 
ATOM     96  C   UNL A   1      30.168  29.027  23.325  1.00  0.00     0.071 C 
ENDBRANCH  87  94
ENDBRANCH  86  87
ENDBRANCH  85  86
ENDBRANCH  77  80
ENDBRANCH  75  76
ENDBRANCH  74  75
ENDBRANCH   1  74
TORSDOF 18
ENDMDL
