MODEL 1
REMARK VINA RESULT:     -12.3      0.000      0.000
REMARK SMILES C#Cc1cc(Cl)cc2c1O[C@H](C(F)(F)F)C(C(=O)NCCCCCCNC(=O)c1ccc(-c3c4nc(c(-c5c(F)c(F)c(F)c(F)c5F)c5ccc([nH]5)c(-c5c(F)c(F)c(F)c(F)c5F)c5nc(c(-c6c(F)c(F)c(F)c(F)c6F)c6ccc3[nH]6)C=C5)C=C4)cc1)=C2
REMARK SMILES IDX 23 1 22 2 21 3 20 4 19 5 17 6 18 7 16 9 3 10 4 11 9 12 5 13
REMARK SMILES IDX 8 14 10 15 6 16 7 17 92 18 11 19 2 20 1 21 12 22 13 23 14 24
REMARK SMILES IDX 15 25 24 26 25 27 26 28 27 29 28 31 29 32 30 33 91 34 31 35
REMARK SMILES IDX 90 36 32 37 33 38 34 39 84 40 35 41 89 42 83 43 85 44 36 45
REMARK SMILES IDX 88 46 82 47 81 48 37 50 69 51 49 52 68 53 50 54 53 55 67 56
REMARK SMILES IDX 86 57 51 58 52 59 66 61 87 62 54 63 38 64 39 65 47 66 40 67
REMARK SMILES IDX 41 68 45 69 48 70 42 71 43 72 46 73 44 74 70 75 71 76 79 77
REMARK SMILES IDX 72 78 73 79 77 80 80 81 74 82 75 83 78 84 76 85 55 86 56 87
REMARK SMILES IDX 64 88 57 89 58 90 62 91 65 92 59 93 60 94 63 95 61 96
REMARK H PARENT 19 8 26 30 85 49 53 60
REMARK Flexibility Score: inf
ROOT
ATOM      1  C   UNL A   1      31.524  30.802  26.127  1.00  0.00     0.002 C 
ENDROOT
BRANCH   1   2
ATOM      2  C   UNL A   1      32.369  29.955  27.087  1.00  0.00     0.002 C 
BRANCH   2   3
ATOM      3  C   UNL A   1      31.781  28.578  27.399  1.00  0.00     0.021 C 
BRANCH   3   4
ATOM      4  C   UNL A   1      32.633  27.439  26.859  1.00  0.00     0.116 C 
BRANCH   4   5
ATOM      5  N   UNL A   1      32.947  27.622  25.452  1.00  0.00    -0.352 N 
ATOM      6  C   UNL A   1      33.396  26.857  24.429  1.00  0.00     0.251 C 
ATOM      7  O   UNL A   1      33.500  27.428  23.340  1.00  0.00    -0.270 OA
ATOM      8  H   UNL A   1      32.791  28.550  25.167  1.00  0.00     0.163 HD
BRANCH   6   9
ATOM      9  C   UNL A   1      33.761  25.414  24.545  1.00  0.00     0.067 C 
ATOM     10  C   UNL A   1      34.816  21.390  25.153  1.00  0.00     0.068 A 
ATOM     11  C   UNL A   1      36.145  21.047  25.387  1.00  0.00     0.041 A 
ATOM     12  C   UNL A   1      34.470  22.736  24.974  1.00  0.00     0.143 A 
ATOM     13  C   UNL A   1      37.111  22.051  25.446  1.00  0.00     0.043 A 
ATOM     14  C   UNL A   1      35.435  23.745  25.041  1.00  0.00     0.020 A 
ATOM     15  O   UNL A   1      33.147  23.008  24.786  1.00  0.00    -0.474 OA
ATOM     16  Cl  UNL A   1      38.753  21.629  25.744  1.00  0.00    -0.084 Cl
ATOM     17  C   UNL A   1      36.766  23.395  25.277  1.00  0.00     0.032 A 
ATOM     18  C   UNL A   1      35.027  25.141  24.910  1.00  0.00     0.025 C 
ATOM     19  C   UNL A   1      32.802  24.301  24.251  1.00  0.00     0.314 C 
BRANCH  10  20
ATOM     20  C   UNL A   1      33.806  20.373  25.093  1.00  0.00    -0.067 C 
ATOM     21  C   UNL A   1      32.969  19.519  24.970  1.00  0.00     0.010 C 
ENDBRANCH  10  20
BRANCH  19  22
ATOM     22  C   UNL A   1      32.491  24.161  22.749  1.00  0.00     0.429 C 
ATOM     23  F   UNL A   1      32.251  22.863  22.434  1.00  0.00    -0.167 F 
ATOM     24  F   UNL A   1      31.389  24.851  22.373  1.00  0.00    -0.167 F 
ATOM     25  F   UNL A   1      33.507  24.591  21.968  1.00  0.00    -0.167 F 
ENDBRANCH  19  22
ENDBRANCH   6   9
ENDBRANCH   4   5
ENDBRANCH   3   4
ENDBRANCH   2   3
ENDBRANCH   1   2
BRANCH   1  26
ATOM     26  C   UNL A   1      31.387  32.276  26.524  1.00  0.00     0.021 C 
BRANCH  26  27
ATOM     27  C   UNL A   1      32.588  32.815  27.287  1.00  0.00     0.116 C 
BRANCH  27  28
ATOM     28  N   UNL A   1      32.417  34.220  27.623  1.00  0.00    -0.352 N 
ATOM     29  C   UNL A   1      32.973  34.937  28.649  1.00  0.00     0.251 C 
ATOM     30  H   UNL A   1      31.817  34.726  27.029  1.00  0.00     0.163 HD
ATOM     31  O   UNL A   1      32.537  36.043  28.946  1.00  0.00    -0.269 OA
BRANCH  29  32
ATOM     32  C   UNL A   1      34.100  34.355  29.401  1.00  0.00     0.039 A 
ATOM     33  C   UNL A   1      33.833  33.598  30.541  1.00  0.00     0.014 A 
ATOM     34  C   UNL A   1      35.416  34.554  28.970  1.00  0.00     0.014 A 
ATOM     35  C   UNL A   1      34.887  32.998  31.226  1.00  0.00     0.010 A 
ATOM     36  C   UNL A   1      36.456  33.885  29.602  1.00  0.00     0.010 A 
ATOM     37  C   UNL A   1      36.203  33.114  30.745  1.00  0.00    -0.014 A 
BRANCH  37  38
ATOM     38  C   UNL A   1      37.330  32.455  31.447  1.00  0.00     0.031 A 
ATOM     39  C   UNL A   1      38.037  31.297  30.802  1.00  0.00     0.074 A 
ATOM     40  C   UNL A   1      37.697  32.887  32.669  1.00  0.00     0.049 A 
ATOM     41  N   UNL A   1      39.024  30.573  31.265  1.00  0.00    -0.248 NA
ATOM     42  C   UNL A   1      37.564  30.883  29.470  1.00  0.00     0.031 C 
ATOM     43  C   UNL A   1      37.065  33.984  33.402  1.00  0.00     0.029 A 
ATOM     44  N   UNL A   1      38.694  32.458  33.510  1.00  0.00    -0.354 N 
ATOM     45  C   UNL A   1      39.290  29.629  30.282  1.00  0.00     0.074 A 
ATOM     46  C   UNL A   1      38.320  29.823  29.228  1.00  0.00     0.031 C 
ATOM     47  C   UNL A   1      37.711  34.167  34.564  1.00  0.00     0.029 A 
ATOM     48  C   UNL A   1      38.773  33.171  34.681  1.00  0.00     0.049 A 
ATOM     49  H   UNL A   1      39.295  31.709  33.293  1.00  0.00     0.167 HD
ATOM     50  C   UNL A   1      40.280  28.708  30.249  1.00  0.00     0.037 A 
ATOM     51  C   UNL A   1      39.603  33.032  35.732  1.00  0.00     0.037 A 
ATOM     52  C   UNL A   1      41.255  28.535  31.291  1.00  0.00     0.049 A 
ATOM     53  C   UNL A   1      40.660  31.959  35.688  1.00  0.00     0.074 A 
ATOM     54  C   UNL A   1      42.317  27.650  31.334  1.00  0.00     0.029 A 
ATOM     55  N   UNL A   1      41.288  29.260  32.474  1.00  0.00    -0.354 N 
ATOM     56  N   UNL A   1      40.940  31.113  34.728  1.00  0.00    -0.248 NA
ATOM     57  C   UNL A   1      41.520  31.825  36.873  1.00  0.00     0.031 C 
ATOM     58  C   UNL A   1      42.954  27.796  32.568  1.00  0.00     0.029 A 
ATOM     59  C   UNL A   1      42.334  28.819  33.266  1.00  0.00     0.049 A 
ATOM     60  H   UNL A   1      40.661  29.981  32.712  1.00  0.00     0.167 HD
ATOM     61  C   UNL A   1      42.022  30.367  35.178  1.00  0.00     0.074 A 
ATOM     62  C   UNL A   1      42.363  30.877  36.489  1.00  0.00     0.031 C 
ATOM     63  C   UNL A   1      42.671  29.349  34.563  1.00  0.00     0.037 A 
BRANCH  50  64
ATOM     64  C   UNL A   1      40.385  27.825  29.040  1.00  0.00     0.064 A 
ATOM     65  C   UNL A   1      39.647  26.637  28.937  1.00  0.00     0.173 A 
ATOM     66  C   UNL A   1      41.150  28.222  27.932  1.00  0.00     0.173 A 
ATOM     67  F   UNL A   1      38.911  26.207  29.973  1.00  0.00    -0.203 F 
ATOM     68  C   UNL A   1      39.671  25.878  27.770  1.00  0.00     0.198 A 
ATOM     69  C   UNL A   1      41.146  27.476  26.756  1.00  0.00     0.198 A 
ATOM     70  F   UNL A   1      41.873  29.351  27.978  1.00  0.00    -0.203 F 
ATOM     71  F   UNL A   1      38.978  24.733  27.703  1.00  0.00    -0.200 F 
ATOM     72  C   UNL A   1      40.409  26.305  26.676  1.00  0.00     0.200 A 
ATOM     73  F   UNL A   1      41.845  27.902  25.694  1.00  0.00    -0.200 F 
ATOM     74  F   UNL A   1      40.406  25.590  25.543  1.00  0.00    -0.200 F 
ENDBRANCH  50  64
BRANCH  51  75
ATOM     75  C   UNL A   1      39.486  33.943  36.903  1.00  0.00     0.064 A 
ATOM     76  C   UNL A   1      40.129  35.188  36.916  1.00  0.00     0.173 A 
ATOM     77  C   UNL A   1      38.738  33.587  38.036  1.00  0.00     0.173 A 
ATOM     78  F   UNL A   1      40.873  35.568  35.866  1.00  0.00    -0.203 F 
ATOM     79  C   UNL A   1      40.050  36.031  38.023  1.00  0.00     0.198 A 
ATOM     80  C   UNL A   1      38.629  34.447  39.127  1.00  0.00     0.198 A 
ATOM     81  F   UNL A   1      38.099  32.408  38.077  1.00  0.00    -0.203 F 
ATOM     82  F   UNL A   1      40.719  37.192  38.027  1.00  0.00    -0.200 F 
ATOM     83  C   UNL A   1      39.293  35.664  39.124  1.00  0.00     0.200 A 
ATOM     84  F   UNL A   1      37.881  34.094  40.182  1.00  0.00    -0.200 F 
ATOM     85  F   UNL A   1      39.210  36.477  40.186  1.00  0.00    -0.200 F 
ENDBRANCH  51  75
BRANCH  63  86
ATOM     86  C   UNL A   1      43.834  28.723  35.280  1.00  0.00     0.064 A 
ATOM     87  C   UNL A   1      43.660  27.650  36.166  1.00  0.00     0.173 A 
ATOM     88  C   UNL A   1      45.146  29.144  35.007  1.00  0.00     0.173 A 
ATOM     89  F   UNL A   1      42.427  27.216  36.468  1.00  0.00    -0.203 F 
ATOM     90  C   UNL A   1      44.754  27.034  36.765  1.00  0.00     0.198 A 
ATOM     91  C   UNL A   1      46.239  28.500  35.579  1.00  0.00     0.198 A 
ATOM     92  F   UNL A   1      45.369  30.158  34.157  1.00  0.00    -0.203 F 
ATOM     93  F   UNL A   1      44.561  26.036  37.640  1.00  0.00    -0.200 F 
ATOM     94  C   UNL A   1      46.042  27.449  36.462  1.00  0.00     0.200 A 
ATOM     95  F   UNL A   1      47.483  28.887  35.265  1.00  0.00    -0.200 F 
ATOM     96  F   UNL A   1      47.095  26.837  37.021  1.00  0.00    -0.200 F 
ENDBRANCH  63  86
ENDBRANCH  37  38
ENDBRANCH  29  32
ENDBRANCH  27  28
ENDBRANCH  26  27
ENDBRANCH   1  26
TORSDOF 15
ENDMDL
MODEL 2
REMARK VINA RESULT:     -12.3      4.432      8.394
REMARK SMILES C#Cc1cc(Cl)cc2c1O[C@H](C(F)(F)F)C(C(=O)NCCCCCCNC(=O)c1ccc(-c3c4nc(c(-c5c(F)c(F)c(F)c(F)c5F)c5ccc([nH]5)c(-c5c(F)c(F)c(F)c(F)c5F)c5nc(c(-c6c(F)c(F)c(F)c(F)c6F)c6ccc3[nH]6)C=C5)C=C4)cc1)=C2
REMARK SMILES IDX 23 1 22 2 21 3 20 4 19 5 17 6 18 7 16 9 3 10 4 11 9 12 5 13
REMARK SMILES IDX 8 14 10 15 6 16 7 17 92 18 11 19 2 20 1 21 12 22 13 23 14 24
REMARK SMILES IDX 15 25 24 26 25 27 26 28 27 29 28 31 29 32 30 33 91 34 31 35
REMARK SMILES IDX 90 36 32 37 33 38 34 39 84 40 35 41 89 42 83 43 85 44 36 45
REMARK SMILES IDX 88 46 82 47 81 48 37 50 69 51 49 52 68 53 50 54 53 55 67 56
REMARK SMILES IDX 86 57 51 58 52 59 66 61 87 62 54 63 38 64 39 65 47 66 40 67
REMARK SMILES IDX 41 68 45 69 48 70 42 71 43 72 46 73 44 74 70 75 71 76 79 77
REMARK SMILES IDX 72 78 73 79 77 80 80 81 74 82 75 83 78 84 76 85 55 86 56 87
REMARK SMILES IDX 64 88 57 89 58 90 62 91 65 92 59 93 60 94 63 95 61 96
REMARK H PARENT 19 8 26 30 85 49 53 60
REMARK Flexibility Score: inf
ROOT
ATOM      1  C   UNL A   1      35.525  21.680  24.539  1.00  0.00     0.002 C 
ENDROOT
BRANCH   1   2
ATOM      2  C   UNL A   1      34.137  21.677  25.194  1.00  0.00     0.002 C 
BRANCH   2   3
ATOM      3  C   UNL A   1      32.997  21.274  24.257  1.00  0.00     0.021 C 
BRANCH   3   4
ATOM      4  C   UNL A   1      31.911  22.335  24.164  1.00  0.00     0.116 C 
BRANCH   4   5
ATOM      5  N   UNL A   1      31.220  22.512  25.430  1.00  0.00    -0.352 N 
ATOM      6  C   UNL A   1      30.786  23.547  26.186  1.00  0.00     0.251 C 
ATOM      7  O   UNL A   1      30.195  23.240  27.225  1.00  0.00    -0.270 OA
ATOM      8  H   UNL A   1      31.013  21.647  25.850  1.00  0.00     0.163 HD
BRANCH   6   9
ATOM      9  C   UNL A   1      30.981  24.987  25.845  1.00  0.00     0.067 C 
ATOM     10  C   UNL A   1      31.281  29.098  25.011  1.00  0.00     0.068 A 
ATOM     11  C   UNL A   1      30.533  29.653  23.976  1.00  0.00     0.041 A 
ATOM     12  C   UNL A   1      31.157  27.732  25.297  1.00  0.00     0.143 A 
ATOM     13  C   UNL A   1      29.667  28.841  23.243  1.00  0.00     0.043 A 
ATOM     14  C   UNL A   1      30.285  26.917  24.570  1.00  0.00     0.020 A 
ATOM     15  O   UNL A   1      31.888  27.257  26.346  1.00  0.00    -0.474 OA
ATOM     16  Cl  UNL A   1      28.737  29.529  21.970  1.00  0.00    -0.084 Cl
ATOM     17  C   UNL A   1      29.537  27.480  23.534  1.00  0.00     0.032 A 
ATOM     18  C   UNL A   1      30.139  25.511  24.936  1.00  0.00     0.025 C 
ATOM     19  C   UNL A   1      32.065  25.830  26.444  1.00  0.00     0.314 C 
BRANCH  10  20
ATOM     20  C   UNL A   1      32.173  29.917  25.780  1.00  0.00    -0.067 C 
ATOM     21  C   UNL A   1      32.873  30.598  26.480  1.00  0.00     0.010 C 
ENDBRANCH  10  20
BRANCH  19  22
ATOM     22  C   UNL A   1      33.467  25.458  25.925  1.00  0.00     0.429 C 
ATOM     23  F   UNL A   1      33.971  24.412  26.628  1.00  0.00    -0.167 F 
ATOM     24  F   UNL A   1      33.463  25.072  24.627  1.00  0.00    -0.167 F 
ATOM     25  F   UNL A   1      34.345  26.480  26.026  1.00  0.00    -0.167 F 
ENDBRANCH  19  22
ENDBRANCH   6   9
ENDBRANCH   4   5
ENDBRANCH   3   4
ENDBRANCH   2   3
ENDBRANCH   1   2
BRANCH   1  26
ATOM     26  C   UNL A   1      36.111  23.073  24.288  1.00  0.00     0.021 C 
BRANCH  26  27
ATOM     27  C   UNL A   1      36.951  23.598  25.444  1.00  0.00     0.116 C 
BRANCH  27  28
ATOM     28  N   UNL A   1      37.943  22.622  25.866  1.00  0.00    -0.352 N 
ATOM     29  C   UNL A   1      39.173  22.830  26.432  1.00  0.00     0.251 C 
ATOM     30  H   UNL A   1      37.696  21.680  25.723  1.00  0.00     0.163 HD
ATOM     31  O   UNL A   1      39.992  21.920  26.498  1.00  0.00    -0.269 OA
BRANCH  29  32
ATOM     32  C   UNL A   1      39.504  24.169  26.954  1.00  0.00     0.039 A 
ATOM     33  C   UNL A   1      39.219  24.464  28.286  1.00  0.00     0.014 A 
ATOM     34  C   UNL A   1      40.104  25.122  26.125  1.00  0.00     0.014 A 
ATOM     35  C   UNL A   1      39.579  25.707  28.803  1.00  0.00     0.010 A 
ATOM     36  C   UNL A   1      40.541  26.326  26.663  1.00  0.00     0.010 A 
ATOM     37  C   UNL A   1      40.268  26.635  28.003  1.00  0.00    -0.014 A 
BRANCH  37  38
ATOM     38  C   UNL A   1      40.684  27.949  28.550  1.00  0.00     0.031 A 
ATOM     39  C   UNL A   1      42.132  28.203  28.861  1.00  0.00     0.074 A 
ATOM     40  C   UNL A   1      39.757  28.897  28.783  1.00  0.00     0.049 A 
ATOM     41  N   UNL A   1      42.691  29.273  29.368  1.00  0.00    -0.248 NA
ATOM     42  C   UNL A   1      43.078  27.108  28.585  1.00  0.00     0.031 C 
ATOM     43  C   UNL A   1      38.321  28.751  28.544  1.00  0.00     0.029 A 
ATOM     44  N   UNL A   1      39.883  30.175  29.271  1.00  0.00    -0.354 N 
ATOM     45  C   UNL A   1      44.044  28.980  29.464  1.00  0.00     0.074 A 
ATOM     46  C   UNL A   1      44.218  27.612  29.031  1.00  0.00     0.031 C 
ATOM     47  C   UNL A   1      37.705  29.903  28.849  1.00  0.00     0.029 A 
ATOM     48  C   UNL A   1      38.693  30.855  29.349  1.00  0.00     0.049 A 
ATOM     49  H   UNL A   1      40.746  30.565  29.538  1.00  0.00     0.167 HD
ATOM     50  C   UNL A   1      45.054  29.795  29.846  1.00  0.00     0.037 A 
ATOM     51  C   UNL A   1      38.429  32.103  29.783  1.00  0.00     0.037 A 
ATOM     52  C   UNL A   1      44.875  31.161  30.255  1.00  0.00     0.049 A 
ATOM     53  C   UNL A   1      39.570  32.966  30.254  1.00  0.00     0.074 A 
ATOM     54  C   UNL A   1      45.842  32.078  30.629  1.00  0.00     0.029 A 
ATOM     55  N   UNL A   1      43.652  31.808  30.345  1.00  0.00    -0.354 N 
ATOM     56  N   UNL A   1      40.852  32.699  30.284  1.00  0.00    -0.248 NA
ATOM     57  C   UNL A   1      39.227  34.307  30.749  1.00  0.00     0.031 C 
ATOM     58  C   UNL A   1      45.199  33.259  31.005  1.00  0.00     0.029 A 
ATOM     59  C   UNL A   1      43.837  33.103  30.800  1.00  0.00     0.049 A 
ATOM     60  H   UNL A   1      42.782  31.406  30.119  1.00  0.00     0.167 HD
ATOM     61  C   UNL A   1      41.471  33.843  30.770  1.00  0.00     0.074 A 
ATOM     62  C   UNL A   1      40.425  34.816  31.002  1.00  0.00     0.031 C 
ATOM     63  C   UNL A   1      42.786  34.066  31.009  1.00  0.00     0.037 A 
BRANCH  50  64
ATOM     64  C   UNL A   1      46.452  29.249  29.819  1.00  0.00     0.064 A 
ATOM     65  C   UNL A   1      47.005  28.601  30.934  1.00  0.00     0.173 A 
ATOM     66  C   UNL A   1      47.207  29.282  28.637  1.00  0.00     0.173 A 
ATOM     67  F   UNL A   1      46.329  28.554  32.092  1.00  0.00    -0.203 F 
ATOM     68  C   UNL A   1      48.262  28.009  30.867  1.00  0.00     0.198 A 
ATOM     69  C   UNL A   1      48.451  28.660  28.565  1.00  0.00     0.198 A 
ATOM     70  F   UNL A   1      46.724  29.888  27.541  1.00  0.00    -0.203 F 
ATOM     71  F   UNL A   1      48.781  27.417  31.952  1.00  0.00    -0.200 F 
ATOM     72  C   UNL A   1      48.977  28.025  29.679  1.00  0.00     0.200 A 
ATOM     73  F   UNL A   1      49.131  28.662  27.410  1.00  0.00    -0.200 F 
ATOM     74  F   UNL A   1      50.174  27.426  29.607  1.00  0.00    -0.200 F 
ENDBRANCH  50  64
BRANCH  51  75
ATOM     75  C   UNL A   1      37.033  32.619  29.770  1.00  0.00     0.064 A 
ATOM     76  C   UNL A   1      36.520  33.284  28.649  1.00  0.00     0.173 A 
ATOM     77  C   UNL A   1      36.186  32.467  30.879  1.00  0.00     0.173 A 
ATOM     78  F   UNL A   1      37.294  33.473  27.569  1.00  0.00    -0.203 F 
ATOM     79  C   UNL A   1      35.224  33.798  28.643  1.00  0.00     0.198 A 
ATOM     80  C   UNL A   1      34.879  32.949  30.859  1.00  0.00     0.198 A 
ATOM     81  F   UNL A   1      36.624  31.836  31.978  1.00  0.00    -0.203 F 
ATOM     82  F   UNL A   1      34.780  34.476  27.577  1.00  0.00    -0.200 F 
ATOM     83  C   UNL A   1      34.402  33.623  29.745  1.00  0.00     0.200 A 
ATOM     84  F   UNL A   1      34.082  32.760  31.920  1.00  0.00    -0.200 F 
ATOM     85  F   UNL A   1      33.154  34.110  29.738  1.00  0.00    -0.200 F 
ENDBRANCH  51  75
BRANCH  63  86
ATOM     86  C   UNL A   1      43.187  35.419  31.527  1.00  0.00     0.064 A 
ATOM     87  C   UNL A   1      43.205  35.704  32.900  1.00  0.00     0.173 A 
ATOM     88  C   UNL A   1      43.643  36.410  30.644  1.00  0.00     0.173 A 
ATOM     89  F   UNL A   1      42.770  34.794  33.785  1.00  0.00    -0.203 F 
ATOM     90  C   UNL A   1      43.648  36.937  33.368  1.00  0.00     0.198 A 
ATOM     91  C   UNL A   1      44.121  37.628  31.119  1.00  0.00     0.198 A 
ATOM     92  F   UNL A   1      43.658  36.185  29.321  1.00  0.00    -0.203 F 
ATOM     93  F   UNL A   1      43.619  37.202  34.682  1.00  0.00    -0.200 F 
ATOM     94  C   UNL A   1      44.118  37.893  32.479  1.00  0.00     0.200 A 
ATOM     95  F   UNL A   1      44.599  38.540  30.260  1.00  0.00    -0.200 F 
ATOM     96  F   UNL A   1      44.568  39.070  32.935  1.00  0.00    -0.200 F 
ENDBRANCH  63  86
ENDBRANCH  37  38
ENDBRANCH  29  32
ENDBRANCH  27  28
ENDBRANCH  26  27
ENDBRANCH   1  26
TORSDOF 15
ENDMDL
MODEL 3
REMARK VINA RESULT:     -12.3      4.301      8.166
REMARK SMILES C#Cc1cc(Cl)cc2c1O[C@H](C(F)(F)F)C(C(=O)NCCCCCCNC(=O)c1ccc(-c3c4nc(c(-c5c(F)c(F)c(F)c(F)c5F)c5ccc([nH]5)c(-c5c(F)c(F)c(F)c(F)c5F)c5nc(c(-c6c(F)c(F)c(F)c(F)c6F)c6ccc3[nH]6)C=C5)C=C4)cc1)=C2
REMARK SMILES IDX 23 1 22 2 21 3 20 4 19 5 17 6 18 7 16 9 3 10 4 11 9 12 5 13
REMARK SMILES IDX 8 14 10 15 6 16 7 17 92 18 11 19 2 20 1 21 12 22 13 23 14 24
REMARK SMILES IDX 15 25 24 26 25 27 26 28 27 29 28 31 29 32 30 33 91 34 31 35
REMARK SMILES IDX 90 36 32 37 33 38 34 39 84 40 35 41 89 42 83 43 85 44 36 45
REMARK SMILES IDX 88 46 82 47 81 48 37 50 69 51 49 52 68 53 50 54 53 55 67 56
REMARK SMILES IDX 86 57 51 58 52 59 66 61 87 62 54 63 38 64 39 65 47 66 40 67
REMARK SMILES IDX 41 68 45 69 48 70 42 71 43 72 46 73 44 74 70 75 71 76 79 77
REMARK SMILES IDX 72 78 73 79 77 80 80 81 74 82 75 83 78 84 76 85 55 86 56 87
REMARK SMILES IDX 64 88 57 89 58 90 62 91 65 92 59 93 60 94 63 95 61 96
REMARK H PARENT 19 8 26 30 85 49 53 60
REMARK Flexibility Score: inf
ROOT
ATOM      1  C   UNL A   1      35.098  21.795  26.457  1.00  0.00     0.002 C 
ENDROOT
BRANCH   1   2
ATOM      2  C   UNL A   1      34.552  21.112  25.196  1.00  0.00     0.002 C 
BRANCH   2   3
ATOM      3  C   UNL A   1      33.045  20.849  25.222  1.00  0.00     0.021 C 
BRANCH   3   4
ATOM      4  C   UNL A   1      32.248  21.930  24.508  1.00  0.00     0.116 C 
BRANCH   4   5
ATOM      5  N   UNL A   1      32.927  22.401  23.313  1.00  0.00    -0.352 N 
ATOM      6  C   UNL A   1      33.208  23.593  22.737  1.00  0.00     0.251 C 
ATOM      7  O   UNL A   1      33.861  23.541  21.691  1.00  0.00    -0.270 OA
ATOM      8  H   UNL A   1      33.277  21.651  22.780  1.00  0.00     0.163 HD
BRANCH   6   9
ATOM      9  C   UNL A   1      32.781  24.918  23.277  1.00  0.00     0.067 C 
ATOM     10  C   UNL A   1      31.796  28.766  24.654  1.00  0.00     0.068 A 
ATOM     11  C   UNL A   1      32.547  29.355  25.668  1.00  0.00     0.041 A 
ATOM     12  C   UNL A   1      32.146  27.493  24.185  1.00  0.00     0.143 A 
ATOM     13  C   UNL A   1      33.640  28.670  26.198  1.00  0.00     0.043 A 
ATOM     14  C   UNL A   1      33.245  26.807  24.708  1.00  0.00     0.020 A 
ATOM     15  O   UNL A   1      31.394  26.988  23.166  1.00  0.00    -0.474 OA
ATOM     16  Cl  UNL A   1      34.572  29.400  27.446  1.00  0.00    -0.084 Cl
ATOM     17  C   UNL A   1      33.994  27.403  25.725  1.00  0.00     0.032 A 
ATOM     18  C   UNL A   1      33.614  25.508  24.153  1.00  0.00     0.025 C 
ATOM     19  C   UNL A   1      31.486  25.574  22.906  1.00  0.00     0.314 C 
BRANCH  10  20
ATOM     20  C   UNL A   1      30.671  29.457  24.092  1.00  0.00    -0.067 C 
ATOM     21  C   UNL A   1      29.701  29.970  23.602  1.00  0.00     0.010 C 
ENDBRANCH  10  20
BRANCH  19  22
ATOM     22  C   UNL A   1      30.262  24.866  23.516  1.00  0.00     0.429 C 
ATOM     23  F   UNL A   1      30.498  24.543  24.813  1.00  0.00    -0.167 F 
ATOM     24  F   UNL A   1      29.151  25.641  23.517  1.00  0.00    -0.167 F 
ATOM     25  F   UNL A   1      29.944  23.727  22.862  1.00  0.00    -0.167 F 
ENDBRANCH  19  22
ENDBRANCH   6   9
ENDBRANCH   4   5
ENDBRANCH   3   4
ENDBRANCH   2   3
ENDBRANCH   1   2
BRANCH   1  26
ATOM     26  C   UNL A   1      35.177  23.323  26.375  1.00  0.00     0.021 C 
BRANCH  26  27
ATOM     27  C   UNL A   1      36.547  23.841  25.958  1.00  0.00     0.116 C 
BRANCH  27  28
ATOM     28  N   UNL A   1      37.552  22.792  26.021  1.00  0.00    -0.352 N 
ATOM     29  C   UNL A   1      38.887  22.892  26.307  1.00  0.00     0.251 C 
ATOM     30  H   UNL A   1      37.227  21.883  25.830  1.00  0.00     0.163 HD
ATOM     31  O   UNL A   1      39.648  21.959  26.075  1.00  0.00    -0.269 OA
BRANCH  29  32
ATOM     32  C   UNL A   1      39.403  24.143  26.892  1.00  0.00     0.039 A 
ATOM     33  C   UNL A   1      40.041  25.064  26.062  1.00  0.00     0.014 A 
ATOM     34  C   UNL A   1      39.245  24.404  28.257  1.00  0.00     0.014 A 
ATOM     35  C   UNL A   1      40.482  26.274  26.594  1.00  0.00     0.010 A 
ATOM     36  C   UNL A   1      39.606  25.645  28.767  1.00  0.00     0.010 A 
ATOM     37  C   UNL A   1      40.242  26.585  27.944  1.00  0.00    -0.014 A 
BRANCH  37  38
ATOM     38  C   UNL A   1      40.679  27.881  28.515  1.00  0.00     0.031 A 
ATOM     39  C   UNL A   1      42.131  28.107  28.827  1.00  0.00     0.074 A 
ATOM     40  C   UNL A   1      39.767  28.838  28.771  1.00  0.00     0.049 A 
ATOM     41  N   UNL A   1      42.707  29.158  29.353  1.00  0.00    -0.248 NA
ATOM     42  C   UNL A   1      43.059  27.003  28.526  1.00  0.00     0.031 C 
ATOM     43  C   UNL A   1      38.328  28.718  28.533  1.00  0.00     0.029 A 
ATOM     44  N   UNL A   1      39.914  30.104  29.283  1.00  0.00    -0.354 N 
ATOM     45  C   UNL A   1      44.056  28.843  29.439  1.00  0.00     0.074 A 
ATOM     46  C   UNL A   1      44.209  27.481  28.978  1.00  0.00     0.031 C 
ATOM     47  C   UNL A   1      37.730  29.873  28.862  1.00  0.00     0.029 A 
ATOM     48  C   UNL A   1      38.734  30.800  29.379  1.00  0.00     0.049 A 
ATOM     49  H   UNL A   1      40.783  30.475  29.555  1.00  0.00     0.167 HD
ATOM     50  C   UNL A   1      45.080  29.635  29.833  1.00  0.00     0.037 A 
ATOM     51  C   UNL A   1      38.490  32.043  29.838  1.00  0.00     0.037 A 
ATOM     52  C   UNL A   1      44.923  30.995  30.270  1.00  0.00     0.049 A 
ATOM     53  C   UNL A   1      39.646  32.879  30.322  1.00  0.00     0.074 A 
ATOM     54  C   UNL A   1      45.904  31.889  30.659  1.00  0.00     0.029 A 
ATOM     55  N   UNL A   1      43.709  31.659  30.377  1.00  0.00    -0.354 N 
ATOM     56  N   UNL A   1      40.924  32.592  30.342  1.00  0.00    -0.248 NA
ATOM     57  C   UNL A   1      39.325  34.215  30.845  1.00  0.00     0.031 C 
ATOM     58  C   UNL A   1      45.280  33.072  31.060  1.00  0.00     0.029 A 
ATOM     59  C   UNL A   1      43.916  32.941  30.857  1.00  0.00     0.049 A 
ATOM     60  H   UNL A   1      42.833  31.274  30.146  1.00  0.00     0.167 HD
ATOM     61  C   UNL A   1      41.561  33.718  30.849  1.00  0.00     0.074 A 
ATOM     62  C   UNL A   1      40.530  34.701  31.103  1.00  0.00     0.031 C 
ATOM     63  C   UNL A   1      42.880  33.915  31.088  1.00  0.00     0.037 A 
BRANCH  50  64
ATOM     64  C   UNL A   1      46.469  29.069  29.792  1.00  0.00     0.064 A 
ATOM     65  C   UNL A   1      47.018  28.396  30.894  1.00  0.00     0.173 A 
ATOM     66  C   UNL A   1      47.219  29.108  28.606  1.00  0.00     0.173 A 
ATOM     67  F   UNL A   1      46.347  28.342  32.055  1.00  0.00    -0.203 F 
ATOM     68  C   UNL A   1      48.266  27.786  30.812  1.00  0.00     0.198 A 
ATOM     69  C   UNL A   1      48.453  28.468  28.518  1.00  0.00     0.198 A 
ATOM     70  F   UNL A   1      46.740  29.737  27.522  1.00  0.00    -0.203 F 
ATOM     71  F   UNL A   1      48.781  27.170  31.885  1.00  0.00    -0.200 F 
ATOM     72  C   UNL A   1      48.975  27.809  29.620  1.00  0.00     0.200 A 
ATOM     73  F   UNL A   1      49.127  28.477  27.360  1.00  0.00    -0.200 F 
ATOM     74  F   UNL A   1      50.162  27.194  29.533  1.00  0.00    -0.200 F 
ENDBRANCH  50  64
BRANCH  51  75
ATOM     75  C   UNL A   1      37.102  32.580  29.839  1.00  0.00     0.064 A 
ATOM     76  C   UNL A   1      36.600  33.286  28.738  1.00  0.00     0.173 A 
ATOM     77  C   UNL A   1      36.252  32.408  30.943  1.00  0.00     0.173 A 
ATOM     78  F   UNL A   1      37.379  33.495  27.665  1.00  0.00    -0.203 F 
ATOM     79  C   UNL A   1      35.313  33.819  28.747  1.00  0.00     0.198 A 
ATOM     80  C   UNL A   1      34.952  32.910  30.937  1.00  0.00     0.198 A 
ATOM     81  F   UNL A   1      36.679  31.738  32.023  1.00  0.00    -0.203 F 
ATOM     82  F   UNL A   1      34.879  34.535  27.701  1.00  0.00    -0.200 F 
ATOM     83  C   UNL A   1      34.486  33.623  29.843  1.00  0.00     0.200 A 
ATOM     84  F   UNL A   1      34.152  32.701  31.991  1.00  0.00    -0.200 F 
ATOM     85  F   UNL A   1      33.246  34.130  29.850  1.00  0.00    -0.200 F 
ENDBRANCH  51  75
BRANCH  63  86
ATOM     86  C   UNL A   1      43.303  35.251  31.631  1.00  0.00     0.064 A 
ATOM     87  C   UNL A   1      43.715  36.291  30.785  1.00  0.00     0.173 A 
ATOM     88  C   UNL A   1      43.207  35.522  33.006  1.00  0.00     0.173 A 
ATOM     89  F   UNL A   1      43.833  36.081  29.465  1.00  0.00    -0.203 F 
ATOM     90  C   UNL A   1      44.033  37.545  31.296  1.00  0.00     0.198 A 
ATOM     91  C   UNL A   1      43.488  36.789  33.508  1.00  0.00     0.198 A 
ATOM     92  F   UNL A   1      42.805  34.567  33.858  1.00  0.00    -0.203 F 
ATOM     93  F   UNL A   1      44.463  38.512  30.473  1.00  0.00    -0.200 F 
ATOM     94  C   UNL A   1      43.907  37.798  32.654  1.00  0.00     0.200 A 
ATOM     95  F   UNL A   1      43.341  37.037  34.817  1.00  0.00    -0.200 F 
ATOM     96  F   UNL A   1      44.189  39.014  33.140  1.00  0.00    -0.200 F 
ENDBRANCH  63  86
ENDBRANCH  37  38
ENDBRANCH  29  32
ENDBRANCH  27  28
ENDBRANCH  26  27
ENDBRANCH   1  26
TORSDOF 15
ENDMDL
