MODEL 1
REMARK VINA RESULT:     -11.1      0.000      0.000
REMARK SMILES CSc1ccc(C[NH+]2CCC(CC(=O)NCCCCCCNC(=O)c3ccc(-c4c5nc(c(-c6c(F)c(F)c(F)c(F)c6F)c6ccc([nH]6)c(-c6c(F)c(F)c(F)c(F)c6F)c6nc(c(-c7c(F)c(F)c(F)c(F)c7F)c7ccc4[nH]7)C=C6)C=C5)cc3)CC2)cc1
REMARK SMILES IDX 17 1 16 2 15 3 13 4 14 5 12 7 11 8 8 9 9 10 89 11 10 13
REMARK SMILES IDX 88 14 7 15 6 16 3 17 4 18 91 19 5 20 90 21 2 22 1 23 18 24
REMARK SMILES IDX 19 25 20 26 21 27 22 28 23 29 24 31 25 32 26 33 87 34 27 35
REMARK SMILES IDX 86 36 28 37 29 38 30 39 80 40 31 41 85 42 79 43 81 44 32 45
REMARK SMILES IDX 84 46 78 47 77 48 33 50 65 51 45 52 64 53 46 54 49 55 63 56
REMARK SMILES IDX 82 57 47 58 48 59 62 61 83 62 50 63 34 64 35 65 43 66 36 67
REMARK SMILES IDX 37 68 41 69 44 70 38 71 39 72 42 73 40 74 66 75 67 76 75 77
REMARK SMILES IDX 68 78 69 79 73 80 76 81 70 82 71 83 74 84 72 85 51 86 52 87
REMARK SMILES IDX 60 88 53 89 54 90 58 91 61 92 55 93 56 94 59 95 57 96
REMARK H PARENT 15 6 8 12 22 30 81 49 49 60
REMARK Flexibility Score: inf
ROOT
ATOM      1  C   UNL A   1      33.212  29.554  24.908  1.00  0.00     0.021 C 
ENDROOT
BRANCH   1   2
ATOM      2  C   UNL A   1      33.098  29.076  23.454  1.00  0.00     0.116 C 
BRANCH   2   3
ATOM      3  N   UNL A   1      31.709  29.048  23.021  1.00  0.00    -0.356 N 
ATOM      4  C   UNL A   1      30.976  28.059  22.431  1.00  0.00     0.220 C 
ATOM      5  O   UNL A   1      29.826  28.327  22.077  1.00  0.00    -0.275 OA
ATOM      6  H   UNL A   1      31.215  29.883  23.182  1.00  0.00     0.163 HD
BRANCH   4   7
ATOM      7  C   UNL A   1      31.550  26.667  22.213  1.00  0.00     0.104 C 
BRANCH   7   8
ATOM      8  C   UNL A   1      31.489  25.775  23.467  1.00  0.00     0.009 C 
ATOM      9  N   UNL A   1      32.523  23.382  24.843  1.00  0.00    -0.331 N 
ATOM     10  C   UNL A   1      31.190  23.363  24.244  1.00  0.00     0.262 C 
ATOM     11  C   UNL A   1      32.843  24.722  25.350  1.00  0.00     0.262 C 
ATOM     12  H   UNL A   1      33.210  23.177  24.118  1.00  0.00     0.348 HD
ATOM     13  C   UNL A   1      31.096  24.348  23.099  1.00  0.00     0.066 C 
ATOM     14  C   UNL A   1      32.833  25.755  24.212  1.00  0.00     0.066 C 
BRANCH   9  15
ATOM     15  C   UNL A   1      32.696  22.308  25.843  1.00  0.00     0.299 C 
BRANCH  15  16
ATOM     16  C   UNL A   1      33.141  20.967  25.290  1.00  0.00     0.006 A 
ATOM     17  C   UNL A   1      34.002  18.375  24.590  1.00  0.00     0.007 A 
ATOM     18  C   UNL A   1      34.922  19.417  24.729  1.00  0.00     0.015 A 
ATOM     19  C   UNL A   1      32.643  18.642  24.778  1.00  0.00     0.015 A 
ATOM     20  C   UNL A   1      34.494  20.706  25.059  1.00  0.00     0.011 A 
ATOM     21  C   UNL A   1      32.214  19.928  25.118  1.00  0.00     0.011 A 
BRANCH  17  22
ATOM     22  S   UNL A   1      34.490  16.689  24.260  1.00  0.00    -0.130 SA
ATOM     23  C   UNL A   1      33.066  15.777  24.909  1.00  0.00     0.091 C 
ENDBRANCH  17  22
ENDBRANCH  15  16
ENDBRANCH   9  15
ENDBRANCH   7   8
ENDBRANCH   4   7
ENDBRANCH   2   3
ENDBRANCH   1   2
BRANCH   1  24
ATOM     24  C   UNL A   1      31.994  29.267  25.782  1.00  0.00     0.002 C 
BRANCH  24  25
ATOM     25  C   UNL A   1      31.904  30.095  27.065  1.00  0.00     0.002 C 
BRANCH  25  26
ATOM     26  C   UNL A   1      31.672  31.598  26.872  1.00  0.00     0.021 C 
BRANCH  26  27
ATOM     27  C   UNL A   1      32.918  32.475  26.986  1.00  0.00     0.116 C 
BRANCH  27  28
ATOM     28  N   UNL A   1      32.618  33.790  27.529  1.00  0.00    -0.352 N 
ATOM     29  C   UNL A   1      33.142  34.431  28.624  1.00  0.00     0.251 C 
ATOM     30  H   UNL A   1      31.935  34.300  27.035  1.00  0.00     0.163 HD
ATOM     31  O   UNL A   1      32.616  35.454  29.050  1.00  0.00    -0.269 OA
BRANCH  29  32
ATOM     32  C   UNL A   1      34.337  33.888  29.304  1.00  0.00     0.039 A 
ATOM     33  C   UNL A   1      34.163  32.936  30.313  1.00  0.00     0.014 A 
ATOM     34  C   UNL A   1      35.618  34.340  28.978  1.00  0.00     0.014 A 
ATOM     35  C   UNL A   1      35.280  32.396  30.956  1.00  0.00     0.010 A 
ATOM     36  C   UNL A   1      36.732  33.758  29.577  1.00  0.00     0.010 A 
ATOM     37  C   UNL A   1      36.574  32.783  30.574  1.00  0.00    -0.014 A 
BRANCH  37  38
ATOM     38  C   UNL A   1      37.774  32.182  31.209  1.00  0.00     0.031 A 
ATOM     39  C   UNL A   1      38.566  31.129  30.486  1.00  0.00     0.074 A 
ATOM     40  C   UNL A   1      38.112  32.539  32.463  1.00  0.00     0.049 A 
ATOM     41  N   UNL A   1      39.595  30.434  30.902  1.00  0.00    -0.248 NA
ATOM     42  C   UNL A   1      38.125  30.792  29.124  1.00  0.00     0.031 C 
ATOM     43  C   UNL A   1      37.396  33.515  33.286  1.00  0.00     0.029 A 
ATOM     44  N   UNL A   1      39.135  32.109  33.272  1.00  0.00    -0.354 N 
ATOM     45  C   UNL A   1      39.912  29.570  29.862  1.00  0.00     0.074 A 
ATOM     46  C   UNL A   1      38.939  29.794  28.814  1.00  0.00     0.031 C 
ATOM     47  C   UNL A   1      38.008  33.620  34.476  1.00  0.00     0.029 A 
ATOM     48  C   UNL A   1      39.139  32.697  34.514  1.00  0.00     0.049 A 
ATOM     49  H   UNL A   1      39.802  31.443  32.989  1.00  0.00     0.167 HD
ATOM     50  C   UNL A   1      40.934  28.685  29.781  1.00  0.00     0.037 A 
ATOM     51  C   UNL A   1      39.957  32.506  35.566  1.00  0.00     0.037 A 
ATOM     52  C   UNL A   1      41.918  28.487  30.813  1.00  0.00     0.049 A 
ATOM     53  C   UNL A   1      41.090  31.522  35.447  1.00  0.00     0.074 A 
ATOM     54  C   UNL A   1      43.031  27.664  30.799  1.00  0.00     0.029 A 
ATOM     55  N   UNL A   1      41.907  29.122  32.047  1.00  0.00    -0.354 N 
ATOM     56  N   UNL A   1      41.422  30.761  34.433  1.00  0.00    -0.248 NA
ATOM     57  C   UNL A   1      41.967  31.376  36.617  1.00  0.00     0.031 C 
ATOM     58  C   UNL A   1      43.669  27.769  32.040  1.00  0.00     0.029 A 
ATOM     59  C   UNL A   1      42.981  28.693  32.810  1.00  0.00     0.049 A 
ATOM     60  H   UNL A   1      41.234  29.780  32.337  1.00  0.00     0.167 HD
ATOM     61  C   UNL A   1      42.557  30.069  34.830  1.00  0.00     0.074 A 
ATOM     62  C   UNL A   1      42.867  30.511  36.173  1.00  0.00     0.031 C 
ATOM     63  C   UNL A   1      43.279  29.150  34.143  1.00  0.00     0.037 A 
BRANCH  50  64
ATOM     64  C   UNL A   1      41.044  27.862  28.531  1.00  0.00     0.064 A 
ATOM     65  C   UNL A   1      41.822  28.281  27.441  1.00  0.00     0.173 A 
ATOM     66  C   UNL A   1      40.397  26.622  28.435  1.00  0.00     0.173 A 
ATOM     67  F   UNL A   1      42.453  29.464  27.477  1.00  0.00    -0.203 F 
ATOM     68  C   UNL A   1      41.924  27.503  26.291  1.00  0.00     0.198 A 
ATOM     69  C   UNL A   1      40.525  25.831  27.295  1.00  0.00     0.198 A 
ATOM     70  F   UNL A   1      39.646  26.170  29.451  1.00  0.00    -0.203 F 
ATOM     71  F   UNL A   1      42.635  27.946  25.245  1.00  0.00    -0.200 F 
ATOM     72  C   UNL A   1      41.282  26.275  26.222  1.00  0.00     0.200 A 
ATOM     73  F   UNL A   1      39.913  24.640  27.236  1.00  0.00    -0.200 F 
ATOM     74  F   UNL A   1      41.387  25.523  25.118  1.00  0.00    -0.200 F 
ENDBRANCH  50  64
BRANCH  51  75
ATOM     75  C   UNL A   1      39.750  33.281  36.816  1.00  0.00     0.064 A 
ATOM     76  C   UNL A   1      40.450  34.474  37.046  1.00  0.00     0.173 A 
ATOM     77  C   UNL A   1      38.856  32.847  37.805  1.00  0.00     0.173 A 
ATOM     78  F   UNL A   1      41.331  34.919  36.138  1.00  0.00    -0.203 F 
ATOM     79  C   UNL A   1      40.278  35.192  38.228  1.00  0.00     0.198 A 
ATOM     80  C   UNL A   1      38.665  33.580  38.974  1.00  0.00     0.198 A 
ATOM     81  F   UNL A   1      38.160  31.714  37.631  1.00  0.00    -0.203 F 
ATOM     82  F   UNL A   1      40.992  36.306  38.441  1.00  0.00    -0.200 F 
ATOM     83  C   UNL A   1      39.382  34.748  39.187  1.00  0.00     0.200 A 
ATOM     84  F   UNL A   1      37.788  33.155  39.894  1.00  0.00    -0.200 F 
ATOM     85  F   UNL A   1      39.214  35.441  40.322  1.00  0.00    -0.200 F 
ENDBRANCH  51  75
BRANCH  63  86
ATOM     86  C   UNL A   1      44.493  28.584  34.820  1.00  0.00     0.064 A 
ATOM     87  C   UNL A   1      44.419  27.440  35.627  1.00  0.00     0.173 A 
ATOM     88  C   UNL A   1      45.751  29.173  34.624  1.00  0.00     0.173 A 
ATOM     89  F   UNL A   1      43.235  26.851  35.856  1.00  0.00    -0.203 F 
ATOM     90  C   UNL A   1      45.558  26.919  36.233  1.00  0.00     0.198 A 
ATOM     91  C   UNL A   1      46.893  28.632  35.210  1.00  0.00     0.198 A 
ATOM     92  F   UNL A   1      45.877  30.266  33.857  1.00  0.00    -0.203 F 
ATOM     93  F   UNL A   1      45.459  25.851  37.037  1.00  0.00    -0.200 F 
ATOM     94  C   UNL A   1      46.795  27.511  36.018  1.00  0.00     0.200 A 
ATOM     95  F   UNL A   1      48.088  29.198  34.992  1.00  0.00    -0.200 F 
ATOM     96  F   UNL A   1      47.892  27.003  36.598  1.00  0.00    -0.200 F 
ENDBRANCH  63  86
ENDBRANCH  37  38
ENDBRANCH  29  32
ENDBRANCH  27  28
ENDBRANCH  26  27
ENDBRANCH  25  26
ENDBRANCH  24  25
ENDBRANCH   1  24
TORSDOF 17
ENDMDL
MODEL 2
REMARK VINA RESULT:     -11.0      5.579      9.888
REMARK SMILES CSc1ccc(C[NH+]2CCC(CC(=O)NCCCCCCNC(=O)c3ccc(-c4c5nc(c(-c6c(F)c(F)c(F)c(F)c6F)c6ccc([nH]6)c(-c6c(F)c(F)c(F)c(F)c6F)c6nc(c(-c7c(F)c(F)c(F)c(F)c7F)c7ccc4[nH]7)C=C6)C=C5)cc3)CC2)cc1
REMARK SMILES IDX 17 1 16 2 15 3 13 4 14 5 12 7 11 8 8 9 9 10 89 11 10 13
REMARK SMILES IDX 88 14 7 15 6 16 3 17 4 18 91 19 5 20 90 21 2 22 1 23 18 24
REMARK SMILES IDX 19 25 20 26 21 27 22 28 23 29 24 31 25 32 26 33 87 34 27 35
REMARK SMILES IDX 86 36 28 37 29 38 30 39 80 40 31 41 85 42 79 43 81 44 32 45
REMARK SMILES IDX 84 46 78 47 77 48 33 50 65 51 45 52 64 53 46 54 49 55 63 56
REMARK SMILES IDX 82 57 47 58 48 59 62 61 83 62 50 63 34 64 35 65 43 66 36 67
REMARK SMILES IDX 37 68 41 69 44 70 38 71 39 72 42 73 40 74 66 75 67 76 75 77
REMARK SMILES IDX 68 78 69 79 73 80 76 81 70 82 71 83 74 84 72 85 51 86 52 87
REMARK SMILES IDX 60 88 53 89 54 90 58 91 61 92 55 93 56 94 59 95 57 96
REMARK H PARENT 15 6 8 12 22 30 81 49 49 60
REMARK Flexibility Score: inf
ROOT
ATOM      1  C   UNL A   1      36.246  20.979  25.508  1.00  0.00     0.021 C 
ENDROOT
BRANCH   1   2
ATOM      2  C   UNL A   1      35.846  19.765  24.658  1.00  0.00     0.116 C 
BRANCH   2   3
ATOM      3  N   UNL A   1      34.614  19.167  25.149  1.00  0.00    -0.356 N 
ATOM      4  C   UNL A   1      33.323  19.604  25.093  1.00  0.00     0.220 C 
ATOM      5  O   UNL A   1      32.463  18.940  25.676  1.00  0.00    -0.275 OA
ATOM      6  H   UNL A   1      34.733  18.298  25.597  1.00  0.00     0.163 HD
BRANCH   4   7
ATOM      7  C   UNL A   1      32.945  20.870  24.339  1.00  0.00     0.104 C 
BRANCH   7   8
ATOM      8  C   UNL A   1      32.987  22.139  25.212  1.00  0.00     0.009 C 
ATOM      9  N   UNL A   1      31.923  24.849  25.675  1.00  0.00    -0.331 N 
ATOM     10  C   UNL A   1      33.262  24.675  25.116  1.00  0.00     0.262 C 
ATOM     11  C   UNL A   1      31.608  23.762  26.609  1.00  0.00     0.262 C 
ATOM     12  H   UNL A   1      31.242  24.786  24.919  1.00  0.00     0.348 HD
ATOM     13  C   UNL A   1      33.375  23.357  24.379  1.00  0.00     0.066 C 
ATOM     14  C   UNL A   1      31.636  22.401  25.894  1.00  0.00     0.066 C 
BRANCH   9  15
ATOM     15  C   UNL A   1      31.734  26.199  26.244  1.00  0.00     0.299 C 
BRANCH  15  16
ATOM     16  C   UNL A   1      31.089  27.213  25.318  1.00  0.00     0.006 A 
ATOM     17  C   UNL A   1      30.148  29.032  23.379  1.00  0.00     0.007 A 
ATOM     18  C   UNL A   1      31.008  29.456  24.396  1.00  0.00     0.015 A 
ATOM     19  C   UNL A   1      29.741  27.695  23.351  1.00  0.00     0.015 A 
ATOM     20  C   UNL A   1      31.460  28.560  25.367  1.00  0.00     0.011 A 
ATOM     21  C   UNL A   1      30.200  26.794  24.316  1.00  0.00     0.011 A 
BRANCH  17  22
ATOM     22  S   UNL A   1      29.607  30.104  22.057  1.00  0.00    -0.130 SA
ATOM     23  C   UNL A   1      27.813  29.860  22.120  1.00  0.00     0.091 C 
ENDBRANCH  17  22
ENDBRANCH  15  16
ENDBRANCH   9  15
ENDBRANCH   7   8
ENDBRANCH   4   7
ENDBRANCH   2   3
ENDBRANCH   1   2
BRANCH   1  24
ATOM     24  C   UNL A   1      37.393  21.815  24.946  1.00  0.00     0.002 C 
BRANCH  24  25
ATOM     25  C   UNL A   1      38.470  22.205  25.959  1.00  0.00     0.002 C 
BRANCH  25  26
ATOM     26  C   UNL A   1      39.378  21.065  26.437  1.00  0.00     0.021 C 
BRANCH  26  27
ATOM     27  C   UNL A   1      39.620  19.948  25.422  1.00  0.00     0.116 C 
BRANCH  27  28
ATOM     28  N   UNL A   1      40.654  19.023  25.857  1.00  0.00    -0.352 N 
ATOM     29  C   UNL A   1      41.927  19.272  26.304  1.00  0.00     0.251 C 
ATOM     30  H   UNL A   1      40.402  18.072  25.827  1.00  0.00     0.163 HD
ATOM     31  O   UNL A   1      42.728  18.351  26.430  1.00  0.00    -0.269 OA
BRANCH  29  32
ATOM     32  C   UNL A   1      42.346  20.653  26.628  1.00  0.00     0.039 A 
ATOM     33  C   UNL A   1      42.762  21.491  25.590  1.00  0.00     0.014 A 
ATOM     34  C   UNL A   1      42.366  21.106  27.949  1.00  0.00     0.014 A 
ATOM     35  C   UNL A   1      43.145  22.805  25.872  1.00  0.00     0.010 A 
ATOM     36  C   UNL A   1      42.689  22.434  28.222  1.00  0.00     0.010 A 
ATOM     37  C   UNL A   1      43.085  23.295  27.186  1.00  0.00    -0.014 A 
BRANCH  37  38
ATOM     38  C   UNL A   1      43.438  24.703  27.498  1.00  0.00     0.031 A 
ATOM     39  C   UNL A   1      44.878  25.134  27.521  1.00  0.00     0.074 A 
ATOM     40  C   UNL A   1      42.466  25.575  27.825  1.00  0.00     0.049 A 
ATOM     41  N   UNL A   1      45.390  26.296  27.844  1.00  0.00    -0.248 NA
ATOM     42  C   UNL A   1      45.877  24.118  27.160  1.00  0.00     0.031 C 
ATOM     43  C   UNL A   1      41.037  25.265  27.884  1.00  0.00     0.029 A 
ATOM     44  N   UNL A   1      42.534  26.899  28.185  1.00  0.00    -0.354 N 
ATOM     45  C   UNL A   1      46.766  26.143  27.740  1.00  0.00     0.074 A 
ATOM     46  C   UNL A   1      47.013  24.766  27.371  1.00  0.00     0.031 C 
ATOM     47  C   UNL A   1      40.362  26.369  28.244  1.00  0.00     0.029 A 
ATOM     48  C   UNL A   1      41.311  27.455  28.473  1.00  0.00     0.049 A 
ATOM     49  H   UNL A   1      43.379  27.402  28.232  1.00  0.00     0.167 HD
ATOM     50  C   UNL A   1      47.735  27.073  27.917  1.00  0.00     0.037 A 
ATOM     51  C   UNL A   1      40.994  28.697  28.883  1.00  0.00     0.037 A 
ATOM     52  C   UNL A   1      47.484  28.450  28.255  1.00  0.00     0.049 A 
ATOM     53  C   UNL A   1      42.088  29.713  29.065  1.00  0.00     0.074 A 
ATOM     54  C   UNL A   1      48.392  29.485  28.390  1.00  0.00     0.029 A 
ATOM     55  N   UNL A   1      46.229  28.984  28.511  1.00  0.00    -0.354 N 
ATOM     56  N   UNL A   1      43.381  29.577  28.897  1.00  0.00    -0.248 NA
ATOM     57  C   UNL A   1      41.679  31.060  29.487  1.00  0.00     0.031 C 
ATOM     58  C   UNL A   1      47.692  30.636  28.769  1.00  0.00     0.029 A 
ATOM     59  C   UNL A   1      46.342  30.329  28.824  1.00  0.00     0.049 A 
ATOM     60  H   UNL A   1      45.383  28.481  28.476  1.00  0.00     0.167 HD
ATOM     61  C   UNL A   1      43.934  30.820  29.164  1.00  0.00     0.074 A 
ATOM     62  C   UNL A   1      42.836  31.705  29.492  1.00  0.00     0.031 C 
ATOM     63  C   UNL A   1      45.237  31.197  29.140  1.00  0.00     0.037 A 
BRANCH  50  64
ATOM     64  C   UNL A   1      49.160  26.635  27.748  1.00  0.00     0.064 A 
ATOM     65  C   UNL A   1      49.736  26.484  26.477  1.00  0.00     0.173 A 
ATOM     66  C   UNL A   1      49.972  26.399  28.867  1.00  0.00     0.173 A 
ATOM     67  F   UNL A   1      49.000  26.685  25.374  1.00  0.00    -0.203 F 
ATOM     68  C   UNL A   1      51.063  26.086  26.334  1.00  0.00     0.198 A 
ATOM     69  C   UNL A   1      51.307  26.031  28.721  1.00  0.00     0.198 A 
ATOM     70  F   UNL A   1      49.473  26.537  30.105  1.00  0.00    -0.203 F 
ATOM     71  F   UNL A   1      51.577  25.902  25.110  1.00  0.00    -0.200 F 
ATOM     72  C   UNL A   1      51.849  25.867  27.455  1.00  0.00     0.200 A 
ATOM     73  F   UNL A   1      52.068  25.832  29.806  1.00  0.00    -0.200 F 
ATOM     74  F   UNL A   1      53.128  25.492  27.316  1.00  0.00    -0.200 F 
ENDBRANCH  50  64
BRANCH  51  75
ATOM     75  C   UNL A   1      39.573  29.056  29.126  1.00  0.00     0.064 A 
ATOM     76  C   UNL A   1      38.747  29.477  28.074  1.00  0.00     0.173 A 
ATOM     77  C   UNL A   1      39.013  28.992  30.410  1.00  0.00     0.173 A 
ATOM     78  F   UNL A   1      39.244  29.573  26.832  1.00  0.00    -0.203 F 
ATOM     79  C   UNL A   1      37.421  29.838  28.301  1.00  0.00     0.198 A 
ATOM     80  C   UNL A   1      37.678  29.328  30.631  1.00  0.00     0.198 A 
ATOM     81  F   UNL A   1      39.759  28.593  31.450  1.00  0.00    -0.203 F 
ATOM     82  F   UNL A   1      36.666  30.278  27.284  1.00  0.00    -0.200 F 
ATOM     83  C   UNL A   1      36.886  29.758  29.577  1.00  0.00     0.200 A 
ATOM     84  F   UNL A   1      37.162  29.237  31.864  1.00  0.00    -0.200 F 
ATOM     85  F   UNL A   1      35.610  30.103  29.794  1.00  0.00    -0.200 F 
ENDBRANCH  51  75
BRANCH  63  86
ATOM     86  C   UNL A   1      45.542  32.634  29.445  1.00  0.00     0.064 A 
ATOM     87  C   UNL A   1      45.850  33.061  30.745  1.00  0.00     0.173 A 
ATOM     88  C   UNL A   1      45.566  33.587  28.416  1.00  0.00     0.173 A 
ATOM     89  F   UNL A   1      45.825  32.189  31.765  1.00  0.00    -0.203 F 
ATOM     90  C   UNL A   1      46.148  34.394  31.007  1.00  0.00     0.198 A 
ATOM     91  C   UNL A   1      45.892  34.915  28.677  1.00  0.00     0.198 A 
ATOM     92  F   UNL A   1      45.285  33.229  27.154  1.00  0.00    -0.203 F 
ATOM     93  F   UNL A   1      46.394  34.790  32.264  1.00  0.00    -0.200 F 
ATOM     94  C   UNL A   1      46.176  35.319  29.973  1.00  0.00     0.200 A 
ATOM     95  F   UNL A   1      45.931  35.804  27.675  1.00  0.00    -0.200 F 
ATOM     96  F   UNL A   1      46.470  36.602  30.227  1.00  0.00    -0.200 F 
ENDBRANCH  63  86
ENDBRANCH  37  38
ENDBRANCH  29  32
ENDBRANCH  27  28
ENDBRANCH  26  27
ENDBRANCH  25  26
ENDBRANCH  24  25
ENDBRANCH   1  24
TORSDOF 17
ENDMDL
MODEL 3
REMARK VINA RESULT:     -10.9      5.753     11.238
REMARK SMILES CSc1ccc(C[NH+]2CCC(CC(=O)NCCCCCCNC(=O)c3ccc(-c4c5nc(c(-c6c(F)c(F)c(F)c(F)c6F)c6ccc([nH]6)c(-c6c(F)c(F)c(F)c(F)c6F)c6nc(c(-c7c(F)c(F)c(F)c(F)c7F)c7ccc4[nH]7)C=C6)C=C5)cc3)CC2)cc1
REMARK SMILES IDX 17 1 16 2 15 3 13 4 14 5 12 7 11 8 8 9 9 10 89 11 10 13
REMARK SMILES IDX 88 14 7 15 6 16 3 17 4 18 91 19 5 20 90 21 2 22 1 23 18 24
REMARK SMILES IDX 19 25 20 26 21 27 22 28 23 29 24 31 25 32 26 33 87 34 27 35
REMARK SMILES IDX 86 36 28 37 29 38 30 39 80 40 31 41 85 42 79 43 81 44 32 45
REMARK SMILES IDX 84 46 78 47 77 48 33 50 65 51 45 52 64 53 46 54 49 55 63 56
REMARK SMILES IDX 82 57 47 58 48 59 62 61 83 62 50 63 34 64 35 65 43 66 36 67
REMARK SMILES IDX 37 68 41 69 44 70 38 71 39 72 42 73 40 74 66 75 67 76 75 77
REMARK SMILES IDX 68 78 69 79 73 80 76 81 70 82 71 83 74 84 72 85 51 86 52 87
REMARK SMILES IDX 60 88 53 89 54 90 58 91 61 92 55 93 56 94 59 95 57 96
REMARK H PARENT 15 6 8 12 22 30 81 49 49 60
REMARK Flexibility Score: inf
ROOT
ATOM      1  C   UNL A   1      36.248  21.009  25.516  1.00  0.00     0.021 C 
ENDROOT
BRANCH   1   2
ATOM      2  C   UNL A   1      35.847  19.774  24.697  1.00  0.00     0.116 C 
BRANCH   2   3
ATOM      3  N   UNL A   1      34.562  19.252  25.136  1.00  0.00    -0.356 N 
ATOM      4  C   UNL A   1      33.293  19.709  24.929  1.00  0.00     0.220 C 
ATOM      5  O   UNL A   1      32.369  19.122  25.497  1.00  0.00    -0.275 OA
ATOM      6  H   UNL A   1      34.618  18.428  25.673  1.00  0.00     0.163 HD
BRANCH   4   7
ATOM      7  C   UNL A   1      33.015  20.904  24.030  1.00  0.00     0.104 C 
BRANCH   7   8
ATOM      8  C   UNL A   1      33.321  22.258  24.698  1.00  0.00     0.009 C 
ATOM      9  N   UNL A   1      32.706  25.138  24.827  1.00  0.00    -0.331 N 
ATOM     10  C   UNL A   1      33.947  24.682  24.205  1.00  0.00     0.262 C 
ATOM     11  C   UNL A   1      32.327  24.251  25.934  1.00  0.00     0.262 C 
ATOM     12  H   UNL A   1      31.954  25.078  24.140  1.00  0.00     0.348 HD
ATOM     13  C   UNL A   1      33.799  23.275  23.666  1.00  0.00     0.066 C 
ATOM     14  C   UNL A   1      32.092  22.817  25.430  1.00  0.00     0.066 C 
BRANCH   9  15
ATOM     15  C   UNL A   1      32.766  26.566  25.200  1.00  0.00     0.299 C 
BRANCH  15  16
ATOM     16  C   UNL A   1      31.618  27.421  24.699  1.00  0.00     0.006 A 
ATOM     17  C   UNL A   1      29.638  29.000  23.459  1.00  0.00     0.007 A 
ATOM     18  C   UNL A   1      30.738  29.596  24.079  1.00  0.00     0.015 A 
ATOM     19  C   UNL A   1      29.520  27.607  23.482  1.00  0.00     0.015 A 
ATOM     20  C   UNL A   1      31.711  28.816  24.709  1.00  0.00     0.011 A 
ATOM     21  C   UNL A   1      30.496  26.824  24.104  1.00  0.00     0.011 A 
BRANCH  17  22
ATOM     22  S   UNL A   1      28.409  29.934  22.559  1.00  0.00    -0.130 SA
ATOM     23  C   UNL A   1      26.903  29.009  22.959  1.00  0.00     0.091 C 
ENDBRANCH  17  22
ENDBRANCH  15  16
ENDBRANCH   9  15
ENDBRANCH   7   8
ENDBRANCH   4   7
ENDBRANCH   2   3
ENDBRANCH   1   2
BRANCH   1  24
ATOM     24  C   UNL A   1      37.417  21.811  24.949  1.00  0.00     0.002 C 
BRANCH  24  25
ATOM     25  C   UNL A   1      38.478  22.223  25.971  1.00  0.00     0.002 C 
BRANCH  25  26
ATOM     26  C   UNL A   1      39.431  21.111  26.426  1.00  0.00     0.021 C 
BRANCH  26  27
ATOM     27  C   UNL A   1      39.639  19.975  25.426  1.00  0.00     0.116 C 
BRANCH  27  28
ATOM     28  N   UNL A   1      40.611  19.000  25.894  1.00  0.00    -0.352 N 
ATOM     29  C   UNL A   1      41.901  19.181  26.328  1.00  0.00     0.251 C 
ATOM     30  H   UNL A   1      40.296  18.068  25.903  1.00  0.00     0.163 HD
ATOM     31  O   UNL A   1      42.639  18.215  26.487  1.00  0.00    -0.269 OA
BRANCH  29  32
ATOM     32  C   UNL A   1      42.412  20.542  26.595  1.00  0.00     0.039 A 
ATOM     33  C   UNL A   1      42.941  21.284  25.534  1.00  0.00     0.014 A 
ATOM     34  C   UNL A   1      42.408  21.071  27.888  1.00  0.00     0.014 A 
ATOM     35  C   UNL A   1      43.413  22.579  25.762  1.00  0.00     0.010 A 
ATOM     36  C   UNL A   1      42.823  22.383  28.103  1.00  0.00     0.010 A 
ATOM     37  C   UNL A   1      43.333  23.149  27.042  1.00  0.00    -0.014 A 
BRANCH  37  38
ATOM     38  C   UNL A   1      43.781  24.542  27.293  1.00  0.00     0.031 A 
ATOM     39  C   UNL A   1      42.800  25.579  27.763  1.00  0.00     0.074 A 
ATOM     40  C   UNL A   1      45.057  24.887  27.034  1.00  0.00     0.049 A 
ATOM     41  N   UNL A   1      42.981  26.860  27.964  1.00  0.00    -0.248 NA
ATOM     42  C   UNL A   1      41.425  25.121  28.014  1.00  0.00     0.031 C 
ATOM     43  C   UNL A   1      46.091  23.982  26.530  1.00  0.00     0.029 A 
ATOM     44  N   UNL A   1      45.698  26.096  27.143  1.00  0.00    -0.354 N 
ATOM     45  C   UNL A   1      41.744  27.361  28.348  1.00  0.00     0.074 A 
ATOM     46  C   UNL A   1      40.809  26.257  28.306  1.00  0.00     0.031 C 
ATOM     47  C   UNL A   1      47.240  24.663  26.388  1.00  0.00     0.029 A 
ATOM     48  C   UNL A   1      47.016  26.058  26.758  1.00  0.00     0.049 A 
ATOM     49  H   UNL A   1      45.255  26.913  27.468  1.00  0.00     0.167 HD
ATOM     50  C   UNL A   1      41.422  28.623  28.720  1.00  0.00     0.037 A 
ATOM     51  C   UNL A   1      47.936  27.039  26.701  1.00  0.00     0.037 A 
ATOM     52  C   UNL A   1      42.361  29.712  28.789  1.00  0.00     0.049 A 
ATOM     53  C   UNL A   1      47.554  28.430  27.127  1.00  0.00     0.074 A 
ATOM     54  C   UNL A   1      42.149  31.010  29.219  1.00  0.00     0.029 A 
ATOM     55  N   UNL A   1      43.695  29.628  28.417  1.00  0.00    -0.354 N 
ATOM     56  N   UNL A   1      46.399  28.877  27.555  1.00  0.00    -0.248 NA
ATOM     57  C   UNL A   1      48.608  29.453  27.071  1.00  0.00     0.031 C 
ATOM     58  C   UNL A   1      43.343  31.723  29.068  1.00  0.00     0.029 A 
ATOM     59  C   UNL A   1      44.312  30.857  28.588  1.00  0.00     0.049 A 
ATOM     60  H   UNL A   1      44.139  28.815  28.081  1.00  0.00     0.167 HD
ATOM     61  C   UNL A   1      46.591  30.221  27.843  1.00  0.00     0.074 A 
ATOM     62  C   UNL A   1      47.979  30.515  27.556  1.00  0.00     0.031 C 
ATOM     63  C   UNL A   1      45.698  31.130  28.305  1.00  0.00     0.037 A 
BRANCH  50  64
ATOM     64  C   UNL A   1      39.993  28.897  29.085  1.00  0.00     0.064 A 
ATOM     65  C   UNL A   1      39.050  29.286  28.121  1.00  0.00     0.173 A 
ATOM     66  C   UNL A   1      39.549  28.732  30.405  1.00  0.00     0.173 A 
ATOM     67  F   UNL A   1      39.424  29.469  26.846  1.00  0.00    -0.203 F 
ATOM     68  C   UNL A   1      37.724  29.528  28.471  1.00  0.00     0.198 A 
ATOM     69  C   UNL A   1      38.216  28.945  30.747  1.00  0.00     0.198 A 
ATOM     70  F   UNL A   1      40.408  28.354  31.364  1.00  0.00    -0.203 F 
ATOM     71  F   UNL A   1      36.853  29.944  27.542  1.00  0.00    -0.200 F 
ATOM     72  C   UNL A   1      37.306  29.350  29.781  1.00  0.00     0.200 A 
ATOM     73  F   UNL A   1      37.812  28.760  32.011  1.00  0.00    -0.200 F 
ATOM     74  F   UNL A   1      36.029  29.574  30.116  1.00  0.00    -0.200 F 
ENDBRANCH  50  64
BRANCH  51  75
ATOM     75  C   UNL A   1      49.316  26.734  26.245  1.00  0.00     0.064 A 
ATOM     76  C   UNL A   1      50.281  26.256  27.143  1.00  0.00     0.173 A 
ATOM     77  C   UNL A   1      49.701  26.917  24.909  1.00  0.00     0.173 A 
ATOM     78  F   UNL A   1      49.966  26.084  28.434  1.00  0.00    -0.203 F 
ATOM     79  C   UNL A   1      51.584  25.992  26.725  1.00  0.00     0.198 A 
ATOM     80  C   UNL A   1      50.997  26.627  24.487  1.00  0.00     0.198 A 
ATOM     81  F   UNL A   1      48.814  27.368  24.010  1.00  0.00    -0.203 F 
ATOM     82  F   UNL A   1      52.498  25.578  27.613  1.00  0.00    -0.200 F 
ATOM     83  C   UNL A   1      51.939  26.172  25.397  1.00  0.00     0.200 A 
ATOM     84  F   UNL A   1      51.333  26.789  23.200  1.00  0.00    -0.200 F 
ATOM     85  F   UNL A   1      53.191  25.914  24.995  1.00  0.00    -0.200 F 
ENDBRANCH  51  75
BRANCH  63  86
ATOM     86  C   UNL A   1      46.202  32.520  28.559  1.00  0.00     0.064 A 
ATOM     87  C   UNL A   1      46.141  33.517  27.575  1.00  0.00     0.173 A 
ATOM     88  C   UNL A   1      46.715  32.868  29.818  1.00  0.00     0.173 A 
ATOM     89  F   UNL A   1      45.673  33.228  26.350  1.00  0.00    -0.203 F 
ATOM     90  C   UNL A   1      46.598  34.805  27.833  1.00  0.00     0.198 A 
ATOM     91  C   UNL A   1      47.145  34.166  30.082  1.00  0.00     0.198 A 
ATOM     92  F   UNL A   1      46.790  31.953  30.796  1.00  0.00    -0.203 F 
ATOM     93  F   UNL A   1      46.573  35.730  26.864  1.00  0.00    -0.200 F 
ATOM     94  C   UNL A   1      47.092  35.131  29.088  1.00  0.00     0.200 A 
ATOM     95  F   UNL A   1      47.611  34.482  31.298  1.00  0.00    -0.200 F 
ATOM     96  F   UNL A   1      47.525  36.375  29.337  1.00  0.00    -0.200 F 
ENDBRANCH  63  86
ENDBRANCH  37  38
ENDBRANCH  29  32
ENDBRANCH  27  28
ENDBRANCH  26  27
ENDBRANCH  25  26
ENDBRANCH  24  25
ENDBRANCH   1  24
TORSDOF 17
ENDMDL
