MODEL 1
REMARK VINA RESULT:     -13.3      0.000      0.000
REMARK SMILES Cc1cc2c(cc1C(=O)c1ccccc1C(=O)NCCCCCCNC(=O)c1ccc(-c3c4nc(c(-c5c(F)c(F)c(F)c(F)c5F)c5ccc([nH]5)c(-c5c(F)c(F)c(F)c(F)c5F)c5nc(c(-c6c(F)c(F)c(F)c(F)c6F)c6ccc3[nH]6)C=C5)C=C4)cc1)CCCC2
REMARK SMILES IDX 21 1 20 2 19 3 18 4 16 5 17 6 15 8 10 9 11 10 12 11 14 12
REMARK SMILES IDX 13 13 8 14 9 15 7 16 1 17 2 18 3 19 4 20 6 21 5 22 94 23
REMARK SMILES IDX 91 24 93 25 92 26 22 27 23 28 24 29 25 30 26 31 27 33 28 34
REMARK SMILES IDX 29 35 90 36 30 37 89 38 31 39 32 40 33 41 83 42 34 43 88 44
REMARK SMILES IDX 82 45 84 46 35 47 87 48 81 49 80 50 36 52 68 53 48 54 67 55
REMARK SMILES IDX 49 56 52 57 66 58 85 59 50 60 51 61 65 63 86 64 53 65 37 66
REMARK SMILES IDX 38 67 46 68 39 69 40 70 44 71 47 72 41 73 42 74 45 75 43 76
REMARK SMILES IDX 69 77 70 78 78 79 71 80 72 81 76 82 79 83 73 84 74 85 77 86
REMARK SMILES IDX 75 87 54 88 55 89 63 90 56 91 57 92 61 93 64 94 58 95 59 96
REMARK SMILES IDX 62 97 60 98
REMARK H PARENT 18 7 25 32 84 51 52 62
REMARK Flexibility Score: inf
ROOT
ATOM      1  C   UNL A   1      32.969  30.035  25.997  1.00  0.00     0.002 C 
ENDROOT
BRANCH   1   2
ATOM      2  C   UNL A   1      32.960  28.507  26.036  1.00  0.00     0.021 C 
BRANCH   2   3
ATOM      3  C   UNL A   1      32.372  27.804  27.256  1.00  0.00     0.116 C 
BRANCH   3   4
ATOM      4  N   UNL A   1      31.368  26.805  27.029  1.00  0.00    -0.352 N 
ATOM      5  C   UNL A   1      31.427  25.594  26.382  1.00  0.00     0.252 C 
ATOM      6  O   UNL A   1      30.388  24.924  26.425  1.00  0.00    -0.269 OA
ATOM      7  H   UNL A   1      30.483  27.025  27.401  1.00  0.00     0.163 HD
BRANCH   5   8
ATOM      8  C   UNL A   1      32.567  25.030  25.574  1.00  0.00     0.050 A 
ATOM      9  C   UNL A   1      32.825  25.084  24.193  1.00  0.00     0.035 A 
ATOM     10  C   UNL A   1      34.087  24.722  23.671  1.00  0.00     0.013 A 
ATOM     11  C   UNL A   1      35.066  24.169  24.487  1.00  0.00     0.001 A 
ATOM     12  C   UNL A   1      33.590  24.463  26.374  1.00  0.00     0.014 A 
ATOM     13  C   UNL A   1      34.807  24.017  25.841  1.00  0.00     0.001 A 
BRANCH   9  14
ATOM     14  C   UNL A   1      31.884  25.523  23.166  1.00  0.00     0.194 C 
ATOM     15  O   UNL A   1      31.501  24.670  22.369  1.00  0.00    -0.289 OA
BRANCH  14  16
ATOM     16  C   UNL A   1      31.410  26.963  23.070  1.00  0.00     0.026 A 
ATOM     17  C   UNL A   1      33.622  28.132  22.352  1.00  0.00     0.045 C 
ATOM     18  C   UNL A   1      32.148  28.093  22.640  1.00  0.00    -0.040 A 
ATOM     19  C   UNL A   1      31.469  29.312  22.427  1.00  0.00     0.008 A 
ATOM     20  C   UNL A   1      30.086  29.427  22.569  1.00  0.00    -0.044 A 
ATOM     21  C   UNL A   1      30.025  27.112  23.277  1.00  0.00     0.016 A 
ATOM     22  C   UNL A   1      29.362  28.317  23.012  1.00  0.00    -0.044 A 
ATOM     23  C   UNL A   1      29.422  30.754  22.284  1.00  0.00     0.036 C 
ATOM     24  C   UNL A   1      27.863  28.352  23.077  1.00  0.00     0.036 C 
ATOM     25  C   UNL A   1      27.912  30.640  22.097  1.00  0.00     0.005 C 
ATOM     26  C   UNL A   1      27.325  29.768  23.199  1.00  0.00     0.005 C 
ENDBRANCH  14  16
ENDBRANCH   9  14
ENDBRANCH   5   8
ENDBRANCH   3   4
ENDBRANCH   2   3
ENDBRANCH   1   2
BRANCH   1  27
ATOM     27  C   UNL A   1      31.630  30.774  25.908  1.00  0.00     0.002 C 
BRANCH  27  28
ATOM     28  C   UNL A   1      31.385  31.942  26.866  1.00  0.00     0.021 C 
BRANCH  28  29
ATOM     29  C   UNL A   1      32.583  32.817  27.241  1.00  0.00     0.116 C 
BRANCH  29  30
ATOM     30  N   UNL A   1      32.257  34.181  27.616  1.00  0.00    -0.352 N 
ATOM     31  C   UNL A   1      32.898  35.013  28.511  1.00  0.00     0.251 C 
ATOM     32  H   UNL A   1      31.468  34.566  27.171  1.00  0.00     0.163 HD
ATOM     33  O   UNL A   1      32.452  36.134  28.743  1.00  0.00    -0.269 OA
BRANCH  31  34
ATOM     34  C   UNL A   1      34.110  34.554  29.236  1.00  0.00     0.039 A 
ATOM     35  C   UNL A   1      35.372  34.620  28.652  1.00  0.00     0.014 A 
ATOM     36  C   UNL A   1      33.984  34.053  30.535  1.00  0.00     0.014 A 
ATOM     37  C   UNL A   1      36.467  34.038  29.302  1.00  0.00     0.010 A 
ATOM     38  C   UNL A   1      35.097  33.506  31.197  1.00  0.00     0.010 A 
ATOM     39  C   UNL A   1      36.346  33.421  30.560  1.00  0.00    -0.014 A 
BRANCH  39  40
ATOM     40  C   UNL A   1      37.485  32.633  31.150  1.00  0.00     0.031 A 
ATOM     41  C   UNL A   1      37.978  32.918  32.559  1.00  0.00     0.074 A 
ATOM     42  C   UNL A   1      38.052  31.604  30.485  1.00  0.00     0.049 A 
ATOM     43  N   UNL A   1      39.013  32.422  33.199  1.00  0.00    -0.248 NA
ATOM     44  C   UNL A   1      37.206  33.884  33.356  1.00  0.00     0.031 C 
ATOM     45  C   UNL A   1      37.668  31.143  29.152  1.00  0.00     0.029 A 
ATOM     46  N   UNL A   1      39.060  30.738  30.850  1.00  0.00    -0.354 N 
ATOM     47  C   UNL A   1      39.040  33.046  34.443  1.00  0.00     0.074 A 
ATOM     48  C   UNL A   1      37.927  33.970  34.467  1.00  0.00     0.031 C 
ATOM     49  C   UNL A   1      38.374  30.044  28.842  1.00  0.00     0.029 A 
ATOM     50  C   UNL A   1      39.341  29.781  29.903  1.00  0.00     0.049 A 
ATOM     51  H   UNL A   1      39.535  30.798  31.711  1.00  0.00     0.167 HD
ATOM     52  C   UNL A   1      39.899  32.864  35.476  1.00  0.00     0.037 A 
ATOM     53  C   UNL A   1      40.291  28.824  29.858  1.00  0.00     0.037 A 
ATOM     54  C   UNL A   1      40.979  31.909  35.496  1.00  0.00     0.049 A 
ATOM     55  C   UNL A   1      41.286  28.699  30.980  1.00  0.00     0.074 A 
ATOM     56  C   UNL A   1      41.898  31.668  36.506  1.00  0.00     0.029 A 
ATOM     57  N   UNL A   1      41.274  31.023  34.474  1.00  0.00    -0.354 N 
ATOM     58  N   UNL A   1      41.339  29.347  32.116  1.00  0.00    -0.248 NA
ATOM     59  C   UNL A   1      42.371  27.721  30.799  1.00  0.00     0.031 C 
ATOM     60  C   UNL A   1      42.774  30.668  36.078  1.00  0.00     0.029 A 
ATOM     61  C   UNL A   1      42.369  30.246  34.823  1.00  0.00     0.049 A 
ATOM     62  H   UNL A   1      40.780  30.954  33.625  1.00  0.00     0.167 HD
ATOM     63  C   UNL A   1      42.446  28.847  32.789  1.00  0.00     0.074 A 
ATOM     64  C   UNL A   1      43.025  27.824  31.948  1.00  0.00     0.031 C 
ATOM     65  C   UNL A   1      42.941  29.216  33.996  1.00  0.00     0.037 A 
BRANCH  52  66
ATOM     66  C   UNL A   1      39.730  33.722  36.701  1.00  0.00     0.064 A 
ATOM     67  C   UNL A   1      40.320  34.991  36.801  1.00  0.00     0.173 A 
ATOM     68  C   UNL A   1      38.875  33.314  37.739  1.00  0.00     0.173 A 
ATOM     69  F   UNL A   1      41.148  35.427  35.841  1.00  0.00    -0.203 F 
ATOM     70  C   UNL A   1      40.070  35.813  37.898  1.00  0.00     0.198 A 
ATOM     71  C   UNL A   1      38.603  34.151  38.818  1.00  0.00     0.198 A 
ATOM     72  F   UNL A   1      38.271  32.117  37.686  1.00  0.00    -0.203 F 
ATOM     73  F   UNL A   1      40.665  37.011  37.984  1.00  0.00    -0.200 F 
ATOM     74  C   UNL A   1      39.203  35.398  38.898  1.00  0.00     0.200 A 
ATOM     75  F   UNL A   1      37.748  33.756  39.772  1.00  0.00    -0.200 F 
ATOM     76  F   UNL A   1      38.943  36.202  39.939  1.00  0.00    -0.200 F 
ENDBRANCH  52  66
BRANCH  53  77
ATOM     77  C   UNL A   1      40.374  27.916  28.680  1.00  0.00     0.064 A 
ATOM     78  C   UNL A   1      41.098  28.283  27.537  1.00  0.00     0.173 A 
ATOM     79  C   UNL A   1      39.727  26.670  28.669  1.00  0.00     0.173 A 
ATOM     80  F   UNL A   1      41.704  29.478  27.483  1.00  0.00    -0.203 F 
ATOM     81  C   UNL A   1      41.169  27.440  26.429  1.00  0.00     0.198 A 
ATOM     82  C   UNL A   1      39.831  25.813  27.577  1.00  0.00     0.198 A 
ATOM     83  F   UNL A   1      39.013  26.274  29.733  1.00  0.00    -0.203 F 
ATOM     84  F   UNL A   1      41.831  27.834  25.333  1.00  0.00    -0.200 F 
ATOM     85  C   UNL A   1      40.546  26.201  26.454  1.00  0.00     0.200 A 
ATOM     86  F   UNL A   1      39.242  24.610  27.613  1.00  0.00    -0.200 F 
ATOM     87  F   UNL A   1      40.629  25.385  25.395  1.00  0.00    -0.200 F 
ENDBRANCH  53  77
BRANCH  65  88
ATOM     88  C   UNL A   1      44.153  28.491  34.509  1.00  0.00     0.064 A 
ATOM     89  C   UNL A   1      45.449  28.985  34.296  1.00  0.00     0.173 A 
ATOM     90  C   UNL A   1      44.015  27.322  35.272  1.00  0.00     0.173 A 
ATOM     91  F   UNL A   1      45.638  30.091  33.562  1.00  0.00    -0.203 F 
ATOM     92  C   UNL A   1      46.561  28.323  34.811  1.00  0.00     0.198 A 
ATOM     93  C   UNL A   1      45.126  26.680  35.812  1.00  0.00     0.198 A 
ATOM     94  F   UNL A   1      42.798  26.811  35.513  1.00  0.00    -0.203 F 
ATOM     95  F   UNL A   1      47.792  28.790  34.560  1.00  0.00    -0.200 F 
ATOM     96  C   UNL A   1      46.399  27.177  35.577  1.00  0.00     0.200 A 
ATOM     97  F   UNL A   1      44.966  25.582  36.563  1.00  0.00    -0.200 F 
ATOM     98  F   UNL A   1      47.469  26.549  36.081  1.00  0.00    -0.200 F 
ENDBRANCH  65  88
ENDBRANCH  39  40
ENDBRANCH  31  34
ENDBRANCH  29  30
ENDBRANCH  28  29
ENDBRANCH  27  28
ENDBRANCH   1  27
TORSDOF 15
ENDMDL
MODEL 2
REMARK VINA RESULT:     -13.1      1.293      3.519
REMARK SMILES Cc1cc2c(cc1C(=O)c1ccccc1C(=O)NCCCCCCNC(=O)c1ccc(-c3c4nc(c(-c5c(F)c(F)c(F)c(F)c5F)c5ccc([nH]5)c(-c5c(F)c(F)c(F)c(F)c5F)c5nc(c(-c6c(F)c(F)c(F)c(F)c6F)c6ccc3[nH]6)C=C5)C=C4)cc1)CCCC2
REMARK SMILES IDX 21 1 20 2 19 3 18 4 16 5 17 6 15 8 10 9 11 10 12 11 14 12
REMARK SMILES IDX 13 13 8 14 9 15 7 16 1 17 2 18 3 19 4 20 6 21 5 22 94 23
REMARK SMILES IDX 91 24 93 25 92 26 22 27 23 28 24 29 25 30 26 31 27 33 28 34
REMARK SMILES IDX 29 35 90 36 30 37 89 38 31 39 32 40 33 41 83 42 34 43 88 44
REMARK SMILES IDX 82 45 84 46 35 47 87 48 81 49 80 50 36 52 68 53 48 54 67 55
REMARK SMILES IDX 49 56 52 57 66 58 85 59 50 60 51 61 65 63 86 64 53 65 37 66
REMARK SMILES IDX 38 67 46 68 39 69 40 70 44 71 47 72 41 73 42 74 45 75 43 76
REMARK SMILES IDX 69 77 70 78 78 79 71 80 72 81 76 82 79 83 73 84 74 85 77 86
REMARK SMILES IDX 75 87 54 88 55 89 63 90 56 91 57 92 61 93 64 94 58 95 59 96
REMARK SMILES IDX 62 97 60 98
REMARK H PARENT 18 7 25 32 84 51 52 62
REMARK Flexibility Score: inf
ROOT
ATOM      1  C   UNL A   1      32.861  29.882  27.194  1.00  0.00     0.002 C 
ENDROOT
BRANCH   1   2
ATOM      2  C   UNL A   1      33.000  28.360  27.141  1.00  0.00     0.021 C 
BRANCH   2   3
ATOM      3  C   UNL A   1      33.994  27.745  26.160  1.00  0.00     0.116 C 
BRANCH   3   4
ATOM      4  N   UNL A   1      34.106  28.347  24.862  1.00  0.00    -0.352 N 
ATOM      5  C   UNL A   1      33.294  28.269  23.756  1.00  0.00     0.252 C 
ATOM      6  O   UNL A   1      33.637  28.978  22.801  1.00  0.00    -0.269 OA
ATOM      7  H   UNL A   1      34.903  28.913  24.743  1.00  0.00     0.163 HD
BRANCH   5   8
ATOM      8  C   UNL A   1      32.097  27.378  23.546  1.00  0.00     0.050 A 
ATOM      9  C   UNL A   1      32.015  26.037  23.133  1.00  0.00     0.035 A 
ATOM     10  C   UNL A   1      30.812  25.307  23.256  1.00  0.00     0.013 A 
ATOM     11  C   UNL A   1      29.637  25.929  23.660  1.00  0.00     0.001 A 
ATOM     12  C   UNL A   1      30.879  27.977  23.953  1.00  0.00     0.014 A 
ATOM     13  C   UNL A   1      29.666  27.276  23.986  1.00  0.00     0.001 A 
BRANCH   9  14
ATOM     14  C   UNL A   1      33.109  25.249  22.572  1.00  0.00     0.194 C 
ATOM     15  O   UNL A   1      33.515  25.581  21.462  1.00  0.00    -0.289 OA
BRANCH  14  16
ATOM     16  C   UNL A   1      33.710  24.066  23.312  1.00  0.00     0.026 A 
ATOM     17  C   UNL A   1      32.009  22.204  22.668  1.00  0.00     0.045 C 
ATOM     18  C   UNL A   1      33.275  22.718  23.293  1.00  0.00    -0.040 A 
ATOM     19  C   UNL A   1      34.089  21.728  23.885  1.00  0.00     0.008 A 
ATOM     20  C   UNL A   1      35.336  22.024  24.436  1.00  0.00    -0.044 A 
ATOM     21  C   UNL A   1      34.939  24.359  23.934  1.00  0.00     0.016 A 
ATOM     22  C   UNL A   1      35.755  23.356  24.472  1.00  0.00    -0.044 A 
ATOM     23  C   UNL A   1      36.171  20.906  25.016  1.00  0.00     0.036 C 
ATOM     24  C   UNL A   1      37.131  23.717  24.952  1.00  0.00     0.036 C 
ATOM     25  C   UNL A   1      37.633  21.293  25.218  1.00  0.00     0.005 C 
ATOM     26  C   UNL A   1      37.712  22.663  25.879  1.00  0.00     0.005 C 
ENDBRANCH  14  16
ENDBRANCH   9  14
ENDBRANCH   5   8
ENDBRANCH   3   4
ENDBRANCH   2   3
ENDBRANCH   1   2
BRANCH   1  27
ATOM     27  C   UNL A   1      31.680  30.536  26.472  1.00  0.00     0.002 C 
BRANCH  27  28
ATOM     28  C   UNL A   1      31.500  32.050  26.606  1.00  0.00     0.021 C 
BRANCH  28  29
ATOM     29  C   UNL A   1      32.631  32.845  27.263  1.00  0.00     0.116 C 
BRANCH  29  30
ATOM     30  N   UNL A   1      32.286  34.200  27.653  1.00  0.00    -0.352 N 
ATOM     31  C   UNL A   1      32.906  35.025  28.569  1.00  0.00     0.251 C 
ATOM     32  H   UNL A   1      31.500  34.584  27.201  1.00  0.00     0.163 HD
ATOM     33  O   UNL A   1      32.446  36.138  28.810  1.00  0.00    -0.269 OA
BRANCH  31  34
ATOM     34  C   UNL A   1      34.111  34.567  29.306  1.00  0.00     0.039 A 
ATOM     35  C   UNL A   1      35.379  34.634  28.734  1.00  0.00     0.014 A 
ATOM     36  C   UNL A   1      33.973  34.064  30.603  1.00  0.00     0.014 A 
ATOM     37  C   UNL A   1      36.468  34.053  29.395  1.00  0.00     0.010 A 
ATOM     38  C   UNL A   1      35.080  33.518  31.276  1.00  0.00     0.010 A 
ATOM     39  C   UNL A   1      36.335  33.434  30.651  1.00  0.00    -0.014 A 
BRANCH  39  40
ATOM     40  C   UNL A   1      37.469  32.647  31.252  1.00  0.00     0.031 A 
ATOM     41  C   UNL A   1      37.963  32.947  32.657  1.00  0.00     0.074 A 
ATOM     42  C   UNL A   1      38.029  31.606  30.600  1.00  0.00     0.049 A 
ATOM     43  N   UNL A   1      38.994  32.452  33.304  1.00  0.00    -0.248 NA
ATOM     44  C   UNL A   1      37.196  33.929  33.442  1.00  0.00     0.031 C 
ATOM     45  C   UNL A   1      37.643  31.129  29.273  1.00  0.00     0.029 A 
ATOM     46  N   UNL A   1      39.032  30.738  30.977  1.00  0.00    -0.354 N 
ATOM     47  C   UNL A   1      39.025  33.093  34.539  1.00  0.00     0.074 A 
ATOM     48  C   UNL A   1      37.918  34.024  34.551  1.00  0.00     0.031 C 
ATOM     49  C   UNL A   1      38.341  30.022  28.978  1.00  0.00     0.029 A 
ATOM     50  C   UNL A   1      39.307  29.767  30.043  1.00  0.00     0.049 A 
ATOM     51  H   UNL A   1      39.507  30.806  31.837  1.00  0.00     0.167 HD
ATOM     52  C   UNL A   1      39.883  32.919  35.576  1.00  0.00     0.037 A 
ATOM     53  C   UNL A   1      40.251  28.803  30.010  1.00  0.00     0.037 A 
ATOM     54  C   UNL A   1      40.956  31.957  35.609  1.00  0.00     0.049 A 
ATOM     55  C   UNL A   1      41.245  28.687  31.135  1.00  0.00     0.074 A 
ATOM     56  C   UNL A   1      41.873  31.724  36.622  1.00  0.00     0.029 A 
ATOM     57  N   UNL A   1      41.247  31.056  34.597  1.00  0.00    -0.354 N 
ATOM     58  N   UNL A   1      41.301  29.350  32.262  1.00  0.00    -0.248 NA
ATOM     59  C   UNL A   1      42.324  27.700  30.967  1.00  0.00     0.031 C 
ATOM     60  C   UNL A   1      42.744  30.713  36.207  1.00  0.00     0.029 A 
ATOM     61  C   UNL A   1      42.336  30.277  34.957  1.00  0.00     0.049 A 
ATOM     62  H   UNL A   1      40.752  30.979  33.750  1.00  0.00     0.167 HD
ATOM     63  C   UNL A   1      42.405  28.851  32.942  1.00  0.00     0.074 A 
ATOM     64  C   UNL A   1      42.977  27.813  32.114  1.00  0.00     0.031 C 
ATOM     65  C   UNL A   1      42.901  29.232  34.144  1.00  0.00     0.037 A 
BRANCH  52  66
ATOM     66  C   UNL A   1      39.718  33.794  36.789  1.00  0.00     0.064 A 
ATOM     67  C   UNL A   1      40.270  35.082  36.851  1.00  0.00     0.173 A 
ATOM     68  C   UNL A   1      38.906  33.378  37.858  1.00  0.00     0.173 A 
ATOM     69  F   UNL A   1      41.057  35.526  35.860  1.00  0.00    -0.203 F 
ATOM     70  C   UNL A   1      40.022  35.916  37.939  1.00  0.00     0.198 A 
ATOM     71  C   UNL A   1      38.636  34.226  38.928  1.00  0.00     0.198 A 
ATOM     72  F   UNL A   1      38.340  32.161  37.842  1.00  0.00    -0.203 F 
ATOM     73  F   UNL A   1      40.580  37.134  37.987  1.00  0.00    -0.200 F 
ATOM     74  C   UNL A   1      39.197  35.493  38.970  1.00  0.00     0.200 A 
ATOM     75  F   UNL A   1      37.820  33.822  39.912  1.00  0.00    -0.200 F 
ATOM     76  F   UNL A   1      38.938  36.307  40.003  1.00  0.00    -0.200 F 
ENDBRANCH  52  66
BRANCH  53  77
ATOM     77  C   UNL A   1      40.328  27.880  28.845  1.00  0.00     0.064 A 
ATOM     78  C   UNL A   1      41.035  28.237  27.688  1.00  0.00     0.173 A 
ATOM     79  C   UNL A   1      39.693  26.628  28.859  1.00  0.00     0.173 A 
ATOM     80  F   UNL A   1      41.629  29.437  27.610  1.00  0.00    -0.203 F 
ATOM     81  C   UNL A   1      41.101  27.379  26.591  1.00  0.00     0.198 A 
ATOM     82  C   UNL A   1      39.792  25.756  27.778  1.00  0.00     0.198 A 
ATOM     83  F   UNL A   1      38.995  26.241  29.936  1.00  0.00    -0.203 F 
ATOM     84  F   UNL A   1      41.747  27.764  25.482  1.00  0.00    -0.200 F 
ATOM     85  C   UNL A   1      40.490  26.135  26.641  1.00  0.00     0.200 A 
ATOM     86  F   UNL A   1      39.215  24.549  27.838  1.00  0.00    -0.200 F 
ATOM     87  F   UNL A   1      40.568  25.306  25.593  1.00  0.00    -0.200 F 
ENDBRANCH  53  77
BRANCH  65  88
ATOM     88  C   UNL A   1      44.109  28.507  34.667  1.00  0.00     0.064 A 
ATOM     89  C   UNL A   1      45.408  28.991  34.451  1.00  0.00     0.173 A 
ATOM     90  C   UNL A   1      43.963  27.347  35.443  1.00  0.00     0.173 A 
ATOM     91  F   UNL A   1      45.604  30.088  33.704  1.00  0.00    -0.203 F 
ATOM     92  C   UNL A   1      46.516  28.328  34.975  1.00  0.00     0.198 A 
ATOM     93  C   UNL A   1      45.070  26.705  35.992  1.00  0.00     0.198 A 
ATOM     94  F   UNL A   1      42.743  26.845  35.687  1.00  0.00    -0.203 F 
ATOM     95  F   UNL A   1      47.750  28.786  34.720  1.00  0.00    -0.200 F 
ATOM     96  C   UNL A   1      46.346  27.193  35.753  1.00  0.00     0.200 A 
ATOM     97  F   UNL A   1      44.903  25.616  36.755  1.00  0.00    -0.200 F 
ATOM     98  F   UNL A   1      47.412  26.564  36.266  1.00  0.00    -0.200 F 
ENDBRANCH  65  88
ENDBRANCH  39  40
ENDBRANCH  31  34
ENDBRANCH  29  30
ENDBRANCH  28  29
ENDBRANCH  27  28
ENDBRANCH   1  27
TORSDOF 15
ENDMDL
MODEL 3
REMARK VINA RESULT:     -13.0      0.454      1.624
REMARK SMILES Cc1cc2c(cc1C(=O)c1ccccc1C(=O)NCCCCCCNC(=O)c1ccc(-c3c4nc(c(-c5c(F)c(F)c(F)c(F)c5F)c5ccc([nH]5)c(-c5c(F)c(F)c(F)c(F)c5F)c5nc(c(-c6c(F)c(F)c(F)c(F)c6F)c6ccc3[nH]6)C=C5)C=C4)cc1)CCCC2
REMARK SMILES IDX 21 1 20 2 19 3 18 4 16 5 17 6 15 8 10 9 11 10 12 11 14 12
REMARK SMILES IDX 13 13 8 14 9 15 7 16 1 17 2 18 3 19 4 20 6 21 5 22 94 23
REMARK SMILES IDX 91 24 93 25 92 26 22 27 23 28 24 29 25 30 26 31 27 33 28 34
REMARK SMILES IDX 29 35 90 36 30 37 89 38 31 39 32 40 33 41 83 42 34 43 88 44
REMARK SMILES IDX 82 45 84 46 35 47 87 48 81 49 80 50 36 52 68 53 48 54 67 55
REMARK SMILES IDX 49 56 52 57 66 58 85 59 50 60 51 61 65 63 86 64 53 65 37 66
REMARK SMILES IDX 38 67 46 68 39 69 40 70 44 71 47 72 41 73 42 74 45 75 43 76
REMARK SMILES IDX 69 77 70 78 78 79 71 80 72 81 76 82 79 83 73 84 74 85 77 86
REMARK SMILES IDX 75 87 54 88 55 89 63 90 56 91 57 92 61 93 64 94 58 95 59 96
REMARK SMILES IDX 62 97 60 98
REMARK H PARENT 18 7 25 32 84 51 52 62
REMARK Flexibility Score: inf
ROOT
ATOM      1  C   UNL A   1      32.458  29.772  27.210  1.00  0.00     0.002 C 
ENDROOT
BRANCH   1   2
ATOM      2  C   UNL A   1      33.799  29.165  26.800  1.00  0.00     0.021 C 
BRANCH   2   3
ATOM      3  C   UNL A   1      33.828  27.735  26.269  1.00  0.00     0.116 C 
BRANCH   3   4
ATOM      4  N   UNL A   1      32.790  26.844  26.701  1.00  0.00    -0.352 N 
ATOM      5  C   UNL A   1      32.489  25.555  26.326  1.00  0.00     0.252 C 
ATOM      6  O   UNL A   1      31.560  25.030  26.952  1.00  0.00    -0.269 OA
ATOM      7  H   UNL A   1      32.188  27.220  27.383  1.00  0.00     0.163 HD
BRANCH   5   8
ATOM      8  C   UNL A   1      33.100  24.749  25.210  1.00  0.00     0.050 A 
ATOM      9  C   UNL A   1      32.732  24.631  23.859  1.00  0.00     0.035 A 
ATOM     10  C   UNL A   1      33.596  24.031  22.916  1.00  0.00     0.013 A 
ATOM     11  C   UNL A   1      34.775  23.415  23.318  1.00  0.00     0.001 A 
ATOM     12  C   UNL A   1      34.309  24.110  25.581  1.00  0.00     0.014 A 
ATOM     13  C   UNL A   1      35.120  23.433  24.661  1.00  0.00     0.001 A 
BRANCH   9  14
ATOM     14  C   UNL A   1      31.484  25.110  23.270  1.00  0.00     0.194 C 
ATOM     15  O   UNL A   1      30.721  24.256  22.826  1.00  0.00    -0.289 OA
BRANCH  14  16
ATOM     16  C   UNL A   1      31.147  26.589  23.189  1.00  0.00     0.026 A 
ATOM     17  C   UNL A   1      33.474  27.561  22.544  1.00  0.00     0.045 C 
ATOM     18  C   UNL A   1      31.996  27.653  22.798  1.00  0.00    -0.040 A 
ATOM     19  C   UNL A   1      31.437  28.933  22.591  1.00  0.00     0.008 A 
ATOM     20  C   UNL A   1      30.067  29.172  22.703  1.00  0.00    -0.044 A 
ATOM     21  C   UNL A   1      29.777  26.862  23.366  1.00  0.00     0.016 A 
ATOM     22  C   UNL A   1      29.234  28.127  23.109  1.00  0.00    -0.044 A 
ATOM     23  C   UNL A   1      29.535  30.559  22.428  1.00  0.00     0.036 C 
ATOM     24  C   UNL A   1      27.744  28.299  23.140  1.00  0.00     0.036 C 
ATOM     25  C   UNL A   1      28.026  30.588  22.204  1.00  0.00     0.005 C 
ATOM     26  C   UNL A   1      27.335  29.756  23.275  1.00  0.00     0.005 C 
ENDBRANCH  14  16
ENDBRANCH   9  14
ENDBRANCH   5   8
ENDBRANCH   3   4
ENDBRANCH   2   3
ENDBRANCH   1   2
BRANCH   1  27
ATOM     27  C   UNL A   1      31.709  30.646  26.200  1.00  0.00     0.002 C 
BRANCH  27  28
ATOM     28  C   UNL A   1      31.464  32.114  26.557  1.00  0.00     0.021 C 
BRANCH  28  29
ATOM     29  C   UNL A   1      32.569  32.857  27.309  1.00  0.00     0.116 C 
BRANCH  29  30
ATOM     30  N   UNL A   1      32.251  34.224  27.681  1.00  0.00    -0.352 N 
ATOM     31  C   UNL A   1      32.898  35.055  28.573  1.00  0.00     0.251 C 
ATOM     32  H   UNL A   1      31.465  34.612  27.235  1.00  0.00     0.163 HD
ATOM     33  O   UNL A   1      32.459  36.180  28.801  1.00  0.00    -0.269 OA
BRANCH  31  34
ATOM     34  C   UNL A   1      34.107  34.592  29.298  1.00  0.00     0.039 A 
ATOM     35  C   UNL A   1      35.369  34.639  28.709  1.00  0.00     0.014 A 
ATOM     36  C   UNL A   1      33.981  34.105  30.603  1.00  0.00     0.014 A 
ATOM     37  C   UNL A   1      36.459  34.052  29.363  1.00  0.00     0.010 A 
ATOM     38  C   UNL A   1      35.090  33.554  31.267  1.00  0.00     0.010 A 
ATOM     39  C   UNL A   1      36.337  33.449  30.627  1.00  0.00    -0.014 A 
BRANCH  39  40
ATOM     40  C   UNL A   1      37.469  32.656  31.222  1.00  0.00     0.031 A 
ATOM     41  C   UNL A   1      37.964  32.945  32.629  1.00  0.00     0.074 A 
ATOM     42  C   UNL A   1      38.028  31.619  30.562  1.00  0.00     0.049 A 
ATOM     43  N   UNL A   1      38.995  32.444  33.272  1.00  0.00    -0.248 NA
ATOM     44  C   UNL A   1      37.199  33.921  33.421  1.00  0.00     0.031 C 
ATOM     45  C   UNL A   1      37.641  31.153  29.231  1.00  0.00     0.029 A 
ATOM     46  N   UNL A   1      39.030  30.747  30.932  1.00  0.00    -0.354 N 
ATOM     47  C   UNL A   1      39.026  33.075  34.512  1.00  0.00     0.074 A 
ATOM     48  C   UNL A   1      37.921  34.008  34.531  1.00  0.00     0.031 C 
ATOM     49  C   UNL A   1      38.338  30.047  28.928  1.00  0.00     0.029 A 
ATOM     50  C   UNL A   1      39.304  29.783  29.990  1.00  0.00     0.049 A 
ATOM     51  H   UNL A   1      39.505  30.808  31.793  1.00  0.00     0.167 HD
ATOM     52  C   UNL A   1      39.884  32.892  35.547  1.00  0.00     0.037 A 
ATOM     53  C   UNL A   1      40.246  28.818  29.950  1.00  0.00     0.037 A 
ATOM     54  C   UNL A   1      40.957  31.928  35.572  1.00  0.00     0.049 A 
ATOM     55  C   UNL A   1      41.240  28.691  31.074  1.00  0.00     0.074 A 
ATOM     56  C   UNL A   1      41.874  31.686  36.583  1.00  0.00     0.029 A 
ATOM     57  N   UNL A   1      41.246  31.034  34.554  1.00  0.00    -0.354 N 
ATOM     58  N   UNL A   1      41.297  29.346  32.206  1.00  0.00    -0.248 NA
ATOM     59  C   UNL A   1      42.318  27.704  30.898  1.00  0.00     0.031 C 
ATOM     60  C   UNL A   1      42.743  30.677  36.160  1.00  0.00     0.029 A 
ATOM     61  C   UNL A   1      42.334  30.251  34.908  1.00  0.00     0.049 A 
ATOM     62  H   UNL A   1      40.751  30.964  33.706  1.00  0.00     0.167 HD
ATOM     63  C   UNL A   1      42.401  28.840  32.882  1.00  0.00     0.074 A 
ATOM     64  C   UNL A   1      42.971  27.808  32.046  1.00  0.00     0.031 C 
ATOM     65  C   UNL A   1      42.898  29.212  34.086  1.00  0.00     0.037 A 
BRANCH  52  66
ATOM     66  C   UNL A   1      39.721  33.758  36.767  1.00  0.00     0.064 A 
ATOM     67  C   UNL A   1      40.290  35.038  36.845  1.00  0.00     0.173 A 
ATOM     68  C   UNL A   1      38.894  33.343  37.824  1.00  0.00     0.173 A 
ATOM     69  F   UNL A   1      41.091  35.480  35.865  1.00  0.00    -0.203 F 
ATOM     70  C   UNL A   1      40.044  35.865  37.939  1.00  0.00     0.198 A 
ATOM     71  C   UNL A   1      38.627  34.185  38.901  1.00  0.00     0.198 A 
ATOM     72  F   UNL A   1      38.312  32.134  37.793  1.00  0.00    -0.203 F 
ATOM     73  F   UNL A   1      40.618  37.075  38.003  1.00  0.00    -0.200 F 
ATOM     74  C   UNL A   1      39.204  35.443  38.959  1.00  0.00     0.200 A 
ATOM     75  F   UNL A   1      37.797  33.783  39.874  1.00  0.00    -0.200 F 
ATOM     76  F   UNL A   1      38.948  36.252  39.997  1.00  0.00    -0.200 F 
ENDBRANCH  52  66
BRANCH  53  77
ATOM     77  C   UNL A   1      40.322  27.903  28.778  1.00  0.00     0.064 A 
ATOM     78  C   UNL A   1      39.668  26.663  28.788  1.00  0.00     0.173 A 
ATOM     79  C   UNL A   1      41.052  28.244  27.629  1.00  0.00     0.173 A 
ATOM     80  F   UNL A   1      38.986  26.274  29.875  1.00  0.00    -0.203 F 
ATOM     81  C   UNL A   1      39.745  25.800  27.696  1.00  0.00     0.198 A 
ATOM     82  C   UNL A   1      41.096  27.398  26.524  1.00  0.00     0.198 A 
ATOM     83  F   UNL A   1      41.704  29.415  27.570  1.00  0.00    -0.203 F 
ATOM     84  F   UNL A   1      39.147  24.602  27.749  1.00  0.00    -0.200 F 
ATOM     85  C   UNL A   1      40.448  26.173  26.561  1.00  0.00     0.200 A 
ATOM     86  F   UNL A   1      41.763  27.771  25.424  1.00  0.00    -0.200 F 
ATOM     87  F   UNL A   1      40.509  25.350  25.506  1.00  0.00    -0.200 F 
ENDBRANCH  53  77
BRANCH  65  88
ATOM     88  C   UNL A   1      44.105  28.481  34.604  1.00  0.00     0.064 A 
ATOM     89  C   UNL A   1      43.993  27.239  35.245  1.00  0.00     0.173 A 
ATOM     90  C   UNL A   1      45.393  29.001  34.405  1.00  0.00     0.173 A 
ATOM     91  F   UNL A   1      42.784  26.703  35.473  1.00  0.00    -0.203 F 
ATOM     92  C   UNL A   1      45.124  26.555  35.686  1.00  0.00     0.198 A 
ATOM     93  C   UNL A   1      46.523  28.301  34.818  1.00  0.00     0.198 A 
ATOM     94  F   UNL A   1      45.558  30.183  33.790  1.00  0.00    -0.203 F 
ATOM     95  F   UNL A   1      44.990  25.388  36.333  1.00  0.00    -0.200 F 
ATOM     96  C   UNL A   1      46.388  27.081  35.463  1.00  0.00     0.200 A 
ATOM     97  F   UNL A   1      47.743  28.804  34.589  1.00  0.00    -0.200 F 
ATOM     98  F   UNL A   1      47.475  26.415  35.876  1.00  0.00    -0.200 F 
ENDBRANCH  65  88
ENDBRANCH  39  40
ENDBRANCH  31  34
ENDBRANCH  29  30
ENDBRANCH  28  29
ENDBRANCH  27  28
ENDBRANCH   1  27
TORSDOF 15
ENDMDL
