MODEL 1
REMARK VINA RESULT:     -12.0      0.000      0.000
REMARK SMILES COc1ccc([C@H](C)NC(=O)c2cnn(C)c2C(=O)NCCCCCCNC(=O)c2ccc(-c3c4nc(c(-c5c(F)c(F)c(F)c(F)c5F)c5ccc([nH]5)c(-c5c(F)c(F)c(F)c(F)c5F)c5nc(c(-c6c(F)c(F)c(F)c(F)c6F)c6ccc3[nH]6)C=C5)C=C4)cc2)cc1
REMARK SMILES IDX 22 1 21 2 20 3 18 4 19 5 17 7 12 8 13 9 14 10 15 11 16 12
REMARK SMILES IDX 10 13 9 14 11 16 7 17 8 18 6 19 3 20 4 21 94 22 5 23 93 24
REMARK SMILES IDX 2 25 1 26 23 27 24 28 25 29 26 30 27 31 28 32 29 34 30 35
REMARK SMILES IDX 31 36 92 37 32 38 91 39 33 40 34 41 35 42 85 43 36 44 90 45
REMARK SMILES IDX 84 46 86 47 37 48 89 49 83 50 82 51 38 53 70 54 50 55 69 56
REMARK SMILES IDX 51 57 54 58 68 59 87 60 52 61 53 62 67 64 88 65 55 66 39 67
REMARK SMILES IDX 40 68 48 69 41 70 42 71 46 72 49 73 43 74 44 75 47 76 45 77
REMARK SMILES IDX 71 78 72 79 80 80 73 81 74 82 78 83 81 84 75 85 76 86 79 87
REMARK SMILES IDX 77 88 56 89 57 90 65 91 58 92 59 93 63 94 66 95 60 96 61 97
REMARK SMILES IDX 64 98 62 99
REMARK H PARENT 20 6 9 15 27 33 86 52 54 63
REMARK Flexibility Score: inf
ROOT
ATOM      1  C   UNL A   1      32.781  28.628  27.164  1.00  0.00     0.021 C 
ENDROOT
BRANCH   1   2
ATOM      2  C   UNL A   1      31.404  28.066  27.516  1.00  0.00     0.116 C 
BRANCH   2   3
ATOM      3  N   UNL A   1      31.194  26.740  26.995  1.00  0.00    -0.351 N 
ATOM      4  C   UNL A   1      31.020  26.155  25.775  1.00  0.00     0.270 C 
ATOM      5  O   UNL A   1      31.087  24.922  25.855  1.00  0.00    -0.268 OA
ATOM      6  H   UNL A   1      31.170  26.071  27.718  1.00  0.00     0.163 HD
BRANCH   4   7
ATOM      7  C   UNL A   1      30.770  26.789  24.490  1.00  0.00     0.138 A 
ATOM      8  C   UNL A   1      31.812  27.252  23.661  1.00  0.00     0.090 A 
ATOM      9  C   UNL A   1      31.201  28.081  22.708  1.00  0.00     0.149 A 
ATOM     10  N   UNL A   1      29.880  28.023  22.778  1.00  0.00    -0.180 NA
ATOM     11  N   UNL A   1      29.639  27.153  23.784  1.00  0.00    -0.262 N 
ATOM     12  C   UNL A   1      28.268  26.729  23.877  1.00  0.00     0.174 C 
BRANCH   8  13
ATOM     13  C   UNL A   1      33.246  27.079  23.788  1.00  0.00     0.255 C 
ATOM     14  N   UNL A   1      33.809  25.853  23.539  1.00  0.00    -0.345 N 
ATOM     15  H   UNL A   1      34.785  25.819  23.662  1.00  0.00     0.164 HD
ATOM     16  O   UNL A   1      33.989  28.034  24.000  1.00  0.00    -0.269 OA
BRANCH  14  17
ATOM     17  C   UNL A   1      33.204  24.592  23.124  1.00  0.00     0.109 C 
ATOM     18  C   UNL A   1      32.969  24.578  21.611  1.00  0.00     0.036 C 
BRANCH  17  19
ATOM     19  C   UNL A   1      34.071  23.424  23.568  1.00  0.00    -0.026 A 
ATOM     20  C   UNL A   1      35.678  21.367  24.626  1.00  0.00     0.118 A 
ATOM     21  C   UNL A   1      34.288  21.258  24.651  1.00  0.00     0.047 A 
ATOM     22  C   UNL A   1      36.269  22.461  24.002  1.00  0.00     0.047 A 
ATOM     23  C   UNL A   1      33.488  22.279  24.129  1.00  0.00     0.009 A 
ATOM     24  C   UNL A   1      35.472  23.480  23.475  1.00  0.00     0.009 A 
BRANCH  20  25
ATOM     25  O   UNL A   1      36.369  20.342  25.213  1.00  0.00    -0.497 OA
ATOM     26  C   UNL A   1      37.779  20.390  25.000  1.00  0.00     0.278 C 
ENDBRANCH  20  25
ENDBRANCH  17  19
ENDBRANCH  14  17
ENDBRANCH   8  13
ENDBRANCH   4   7
ENDBRANCH   2   3
ENDBRANCH   1   2
BRANCH   1  27
ATOM     27  C   UNL A   1      32.824  30.150  26.966  1.00  0.00     0.002 C 
BRANCH  27  28
ATOM     28  C   UNL A   1      31.526  30.805  26.477  1.00  0.00     0.002 C 
BRANCH  28  29
ATOM     29  C   UNL A   1      31.398  32.308  26.739  1.00  0.00     0.021 C 
BRANCH  29  30
ATOM     30  C   UNL A   1      32.703  33.012  27.094  1.00  0.00     0.116 C 
BRANCH  30  31
ATOM     31  N   UNL A   1      32.476  34.346  27.625  1.00  0.00    -0.352 N 
ATOM     32  C   UNL A   1      33.027  34.958  28.722  1.00  0.00     0.251 C 
ATOM     33  H   UNL A   1      31.828  34.892  27.124  1.00  0.00     0.163 HD
ATOM     34  O   UNL A   1      32.557  36.016  29.135  1.00  0.00    -0.269 OA
BRANCH  32  35
ATOM     35  C   UNL A   1      34.181  34.353  29.422  1.00  0.00     0.039 A 
ATOM     36  C   UNL A   1      33.953  33.623  30.593  1.00  0.00     0.014 A 
ATOM     37  C   UNL A   1      35.488  34.539  28.960  1.00  0.00     0.014 A 
ATOM     38  C   UNL A   1      35.027  33.042  31.274  1.00  0.00     0.010 A 
ATOM     39  C   UNL A   1      36.551  33.909  29.605  1.00  0.00     0.010 A 
ATOM     40  C   UNL A   1      36.332  33.162  30.773  1.00  0.00    -0.014 A 
BRANCH  40  41
ATOM     41  C   UNL A   1      37.482  32.528  31.465  1.00  0.00     0.031 A 
ATOM     42  C   UNL A   1      38.210  31.380  30.823  1.00  0.00     0.074 A 
ATOM     43  C   UNL A   1      37.832  32.942  32.697  1.00  0.00     0.049 A 
ATOM     44  N   UNL A   1      39.189  30.650  31.295  1.00  0.00    -0.248 NA
ATOM     45  C   UNL A   1      37.758  30.982  29.480  1.00  0.00     0.031 C 
ATOM     46  C   UNL A   1      37.181  34.019  33.443  1.00  0.00     0.029 A 
ATOM     47  N   UNL A   1      38.817  32.499  33.545  1.00  0.00    -0.354 N 
ATOM     48  C   UNL A   1      39.453  29.695  30.322  1.00  0.00     0.074 A 
ATOM     49  C   UNL A   1      38.506  29.911  29.250  1.00  0.00     0.031 C 
ATOM     50  C   UNL A   1      37.796  34.168  34.627  1.00  0.00     0.029 A 
ATOM     51  C   UNL A   1      38.863  33.177  34.737  1.00  0.00     0.049 A 
ATOM     52  H   UNL A   1      39.431  31.763  33.318  1.00  0.00     0.167 HD
ATOM     53  C   UNL A   1      40.410  28.736  30.316  1.00  0.00     0.037 A 
ATOM     54  C   UNL A   1      39.674  33.016  35.799  1.00  0.00     0.037 A 
ATOM     55  C   UNL A   1      41.379  28.550  31.364  1.00  0.00     0.049 A 
ATOM     56  C   UNL A   1      40.735  31.949  35.764  1.00  0.00     0.074 A 
ATOM     57  C   UNL A   1      42.439  27.662  31.413  1.00  0.00     0.029 A 
ATOM     58  N   UNL A   1      41.404  29.268  32.551  1.00  0.00    -0.354 N 
ATOM     59  N   UNL A   1      41.019  31.098  34.809  1.00  0.00    -0.248 NA
ATOM     60  C   UNL A   1      41.589  31.826  36.953  1.00  0.00     0.031 C 
ATOM     61  C   UNL A   1      43.082  27.815  32.646  1.00  0.00     0.029 A 
ATOM     62  C   UNL A   1      42.448  28.828  33.348  1.00  0.00     0.049 A 
ATOM     63  H   UNL A   1      40.773  29.984  32.791  1.00  0.00     0.167 HD
ATOM     64  C   UNL A   1      42.101  30.360  35.266  1.00  0.00     0.074 A 
ATOM     65  C   UNL A   1      42.428  30.868  36.583  1.00  0.00     0.031 C 
ATOM     66  C   UNL A   1      42.766  29.352  34.651  1.00  0.00     0.037 A 
BRANCH  53  67
ATOM     67  C   UNL A   1      40.455  27.809  29.137  1.00  0.00     0.064 A 
ATOM     68  C   UNL A   1      41.274  28.068  28.027  1.00  0.00     0.173 A 
ATOM     69  C   UNL A   1      39.694  26.631  29.130  1.00  0.00     0.173 A 
ATOM     70  F   UNL A   1      42.012  29.188  27.979  1.00  0.00    -0.203 F 
ATOM     71  C   UNL A   1      41.304  27.198  26.941  1.00  0.00     0.198 A 
ATOM     72  C   UNL A   1      39.749  25.748  28.055  1.00  0.00     0.198 A 
ATOM     73  F   UNL A   1      38.900  26.333  30.169  1.00  0.00    -0.203 F 
ATOM     74  F   UNL A   1      42.055  27.491  25.870  1.00  0.00    -0.200 F 
ATOM     75  C   UNL A   1      40.547  26.035  26.958  1.00  0.00     0.200 A 
ATOM     76  F   UNL A   1      39.025  24.621  28.077  1.00  0.00    -0.200 F 
ATOM     77  F   UNL A   1      40.580  25.196  25.914  1.00  0.00    -0.200 F 
ENDBRANCH  53  67
BRANCH  54  78
ATOM     78  C   UNL A   1      39.540  33.912  36.976  1.00  0.00     0.064 A 
ATOM     79  C   UNL A   1      38.779  33.524  38.087  1.00  0.00     0.173 A 
ATOM     80  C   UNL A   1      40.167  35.166  37.018  1.00  0.00     0.173 A 
ATOM     81  F   UNL A   1      38.144  32.343  38.083  1.00  0.00    -0.203 F 
ATOM     82  C   UNL A   1      38.637  34.362  39.190  1.00  0.00     0.198 A 
ATOM     83  C   UNL A   1      40.044  35.993  38.132  1.00  0.00     0.198 A 
ATOM     84  F   UNL A   1      40.909  35.581  35.981  1.00  0.00    -0.203 F 
ATOM     85  F   UNL A   1      37.872  33.982  40.222  1.00  0.00    -0.200 F 
ATOM     86  C   UNL A   1      39.273  35.594  39.214  1.00  0.00     0.200 A 
ATOM     87  F   UNL A   1      40.670  37.177  38.157  1.00  0.00    -0.200 F 
ATOM     88  F   UNL A   1      39.140  36.399  40.277  1.00  0.00    -0.200 F 
ENDBRANCH  54  78
BRANCH  66  89
ATOM     89  C   UNL A   1      43.936  28.757  35.377  1.00  0.00     0.064 A 
ATOM     90  C   UNL A   1      45.219  29.312  35.278  1.00  0.00     0.173 A 
ATOM     91  C   UNL A   1      43.763  27.640  36.208  1.00  0.00     0.173 A 
ATOM     92  F   UNL A   1      45.438  30.370  34.483  1.00  0.00    -0.203 F 
ATOM     93  C   UNL A   1      46.293  28.758  35.970  1.00  0.00     0.198 A 
ATOM     94  C   UNL A   1      44.832  27.105  36.919  1.00  0.00     0.198 A 
ATOM     95  F   UNL A   1      42.552  27.076  36.339  1.00  0.00    -0.203 F 
ATOM     96  F   UNL A   1      47.519  29.278  35.830  1.00  0.00    -0.200 F 
ATOM     97  C   UNL A   1      46.097  27.659  36.795  1.00  0.00     0.200 A 
ATOM     98  F   UNL A   1      44.639  26.050  37.723  1.00  0.00    -0.200 F 
ATOM     99  F   UNL A   1      47.130  27.130  37.465  1.00  0.00    -0.200 F 
ENDBRANCH  66  89
ENDBRANCH  40  41
ENDBRANCH  32  35
ENDBRANCH  30  31
ENDBRANCH  29  30
ENDBRANCH  28  29
ENDBRANCH  27  28
ENDBRANCH   1  27
TORSDOF 17
ENDMDL
MODEL 2
REMARK VINA RESULT:     -12.0      1.625      2.762
REMARK SMILES COc1ccc([C@H](C)NC(=O)c2cnn(C)c2C(=O)NCCCCCCNC(=O)c2ccc(-c3c4nc(c(-c5c(F)c(F)c(F)c(F)c5F)c5ccc([nH]5)c(-c5c(F)c(F)c(F)c(F)c5F)c5nc(c(-c6c(F)c(F)c(F)c(F)c6F)c6ccc3[nH]6)C=C5)C=C4)cc2)cc1
REMARK SMILES IDX 22 1 21 2 20 3 18 4 19 5 17 7 12 8 13 9 14 10 15 11 16 12
REMARK SMILES IDX 10 13 9 14 11 16 7 17 8 18 6 19 3 20 4 21 94 22 5 23 93 24
REMARK SMILES IDX 2 25 1 26 23 27 24 28 25 29 26 30 27 31 28 32 29 34 30 35
REMARK SMILES IDX 31 36 92 37 32 38 91 39 33 40 34 41 35 42 85 43 36 44 90 45
REMARK SMILES IDX 84 46 86 47 37 48 89 49 83 50 82 51 38 53 70 54 50 55 69 56
REMARK SMILES IDX 51 57 54 58 68 59 87 60 52 61 53 62 67 64 88 65 55 66 39 67
REMARK SMILES IDX 40 68 48 69 41 70 42 71 46 72 49 73 43 74 44 75 47 76 45 77
REMARK SMILES IDX 71 78 72 79 80 80 73 81 74 82 78 83 81 84 75 85 76 86 79 87
REMARK SMILES IDX 77 88 56 89 57 90 65 91 58 92 59 93 63 94 66 95 60 96 61 97
REMARK SMILES IDX 64 98 62 99
REMARK H PARENT 20 6 9 15 27 33 86 52 54 63
REMARK Flexibility Score: inf
ROOT
ATOM      1  C   UNL A   1      32.984  28.825  26.252  1.00  0.00     0.021 C 
ENDROOT
BRANCH   1   2
ATOM      2  C   UNL A   1      32.705  27.394  26.708  1.00  0.00     0.116 C 
BRANCH   2   3
ATOM      3  N   UNL A   1      33.617  26.438  26.134  1.00  0.00    -0.351 N 
ATOM      4  C   UNL A   1      33.555  25.375  25.282  1.00  0.00     0.270 C 
ATOM      5  O   UNL A   1      34.686  25.007  24.939  1.00  0.00    -0.268 OA
ATOM      6  H   UNL A   1      34.540  26.597  26.440  1.00  0.00     0.163 HD
BRANCH   4   7
ATOM      7  C   UNL A   1      32.380  24.676  24.785  1.00  0.00     0.138 A 
ATOM      8  C   UNL A   1      31.992  23.410  25.270  1.00  0.00     0.090 A 
ATOM      9  C   UNL A   1      31.055  22.920  24.350  1.00  0.00     0.149 A 
ATOM     10  N   UNL A   1      30.714  23.837  23.457  1.00  0.00    -0.180 NA
ATOM     11  N   UNL A   1      31.439  24.922  23.804  1.00  0.00    -0.262 N 
ATOM     12  C   UNL A   1      31.043  26.131  23.131  1.00  0.00     0.174 C 
BRANCH   8  13
ATOM     13  C   UNL A   1      32.513  22.645  26.386  1.00  0.00     0.255 C 
ATOM     14  N   UNL A   1      33.487  21.703  26.173  1.00  0.00    -0.345 N 
ATOM     15  H   UNL A   1      33.775  21.221  26.981  1.00  0.00     0.164 HD
ATOM     16  O   UNL A   1      32.189  22.901  27.544  1.00  0.00    -0.269 OA
BRANCH  14  17
ATOM     17  C   UNL A   1      34.168  21.297  24.947  1.00  0.00     0.109 C 
ATOM     18  C   UNL A   1      35.657  21.641  25.017  1.00  0.00     0.036 C 
BRANCH  17  19
ATOM     19  C   UNL A   1      33.946  19.814  24.693  1.00  0.00    -0.026 A 
ATOM     20  C   UNL A   1      33.529  17.036  24.478  1.00  0.00     0.118 A 
ATOM     21  C   UNL A   1      32.443  17.909  24.527  1.00  0.00     0.047 A 
ATOM     22  C   UNL A   1      34.822  17.550  24.453  1.00  0.00     0.047 A 
ATOM     23  C   UNL A   1      32.648  19.288  24.638  1.00  0.00     0.009 A 
ATOM     24  C   UNL A   1      35.028  18.928  24.557  1.00  0.00     0.009 A 
BRANCH  20  25
ATOM     25  O   UNL A   1      33.223  15.703  24.428  1.00  0.00    -0.497 OA
ATOM     26  C   UNL A   1      32.527  15.219  25.575  1.00  0.00     0.278 C 
ENDBRANCH  20  25
ENDBRANCH  17  19
ENDBRANCH  14  17
ENDBRANCH   8  13
ENDBRANCH   4   7
ENDBRANCH   2   3
ENDBRANCH   1   2
BRANCH   1  27
ATOM     27  C   UNL A   1      32.139  29.901  26.950  1.00  0.00     0.002 C 
BRANCH  27  28
ATOM     28  C   UNL A   1      31.351  30.843  26.030  1.00  0.00     0.002 C 
BRANCH  28  29
ATOM     29  C   UNL A   1      31.296  32.309  26.468  1.00  0.00     0.021 C 
BRANCH  29  30
ATOM     30  C   UNL A   1      32.590  32.851  27.066  1.00  0.00     0.116 C 
BRANCH  30  31
ATOM     31  N   UNL A   1      32.429  34.199  27.585  1.00  0.00    -0.352 N 
ATOM     32  C   UNL A   1      33.046  34.809  28.646  1.00  0.00     0.251 C 
ATOM     33  H   UNL A   1      31.777  34.758  27.103  1.00  0.00     0.163 HD
ATOM     34  O   UNL A   1      32.629  35.888  29.063  1.00  0.00    -0.269 OA
BRANCH  32  35
ATOM     35  C   UNL A   1      34.211  34.177  29.305  1.00  0.00     0.039 A 
ATOM     36  C   UNL A   1      35.496  34.503  28.862  1.00  0.00     0.014 A 
ATOM     37  C   UNL A   1      34.042  33.231  30.321  1.00  0.00     0.014 A 
ATOM     38  C   UNL A   1      36.613  33.918  29.467  1.00  0.00     0.010 A 
ATOM     39  C   UNL A   1      35.156  32.694  30.964  1.00  0.00     0.010 A 
ATOM     40  C   UNL A   1      36.451  33.025  30.538  1.00  0.00    -0.014 A 
BRANCH  40  41
ATOM     41  C   UNL A   1      37.625  32.416  31.213  1.00  0.00     0.031 A 
ATOM     42  C   UNL A   1      38.405  31.326  30.533  1.00  0.00     0.074 A 
ATOM     43  C   UNL A   1      37.949  32.797  32.463  1.00  0.00     0.049 A 
ATOM     44  N   UNL A   1      39.414  30.622  30.984  1.00  0.00    -0.248 NA
ATOM     45  C   UNL A   1      37.979  30.960  29.173  1.00  0.00     0.031 C 
ATOM     46  C   UNL A   1      37.248  33.816  33.244  1.00  0.00     0.029 A 
ATOM     47  N   UNL A   1      38.948  32.366  33.300  1.00  0.00    -0.354 N 
ATOM     48  C   UNL A   1      39.724  29.717  29.978  1.00  0.00     0.074 A 
ATOM     49  C   UNL A   1      38.774  29.933  28.908  1.00  0.00     0.031 C 
ATOM     50  C   UNL A   1      37.850  33.946  34.437  1.00  0.00     0.029 A 
ATOM     51  C   UNL A   1      38.958  32.999  34.517  1.00  0.00     0.049 A 
ATOM     52  H   UNL A   1      39.596  31.667  33.050  1.00  0.00     0.167 HD
ATOM     53  C   UNL A   1      40.723  28.802  29.942  1.00  0.00     0.037 A 
ATOM     54  C   UNL A   1      39.770  32.834  35.578  1.00  0.00     0.037 A 
ATOM     55  C   UNL A   1      41.693  28.620  30.988  1.00  0.00     0.049 A 
ATOM     56  C   UNL A   1      40.877  31.817  35.509  1.00  0.00     0.074 A 
ATOM     57  C   UNL A   1      42.791  27.777  31.011  1.00  0.00     0.029 A 
ATOM     58  N   UNL A   1      41.681  29.292  32.202  1.00  0.00    -0.354 N 
ATOM     59  N   UNL A   1      41.204  31.016  34.525  1.00  0.00    -0.248 NA
ATOM     60  C   UNL A   1      41.730  31.686  36.698  1.00  0.00     0.031 C 
ATOM     61  C   UNL A   1      43.421  27.912  32.253  1.00  0.00     0.029 A 
ATOM     62  C   UNL A   1      42.739  28.868  32.989  1.00  0.00     0.049 A 
ATOM     63  H   UNL A   1      41.017  29.970  32.465  1.00  0.00     0.167 HD
ATOM     64  C   UNL A   1      42.315  30.309  34.961  1.00  0.00     0.074 A 
ATOM     65  C   UNL A   1      42.613  30.781  36.298  1.00  0.00     0.031 C 
ATOM     66  C   UNL A   1      43.027  29.355  34.313  1.00  0.00     0.037 A 
BRANCH  53  67
ATOM     67  C   UNL A   1      40.815  27.925  28.729  1.00  0.00     0.064 A 
ATOM     68  C   UNL A   1      40.095  26.724  28.631  1.00  0.00     0.173 A 
ATOM     69  C   UNL A   1      41.609  28.304  27.636  1.00  0.00     0.173 A 
ATOM     70  F   UNL A   1      39.331  26.310  29.653  1.00  0.00    -0.203 F 
ATOM     71  C   UNL A   1      40.192  25.921  27.498  1.00  0.00     0.198 A 
ATOM     72  C   UNL A   1      41.681  27.513  26.493  1.00  0.00     0.198 A 
ATOM     73  F   UNL A   1      42.313  29.446  27.675  1.00  0.00    -0.203 F 
ATOM     74  F   UNL A   1      39.534  24.754  27.447  1.00  0.00    -0.200 F 
ATOM     75  C   UNL A   1      40.980  26.319  26.427  1.00  0.00     0.200 A 
ATOM     76  F   UNL A   1      42.434  27.903  25.455  1.00  0.00    -0.200 F 
ATOM     77  F   UNL A   1      41.069  25.547  25.335  1.00  0.00    -0.200 F 
ENDBRANCH  53  67
BRANCH  54  78
ATOM     78  C   UNL A   1      39.592  33.678  36.787  1.00  0.00     0.064 A 
ATOM     79  C   UNL A   1      40.211  34.932  36.879  1.00  0.00     0.173 A 
ATOM     80  C   UNL A   1      38.803  33.257  37.866  1.00  0.00     0.173 A 
ATOM     81  F   UNL A   1      40.992  35.368  35.880  1.00  0.00    -0.203 F 
ATOM     82  C   UNL A   1      40.061  35.726  38.013  1.00  0.00     0.198 A 
ATOM     83  C   UNL A   1      38.634  34.062  38.990  1.00  0.00     0.198 A 
ATOM     84  F   UNL A   1      38.187  32.066  37.824  1.00  0.00    -0.203 F 
ATOM     85  F   UNL A   1      40.696  36.904  38.092  1.00  0.00    -0.200 F 
ATOM     86  C   UNL A   1      39.269  35.294  39.066  1.00  0.00     0.200 A 
ATOM     87  F   UNL A   1      37.858  33.647  40.000  1.00  0.00    -0.200 F 
ATOM     88  F   UNL A   1      39.121  36.060  40.155  1.00  0.00    -0.200 F 
ENDBRANCH  54  78
BRANCH  66  89
ATOM     89  C   UNL A   1      44.219  28.786  35.023  1.00  0.00     0.064 A 
ATOM     90  C   UNL A   1      45.485  29.378  34.923  1.00  0.00     0.173 A 
ATOM     91  C   UNL A   1      44.083  27.654  35.842  1.00  0.00     0.173 A 
ATOM     92  F   UNL A   1      45.668  30.452  34.139  1.00  0.00    -0.203 F 
ATOM     93  C   UNL A   1      46.579  28.846  35.601  1.00  0.00     0.198 A 
ATOM     94  C   UNL A   1      45.172  27.141  36.539  1.00  0.00     0.198 A 
ATOM     95  F   UNL A   1      42.890  27.054  35.973  1.00  0.00    -0.203 F 
ATOM     96  F   UNL A   1      47.789  29.402  35.459  1.00  0.00    -0.200 F 
ATOM     97  C   UNL A   1      46.420  27.732  36.414  1.00  0.00     0.200 A 
ATOM     98  F   UNL A   1      45.015  26.071  37.331  1.00  0.00    -0.200 F 
ATOM     99  F   UNL A   1      47.472  27.225  37.070  1.00  0.00    -0.200 F 
ENDBRANCH  66  89
ENDBRANCH  40  41
ENDBRANCH  32  35
ENDBRANCH  30  31
ENDBRANCH  29  30
ENDBRANCH  28  29
ENDBRANCH  27  28
ENDBRANCH   1  27
TORSDOF 17
ENDMDL
MODEL 3
REMARK VINA RESULT:     -11.9      1.583      3.767
REMARK SMILES COc1ccc([C@H](C)NC(=O)c2cnn(C)c2C(=O)NCCCCCCNC(=O)c2ccc(-c3c4nc(c(-c5c(F)c(F)c(F)c(F)c5F)c5ccc([nH]5)c(-c5c(F)c(F)c(F)c(F)c5F)c5nc(c(-c6c(F)c(F)c(F)c(F)c6F)c6ccc3[nH]6)C=C5)C=C4)cc2)cc1
REMARK SMILES IDX 22 1 21 2 20 3 18 4 19 5 17 7 12 8 13 9 14 10 15 11 16 12
REMARK SMILES IDX 10 13 9 14 11 16 7 17 8 18 6 19 3 20 4 21 94 22 5 23 93 24
REMARK SMILES IDX 2 25 1 26 23 27 24 28 25 29 26 30 27 31 28 32 29 34 30 35
REMARK SMILES IDX 31 36 92 37 32 38 91 39 33 40 34 41 35 42 85 43 36 44 90 45
REMARK SMILES IDX 84 46 86 47 37 48 89 49 83 50 82 51 38 53 70 54 50 55 69 56
REMARK SMILES IDX 51 57 54 58 68 59 87 60 52 61 53 62 67 64 88 65 55 66 39 67
REMARK SMILES IDX 40 68 48 69 41 70 42 71 46 72 49 73 43 74 44 75 47 76 45 77
REMARK SMILES IDX 71 78 72 79 80 80 73 81 74 82 78 83 81 84 75 85 76 86 79 87
REMARK SMILES IDX 77 88 56 89 57 90 65 91 58 92 59 93 63 94 66 95 60 96 61 97
REMARK SMILES IDX 64 98 62 99
REMARK H PARENT 20 6 9 15 27 33 86 52 54 63
REMARK Flexibility Score: inf
ROOT
ATOM      1  C   UNL A   1      33.058  28.537  26.495  1.00  0.00     0.021 C 
ENDROOT
BRANCH   1   2
ATOM      2  C   UNL A   1      32.945  27.019  26.633  1.00  0.00     0.116 C 
BRANCH   2   3
ATOM      3  N   UNL A   1      33.854  26.312  25.769  1.00  0.00    -0.351 N 
ATOM      4  C   UNL A   1      33.778  25.386  24.770  1.00  0.00     0.270 C 
ATOM      5  O   UNL A   1      34.866  25.254  24.195  1.00  0.00    -0.268 OA
ATOM      6  H   UNL A   1      34.789  26.568  25.948  1.00  0.00     0.163 HD
BRANCH   4   7
ATOM      7  C   UNL A   1      32.633  24.590  24.354  1.00  0.00     0.138 A 
ATOM      8  C   UNL A   1      32.102  24.656  23.050  1.00  0.00     0.090 A 
ATOM      9  C   UNL A   1      30.845  24.036  23.118  1.00  0.00     0.149 A 
ATOM     10  N   UNL A   1      30.646  23.454  24.291  1.00  0.00    -0.180 NA
ATOM     11  N   UNL A   1      31.780  23.703  24.982  1.00  0.00    -0.262 N 
ATOM     12  C   UNL A   1      31.903  22.947  26.199  1.00  0.00     0.174 C 
BRANCH   8  13
ATOM     13  C   UNL A   1      32.612  25.332  21.873  1.00  0.00     0.255 C 
ATOM     14  N   UNL A   1      32.764  26.695  21.881  1.00  0.00    -0.345 N 
ATOM     15  H   UNL A   1      33.103  27.075  21.039  1.00  0.00     0.164 HD
ATOM     16  O   UNL A   1      33.027  24.701  20.902  1.00  0.00    -0.269 OA
BRANCH  14  17
ATOM     17  C   UNL A   1      32.506  27.676  22.930  1.00  0.00     0.109 C 
ATOM     18  C   UNL A   1      33.592  28.754  22.941  1.00  0.00     0.036 C 
BRANCH  17  19
ATOM     19  C   UNL A   1      31.120  28.278  22.754  1.00  0.00    -0.026 A 
ATOM     20  C   UNL A   1      28.605  29.540  22.631  1.00  0.00     0.118 A 
ATOM     21  C   UNL A   1      29.692  30.069  21.937  1.00  0.00     0.047 A 
ATOM     22  C   UNL A   1      28.748  28.338  23.319  1.00  0.00     0.047 A 
ATOM     23  C   UNL A   1      30.942  29.446  22.000  1.00  0.00     0.009 A 
ATOM     24  C   UNL A   1      29.995  27.712  23.377  1.00  0.00     0.009 A 
BRANCH  20  25
ATOM     25  O   UNL A   1      27.440  30.255  22.553  1.00  0.00    -0.497 OA
ATOM     26  C   UNL A   1      27.278  31.225  23.587  1.00  0.00     0.278 C 
ENDBRANCH  20  25
ENDBRANCH  17  19
ENDBRANCH  14  17
ENDBRANCH   8  13
ENDBRANCH   4   7
ENDBRANCH   2   3
ENDBRANCH   1   2
BRANCH   1  27
ATOM     27  C   UNL A   1      31.767  29.311  26.798  1.00  0.00     0.002 C 
BRANCH  27  28
ATOM     28  C   UNL A   1      31.424  30.456  25.837  1.00  0.00     0.002 C 
BRANCH  28  29
ATOM     29  C   UNL A   1      31.273  31.840  26.475  1.00  0.00     0.021 C 
BRANCH  29  30
ATOM     30  C   UNL A   1      32.579  32.488  26.920  1.00  0.00     0.116 C 
BRANCH  30  31
ATOM     31  N   UNL A   1      32.383  33.857  27.367  1.00  0.00    -0.352 N 
ATOM     32  C   UNL A   1      32.983  34.537  28.397  1.00  0.00     0.251 C 
ATOM     33  H   UNL A   1      31.720  34.374  26.855  1.00  0.00     0.163 HD
ATOM     34  O   UNL A   1      32.538  35.625  28.755  1.00  0.00    -0.269 OA
BRANCH  32  35
ATOM     35  C   UNL A   1      34.160  33.968  29.090  1.00  0.00     0.039 A 
ATOM     36  C   UNL A   1      33.956  33.033  30.110  1.00  0.00     0.014 A 
ATOM     37  C   UNL A   1      35.457  34.386  28.776  1.00  0.00     0.014 A 
ATOM     38  C   UNL A   1      35.051  32.482  30.781  1.00  0.00     0.010 A 
ATOM     39  C   UNL A   1      36.550  33.791  29.404  1.00  0.00     0.010 A 
ATOM     40  C   UNL A   1      36.358  32.841  30.418  1.00  0.00    -0.014 A 
BRANCH  40  41
ATOM     41  C   UNL A   1      37.535  32.245  31.099  1.00  0.00     0.031 A 
ATOM     42  C   UNL A   1      38.323  31.155  30.429  1.00  0.00     0.074 A 
ATOM     43  C   UNL A   1      37.857  32.640  32.345  1.00  0.00     0.049 A 
ATOM     44  N   UNL A   1      39.336  30.461  30.886  1.00  0.00    -0.248 NA
ATOM     45  C   UNL A   1      37.898  30.773  29.072  1.00  0.00     0.031 C 
ATOM     46  C   UNL A   1      37.149  33.661  33.117  1.00  0.00     0.029 A 
ATOM     47  N   UNL A   1      38.859  32.223  33.186  1.00  0.00    -0.354 N 
ATOM     48  C   UNL A   1      39.652  29.549  29.888  1.00  0.00     0.074 A 
ATOM     49  C   UNL A   1      38.700  29.749  28.816  1.00  0.00     0.031 C 
ATOM     50  C   UNL A   1      37.750  33.806  34.309  1.00  0.00     0.029 A 
ATOM     51  C   UNL A   1      38.865  32.867  34.397  1.00  0.00     0.049 A 
ATOM     52  H   UNL A   1      39.511  31.526  32.942  1.00  0.00     0.167 HD
ATOM     53  C   UNL A   1      40.656  28.640  29.860  1.00  0.00     0.037 A 
ATOM     54  C   UNL A   1      39.678  32.716  35.460  1.00  0.00     0.037 A 
ATOM     55  C   UNL A   1      41.627  28.473  30.909  1.00  0.00     0.049 A 
ATOM     56  C   UNL A   1      40.791  31.706  35.400  1.00  0.00     0.074 A 
ATOM     57  C   UNL A   1      42.731  27.637  30.939  1.00  0.00     0.029 A 
ATOM     58  N   UNL A   1      41.610  29.156  32.116  1.00  0.00    -0.354 N 
ATOM     59  N   UNL A   1      41.123  30.898  34.423  1.00  0.00    -0.248 NA
ATOM     60  C   UNL A   1      41.645  31.590  36.591  1.00  0.00     0.031 C 
ATOM     61  C   UNL A   1      43.359  27.787  32.179  1.00  0.00     0.029 A 
ATOM     62  C   UNL A   1      42.672  28.746  32.906  1.00  0.00     0.049 A 
ATOM     63  H   UNL A   1      40.943  29.832  32.373  1.00  0.00     0.167 HD
ATOM     64  C   UNL A   1      42.239  30.202  34.866  1.00  0.00     0.074 A 
ATOM     65  C   UNL A   1      42.533  30.688  36.199  1.00  0.00     0.031 C 
ATOM     66  C   UNL A   1      42.956  29.247  34.226  1.00  0.00     0.037 A 
BRANCH  53  67
ATOM     67  C   UNL A   1      40.753  27.752  28.655  1.00  0.00     0.064 A 
ATOM     68  C   UNL A   1      41.566  28.082  27.560  1.00  0.00     0.173 A 
ATOM     69  C   UNL A   1      40.049  26.539  28.607  1.00  0.00     0.173 A 
ATOM     70  F   UNL A   1      42.250  29.236  27.550  1.00  0.00    -0.203 F 
ATOM     71  C   UNL A   1      41.645  27.246  26.449  1.00  0.00     0.198 A 
ATOM     72  C   UNL A   1      40.154  25.691  27.508  1.00  0.00     0.198 A 
ATOM     73  F   UNL A   1      39.263  26.173  29.631  1.00  0.00    -0.203 F 
ATOM     74  F   UNL A   1      42.389  27.605  25.394  1.00  0.00    -0.200 F 
ATOM     75  C   UNL A   1      40.945  26.048  26.427  1.00  0.00     0.200 A 
ATOM     76  F   UNL A   1      39.485  24.531  27.492  1.00  0.00    -0.200 F 
ATOM     77  F   UNL A   1      41.025  25.243  25.359  1.00  0.00    -0.200 F 
ENDBRANCH  53  67
BRANCH  54  78
ATOM     78  C   UNL A   1      39.494  33.570  36.661  1.00  0.00     0.064 A 
ATOM     79  C   UNL A   1      40.096  34.834  36.737  1.00  0.00     0.173 A 
ATOM     80  C   UNL A   1      38.717  33.149  37.749  1.00  0.00     0.173 A 
ATOM     81  F   UNL A   1      40.865  35.270  35.729  1.00  0.00    -0.203 F 
ATOM     82  C   UNL A   1      39.941  35.638  37.864  1.00  0.00     0.198 A 
ATOM     83  C   UNL A   1      38.543  33.964  38.866  1.00  0.00     0.198 A 
ATOM     84  F   UNL A   1      38.118  31.949  37.722  1.00  0.00    -0.203 F 
ATOM     85  F   UNL A   1      40.559  36.825  37.927  1.00  0.00    -0.200 F 
ATOM     86  C   UNL A   1      39.161  35.205  38.925  1.00  0.00     0.200 A 
ATOM     87  F   UNL A   1      37.779  33.547  39.884  1.00  0.00    -0.200 F 
ATOM     88  F   UNL A   1      39.009  35.979  40.007  1.00  0.00    -0.200 F 
ENDBRANCH  54  78
BRANCH  66  89
ATOM     89  C   UNL A   1      44.152  28.691  34.942  1.00  0.00     0.064 A 
ATOM     90  C   UNL A   1      44.058  27.549  35.749  1.00  0.00     0.173 A 
ATOM     91  C   UNL A   1      45.412  29.289  34.788  1.00  0.00     0.173 A 
ATOM     92  F   UNL A   1      42.872  26.952  35.940  1.00  0.00    -0.203 F 
ATOM     93  C   UNL A   1      45.180  27.037  36.395  1.00  0.00     0.198 A 
ATOM     94  C   UNL A   1      46.536  28.758  35.413  1.00  0.00     0.198 A 
ATOM     95  F   UNL A   1      45.553  30.381  34.021  1.00  0.00    -0.203 F 
ATOM     96  F   UNL A   1      45.062  25.969  37.195  1.00  0.00    -0.200 F 
ATOM     97  C   UNL A   1      46.419  27.637  36.221  1.00  0.00     0.200 A 
ATOM     98  F   UNL A   1      47.734  29.334  35.236  1.00  0.00    -0.200 F 
ATOM     99  F   UNL A   1      47.499  27.139  36.838  1.00  0.00    -0.200 F 
ENDBRANCH  66  89
ENDBRANCH  40  41
ENDBRANCH  32  35
ENDBRANCH  30  31
ENDBRANCH  29  30
ENDBRANCH  28  29
ENDBRANCH  27  28
ENDBRANCH   1  27
TORSDOF 17
ENDMDL
