MODEL 1
REMARK VINA RESULT:     -11.0      0.000      0.000
REMARK SMILES C[C@@H]1CC[C@@H](C(=O)NCCCCCCNC(=O)c2ccc(-c3c4nc(c(-c5c(F)c(F)c(F)c(F)c5F)c5ccc([nH]5)c(-c5c(F)c(F)c(F)c(F)c5F)c5nc(c(-c6c(F)c(F)c(F)c(F)c6F)c6ccc3[nH]6)C=C5)C=C4)cc2)[C@H](SCC[NH+](C)C)C1
REMARK SMILES IDX 10 1 9 2 8 3 6 4 7 5 5 7 1 8 2 9 3 10 88 11 4 12 81 13 82 14
REMARK SMILES IDX 83 15 84 16 85 17 86 18 87 19 11 21 12 22 13 23 14 24 15 25
REMARK SMILES IDX 16 26 17 28 18 29 19 30 80 31 20 32 79 33 21 34 22 35 23 36
REMARK SMILES IDX 73 37 24 38 78 39 72 40 74 41 25 42 77 43 71 44 70 45 26 47
REMARK SMILES IDX 58 48 38 49 57 50 39 51 42 52 56 53 75 54 40 55 41 56 55 58
REMARK SMILES IDX 76 59 43 60 27 61 28 62 36 63 29 64 30 65 34 66 37 67 31 68
REMARK SMILES IDX 32 69 35 70 33 71 59 72 60 73 68 74 61 75 62 76 66 77 69 78
REMARK SMILES IDX 63 79 64 80 67 81 65 82 44 83 45 84 53 85 46 86 47 87 51 88
REMARK SMILES IDX 54 89 48 90 49 91 52 92 50 93
REMARK H PARENT 8 6 85 20 15 27 74 46 42 57
REMARK Flexibility Score: inf
ROOT
ATOM      1  C   UNL A   1      35.327  22.772  24.619  1.00  0.00     0.021 C 
ENDROOT
BRANCH   1   2
ATOM      2  C   UNL A   1      35.168  24.261  24.930  1.00  0.00     0.116 C 
BRANCH   2   3
ATOM      3  N   UNL A   1      33.964  24.541  25.670  1.00  0.00    -0.356 N 
ATOM      4  C   UNL A   1      33.173  25.630  25.744  1.00  0.00     0.224 C 
ATOM      5  O   UNL A   1      32.197  25.519  26.495  1.00  0.00    -0.275 OA
ATOM      6  H   UNL A   1      33.661  23.791  26.231  1.00  0.00     0.163 HD
BRANCH   4   7
ATOM      7  C   UNL A   1      33.505  26.960  25.033  1.00  0.00     0.091 C 
ATOM      8  C   UNL A   1      31.764  30.412  26.507  1.00  0.00     0.007 C 
ATOM      9  C   UNL A   1      32.013  28.929  26.786  1.00  0.00    -0.013 C 
ATOM     10  C   UNL A   1      33.489  28.600  27.081  1.00  0.00     0.004 C 
ATOM     11  C   UNL A   1      31.309  28.074  25.735  1.00  0.00     0.018 C 
ATOM     12  C   UNL A   1      34.287  27.702  26.125  1.00  0.00     0.015 C 
ATOM     13  C   UNL A   1      32.178  27.604  24.557  1.00  0.00     0.059 C 
BRANCH  13  14
ATOM     14  S   UNL A   1      31.779  28.707  23.071  1.00  0.00    -0.152 SA
BRANCH  14  15
ATOM     15  C   UNL A   1      29.994  29.078  22.817  1.00  0.00     0.131 C 
BRANCH  15  16
ATOM     16  C   UNL A   1      29.472  30.498  23.224  1.00  0.00     0.272 C 
BRANCH  16  17
ATOM     17  N   UNL A   1      29.290  31.515  22.164  1.00  0.00    -0.339 N 
ATOM     18  C   UNL A   1      28.414  31.056  21.080  1.00  0.00     0.332 C 
ATOM     19  C   UNL A   1      28.807  32.761  22.701  1.00  0.00     0.332 C 
ATOM     20  H   UNL A   1      30.215  31.670  21.765  1.00  0.00     0.347 HD
ENDBRANCH  16  17
ENDBRANCH  15  16
ENDBRANCH  14  15
ENDBRANCH  13  14
ENDBRANCH   4   7
ENDBRANCH   2   3
ENDBRANCH   1   2
BRANCH   1  21
ATOM     21  C   UNL A   1      36.612  22.106  25.137  1.00  0.00     0.002 C 
BRANCH  21  22
ATOM     22  C   UNL A   1      36.686  20.579  25.033  1.00  0.00     0.002 C 
BRANCH  22  23
ATOM     23  C   UNL A   1      38.072  20.004  24.749  1.00  0.00     0.021 C 
BRANCH  23  24
ATOM     24  C   UNL A   1      39.109  20.284  25.826  1.00  0.00     0.116 C 
BRANCH  24  25
ATOM     25  N   UNL A   1      40.107  19.231  25.921  1.00  0.00    -0.352 N 
ATOM     26  C   UNL A   1      41.455  19.336  26.146  1.00  0.00     0.251 C 
ATOM     27  H   UNL A   1      39.767  18.313  25.807  1.00  0.00     0.163 HD
ATOM     28  O   UNL A   1      42.188  18.358  26.007  1.00  0.00    -0.269 OA
BRANCH  26  29
ATOM     29  C   UNL A   1      42.034  20.639  26.534  1.00  0.00     0.039 A 
ATOM     30  C   UNL A   1      42.447  21.523  25.533  1.00  0.00     0.014 A 
ATOM     31  C   UNL A   1      42.160  20.993  27.880  1.00  0.00     0.014 A 
ATOM     32  C   UNL A   1      42.931  22.784  25.883  1.00  0.00     0.010 A 
ATOM     33  C   UNL A   1      42.561  22.280  28.223  1.00  0.00     0.010 A 
ATOM     34  C   UNL A   1      42.959  23.186  27.229  1.00  0.00    -0.014 A 
BRANCH  34  35
ATOM     35  C   UNL A   1      43.403  24.549  27.616  1.00  0.00     0.031 A 
ATOM     36  C   UNL A   1      42.388  25.604  27.963  1.00  0.00     0.074 A 
ATOM     37  C   UNL A   1      44.715  24.854  27.597  1.00  0.00     0.049 A 
ATOM     38  N   UNL A   1      42.574  26.862  28.273  1.00  0.00    -0.248 NA
ATOM     39  C   UNL A   1      40.975  25.196  27.931  1.00  0.00     0.031 C 
ATOM     40  C   UNL A   1      45.792  23.931  27.235  1.00  0.00     0.029 A 
ATOM     41  N   UNL A   1      45.367  26.028  27.882  1.00  0.00    -0.354 N 
ATOM     42  C   UNL A   1      41.305  27.396  28.457  1.00  0.00     0.074 A 
ATOM     43  C   UNL A   1      40.357  26.344  28.168  1.00  0.00     0.031 C 
ATOM     44  C   UNL A   1      46.971  24.563  27.349  1.00  0.00     0.029 A 
ATOM     45  C   UNL A   1      46.732  25.947  27.748  1.00  0.00     0.049 A 
ATOM     46  H   UNL A   1      44.901  26.850  28.155  1.00  0.00     0.167 HD
ATOM     47  C   UNL A   1      40.964  28.645  28.855  1.00  0.00     0.037 A 
ATOM     48  C   UNL A   1      47.682  26.885  27.921  1.00  0.00     0.037 A 
ATOM     49  C   UNL A   1      41.914  29.683  29.161  1.00  0.00     0.049 A 
ATOM     50  C   UNL A   1      47.272  28.272  28.340  1.00  0.00     0.074 A 
ATOM     51  C   UNL A   1      41.674  30.960  29.635  1.00  0.00     0.029 A 
ATOM     52  N   UNL A   1      43.289  29.564  29.014  1.00  0.00    -0.354 N 
ATOM     53  N   UNL A   1      46.076  28.745  28.588  1.00  0.00    -0.248 NA
ATOM     54  C   UNL A   1      48.351  29.256  28.506  1.00  0.00     0.031 C 
ATOM     55  C   UNL A   1      42.897  31.635  29.713  1.00  0.00     0.029 A 
ATOM     56  C   UNL A   1      43.906  30.757  29.355  1.00  0.00     0.049 A 
ATOM     57  H   UNL A   1      43.757  28.751  28.713  1.00  0.00     0.167 HD
ATOM     58  C   UNL A   1      46.258  30.066  28.973  1.00  0.00     0.074 A 
ATOM     59  C   UNL A   1      47.684  30.316  28.939  1.00  0.00     0.031 C 
ATOM     60  C   UNL A   1      45.328  30.989  29.325  1.00  0.00     0.037 A 
BRANCH  47  61
ATOM     61  C   UNL A   1      39.500  28.961  28.976  1.00  0.00     0.064 A 
ATOM     62  C   UNL A   1      38.734  29.358  27.868  1.00  0.00     0.173 A 
ATOM     63  C   UNL A   1      38.845  28.837  30.211  1.00  0.00     0.173 A 
ATOM     64  F   UNL A   1      39.310  29.502  26.665  1.00  0.00    -0.203 F 
ATOM     65  C   UNL A   1      37.379  29.654  28.001  1.00  0.00     0.198 A 
ATOM     66  C   UNL A   1      37.482  29.098  30.332  1.00  0.00     0.198 A 
ATOM     67  F   UNL A   1      39.525  28.454  31.302  1.00  0.00    -0.203 F 
ATOM     68  F   UNL A   1      36.683  30.088  26.941  1.00  0.00    -0.200 F 
ATOM     69  C   UNL A   1      36.753  29.516  29.230  1.00  0.00     0.200 A 
ATOM     70  F   UNL A   1      36.877  28.949  31.518  1.00  0.00    -0.200 F 
ATOM     71  F   UNL A   1      35.448  29.795  29.354  1.00  0.00    -0.200 F 
ENDBRANCH  47  61
BRANCH  48  72
ATOM     72  C   UNL A   1      49.116  26.541  27.724  1.00  0.00     0.064 A 
ATOM     73  C   UNL A   1      49.661  26.445  26.437  1.00  0.00     0.173 A 
ATOM     74  C   UNL A   1      49.964  26.289  28.812  1.00  0.00     0.173 A 
ATOM     75  F   UNL A   1      48.887  26.657  25.363  1.00  0.00    -0.203 F 
ATOM     76  C   UNL A   1      50.995  26.085  26.243  1.00  0.00     0.198 A 
ATOM     77  C   UNL A   1      51.305  25.962  28.619  1.00  0.00     0.198 A 
ATOM     78  F   UNL A   1      49.494  26.373  30.065  1.00  0.00    -0.203 F 
ATOM     79  F   UNL A   1      51.476  25.950  25.000  1.00  0.00    -0.200 F 
ATOM     80  C   UNL A   1      51.816  25.850  27.335  1.00  0.00     0.200 A 
ATOM     81  F   UNL A   1      52.100  25.751  29.677  1.00  0.00    -0.200 F 
ATOM     82  F   UNL A   1      53.098  25.507  27.149  1.00  0.00    -0.200 F 
ENDBRANCH  48  72
BRANCH  60  83
ATOM     83  C   UNL A   1      45.826  32.344  29.744  1.00  0.00     0.064 A 
ATOM     84  C   UNL A   1      45.971  33.397  28.828  1.00  0.00     0.173 A 
ATOM     85  C   UNL A   1      46.124  32.602  31.091  1.00  0.00     0.173 A 
ATOM     86  F   UNL A   1      45.712  33.199  27.526  1.00  0.00    -0.203 F 
ATOM     87  C   UNL A   1      46.425  34.646  29.241  1.00  0.00     0.198 A 
ATOM     88  C   UNL A   1      46.544  33.863  31.506  1.00  0.00     0.198 A 
ATOM     89  F   UNL A   1      45.996  31.632  32.011  1.00  0.00    -0.203 F 
ATOM     90  F   UNL A   1      46.608  35.621  28.339  1.00  0.00    -0.200 F 
ATOM     91  C   UNL A   1      46.702  34.881  30.579  1.00  0.00     0.200 A 
ATOM     92  F   UNL A   1      46.794  34.090  32.802  1.00  0.00    -0.200 F 
ATOM     93  F   UNL A   1      47.130  36.087  30.975  1.00  0.00    -0.200 F 
ENDBRANCH  60  83
ENDBRANCH  34  35
ENDBRANCH  26  29
ENDBRANCH  24  25
ENDBRANCH  23  24
ENDBRANCH  22  23
ENDBRANCH  21  22
ENDBRANCH   1  21
TORSDOF 17
ENDMDL
MODEL 2
REMARK VINA RESULT:     -10.8      6.054     10.740
REMARK SMILES C[C@@H]1CC[C@@H](C(=O)NCCCCCCNC(=O)c2ccc(-c3c4nc(c(-c5c(F)c(F)c(F)c(F)c5F)c5ccc([nH]5)c(-c5c(F)c(F)c(F)c(F)c5F)c5nc(c(-c6c(F)c(F)c(F)c(F)c6F)c6ccc3[nH]6)C=C5)C=C4)cc2)[C@H](SCC[NH+](C)C)C1
REMARK SMILES IDX 10 1 9 2 8 3 6 4 7 5 5 7 1 8 2 9 3 10 88 11 4 12 81 13 82 14
REMARK SMILES IDX 83 15 84 16 85 17 86 18 87 19 11 21 12 22 13 23 14 24 15 25
REMARK SMILES IDX 16 26 17 28 18 29 19 30 80 31 20 32 79 33 21 34 22 35 23 36
REMARK SMILES IDX 73 37 24 38 78 39 72 40 74 41 25 42 77 43 71 44 70 45 26 47
REMARK SMILES IDX 58 48 38 49 57 50 39 51 42 52 56 53 75 54 40 55 41 56 55 58
REMARK SMILES IDX 76 59 43 60 27 61 28 62 36 63 29 64 30 65 34 66 37 67 31 68
REMARK SMILES IDX 32 69 35 70 33 71 59 72 60 73 68 74 61 75 62 76 66 77 69 78
REMARK SMILES IDX 63 79 64 80 67 81 65 82 44 83 45 84 53 85 46 86 47 87 51 88
REMARK SMILES IDX 54 89 48 90 49 91 52 92 50 93
REMARK H PARENT 8 6 85 20 15 27 74 46 42 57
REMARK Flexibility Score: inf
ROOT
ATOM      1  C   UNL A   1      35.582  32.843  28.328  1.00  0.00     0.021 C 
ENDROOT
BRANCH   1   2
ATOM      2  C   UNL A   1      34.465  32.013  27.694  1.00  0.00     0.116 C 
BRANCH   2   3
ATOM      3  N   UNL A   1      34.851  30.638  27.496  1.00  0.00    -0.356 N 
ATOM      4  C   UNL A   1      34.290  29.626  26.804  1.00  0.00     0.224 C 
ATOM      5  O   UNL A   1      34.905  28.555  26.851  1.00  0.00    -0.275 OA
ATOM      6  H   UNL A   1      35.684  30.390  27.956  1.00  0.00     0.163 HD
BRANCH   4   7
ATOM      7  C   UNL A   1      32.927  29.751  26.088  1.00  0.00     0.091 C 
ATOM      8  C   UNL A   1      30.591  26.348  25.801  1.00  0.00     0.007 C 
ATOM      9  C   UNL A   1      31.833  26.951  26.460  1.00  0.00    -0.013 C 
ATOM     10  C   UNL A   1      31.507  28.049  27.491  1.00  0.00     0.004 C 
ATOM     11  C   UNL A   1      32.878  27.285  25.399  1.00  0.00     0.018 C 
ATOM     12  C   UNL A   1      31.952  29.498  27.245  1.00  0.00     0.015 C 
ATOM     13  C   UNL A   1      32.899  28.743  24.911  1.00  0.00     0.059 C 
BRANCH  13  14
ATOM     14  S   UNL A   1      32.034  28.801  23.228  1.00  0.00    -0.152 SA
BRANCH  14  15
ATOM     15  C   UNL A   1      30.194  28.787  23.284  1.00  0.00     0.131 C 
BRANCH  15  16
ATOM     16  C   UNL A   1      29.449  30.162  23.374  1.00  0.00     0.272 C 
BRANCH  16  17
ATOM     17  N   UNL A   1      28.115  30.287  22.747  1.00  0.00    -0.339 N 
ATOM     18  C   UNL A   1      28.186  30.503  21.297  1.00  0.00     0.332 C 
ATOM     19  C   UNL A   1      27.281  29.150  23.040  1.00  0.00     0.332 C 
ATOM     20  H   UNL A   1      27.689  31.117  23.159  1.00  0.00     0.347 HD
ENDBRANCH  16  17
ENDBRANCH  15  16
ENDBRANCH  14  15
ENDBRANCH  13  14
ENDBRANCH   4   7
ENDBRANCH   2   3
ENDBRANCH   1   2
BRANCH   1  21
ATOM     21  C   UNL A   1      35.139  34.107  29.085  1.00  0.00     0.002 C 
BRANCH  21  22
ATOM     22  C   UNL A   1      34.580  35.256  28.238  1.00  0.00     0.002 C 
BRANCH  22  23
ATOM     23  C   UNL A   1      33.494  36.097  28.904  1.00  0.00     0.021 C 
BRANCH  23  24
ATOM     24  C   UNL A   1      32.624  35.342  29.898  1.00  0.00     0.116 C 
BRANCH  24  25
ATOM     25  N   UNL A   1      32.336  36.124  31.088  1.00  0.00    -0.352 N 
ATOM     26  C   UNL A   1      32.904  36.044  32.333  1.00  0.00     0.251 C 
ATOM     27  H   UNL A   1      31.634  36.809  30.987  1.00  0.00     0.163 HD
ATOM     28  O   UNL A   1      32.412  36.651  33.283  1.00  0.00    -0.269 OA
BRANCH  26  29
ATOM     29  C   UNL A   1      34.100  35.201  32.540  1.00  0.00     0.039 A 
ATOM     30  C   UNL A   1      35.362  35.736  32.270  1.00  0.00     0.014 A 
ATOM     31  C   UNL A   1      33.978  33.889  33.006  1.00  0.00     0.014 A 
ATOM     32  C   UNL A   1      36.504  34.976  32.526  1.00  0.00     0.010 A 
ATOM     33  C   UNL A   1      35.118  33.165  33.341  1.00  0.00     0.010 A 
ATOM     34  C   UNL A   1      36.392  33.697  33.097  1.00  0.00    -0.014 A 
BRANCH  34  35
ATOM     35  C   UNL A   1      37.597  32.901  33.443  1.00  0.00     0.031 A 
ATOM     36  C   UNL A   1      38.343  33.177  34.719  1.00  0.00     0.074 A 
ATOM     37  C   UNL A   1      38.053  31.972  32.581  1.00  0.00     0.049 A 
ATOM     38  N   UNL A   1      39.443  32.628  35.172  1.00  0.00    -0.248 NA
ATOM     39  C   UNL A   1      37.795  34.228  35.591  1.00  0.00     0.031 C 
ATOM     40  C   UNL A   1      37.443  31.644  31.291  1.00  0.00     0.029 A 
ATOM     41  N   UNL A   1      39.141  31.137  32.654  1.00  0.00    -0.354 N 
ATOM     42  C   UNL A   1      39.723  33.276  36.368  1.00  0.00     0.074 A 
ATOM     43  C   UNL A   1      38.714  34.297  36.543  1.00  0.00     0.031 C 
ATOM     44  C   UNL A   1      38.145  30.658  30.710  1.00  0.00     0.029 A 
ATOM     45  C   UNL A   1      39.280  30.316  31.562  1.00  0.00     0.049 A 
ATOM     46  H   UNL A   1      39.762  31.129  33.417  1.00  0.00     0.167 HD
ATOM     47  C   UNL A   1      40.718  33.026  37.251  1.00  0.00     0.037 A 
ATOM     48  C   UNL A   1      40.220  29.395  31.278  1.00  0.00     0.037 A 
ATOM     49  C   UNL A   1      41.709  31.994  37.080  1.00  0.00     0.049 A 
ATOM     50  C   UNL A   1      41.330  29.154  32.267  1.00  0.00     0.074 A 
ATOM     51  C   UNL A   1      42.719  31.617  37.946  1.00  0.00     0.029 A 
ATOM     52  N   UNL A   1      41.818  31.182  35.960  1.00  0.00    -0.354 N 
ATOM     53  N   UNL A   1      41.541  29.718  33.431  1.00  0.00    -0.248 NA
ATOM     54  C   UNL A   1      42.332  28.144  31.901  1.00  0.00     0.031 C 
ATOM     55  C   UNL A   1      43.479  30.620  37.324  1.00  0.00     0.029 A 
ATOM     56  C   UNL A   1      42.901  30.327  36.100  1.00  0.00     0.049 A 
ATOM     57  H   UNL A   1      41.215  31.207  35.182  1.00  0.00     0.167 HD
ATOM     58  C   UNL A   1      42.674  29.108  33.952  1.00  0.00     0.074 A 
ATOM     59  C   UNL A   1      43.098  28.120  32.981  1.00  0.00     0.031 C 
ATOM     60  C   UNL A   1      43.307  29.343  35.129  1.00  0.00     0.037 A 
BRANCH  47  61
ATOM     61  C   UNL A   1      40.791  33.887  38.480  1.00  0.00     0.064 A 
ATOM     62  C   UNL A   1      41.587  35.042  38.529  1.00  0.00     0.173 A 
ATOM     63  C   UNL A   1      40.031  33.570  39.617  1.00  0.00     0.173 A 
ATOM     64  F   UNL A   1      42.342  35.388  37.475  1.00  0.00    -0.203 F 
ATOM     65  C   UNL A   1      41.648  35.825  39.680  1.00  0.00     0.198 A 
ATOM     66  C   UNL A   1      40.065  34.375  40.753  1.00  0.00     0.198 A 
ATOM     67  F   UNL A   1      39.246  32.482  39.624  1.00  0.00    -0.203 F 
ATOM     68  F   UNL A   1      42.461  36.889  39.723  1.00  0.00    -0.200 F 
ATOM     69  C   UNL A   1      40.880  35.494  40.787  1.00  0.00     0.200 A 
ATOM     70  F   UNL A   1      39.311  34.063  41.815  1.00  0.00    -0.200 F 
ATOM     71  F   UNL A   1      40.935  36.253  41.892  1.00  0.00    -0.200 F 
ENDBRANCH  47  61
BRANCH  48  72
ATOM     72  C   UNL A   1      40.143  28.614  30.015  1.00  0.00     0.064 A 
ATOM     73  C   UNL A   1      39.484  27.377  29.975  1.00  0.00     0.173 A 
ATOM     74  C   UNL A   1      40.734  29.076  28.831  1.00  0.00     0.173 A 
ATOM     75  F   UNL A   1      38.919  26.883  31.086  1.00  0.00    -0.203 F 
ATOM     76  C   UNL A   1      39.440  26.621  28.805  1.00  0.00     0.198 A 
ATOM     77  C   UNL A   1      40.662  28.334  27.653  1.00  0.00     0.198 A 
ATOM     78  F   UNL A   1      41.373  30.254  28.812  1.00  0.00    -0.203 F 
ATOM     79  F   UNL A   1      38.848  25.418  28.809  1.00  0.00    -0.200 F 
ATOM     80  C   UNL A   1      40.025  27.103  27.643  1.00  0.00     0.200 A 
ATOM     81  F   UNL A   1      41.214  28.810  26.528  1.00  0.00    -0.200 F 
ATOM     82  F   UNL A   1      39.980  26.377  26.518  1.00  0.00    -0.200 F 
ENDBRANCH  48  72
BRANCH  60  83
ATOM     83  C   UNL A   1      44.500  28.489  35.454  1.00  0.00     0.064 A 
ATOM     84  C   UNL A   1      44.375  27.270  36.137  1.00  0.00     0.173 A 
ATOM     85  C   UNL A   1      45.783  28.880  35.040  1.00  0.00     0.173 A 
ATOM     86  F   UNL A   1      43.173  26.857  36.568  1.00  0.00    -0.203 F 
ATOM     87  C   UNL A   1      45.494  26.491  36.420  1.00  0.00     0.198 A 
ATOM     88  C   UNL A   1      46.894  28.080  35.293  1.00  0.00     0.198 A 
ATOM     89  F   UNL A   1      45.958  30.033  34.376  1.00  0.00    -0.203 F 
ATOM     90  F   UNL A   1      45.357  25.357  37.122  1.00  0.00    -0.200 F 
ATOM     91  C   UNL A   1      46.749  26.892  35.990  1.00  0.00     0.200 A 
ATOM     92  F   UNL A   1      48.103  28.462  34.861  1.00  0.00    -0.200 F 
ATOM     93  F   UNL A   1      47.823  26.135  36.256  1.00  0.00    -0.200 F 
ENDBRANCH  60  83
ENDBRANCH  34  35
ENDBRANCH  26  29
ENDBRANCH  24  25
ENDBRANCH  23  24
ENDBRANCH  22  23
ENDBRANCH  21  22
ENDBRANCH   1  21
TORSDOF 17
ENDMDL
MODEL 3
REMARK VINA RESULT:     -10.6      2.842      8.487
REMARK SMILES C[C@@H]1CC[C@@H](C(=O)NCCCCCCNC(=O)c2ccc(-c3c4nc(c(-c5c(F)c(F)c(F)c(F)c5F)c5ccc([nH]5)c(-c5c(F)c(F)c(F)c(F)c5F)c5nc(c(-c6c(F)c(F)c(F)c(F)c6F)c6ccc3[nH]6)C=C5)C=C4)cc2)[C@H](SCC[NH+](C)C)C1
REMARK SMILES IDX 10 1 9 2 8 3 6 4 7 5 5 7 1 8 2 9 3 10 88 11 4 12 81 13 82 14
REMARK SMILES IDX 83 15 84 16 85 17 86 18 87 19 11 21 12 22 13 23 14 24 15 25
REMARK SMILES IDX 16 26 17 28 18 29 19 30 80 31 20 32 79 33 21 34 22 35 23 36
REMARK SMILES IDX 73 37 24 38 78 39 72 40 74 41 25 42 77 43 71 44 70 45 26 47
REMARK SMILES IDX 58 48 38 49 57 50 39 51 42 52 56 53 75 54 40 55 41 56 55 58
REMARK SMILES IDX 76 59 43 60 27 61 28 62 36 63 29 64 30 65 34 66 37 67 31 68
REMARK SMILES IDX 32 69 35 70 33 71 59 72 60 73 68 74 61 75 62 76 66 77 69 78
REMARK SMILES IDX 63 79 64 80 67 81 65 82 44 83 45 84 53 85 46 86 47 87 51 88
REMARK SMILES IDX 54 89 48 90 49 91 52 92 50 93
REMARK H PARENT 8 6 85 20 15 27 74 46 42 57
REMARK Flexibility Score: inf
ROOT
ATOM      1  C   UNL A   1      33.053  20.564  25.272  1.00  0.00     0.021 C 
ENDROOT
BRANCH   1   2
ATOM      2  C   UNL A   1      31.788  21.377  24.993  1.00  0.00     0.116 C 
BRANCH   2   3
ATOM      3  N   UNL A   1      31.461  22.270  26.075  1.00  0.00    -0.356 N 
ATOM      4  C   UNL A   1      31.229  23.598  26.121  1.00  0.00     0.224 C 
ATOM      5  O   UNL A   1      30.969  24.046  27.243  1.00  0.00    -0.275 OA
ATOM      6  H   UNL A   1      31.396  21.826  26.950  1.00  0.00     0.163 HD
BRANCH   4   7
ATOM      7  C   UNL A   1      31.376  24.520  24.891  1.00  0.00     0.091 C 
ATOM      8  C   UNL A   1      32.496  28.447  25.558  1.00  0.00     0.007 C 
ATOM      9  C   UNL A   1      32.351  27.068  26.206  1.00  0.00    -0.013 C 
ATOM     10  C   UNL A   1      33.367  26.036  25.681  1.00  0.00     0.004 C 
ATOM     11  C   UNL A   1      30.883  26.650  26.223  1.00  0.00     0.018 C 
ATOM     12  C   UNL A   1      32.884  24.804  24.902  1.00  0.00     0.015 C 
ATOM     13  C   UNL A   1      30.430  25.734  25.074  1.00  0.00     0.059 C 
BRANCH  13  14
ATOM     14  S   UNL A   1      29.498  26.801  23.819  1.00  0.00    -0.152 SA
BRANCH  14  15
ATOM     15  C   UNL A   1      30.554  27.717  22.620  1.00  0.00     0.131 C 
BRANCH  15  16
ATOM     16  C   UNL A   1      30.280  29.246  22.416  1.00  0.00     0.272 C 
BRANCH  16  17
ATOM     17  N   UNL A   1      28.977  29.796  22.850  1.00  0.00    -0.339 N 
ATOM     18  C   UNL A   1      29.112  31.029  23.634  1.00  0.00     0.332 C 
ATOM     19  C   UNL A   1      28.092  30.010  21.734  1.00  0.00     0.332 C 
ATOM     20  H   UNL A   1      28.565  29.090  23.459  1.00  0.00     0.347 HD
ENDBRANCH  16  17
ENDBRANCH  15  16
ENDBRANCH  14  15
ENDBRANCH  13  14
ENDBRANCH   4   7
ENDBRANCH   2   3
ENDBRANCH   1   2
BRANCH   1  21
ATOM     21  C   UNL A   1      34.297  21.370  25.684  1.00  0.00     0.002 C 
BRANCH  21  22
ATOM     22  C   UNL A   1      35.434  21.452  24.660  1.00  0.00     0.002 C 
BRANCH  22  23
ATOM     23  C   UNL A   1      35.940  22.858  24.349  1.00  0.00     0.021 C 
BRANCH  23  24
ATOM     24  C   UNL A   1      36.895  23.434  25.384  1.00  0.00     0.116 C 
BRANCH  24  25
ATOM     25  N   UNL A   1      37.919  22.483  25.783  1.00  0.00    -0.352 N 
ATOM     26  C   UNL A   1      39.129  22.719  26.384  1.00  0.00     0.251 C 
ATOM     27  H   UNL A   1      37.716  21.538  25.596  1.00  0.00     0.163 HD
ATOM     28  O   UNL A   1      39.961  21.818  26.481  1.00  0.00    -0.269 OA
BRANCH  26  29
ATOM     29  C   UNL A   1      39.444  24.069  26.894  1.00  0.00     0.039 A 
ATOM     30  C   UNL A   1      39.094  24.397  28.206  1.00  0.00     0.014 A 
ATOM     31  C   UNL A   1      40.090  25.006  26.083  1.00  0.00     0.014 A 
ATOM     32  C   UNL A   1      39.447  25.644  28.724  1.00  0.00     0.010 A 
ATOM     33  C   UNL A   1      40.515  26.214  26.626  1.00  0.00     0.010 A 
ATOM     34  C   UNL A   1      40.192  26.550  27.949  1.00  0.00    -0.014 A 
BRANCH  34  35
ATOM     35  C   UNL A   1      40.638  27.852  28.505  1.00  0.00     0.031 A 
ATOM     36  C   UNL A   1      42.083  28.065  28.862  1.00  0.00     0.074 A 
ATOM     37  C   UNL A   1      39.733  28.821  28.744  1.00  0.00     0.049 A 
ATOM     38  N   UNL A   1      42.658  29.109  29.405  1.00  0.00    -0.248 NA
ATOM     39  C   UNL A   1      43.002  26.947  28.596  1.00  0.00     0.031 C 
ATOM     40  C   UNL A   1      38.296  28.718  28.483  1.00  0.00     0.029 A 
ATOM     41  N   UNL A   1      39.885  30.081  29.268  1.00  0.00    -0.354 N 
ATOM     42  C   UNL A   1      43.995  28.766  29.559  1.00  0.00     0.074 A 
ATOM     43  C   UNL A   1      44.136  27.400  29.107  1.00  0.00     0.031 C 
ATOM     44  C   UNL A   1      37.704  29.876  28.817  1.00  0.00     0.029 A 
ATOM     45  C   UNL A   1      38.709  30.785  29.359  1.00  0.00     0.049 A 
ATOM     46  H   UNL A   1      40.754  30.444  29.553  1.00  0.00     0.167 HD
ATOM     47  C   UNL A   1      45.016  29.530  30.015  1.00  0.00     0.037 A 
ATOM     48  C   UNL A   1      38.469  32.023  29.832  1.00  0.00     0.037 A 
ATOM     49  C   UNL A   1      44.871  30.897  30.445  1.00  0.00     0.049 A 
ATOM     50  C   UNL A   1      39.620  32.842  30.355  1.00  0.00     0.074 A 
ATOM     51  C   UNL A   1      45.853  31.778  30.862  1.00  0.00     0.029 A 
ATOM     52  N   UNL A   1      43.664  31.577  30.523  1.00  0.00    -0.354 N 
ATOM     53  N   UNL A   1      40.892  32.537  30.423  1.00  0.00    -0.248 NA
ATOM     54  C   UNL A   1      39.297  34.181  30.865  1.00  0.00     0.031 C 
ATOM     55  C   UNL A   1      45.234  32.970  31.253  1.00  0.00     0.029 A 
ATOM     56  C   UNL A   1      43.874  32.857  31.014  1.00  0.00     0.049 A 
ATOM     57  H   UNL A   1      42.789  31.207  30.267  1.00  0.00     0.167 HD
ATOM     58  C   UNL A   1      41.527  33.655  30.947  1.00  0.00     0.074 A 
ATOM     59  C   UNL A   1      40.498  34.652  31.166  1.00  0.00     0.031 C 
ATOM     60  C   UNL A   1      42.842  33.842  31.220  1.00  0.00     0.037 A 
BRANCH  47  61
ATOM     61  C   UNL A   1      46.380  28.903  30.078  1.00  0.00     0.064 A 
ATOM     62  C   UNL A   1      46.842  28.249  31.231  1.00  0.00     0.173 A 
ATOM     63  C   UNL A   1      47.227  28.930  28.959  1.00  0.00     0.173 A 
ATOM     64  F   UNL A   1      46.078  28.202  32.333  1.00  0.00    -0.203 F 
ATOM     65  C   UNL A   1      48.113  27.680  31.273  1.00  0.00     0.198 A 
ATOM     66  C   UNL A   1      48.483  28.328  28.993  1.00  0.00     0.198 A 
ATOM     67  F   UNL A   1      46.835  29.535  27.827  1.00  0.00    -0.203 F 
ATOM     68  F   UNL A   1      48.554  27.114  32.405  1.00  0.00    -0.200 F 
ATOM     69  C   UNL A   1      48.928  27.713  30.152  1.00  0.00     0.200 A 
ATOM     70  F   UNL A   1      49.262  28.347  27.903  1.00  0.00    -0.200 F 
ATOM     71  F   UNL A   1      50.148  27.159  30.192  1.00  0.00    -0.200 F 
ENDBRANCH  47  61
BRANCH  48  72
ATOM     72  C   UNL A   1      37.089  32.576  29.810  1.00  0.00     0.064 A 
ATOM     73  C   UNL A   1      36.222  32.388  30.897  1.00  0.00     0.173 A 
ATOM     74  C   UNL A   1      36.602  33.287  28.704  1.00  0.00     0.173 A 
ATOM     75  F   UNL A   1      36.634  31.697  31.970  1.00  0.00    -0.203 F 
ATOM     76  C   UNL A   1      34.915  32.870  30.868  1.00  0.00     0.198 A 
ATOM     77  C   UNL A   1      35.305  33.797  28.690  1.00  0.00     0.198 A 
ATOM     78  F   UNL A   1      37.391  33.500  27.641  1.00  0.00    -0.203 F 
ATOM     79  F   UNL A   1      34.092  32.631  31.899  1.00  0.00    -0.200 F 
ATOM     80  C   UNL A   1      34.459  33.579  29.766  1.00  0.00     0.200 A 
ATOM     81  F   UNL A   1      34.874  34.495  27.630  1.00  0.00    -0.200 F 
ATOM     82  F   UNL A   1      33.203  34.044  29.740  1.00  0.00    -0.200 F 
ENDBRANCH  48  72
BRANCH  60  83
ATOM     83  C   UNL A   1      43.253  35.188  31.747  1.00  0.00     0.064 A 
ATOM     84  C   UNL A   1      43.297  35.464  33.121  1.00  0.00     0.173 A 
ATOM     85  C   UNL A   1      43.647  36.203  30.861  1.00  0.00     0.173 A 
ATOM     86  F   UNL A   1      42.918  34.533  34.010  1.00  0.00    -0.203 F 
ATOM     87  C   UNL A   1      43.689  36.716  33.587  1.00  0.00     0.198 A 
ATOM     88  C   UNL A   1      44.074  37.441  31.333  1.00  0.00     0.198 A 
ATOM     89  F   UNL A   1      43.631  35.990  29.536  1.00  0.00    -0.203 F 
ATOM     90  F   UNL A   1      43.671  36.975  34.903  1.00  0.00    -0.200 F 
ATOM     91  C   UNL A   1      44.086  37.699  32.694  1.00  0.00     0.200 A 
ATOM     92  F   UNL A   1      44.472  38.384  30.467  1.00  0.00    -0.200 F 
ATOM     93  F   UNL A   1      44.472  38.900  33.146  1.00  0.00    -0.200 F 
ENDBRANCH  60  83
ENDBRANCH  34  35
ENDBRANCH  26  29
ENDBRANCH  24  25
ENDBRANCH  23  24
ENDBRANCH  22  23
ENDBRANCH  21  22
ENDBRANCH   1  21
TORSDOF 17
ENDMDL
