MODEL 1
REMARK VINA RESULT:     -12.0      0.000      0.000
REMARK SMILES CCn1cnc(S(=O)(=O)N2CCC(C)(C(=O)NCCCCCCNC(=O)c3ccc(-c4c5nc(c(-c6c(F)c(F)c(F)c(F)c6F)c6ccc([nH]6)c(-c6c(F)c(F)c(F)c(F)c6F)c6nc(c(-c7c(F)c(F)c(F)c(F)c7F)c7ccc4[nH]7)C=C6)C=C5)cc3)CC2)c1
REMARK SMILES IDX 20 1 19 2 18 3 17 4 15 5 16 6 13 8 10 9 11 10 91 11 12 12
REMARK SMILES IDX 90 13 14 14 7 15 8 16 9 17 6 18 3 19 4 20 92 21 5 22 2 23
REMARK SMILES IDX 1 24 21 25 22 26 23 27 24 28 25 29 26 31 27 32 28 33 89 34
REMARK SMILES IDX 29 35 88 36 30 37 31 38 32 39 82 40 33 41 87 42 81 43 83 44
REMARK SMILES IDX 34 45 86 46 80 47 79 48 35 50 67 51 47 52 66 53 48 54 51 55
REMARK SMILES IDX 65 56 84 57 49 58 50 59 64 61 85 62 52 63 36 64 37 65 45 66
REMARK SMILES IDX 38 67 39 68 43 69 46 70 40 71 41 72 44 73 42 74 68 75 69 76
REMARK SMILES IDX 77 77 70 78 71 79 75 80 78 81 72 82 73 83 76 84 74 85 53 86
REMARK SMILES IDX 54 87 62 88 55 89 56 90 60 91 63 92 57 93 58 94 61 95 59 96
REMARK H PARENT 17 7 24 30 83 49 51 60
REMARK Flexibility Score: inf
ROOT
ATOM      1  C   UNL A   1      40.377  21.913  26.391  1.00  0.00     0.002 C 
ENDROOT
BRANCH   1   2
ATOM      2  C   UNL A   1      39.170  22.764  26.786  1.00  0.00     0.021 C 
BRANCH   2   3
ATOM      3  C   UNL A   1      38.118  22.816  25.687  1.00  0.00     0.116 C 
BRANCH   3   4
ATOM      4  N   UNL A   1      37.662  21.469  25.358  1.00  0.00    -0.356 N 
ATOM      5  C   UNL A   1      36.422  20.996  25.027  1.00  0.00     0.226 C 
ATOM      6  O   UNL A   1      36.286  19.779  24.904  1.00  0.00    -0.275 OA
ATOM      7  H   UNL A   1      38.367  20.783  25.379  1.00  0.00     0.163 HD
BRANCH   5   8
ATOM      8  C   UNL A   1      35.269  21.981  24.793  1.00  0.00     0.049 C 
ATOM      9  N   UNL A   1      32.789  21.887  26.331  1.00  0.00    -0.196 NA
ATOM     10  C   UNL A   1      34.021  22.137  27.058  1.00  0.00     0.103 C 
ATOM     11  C   UNL A   1      32.933  20.854  25.307  1.00  0.00     0.103 C 
ATOM     12  C   UNL A   1      35.020  22.778  26.113  1.00  0.00     0.033 C 
ATOM     13  C   UNL A   1      33.988  21.236  24.278  1.00  0.00     0.033 C 
ATOM     14  C   UNL A   1      35.735  22.891  23.616  1.00  0.00     0.022 C 
BRANCH   9  15
ATOM     15  S   UNL A   1      31.527  23.016  26.355  1.00  0.00     0.262 S 
ATOM     16  O   UNL A   1      31.533  23.622  27.669  1.00  0.00    -0.205 OA
ATOM     17  O   UNL A   1      30.343  22.390  25.798  1.00  0.00    -0.205 OA
BRANCH  15  18
ATOM     18  C   UNL A   1      31.843  24.367  25.268  1.00  0.00     0.188 A 
ATOM     19  N   UNL A   1      32.518  25.546  23.547  1.00  0.00    -0.336 N 
ATOM     20  C   UNL A   1      32.312  26.371  24.617  1.00  0.00     0.201 A 
ATOM     21  C   UNL A   1      32.067  24.306  23.908  1.00  0.00     0.129 A 
ATOM     22  N   UNL A   1      31.946  25.691  25.681  1.00  0.00    -0.224 NA
BRANCH  19  23
ATOM     23  C   UNL A   1      33.327  25.864  22.386  1.00  0.00     0.120 C 
ATOM     24  C   UNL A   1      33.575  27.344  22.131  1.00  0.00     0.027 C 
ENDBRANCH  19  23
ENDBRANCH  15  18
ENDBRANCH   9  15
ENDBRANCH   5   8
ENDBRANCH   3   4
ENDBRANCH   2   3
ENDBRANCH   1   2
BRANCH   1  25
ATOM     25  C   UNL A   1      41.156  21.324  27.577  1.00  0.00     0.002 C 
BRANCH  25  26
ATOM     26  C   UNL A   1      42.203  20.257  27.219  1.00  0.00     0.021 C 
BRANCH  26  27
ATOM     27  C   UNL A   1      42.212  19.906  25.741  1.00  0.00     0.116 C 
BRANCH  27  28
ATOM     28  N   UNL A   1      43.566  19.684  25.249  1.00  0.00    -0.352 N 
ATOM     29  C   UNL A   1      44.518  20.616  24.908  1.00  0.00     0.251 C 
ATOM     30  H   UNL A   1      43.835  18.741  25.146  1.00  0.00     0.163 HD
ATOM     31  O   UNL A   1      45.469  20.315  24.195  1.00  0.00    -0.269 OA
BRANCH  29  32
ATOM     32  C   UNL A   1      44.373  21.988  25.414  1.00  0.00     0.039 A 
ATOM     33  C   UNL A   1      43.497  22.884  24.800  1.00  0.00     0.014 A 
ATOM     34  C   UNL A   1      45.115  22.363  26.533  1.00  0.00     0.014 A 
ATOM     35  C   UNL A   1      43.328  24.142  25.365  1.00  0.00     0.010 A 
ATOM     36  C   UNL A   1      44.832  23.540  27.176  1.00  0.00     0.010 A 
ATOM     37  C   UNL A   1      43.985  24.457  26.566  1.00  0.00    -0.014 A 
BRANCH  37  38
ATOM     38  C   UNL A   1      43.705  25.712  27.251  1.00  0.00     0.031 A 
ATOM     39  C   UNL A   1      44.642  26.818  26.911  1.00  0.00     0.074 A 
ATOM     40  C   UNL A   1      42.588  25.923  27.981  1.00  0.00     0.049 A 
ATOM     41  N   UNL A   1      45.471  27.418  27.700  1.00  0.00    -0.248 NA
ATOM     42  C   UNL A   1      44.767  27.219  25.500  1.00  0.00     0.031 C 
ATOM     43  C   UNL A   1      41.425  25.048  28.160  1.00  0.00     0.029 A 
ATOM     44  N   UNL A   1      42.224  27.039  28.666  1.00  0.00    -0.354 N 
ATOM     45  C   UNL A   1      46.100  28.394  26.932  1.00  0.00     0.074 A 
ATOM     46  C   UNL A   1      45.744  28.126  25.563  1.00  0.00     0.031 C 
ATOM     47  C   UNL A   1      40.404  25.751  28.701  1.00  0.00     0.029 A 
ATOM     48  C   UNL A   1      40.894  27.066  29.067  1.00  0.00     0.049 A 
ATOM     49  H   UNL A   1      42.852  27.772  28.861  1.00  0.00     0.167 HD
ATOM     50  C   UNL A   1      46.684  29.477  27.515  1.00  0.00     0.037 A 
ATOM     51  C   UNL A   1      40.243  28.110  29.639  1.00  0.00     0.037 A 
ATOM     52  C   UNL A   1      46.937  29.242  28.914  1.00  0.00     0.049 A 
ATOM     53  C   UNL A   1      41.278  29.017  30.197  1.00  0.00     0.074 A 
ATOM     54  C   UNL A   1      47.692  28.316  29.611  1.00  0.00     0.029 A 
ATOM     55  N   UNL A   1      46.056  29.760  29.831  1.00  0.00    -0.354 N 
ATOM     56  N   UNL A   1      42.047  28.702  31.203  1.00  0.00    -0.248 NA
ATOM     57  C   UNL A   1      41.779  30.072  29.331  1.00  0.00     0.031 C 
ATOM     58  C   UNL A   1      46.889  27.961  30.735  1.00  0.00     0.029 A 
ATOM     59  C   UNL A   1      45.738  28.749  30.704  1.00  0.00     0.049 A 
ATOM     60  H   UNL A   1      45.717  30.684  29.858  1.00  0.00     0.167 HD
ATOM     61  C   UNL A   1      43.297  29.190  30.855  1.00  0.00     0.074 A 
ATOM     62  C   UNL A   1      43.056  30.086  29.725  1.00  0.00     0.031 C 
ATOM     63  C   UNL A   1      44.439  28.603  31.319  1.00  0.00     0.037 A 
BRANCH  50  64
ATOM     64  C   UNL A   1      46.702  30.856  26.907  1.00  0.00     0.064 A 
ATOM     65  C   UNL A   1      47.910  31.580  26.865  1.00  0.00     0.173 A 
ATOM     66  C   UNL A   1      45.535  31.602  26.634  1.00  0.00     0.173 A 
ATOM     67  F   UNL A   1      49.077  30.979  27.137  1.00  0.00    -0.203 F 
ATOM     68  C   UNL A   1      47.936  32.959  26.631  1.00  0.00     0.198 A 
ATOM     69  C   UNL A   1      45.570  32.966  26.348  1.00  0.00     0.198 A 
ATOM     70  F   UNL A   1      44.311  31.074  26.745  1.00  0.00    -0.203 F 
ATOM     71  F   UNL A   1      49.094  33.626  26.718  1.00  0.00    -0.200 F 
ATOM     72  C   UNL A   1      46.766  33.650  26.375  1.00  0.00     0.200 A 
ATOM     73  F   UNL A   1      44.422  33.621  26.124  1.00  0.00    -0.200 F 
ATOM     74  F   UNL A   1      46.781  34.978  26.205  1.00  0.00    -0.200 F 
ENDBRANCH  50  64
BRANCH  51  75
ATOM     75  C   UNL A   1      38.836  28.533  29.448  1.00  0.00     0.064 A 
ATOM     76  C   UNL A   1      37.993  28.766  30.547  1.00  0.00     0.173 A 
ATOM     77  C   UNL A   1      38.380  28.999  28.199  1.00  0.00     0.173 A 
ATOM     78  F   UNL A   1      38.373  28.395  31.778  1.00  0.00    -0.203 F 
ATOM     79  C   UNL A   1      36.779  29.450  30.410  1.00  0.00     0.198 A 
ATOM     80  C   UNL A   1      37.167  29.676  28.063  1.00  0.00     0.198 A 
ATOM     81  F   UNL A   1      39.147  28.893  27.105  1.00  0.00    -0.203 F 
ATOM     82  F   UNL A   1      36.032  29.709  31.492  1.00  0.00    -0.200 F 
ATOM     83  C   UNL A   1      36.373  29.915  29.170  1.00  0.00     0.200 A 
ATOM     84  F   UNL A   1      36.805  30.155  26.864  1.00  0.00    -0.200 F 
ATOM     85  F   UNL A   1      35.244  30.627  29.048  1.00  0.00    -0.200 F 
ENDBRANCH  51  75
BRANCH  63  86
ATOM     86  C   UNL A   1      44.308  27.561  32.399  1.00  0.00     0.064 A 
ATOM     87  C   UNL A   1      44.196  26.180  32.161  1.00  0.00     0.173 A 
ATOM     88  C   UNL A   1      44.447  27.969  33.733  1.00  0.00     0.173 A 
ATOM     89  F   UNL A   1      44.161  25.695  30.915  1.00  0.00    -0.203 F 
ATOM     90  C   UNL A   1      44.177  25.259  33.209  1.00  0.00     0.198 A 
ATOM     91  C   UNL A   1      44.467  27.046  34.775  1.00  0.00     0.198 A 
ATOM     92  F   UNL A   1      44.614  29.269  34.024  1.00  0.00    -0.203 F 
ATOM     93  F   UNL A   1      44.057  23.948  32.951  1.00  0.00    -0.200 F 
ATOM     94  C   UNL A   1      44.321  25.693  34.515  1.00  0.00     0.200 A 
ATOM     95  F   UNL A   1      44.656  27.468  36.033  1.00  0.00    -0.200 F 
ATOM     96  F   UNL A   1      44.344  24.808  35.521  1.00  0.00    -0.200 F 
ENDBRANCH  63  86
ENDBRANCH  37  38
ENDBRANCH  29  32
ENDBRANCH  27  28
ENDBRANCH  26  27
ENDBRANCH  25  26
ENDBRANCH   1  25
TORSDOF 16
ENDMDL
MODEL 2
REMARK VINA RESULT:     -11.7      3.001      4.263
REMARK SMILES CCn1cnc(S(=O)(=O)N2CCC(C)(C(=O)NCCCCCCNC(=O)c3ccc(-c4c5nc(c(-c6c(F)c(F)c(F)c(F)c6F)c6ccc([nH]6)c(-c6c(F)c(F)c(F)c(F)c6F)c6nc(c(-c7c(F)c(F)c(F)c(F)c7F)c7ccc4[nH]7)C=C6)C=C5)cc3)CC2)c1
REMARK SMILES IDX 20 1 19 2 18 3 17 4 15 5 16 6 13 8 10 9 11 10 91 11 12 12
REMARK SMILES IDX 90 13 14 14 7 15 8 16 9 17 6 18 3 19 4 20 92 21 5 22 2 23
REMARK SMILES IDX 1 24 21 25 22 26 23 27 24 28 25 29 26 31 27 32 28 33 89 34
REMARK SMILES IDX 29 35 88 36 30 37 31 38 32 39 82 40 33 41 87 42 81 43 83 44
REMARK SMILES IDX 34 45 86 46 80 47 79 48 35 50 67 51 47 52 66 53 48 54 51 55
REMARK SMILES IDX 65 56 84 57 49 58 50 59 64 61 85 62 52 63 36 64 37 65 45 66
REMARK SMILES IDX 38 67 39 68 43 69 46 70 40 71 41 72 44 73 42 74 68 75 69 76
REMARK SMILES IDX 77 77 70 78 71 79 75 80 78 81 72 82 73 83 76 84 74 85 53 86
REMARK SMILES IDX 54 87 62 88 55 89 56 90 60 91 63 92 57 93 58 94 61 95 59 96
REMARK H PARENT 17 7 24 30 83 49 51 60
REMARK Flexibility Score: inf
ROOT
ATOM      1  C   UNL A   1      35.441  20.930  24.846  1.00  0.00     0.002 C 
ENDROOT
BRANCH   1   2
ATOM      2  C   UNL A   1      34.267  20.899  25.824  1.00  0.00     0.021 C 
BRANCH   2   3
ATOM      3  C   UNL A   1      32.969  21.368  25.180  1.00  0.00     0.116 C 
BRANCH   3   4
ATOM      4  N   UNL A   1      32.044  21.853  26.199  1.00  0.00    -0.356 N 
ATOM      5  C   UNL A   1      31.739  23.123  26.604  1.00  0.00     0.226 C 
ATOM      6  O   UNL A   1      30.994  23.253  27.575  1.00  0.00    -0.275 OA
ATOM      7  H   UNL A   1      31.554  21.145  26.677  1.00  0.00     0.163 HD
BRANCH   5   8
ATOM      8  C   UNL A   1      32.299  24.324  25.830  1.00  0.00     0.049 C 
ATOM      9  N   UNL A   1      30.635  25.995  24.108  1.00  0.00    -0.196 NA
ATOM     10  C   UNL A   1      30.299  25.941  25.520  1.00  0.00     0.103 C 
ATOM     11  C   UNL A   1      30.994  24.688  23.560  1.00  0.00     0.103 C 
ATOM     12  C   UNL A   1      31.554  25.612  26.305  1.00  0.00     0.033 C 
ATOM     13  C   UNL A   1      32.196  24.095  24.282  1.00  0.00     0.033 C 
ATOM     14  C   UNL A   1      33.823  24.353  26.157  1.00  0.00     0.022 C 
BRANCH   9  15
ATOM     15  S   UNL A   1      31.035  27.465  23.371  1.00  0.00     0.262 S 
ATOM     16  O   UNL A   1      31.669  27.144  22.111  1.00  0.00    -0.205 OA
ATOM     17  O   UNL A   1      31.669  28.315  24.361  1.00  0.00    -0.205 OA
BRANCH  15  18
ATOM     18  C   UNL A   1      29.596  28.368  22.899  1.00  0.00     0.188 A 
ATOM     19  N   UNL A   1      28.270  29.989  22.251  1.00  0.00    -0.336 N 
ATOM     20  C   UNL A   1      27.535  29.010  22.858  1.00  0.00     0.201 A 
ATOM     21  C   UNL A   1      29.546  29.512  22.130  1.00  0.00     0.129 A 
ATOM     22  N   UNL A   1      28.305  28.039  23.298  1.00  0.00    -0.224 NA
BRANCH  19  23
ATOM     23  C   UNL A   1      27.841  31.361  22.055  1.00  0.00     0.120 C 
ATOM     24  C   UNL A   1      28.552  32.409  22.899  1.00  0.00     0.027 C 
ENDBRANCH  19  23
ENDBRANCH  15  18
ENDBRANCH   9  15
ENDBRANCH   5   8
ENDBRANCH   3   4
ENDBRANCH   2   3
ENDBRANCH   1   2
BRANCH   1  25
ATOM     25  C   UNL A   1      36.517  21.976  25.178  1.00  0.00     0.002 C 
BRANCH  25  26
ATOM     26  C   UNL A   1      37.946  21.430  25.336  1.00  0.00     0.021 C 
BRANCH  26  27
ATOM     27  C   UNL A   1      38.821  22.301  26.220  1.00  0.00     0.116 C 
BRANCH  27  28
ATOM     28  N   UNL A   1      40.238  22.043  25.997  1.00  0.00    -0.352 N 
ATOM     29  C   UNL A   1      41.292  22.923  26.073  1.00  0.00     0.251 C 
ATOM     30  H   UNL A   1      40.473  21.116  25.761  1.00  0.00     0.163 HD
ATOM     31  O   UNL A   1      42.364  22.671  25.536  1.00  0.00    -0.269 OA
BRANCH  29  32
ATOM     32  C   UNL A   1      41.108  24.181  26.811  1.00  0.00     0.039 A 
ATOM     33  C   UNL A   1      41.662  24.348  28.082  1.00  0.00     0.014 A 
ATOM     34  C   UNL A   1      40.385  25.205  26.203  1.00  0.00     0.014 A 
ATOM     35  C   UNL A   1      41.535  25.583  28.705  1.00  0.00     0.010 A 
ATOM     36  C   UNL A   1      40.396  26.464  26.747  1.00  0.00     0.010 A 
ATOM     37  C   UNL A   1      40.916  26.644  28.022  1.00  0.00    -0.014 A 
BRANCH  37  38
ATOM     38  C   UNL A   1      40.906  27.983  28.597  1.00  0.00     0.031 A 
ATOM     39  C   UNL A   1      42.005  28.865  28.117  1.00  0.00     0.074 A 
ATOM     40  C   UNL A   1      39.889  28.457  29.350  1.00  0.00     0.049 A 
ATOM     41  N   UNL A   1      42.972  29.366  28.811  1.00  0.00    -0.248 NA
ATOM     42  C   UNL A   1      42.118  29.116  26.670  1.00  0.00     0.031 C 
ATOM     43  C   UNL A   1      38.600  27.829  29.659  1.00  0.00     0.029 A 
ATOM     44  N   UNL A   1      39.771  29.675  29.942  1.00  0.00    -0.354 N 
ATOM     45  C   UNL A   1      43.721  30.141  27.929  1.00  0.00     0.074 A 
ATOM     46  C   UNL A   1      43.244  29.829  26.607  1.00  0.00     0.031 C 
ATOM     47  C   UNL A   1      37.755  28.752  30.173  1.00  0.00     0.029 A 
ATOM     48  C   UNL A   1      38.493  29.980  30.394  1.00  0.00     0.049 A 
ATOM     49  H   UNL A   1      40.531  30.293  30.042  1.00  0.00     0.167 HD
ATOM     50  C   UNL A   1      44.522  31.144  28.384  1.00  0.00     0.037 A 
ATOM     51  C   UNL A   1      38.075  31.170  30.892  1.00  0.00     0.037 A 
ATOM     52  C   UNL A   1      44.810  30.985  29.787  1.00  0.00     0.049 A 
ATOM     53  C   UNL A   1      39.286  31.915  31.320  1.00  0.00     0.074 A 
ATOM     54  C   UNL A   1      45.425  29.999  30.536  1.00  0.00     0.029 A 
ATOM     55  N   UNL A   1      44.091  31.733  30.687  1.00  0.00    -0.354 N 
ATOM     56  N   UNL A   1      40.043  31.550  32.318  1.00  0.00    -0.248 NA
ATOM     57  C   UNL A   1      39.918  32.783  30.338  1.00  0.00     0.031 C 
ATOM     58  C   UNL A   1      44.638  29.893  31.721  1.00  0.00     0.029 A 
ATOM     59  C   UNL A   1      43.647  30.874  31.663  1.00  0.00     0.049 A 
ATOM     60  H   UNL A   1      43.925  32.701  30.642  1.00  0.00     0.167 HD
ATOM     61  C   UNL A   1      41.339  31.768  31.874  1.00  0.00     0.074 A 
ATOM     62  C   UNL A   1      41.197  32.595  30.676  1.00  0.00     0.031 C 
ATOM     63  C   UNL A   1      42.381  31.022  32.343  1.00  0.00     0.037 A 
BRANCH  50  64
ATOM     64  C   UNL A   1      44.753  32.439  27.650  1.00  0.00     0.064 A 
ATOM     65  C   UNL A   1      45.935  32.614  26.903  1.00  0.00     0.173 A 
ATOM     66  C   UNL A   1      44.004  33.613  27.887  1.00  0.00     0.173 A 
ATOM     67  F   UNL A   1      46.738  31.572  26.643  1.00  0.00    -0.203 F 
ATOM     68  C   UNL A   1      46.363  33.877  26.483  1.00  0.00     0.198 A 
ATOM     69  C   UNL A   1      44.407  34.863  27.421  1.00  0.00     0.198 A 
ATOM     70  F   UNL A   1      42.921  33.620  28.671  1.00  0.00    -0.203 F 
ATOM     71  F   UNL A   1      47.552  34.009  25.880  1.00  0.00    -0.200 F 
ATOM     72  C   UNL A   1      45.600  35.001  26.745  1.00  0.00     0.200 A 
ATOM     73  F   UNL A   1      43.664  35.942  27.705  1.00  0.00    -0.200 F 
ATOM     74  F   UNL A   1      46.035  36.217  26.394  1.00  0.00    -0.200 F 
ENDBRANCH  50  64
BRANCH  51  75
ATOM     75  C   UNL A   1      36.758  31.827  30.722  1.00  0.00     0.064 A 
ATOM     76  C   UNL A   1      35.902  32.033  31.816  1.00  0.00     0.173 A 
ATOM     77  C   UNL A   1      36.442  32.526  29.539  1.00  0.00     0.173 A 
ATOM     78  F   UNL A   1      36.158  31.442  32.992  1.00  0.00    -0.203 F 
ATOM     79  C   UNL A   1      34.812  32.908  31.741  1.00  0.00     0.198 A 
ATOM     80  C   UNL A   1      35.351  33.394  29.466  1.00  0.00     0.198 A 
ATOM     81  F   UNL A   1      37.241  32.455  28.465  1.00  0.00    -0.203 F 
ATOM     82  F   UNL A   1      34.056  33.128  32.826  1.00  0.00    -0.200 F 
ATOM     83  C   UNL A   1      34.545  33.597  30.570  1.00  0.00     0.200 A 
ATOM     84  F   UNL A   1      35.128  34.084  28.337  1.00  0.00    -0.200 F 
ATOM     85  F   UNL A   1      33.541  34.485  30.518  1.00  0.00    -0.200 F 
ENDBRANCH  51  75
BRANCH  63  86
ATOM     86  C   UNL A   1      42.128  30.118  33.521  1.00  0.00     0.064 A 
ATOM     87  C   UNL A   1      41.718  28.776  33.417  1.00  0.00     0.173 A 
ATOM     88  C   UNL A   1      42.454  30.588  34.800  1.00  0.00     0.173 A 
ATOM     89  F   UNL A   1      41.484  28.215  32.226  1.00  0.00    -0.203 F 
ATOM     90  C   UNL A   1      41.596  27.964  34.545  1.00  0.00     0.198 A 
ATOM     91  C   UNL A   1      42.369  29.765  35.919  1.00  0.00     0.198 A 
ATOM     92  F   UNL A   1      42.905  31.842  34.959  1.00  0.00    -0.203 F 
ATOM     93  F   UNL A   1      41.190  26.691  34.417  1.00  0.00    -0.200 F 
ATOM     94  C   UNL A   1      41.930  28.457  35.794  1.00  0.00     0.200 A 
ATOM     95  F   UNL A   1      42.741  30.233  37.118  1.00  0.00    -0.200 F 
ATOM     96  F   UNL A   1      41.853  27.666  36.873  1.00  0.00    -0.200 F 
ENDBRANCH  63  86
ENDBRANCH  37  38
ENDBRANCH  29  32
ENDBRANCH  27  28
ENDBRANCH  26  27
ENDBRANCH  25  26
ENDBRANCH   1  25
TORSDOF 16
ENDMDL
MODEL 3
REMARK VINA RESULT:     -11.7      2.773      8.607
REMARK SMILES CCn1cnc(S(=O)(=O)N2CCC(C)(C(=O)NCCCCCCNC(=O)c3ccc(-c4c5nc(c(-c6c(F)c(F)c(F)c(F)c6F)c6ccc([nH]6)c(-c6c(F)c(F)c(F)c(F)c6F)c6nc(c(-c7c(F)c(F)c(F)c(F)c7F)c7ccc4[nH]7)C=C6)C=C5)cc3)CC2)c1
REMARK SMILES IDX 20 1 19 2 18 3 17 4 15 5 16 6 13 8 10 9 11 10 91 11 12 12
REMARK SMILES IDX 90 13 14 14 7 15 8 16 9 17 6 18 3 19 4 20 92 21 5 22 2 23
REMARK SMILES IDX 1 24 21 25 22 26 23 27 24 28 25 29 26 31 27 32 28 33 89 34
REMARK SMILES IDX 29 35 88 36 30 37 31 38 32 39 82 40 33 41 87 42 81 43 83 44
REMARK SMILES IDX 34 45 86 46 80 47 79 48 35 50 67 51 47 52 66 53 48 54 51 55
REMARK SMILES IDX 65 56 84 57 49 58 50 59 64 61 85 62 52 63 36 64 37 65 45 66
REMARK SMILES IDX 38 67 39 68 43 69 46 70 40 71 41 72 44 73 42 74 68 75 69 76
REMARK SMILES IDX 77 77 70 78 71 79 75 80 78 81 72 82 73 83 76 84 74 85 53 86
REMARK SMILES IDX 54 87 62 88 55 89 56 90 60 91 63 92 57 93 58 94 61 95 59 96
REMARK H PARENT 17 7 24 30 83 49 51 60
REMARK Flexibility Score: inf
ROOT
ATOM      1  C   UNL A   1      31.282  29.607  25.007  1.00  0.00     0.002 C 
ENDROOT
BRANCH   1   2
ATOM      2  C   UNL A   1      31.019  29.172  23.565  1.00  0.00     0.021 C 
BRANCH   2   3
ATOM      3  C   UNL A   1      30.968  27.657  23.422  1.00  0.00     0.116 C 
BRANCH   3   4
ATOM      4  N   UNL A   1      31.934  27.209  22.423  1.00  0.00    -0.356 N 
ATOM      5  C   UNL A   1      32.995  26.353  22.521  1.00  0.00     0.226 C 
ATOM      6  O   UNL A   1      33.727  26.231  21.539  1.00  0.00    -0.275 OA
ATOM      7  H   UNL A   1      31.798  27.589  21.525  1.00  0.00     0.163 HD
BRANCH   5   8
ATOM      8  C   UNL A   1      33.218  25.561  23.816  1.00  0.00     0.049 C 
ATOM      9  N   UNL A   1      32.222  22.840  24.182  1.00  0.00    -0.196 NA
ATOM     10  C   UNL A   1      33.183  23.066  23.116  1.00  0.00     0.103 C 
ATOM     11  C   UNL A   1      31.215  23.896  24.272  1.00  0.00     0.103 C 
ATOM     12  C   UNL A   1      34.031  24.271  23.476  1.00  0.00     0.033 C 
ATOM     13  C   UNL A   1      31.856  25.253  24.529  1.00  0.00     0.033 C 
ATOM     14  C   UNL A   1      33.988  26.528  24.765  1.00  0.00     0.022 C 
BRANCH   9  15
ATOM     15  S   UNL A   1      32.565  21.758  25.438  1.00  0.00     0.262 S 
ATOM     16  O   UNL A   1      31.938  20.502  25.092  1.00  0.00    -0.205 OA
ATOM     17  O   UNL A   1      32.311  22.428  26.700  1.00  0.00    -0.205 OA
BRANCH  15  18
ATOM     18  C   UNL A   1      34.282  21.365  25.507  1.00  0.00     0.188 A 
ATOM     19  N   UNL A   1      36.455  21.541  25.743  1.00  0.00    -0.336 N 
ATOM     20  C   UNL A   1      36.161  20.422  25.017  1.00  0.00     0.201 A 
ATOM     21  C   UNL A   1      35.266  22.048  26.191  1.00  0.00     0.129 A 
ATOM     22  N   UNL A   1      34.866  20.307  24.819  1.00  0.00    -0.224 NA
BRANCH  19  23
ATOM     23  C   UNL A   1      37.742  22.210  25.770  1.00  0.00     0.120 C 
ATOM     24  C   UNL A   1      37.701  23.729  25.865  1.00  0.00     0.027 C 
ENDBRANCH  19  23
ENDBRANCH  15  18
ENDBRANCH   9  15
ENDBRANCH   5   8
ENDBRANCH   3   4
ENDBRANCH   2   3
ENDBRANCH   1   2
BRANCH   1  25
ATOM     25  C   UNL A   1      32.759  29.564  25.425  1.00  0.00     0.002 C 
BRANCH  25  26
ATOM     26  C   UNL A   1      33.029  29.747  26.927  1.00  0.00     0.021 C 
BRANCH  26  27
ATOM     27  C   UNL A   1      34.440  30.223  27.225  1.00  0.00     0.116 C 
BRANCH  27  28
ATOM     28  N   UNL A   1      34.441  31.482  27.959  1.00  0.00    -0.352 N 
ATOM     29  C   UNL A   1      35.166  31.822  29.077  1.00  0.00     0.251 C 
ATOM     30  H   UNL A   1      33.843  32.182  27.609  1.00  0.00     0.163 HD
ATOM     31  O   UNL A   1      34.828  32.762  29.787  1.00  0.00    -0.269 OA
BRANCH  29  32
ATOM     32  C   UNL A   1      36.360  31.032  29.409  1.00  0.00     0.039 A 
ATOM     33  C   UNL A   1      36.240  29.710  29.843  1.00  0.00     0.014 A 
ATOM     34  C   UNL A   1      37.611  31.627  29.260  1.00  0.00     0.014 A 
ATOM     35  C   UNL A   1      37.399  28.975  30.063  1.00  0.00     0.010 A 
ATOM     36  C   UNL A   1      38.745  30.858  29.324  1.00  0.00     0.010 A 
ATOM     37  C   UNL A   1      38.649  29.551  29.782  1.00  0.00    -0.014 A 
BRANCH  37  38
ATOM     38  C   UNL A   1      39.863  28.749  29.863  1.00  0.00     0.031 A 
ATOM     39  C   UNL A   1      40.388  28.570  31.244  1.00  0.00     0.074 A 
ATOM     40  C   UNL A   1      40.368  28.064  28.814  1.00  0.00     0.049 A 
ATOM     41  N   UNL A   1      41.511  28.995  31.720  1.00  0.00    -0.248 NA
ATOM     42  C   UNL A   1      39.507  27.959  32.253  1.00  0.00     0.031 C 
ATOM     43  C   UNL A   1      39.805  27.886  27.471  1.00  0.00     0.029 A 
ATOM     44  N   UNL A   1      41.488  27.294  28.766  1.00  0.00    -0.354 N 
ATOM     45  C   UNL A   1      41.564  28.556  33.040  1.00  0.00     0.074 A 
ATOM     46  C   UNL A   1      40.250  28.062  33.357  1.00  0.00     0.031 C 
ATOM     47  C   UNL A   1      40.456  26.888  26.832  1.00  0.00     0.029 A 
ATOM     48  C   UNL A   1      41.586  26.481  27.644  1.00  0.00     0.049 A 
ATOM     49  H   UNL A   1      42.174  27.311  29.471  1.00  0.00     0.167 HD
ATOM     50  C   UNL A   1      42.754  28.432  33.691  1.00  0.00     0.037 A 
ATOM     51  C   UNL A   1      42.522  25.526  27.417  1.00  0.00     0.037 A 
ATOM     52  C   UNL A   1      43.787  29.193  33.036  1.00  0.00     0.049 A 
ATOM     53  C   UNL A   1      43.673  25.821  28.309  1.00  0.00     0.074 A 
ATOM     54  C   UNL A   1      43.955  30.534  32.746  1.00  0.00     0.029 A 
ATOM     55  N   UNL A   1      44.660  28.528  32.210  1.00  0.00    -0.354 N 
ATOM     56  N   UNL A   1      44.438  26.870  28.175  1.00  0.00    -0.248 NA
ATOM     57  C   UNL A   1      43.668  25.212  29.629  1.00  0.00     0.031 C 
ATOM     58  C   UNL A   1      44.510  30.558  31.431  1.00  0.00     0.029 A 
ATOM     59  C   UNL A   1      44.727  29.238  31.036  1.00  0.00     0.049 A 
ATOM     60  H   UNL A   1      45.147  27.698  32.419  1.00  0.00     0.167 HD
ATOM     61  C   UNL A   1      44.661  27.308  29.472  1.00  0.00     0.074 A 
ATOM     62  C   UNL A   1      44.221  26.207  30.328  1.00  0.00     0.031 C 
ATOM     63  C   UNL A   1      44.904  28.624  29.740  1.00  0.00     0.037 A 
BRANCH  50  64
ATOM     64  C   UNL A   1      43.055  27.357  34.703  1.00  0.00     0.064 A 
ATOM     65  C   UNL A   1      43.310  27.715  36.042  1.00  0.00     0.173 A 
ATOM     66  C   UNL A   1      43.388  26.030  34.354  1.00  0.00     0.173 A 
ATOM     67  F   UNL A   1      43.059  28.958  36.476  1.00  0.00    -0.203 F 
ATOM     68  C   UNL A   1      43.912  26.829  36.941  1.00  0.00     0.198 A 
ATOM     69  C   UNL A   1      43.939  25.133  35.268  1.00  0.00     0.198 A 
ATOM     70  F   UNL A   1      43.304  25.582  33.096  1.00  0.00    -0.203 F 
ATOM     71  F   UNL A   1      44.244  27.251  38.168  1.00  0.00    -0.200 F 
ATOM     72  C   UNL A   1      44.229  25.540  36.552  1.00  0.00     0.200 A 
ATOM     73  F   UNL A   1      44.258  23.895  34.863  1.00  0.00    -0.200 F 
ATOM     74  F   UNL A   1      44.855  24.708  37.393  1.00  0.00    -0.200 F 
ENDBRANCH  50  64
BRANCH  51  75
ATOM     75  C   UNL A   1      42.357  24.218  26.741  1.00  0.00     0.064 A 
ATOM     76  C   UNL A   1      43.315  23.747  25.828  1.00  0.00     0.173 A 
ATOM     77  C   UNL A   1      41.412  23.278  27.198  1.00  0.00     0.173 A 
ATOM     78  F   UNL A   1      44.277  24.565  25.380  1.00  0.00    -0.203 F 
ATOM     79  C   UNL A   1      43.342  22.409  25.418  1.00  0.00     0.198 A 
ATOM     80  C   UNL A   1      41.438  21.945  26.783  1.00  0.00     0.198 A 
ATOM     81  F   UNL A   1      40.506  23.611  28.128  1.00  0.00    -0.203 F 
ATOM     82  F   UNL A   1      44.310  21.982  24.594  1.00  0.00    -0.200 F 
ATOM     83  C   UNL A   1      42.411  21.507  25.905  1.00  0.00     0.200 A 
ATOM     84  F   UNL A   1      40.554  21.074  27.294  1.00  0.00    -0.200 F 
ATOM     85  F   UNL A   1      42.477  20.212  25.564  1.00  0.00    -0.200 F 
ENDBRANCH  51  75
BRANCH  63  86
ATOM     86  C   UNL A   1      45.154  29.547  28.576  1.00  0.00     0.064 A 
ATOM     87  C   UNL A   1      44.149  30.256  27.895  1.00  0.00     0.173 A 
ATOM     88  C   UNL A   1      46.482  29.835  28.231  1.00  0.00     0.173 A 
ATOM     89  F   UNL A   1      42.860  30.120  28.228  1.00  0.00    -0.203 F 
ATOM     90  C   UNL A   1      44.458  31.171  26.888  1.00  0.00     0.198 A 
ATOM     91  C   UNL A   1      46.790  30.776  27.254  1.00  0.00     0.198 A 
ATOM     92  F   UNL A   1      47.490  29.233  28.883  1.00  0.00    -0.203 F 
ATOM     93  F   UNL A   1      43.476  31.824  26.247  1.00  0.00    -0.200 F 
ATOM     94  C   UNL A   1      45.779  31.436  26.574  1.00  0.00     0.200 A 
ATOM     95  F   UNL A   1      48.072  31.064  26.989  1.00  0.00    -0.200 F 
ATOM     96  F   UNL A   1      46.080  32.345  25.636  1.00  0.00    -0.200 F 
ENDBRANCH  63  86
ENDBRANCH  37  38
ENDBRANCH  29  32
ENDBRANCH  27  28
ENDBRANCH  26  27
ENDBRANCH  25  26
ENDBRANCH   1  25
TORSDOF 16
ENDMDL
