MODEL 1
REMARK VINA RESULT:     -11.6      0.000      0.000
REMARK SMILES C[C@H]1CC=C(C2=NN=C(C(=O)NCCCCCCNC(=O)c3ccc(-c4c5nc(c(-c6c(F)c(F)c(F)c(F)c6F)c6ccc([nH]6)c(-c6c(F)c(F)c(F)c(F)c6F)c6nc(c(-c7c(F)c(F)c(F)c(F)c7F)c7ccc4[nH]7)C=C6)C=C5)cc3)C2)O1
REMARK SMILES IDX 16 1 15 2 14 3 13 4 12 5 10 6 11 7 9 9 6 10 7 11 85 12 8 13
REMARK SMILES IDX 5 14 1 15 2 16 3 17 86 18 4 19 17 20 18 21 19 22 20 23 21 25
REMARK SMILES IDX 22 26 23 27 84 28 24 29 83 30 25 31 26 32 27 33 77 34 28 35
REMARK SMILES IDX 82 36 76 37 78 38 29 39 81 40 75 41 74 42 30 44 62 45 42 46
REMARK SMILES IDX 61 47 43 48 46 49 60 50 79 51 44 52 45 53 59 55 80 56 47 57
REMARK SMILES IDX 31 58 32 59 40 60 33 61 34 62 38 63 41 64 35 65 36 66 39 67
REMARK SMILES IDX 37 68 63 69 64 70 72 71 65 72 66 73 70 74 73 75 67 76 68 77
REMARK SMILES IDX 71 78 69 79 48 80 49 81 57 82 50 83 51 84 55 85 58 86 52 87
REMARK SMILES IDX 53 88 56 89 54 90
REMARK H PARENT 12 8 19 24 78 43 46 54
REMARK Flexibility Score: inf
ROOT
ATOM      1  C   UNL A   1      40.986  21.264  27.618  1.00  0.00     0.002 C 
ENDROOT
BRANCH   1   2
ATOM      2  C   UNL A   1      40.302  22.009  26.461  1.00  0.00     0.002 C 
BRANCH   2   3
ATOM      3  C   UNL A   1      38.936  21.476  26.017  1.00  0.00     0.021 C 
BRANCH   3   4
ATOM      4  C   UNL A   1      37.871  22.544  25.779  1.00  0.00     0.116 C 
BRANCH   4   5
ATOM      5  N   UNL A   1      37.485  22.613  24.381  1.00  0.00    -0.351 N 
ATOM      6  C   UNL A   1      36.314  23.030  23.802  1.00  0.00     0.267 C 
ATOM      7  O   UNL A   1      36.172  22.982  22.583  1.00  0.00    -0.268 OA
ATOM      8  H   UNL A   1      38.175  22.312  23.746  1.00  0.00     0.163 HD
BRANCH   6   9
ATOM      9  C   UNL A   1      35.175  23.582  24.608  1.00  0.00     0.134 C 
ATOM     10  C   UNL A   1      33.817  25.019  25.638  1.00  0.00     0.111 C 
ATOM     11  N   UNL A   1      33.480  23.816  25.992  1.00  0.00    -0.151 NA
ATOM     12  C   UNL A   1      34.952  25.052  24.669  1.00  0.00     0.126 C 
ATOM     13  N   UNL A   1      34.348  22.900  25.340  1.00  0.00    -0.149 NA
BRANCH  10  14
ATOM     14  C   UNL A   1      33.221  26.259  26.148  1.00  0.00     0.139 C 
ATOM     15  C   UNL A   1      33.125  29.684  26.461  1.00  0.00     0.053 C 
ATOM     16  C   UNL A   1      33.079  28.286  27.057  1.00  0.00     0.174 C 
ATOM     17  C   UNL A   1      31.669  27.684  27.017  1.00  0.00     0.076 C 
ATOM     18  O   UNL A   1      33.972  27.412  26.325  1.00  0.00    -0.489 OA
ATOM     19  C   UNL A   1      31.949  26.320  26.532  1.00  0.00     0.025 C 
ENDBRANCH  10  14
ENDBRANCH   6   9
ENDBRANCH   4   5
ENDBRANCH   3   4
ENDBRANCH   2   3
ENDBRANCH   1   2
BRANCH   1  20
ATOM     20  C   UNL A   1      42.009  20.178  27.253  1.00  0.00     0.021 C 
BRANCH  20  21
ATOM     21  C   UNL A   1      42.098  19.855  25.770  1.00  0.00     0.116 C 
BRANCH  21  22
ATOM     22  N   UNL A   1      43.474  19.670  25.298  1.00  0.00    -0.352 N 
ATOM     23  C   UNL A   1      44.394  20.630  24.900  1.00  0.00     0.251 C 
ATOM     24  H   UNL A   1      43.787  18.738  25.258  1.00  0.00     0.163 HD
ATOM     25  O   UNL A   1      45.338  20.343  24.185  1.00  0.00    -0.269 OA
BRANCH  23  26
ATOM     26  C   UNL A   1      44.213  22.016  25.372  1.00  0.00     0.039 A 
ATOM     27  C   UNL A   1      43.383  22.935  24.723  1.00  0.00     0.014 A 
ATOM     28  C   UNL A   1      44.893  22.374  26.526  1.00  0.00     0.014 A 
ATOM     29  C   UNL A   1      43.204  24.192  25.299  1.00  0.00     0.010 A 
ATOM     30  C   UNL A   1      44.512  23.487  27.214  1.00  0.00     0.010 A 
ATOM     31  C   UNL A   1      43.770  24.452  26.555  1.00  0.00    -0.014 A 
BRANCH  31  32
ATOM     32  C   UNL A   1      43.576  25.708  27.261  1.00  0.00     0.031 A 
ATOM     33  C   UNL A   1      44.517  26.784  26.869  1.00  0.00     0.074 A 
ATOM     34  C   UNL A   1      42.474  25.950  28.008  1.00  0.00     0.049 A 
ATOM     35  N   UNL A   1      45.443  27.320  27.590  1.00  0.00    -0.248 NA
ATOM     36  C   UNL A   1      44.524  27.224  25.465  1.00  0.00     0.031 C 
ATOM     37  C   UNL A   1      41.289  25.098  28.196  1.00  0.00     0.029 A 
ATOM     38  N   UNL A   1      42.127  27.079  28.678  1.00  0.00    -0.354 N 
ATOM     39  C   UNL A   1      46.016  28.311  26.800  1.00  0.00     0.074 A 
ATOM     40  C   UNL A   1      45.559  28.066  25.458  1.00  0.00     0.031 C 
ATOM     41  C   UNL A   1      40.280  25.826  28.720  1.00  0.00     0.029 A 
ATOM     42  C   UNL A   1      40.795  27.135  29.073  1.00  0.00     0.049 A 
ATOM     43  H   UNL A   1      42.769  27.801  28.871  1.00  0.00     0.167 HD
ATOM     44  C   UNL A   1      46.594  29.403  27.373  1.00  0.00     0.037 A 
ATOM     45  C   UNL A   1      40.160  28.198  29.624  1.00  0.00     0.037 A 
ATOM     46  C   UNL A   1      46.849  29.170  28.776  1.00  0.00     0.049 A 
ATOM     47  C   UNL A   1      41.209  29.103  30.156  1.00  0.00     0.074 A 
ATOM     48  C   UNL A   1      47.584  28.244  29.491  1.00  0.00     0.029 A 
ATOM     49  N   UNL A   1      45.982  29.730  29.684  1.00  0.00    -0.354 N 
ATOM     50  N   UNL A   1      41.984  28.804  31.162  1.00  0.00    -0.248 NA
ATOM     51  C   UNL A   1      41.710  30.142  29.269  1.00  0.00     0.031 C 
ATOM     52  C   UNL A   1      46.793  27.953  30.643  1.00  0.00     0.029 A 
ATOM     53  C   UNL A   1      45.662  28.767  30.603  1.00  0.00     0.049 A 
ATOM     54  H   UNL A   1      45.652  30.657  29.674  1.00  0.00     0.167 HD
ATOM     55  C   UNL A   1      43.233  29.281  30.796  1.00  0.00     0.074 A 
ATOM     56  C   UNL A   1      42.984  30.176  29.667  1.00  0.00     0.031 C 
ATOM     57  C   UNL A   1      44.372  28.680  31.250  1.00  0.00     0.037 A 
BRANCH  44  58
ATOM     58  C   UNL A   1      46.550  30.803  26.797  1.00  0.00     0.064 A 
ATOM     59  C   UNL A   1      47.742  31.558  26.776  1.00  0.00     0.173 A 
ATOM     60  C   UNL A   1      45.366  31.539  26.570  1.00  0.00     0.173 A 
ATOM     61  F   UNL A   1      48.929  30.967  26.974  1.00  0.00    -0.203 F 
ATOM     62  C   UNL A   1      47.734  32.950  26.662  1.00  0.00     0.198 A 
ATOM     63  C   UNL A   1      45.369  32.924  26.402  1.00  0.00     0.198 A 
ATOM     64  F   UNL A   1      44.151  30.985  26.614  1.00  0.00    -0.203 F 
ATOM     65  F   UNL A   1      48.878  33.635  26.800  1.00  0.00    -0.200 F 
ATOM     66  C   UNL A   1      46.546  33.633  26.487  1.00  0.00     0.200 A 
ATOM     67  F   UNL A   1      44.204  33.568  26.244  1.00  0.00    -0.200 F 
ATOM     68  F   UNL A   1      46.527  34.972  26.453  1.00  0.00    -0.200 F 
ENDBRANCH  44  58
BRANCH  45  69
ATOM     69  C   UNL A   1      38.751  28.625  29.459  1.00  0.00     0.064 A 
ATOM     70  C   UNL A   1      37.935  28.872  30.575  1.00  0.00     0.173 A 
ATOM     71  C   UNL A   1      38.266  29.081  28.217  1.00  0.00     0.173 A 
ATOM     72  F   UNL A   1      38.341  28.507  31.800  1.00  0.00    -0.203 F 
ATOM     73  C   UNL A   1      36.723  29.562  30.462  1.00  0.00     0.198 A 
ATOM     74  C   UNL A   1      37.053  29.765  28.104  1.00  0.00     0.198 A 
ATOM     75  F   UNL A   1      39.004  28.959  27.104  1.00  0.00    -0.203 F 
ATOM     76  F   UNL A   1      36.004  29.836  31.560  1.00  0.00    -0.200 F 
ATOM     77  C   UNL A   1      36.289  30.019  29.229  1.00  0.00     0.200 A 
ATOM     78  F   UNL A   1      36.663  30.232  26.910  1.00  0.00    -0.200 F 
ATOM     79  F   UNL A   1      35.163  30.738  29.129  1.00  0.00    -0.200 F 
ENDBRANCH  45  69
BRANCH  57  80
ATOM     80  C   UNL A   1      44.241  27.679  32.366  1.00  0.00     0.064 A 
ATOM     81  C   UNL A   1      44.119  26.291  32.175  1.00  0.00     0.173 A 
ATOM     82  C   UNL A   1      44.384  28.136  33.682  1.00  0.00     0.173 A 
ATOM     83  F   UNL A   1      44.076  25.763  30.946  1.00  0.00    -0.203 F 
ATOM     84  C   UNL A   1      44.097  25.410  33.255  1.00  0.00     0.198 A 
ATOM     85  C   UNL A   1      44.400  27.251  34.757  1.00  0.00     0.198 A 
ATOM     86  F   UNL A   1      44.557  29.444  33.923  1.00  0.00    -0.203 F 
ATOM     87  F   UNL A   1      43.966  24.092  33.046  1.00  0.00    -0.200 F 
ATOM     88  C   UNL A   1      44.245  25.891  34.545  1.00  0.00     0.200 A 
ATOM     89  F   UNL A   1      44.591  27.718  35.999  1.00  0.00    -0.200 F 
ATOM     90  F   UNL A   1      44.264  25.042  35.582  1.00  0.00    -0.200 F 
ENDBRANCH  57  80
ENDBRANCH  31  32
ENDBRANCH  23  26
ENDBRANCH  21  22
ENDBRANCH  20  21
ENDBRANCH   1  20
TORSDOF 14
ENDMDL
MODEL 2
REMARK VINA RESULT:     -11.4      1.794      2.986
REMARK SMILES C[C@H]1CC=C(C2=NN=C(C(=O)NCCCCCCNC(=O)c3ccc(-c4c5nc(c(-c6c(F)c(F)c(F)c(F)c6F)c6ccc([nH]6)c(-c6c(F)c(F)c(F)c(F)c6F)c6nc(c(-c7c(F)c(F)c(F)c(F)c7F)c7ccc4[nH]7)C=C6)C=C5)cc3)C2)O1
REMARK SMILES IDX 16 1 15 2 14 3 13 4 12 5 10 6 11 7 9 9 6 10 7 11 85 12 8 13
REMARK SMILES IDX 5 14 1 15 2 16 3 17 86 18 4 19 17 20 18 21 19 22 20 23 21 25
REMARK SMILES IDX 22 26 23 27 84 28 24 29 83 30 25 31 26 32 27 33 77 34 28 35
REMARK SMILES IDX 82 36 76 37 78 38 29 39 81 40 75 41 74 42 30 44 62 45 42 46
REMARK SMILES IDX 61 47 43 48 46 49 60 50 79 51 44 52 45 53 59 55 80 56 47 57
REMARK SMILES IDX 31 58 32 59 40 60 33 61 34 62 38 63 41 64 35 65 36 66 39 67
REMARK SMILES IDX 37 68 63 69 64 70 72 71 65 72 66 73 70 74 73 75 67 76 68 77
REMARK SMILES IDX 71 78 69 79 48 80 49 81 57 82 50 83 51 84 55 85 58 86 52 87
REMARK SMILES IDX 53 88 56 89 54 90
REMARK H PARENT 12 8 19 24 78 43 46 54
REMARK Flexibility Score: inf
ROOT
ATOM      1  C   UNL A   1      40.789  21.521  27.354  1.00  0.00     0.002 C 
ENDROOT
BRANCH   1   2
ATOM      2  C   UNL A   1      39.809  21.744  26.191  1.00  0.00     0.002 C 
BRANCH   2   3
ATOM      3  C   UNL A   1      38.819  22.903  26.344  1.00  0.00     0.021 C 
BRANCH   3   4
ATOM      4  C   UNL A   1      37.570  22.806  25.471  1.00  0.00     0.116 C 
BRANCH   4   5
ATOM      5  N   UNL A   1      36.536  23.726  25.912  1.00  0.00    -0.351 N 
ATOM      6  C   UNL A   1      35.172  23.655  25.788  1.00  0.00     0.267 C 
ATOM      7  O   UNL A   1      34.463  24.565  26.209  1.00  0.00    -0.268 OA
ATOM      8  H   UNL A   1      36.868  24.529  26.374  1.00  0.00     0.163 HD
BRANCH   6   9
ATOM      9  C   UNL A   1      34.485  22.473  25.170  1.00  0.00     0.134 C 
ATOM     10  C   UNL A   1      33.886  20.373  24.723  1.00  0.00     0.111 C 
ATOM     11  N   UNL A   1      33.360  21.146  23.822  1.00  0.00    -0.151 NA
ATOM     12  C   UNL A   1      34.676  21.116  25.748  1.00  0.00     0.126 C 
ATOM     13  N   UNL A   1      33.745  22.484  24.103  1.00  0.00    -0.149 NA
BRANCH  10  14
ATOM     14  C   UNL A   1      33.798  18.908  24.751  1.00  0.00     0.139 C 
ATOM     15  C   UNL A   1      35.171  15.785  25.197  1.00  0.00     0.053 C 
ATOM     16  C   UNL A   1      34.340  16.778  24.400  1.00  0.00     0.174 C 
ATOM     17  C   UNL A   1      32.881  16.825  24.873  1.00  0.00     0.076 C 
ATOM     18  O   UNL A   1      34.906  18.105  24.527  1.00  0.00    -0.489 OA
ATOM     19  C   UNL A   1      32.639  18.279  24.923  1.00  0.00     0.025 C 
ENDBRANCH  10  14
ENDBRANCH   6   9
ENDBRANCH   4   5
ENDBRANCH   3   4
ENDBRANCH   2   3
ENDBRANCH   1   2
BRANCH   1  20
ATOM     20  C   UNL A   1      41.811  20.384  27.209  1.00  0.00     0.021 C 
BRANCH  20  21
ATOM     21  C   UNL A   1      41.910  19.786  25.815  1.00  0.00     0.116 C 
BRANCH  21  22
ATOM     22  N   UNL A   1      43.291  19.578  25.369  1.00  0.00    -0.352 N 
ATOM     23  C   UNL A   1      44.233  20.521  24.984  1.00  0.00     0.251 C 
ATOM     24  H   UNL A   1      43.590  18.640  25.339  1.00  0.00     0.163 HD
ATOM     25  O   UNL A   1      45.186  20.216  24.288  1.00  0.00    -0.269 OA
BRANCH  23  26
ATOM     26  C   UNL A   1      44.065  21.911  25.447  1.00  0.00     0.039 A 
ATOM     27  C   UNL A   1      43.197  22.816  24.828  1.00  0.00     0.014 A 
ATOM     28  C   UNL A   1      44.798  22.290  26.561  1.00  0.00     0.014 A 
ATOM     29  C   UNL A   1      43.037  24.080  25.395  1.00  0.00     0.010 A 
ATOM     30  C   UNL A   1      44.443  23.409  27.253  1.00  0.00     0.010 A 
ATOM     31  C   UNL A   1      43.662  24.360  26.619  1.00  0.00    -0.014 A 
BRANCH  31  32
ATOM     32  C   UNL A   1      43.493  25.625  27.317  1.00  0.00     0.031 A 
ATOM     33  C   UNL A   1      44.457  26.678  26.920  1.00  0.00     0.074 A 
ATOM     34  C   UNL A   1      42.396  25.893  28.062  1.00  0.00     0.049 A 
ATOM     35  N   UNL A   1      45.393  27.199  27.638  1.00  0.00    -0.248 NA
ATOM     36  C   UNL A   1      44.474  27.110  25.514  1.00  0.00     0.031 C 
ATOM     37  C   UNL A   1      41.194  25.067  28.254  1.00  0.00     0.029 A 
ATOM     38  N   UNL A   1      42.072  27.033  28.725  1.00  0.00    -0.354 N 
ATOM     39  C   UNL A   1      45.987  28.174  26.843  1.00  0.00     0.074 A 
ATOM     40  C   UNL A   1      45.526  27.931  25.502  1.00  0.00     0.031 C 
ATOM     41  C   UNL A   1      40.200  25.819  28.773  1.00  0.00     0.029 A 
ATOM     42  C   UNL A   1      40.742  27.119  29.118  1.00  0.00     0.049 A 
ATOM     43  H   UNL A   1      42.729  27.742  28.914  1.00  0.00     0.167 HD
ATOM     44  C   UNL A   1      46.587  29.257  27.410  1.00  0.00     0.037 A 
ATOM     45  C   UNL A   1      40.128  28.198  29.663  1.00  0.00     0.037 A 
ATOM     46  C   UNL A   1      46.836  29.027  28.814  1.00  0.00     0.049 A 
ATOM     47  C   UNL A   1      41.195  29.084  30.190  1.00  0.00     0.074 A 
ATOM     48  C   UNL A   1      47.552  28.090  29.536  1.00  0.00     0.029 A 
ATOM     49  N   UNL A   1      45.980  29.610  29.718  1.00  0.00    -0.354 N 
ATOM     50  N   UNL A   1      41.962  28.775  31.199  1.00  0.00    -0.248 NA
ATOM     51  C   UNL A   1      41.717  30.108  29.298  1.00  0.00     0.031 C 
ATOM     52  C   UNL A   1      46.754  27.822  30.688  1.00  0.00     0.029 A 
ATOM     53  C   UNL A   1      45.639  28.659  30.643  1.00  0.00     0.049 A 
ATOM     54  H   UNL A   1      45.669  30.544  29.703  1.00  0.00     0.167 HD
ATOM     55  C   UNL A   1      43.222  29.225  30.831  1.00  0.00     0.074 A 
ATOM     56  C   UNL A   1      42.992  30.117  29.697  1.00  0.00     0.031 C 
ATOM     57  C   UNL A   1      44.348  28.602  31.290  1.00  0.00     0.037 A 
BRANCH  44  58
ATOM     58  C   UNL A   1      46.572  30.654  26.826  1.00  0.00     0.064 A 
ATOM     59  C   UNL A   1      47.770  31.400  26.839  1.00  0.00     0.173 A 
ATOM     60  C   UNL A   1      45.402  31.398  26.557  1.00  0.00     0.173 A 
ATOM     61  F   UNL A   1      48.946  30.801  27.078  1.00  0.00    -0.203 F 
ATOM     62  C   UNL A   1      47.776  32.792  26.717  1.00  0.00     0.198 A 
ATOM     63  C   UNL A   1      45.421  32.781  26.382  1.00  0.00     0.198 A 
ATOM     64  F   UNL A   1      44.182  30.853  26.565  1.00  0.00    -0.203 F 
ATOM     65  F   UNL A   1      48.921  33.468  26.888  1.00  0.00    -0.200 F 
ATOM     66  C   UNL A   1      46.600  33.482  26.501  1.00  0.00     0.200 A 
ATOM     67  F   UNL A   1      44.266  33.434  26.184  1.00  0.00    -0.200 F 
ATOM     68  F   UNL A   1      46.592  34.821  26.460  1.00  0.00    -0.200 F 
ENDBRANCH  44  58
BRANCH  45  69
ATOM     69  C   UNL A   1      38.728  28.653  29.494  1.00  0.00     0.064 A 
ATOM     70  C   UNL A   1      37.913  28.911  30.608  1.00  0.00     0.173 A 
ATOM     71  C   UNL A   1      38.257  29.123  28.252  1.00  0.00     0.173 A 
ATOM     72  F   UNL A   1      38.307  28.533  31.833  1.00  0.00    -0.203 F 
ATOM     73  C   UNL A   1      36.715  29.625  30.493  1.00  0.00     0.198 A 
ATOM     74  C   UNL A   1      37.058  29.830  28.137  1.00  0.00     0.198 A 
ATOM     75  F   UNL A   1      38.996  28.991  27.142  1.00  0.00    -0.203 F 
ATOM     76  F   UNL A   1      35.997  29.908  31.589  1.00  0.00    -0.200 F 
ATOM     77  C   UNL A   1      36.295  30.095  29.260  1.00  0.00     0.200 A 
ATOM     78  F   UNL A   1      36.682  30.310  26.944  1.00  0.00    -0.200 F 
ATOM     79  F   UNL A   1      35.183  30.836  29.158  1.00  0.00    -0.200 F 
ENDBRANCH  45  69
BRANCH  57  80
ATOM     80  C   UNL A   1      44.195  27.611  32.411  1.00  0.00     0.064 A 
ATOM     81  C   UNL A   1      44.077  26.222  32.229  1.00  0.00     0.173 A 
ATOM     82  C   UNL A   1      44.313  28.079  33.725  1.00  0.00     0.173 A 
ATOM     83  F   UNL A   1      44.058  25.683  31.005  1.00  0.00    -0.203 F 
ATOM     84  C   UNL A   1      44.034  25.349  33.317  1.00  0.00     0.198 A 
ATOM     85  C   UNL A   1      44.308  27.204  34.808  1.00  0.00     0.198 A 
ATOM     86  F   UNL A   1      44.481  29.390  33.959  1.00  0.00    -0.203 F 
ATOM     87  F   UNL A   1      43.908  24.029  33.117  1.00  0.00    -0.200 F 
ATOM     88  C   UNL A   1      44.158  25.841  34.605  1.00  0.00     0.200 A 
ATOM     89  F   UNL A   1      44.475  27.681  36.049  1.00  0.00    -0.200 F 
ATOM     90  F   UNL A   1      44.157  25.001  35.650  1.00  0.00    -0.200 F 
ENDBRANCH  57  80
ENDBRANCH  31  32
ENDBRANCH  23  26
ENDBRANCH  21  22
ENDBRANCH  20  21
ENDBRANCH   1  20
TORSDOF 14
ENDMDL
MODEL 3
REMARK VINA RESULT:     -11.2      2.970      4.414
REMARK SMILES C[C@H]1CC=C(C2=NN=C(C(=O)NCCCCCCNC(=O)c3ccc(-c4c5nc(c(-c6c(F)c(F)c(F)c(F)c6F)c6ccc([nH]6)c(-c6c(F)c(F)c(F)c(F)c6F)c6nc(c(-c7c(F)c(F)c(F)c(F)c7F)c7ccc4[nH]7)C=C6)C=C5)cc3)C2)O1
REMARK SMILES IDX 16 1 15 2 14 3 13 4 12 5 10 6 11 7 9 9 6 10 7 11 85 12 8 13
REMARK SMILES IDX 5 14 1 15 2 16 3 17 86 18 4 19 17 20 18 21 19 22 20 23 21 25
REMARK SMILES IDX 22 26 23 27 84 28 24 29 83 30 25 31 26 32 27 33 77 34 28 35
REMARK SMILES IDX 82 36 76 37 78 38 29 39 81 40 75 41 74 42 30 44 62 45 42 46
REMARK SMILES IDX 61 47 43 48 46 49 60 50 79 51 44 52 45 53 59 55 80 56 47 57
REMARK SMILES IDX 31 58 32 59 40 60 33 61 34 62 38 63 41 64 35 65 36 66 39 67
REMARK SMILES IDX 37 68 63 69 64 70 72 71 65 72 66 73 70 74 73 75 67 76 68 77
REMARK SMILES IDX 71 78 69 79 48 80 49 81 57 82 50 83 51 84 55 85 58 86 52 87
REMARK SMILES IDX 53 88 56 89 54 90
REMARK H PARENT 12 8 19 24 78 43 46 54
REMARK Flexibility Score: inf
ROOT
ATOM      1  C   UNL A   1      38.221  23.255  26.112  1.00  0.00     0.002 C 
ENDROOT
BRANCH   1   2
ATOM      2  C   UNL A   1      36.948  23.576  25.313  1.00  0.00     0.002 C 
BRANCH   2   3
ATOM      3  C   UNL A   1      36.779  22.851  23.974  1.00  0.00     0.021 C 
BRANCH   3   4
ATOM      4  C   UNL A   1      35.559  23.273  23.158  1.00  0.00     0.116 C 
BRANCH   4   5
ATOM      5  N   UNL A   1      34.508  23.808  24.004  1.00  0.00    -0.351 N 
ATOM      6  C   UNL A   1      33.342  23.235  24.444  1.00  0.00     0.267 C 
ATOM      7  O   UNL A   1      32.559  23.876  25.139  1.00  0.00    -0.268 OA
ATOM      8  H   UNL A   1      34.655  24.732  24.311  1.00  0.00     0.163 HD
BRANCH   6   9
ATOM      9  C   UNL A   1      32.982  21.813  24.129  1.00  0.00     0.134 C 
ATOM     10  C   UNL A   1      32.954  19.584  24.159  1.00  0.00     0.111 C 
ATOM     11  N   UNL A   1      32.223  19.986  23.164  1.00  0.00    -0.151 NA
ATOM     12  C   UNL A   1      33.540  20.705  24.951  1.00  0.00     0.126 C 
ATOM     13  N   UNL A   1      32.244  21.406  23.141  1.00  0.00    -0.149 NA
BRANCH  10  14
ATOM     14  C   UNL A   1      33.260  18.187  24.486  1.00  0.00     0.139 C 
ATOM     15  C   UNL A   1      32.399  15.089  25.712  1.00  0.00     0.053 C 
ATOM     16  C   UNL A   1      33.339  16.281  25.634  1.00  0.00     0.174 C 
ATOM     17  C   UNL A   1      34.322  16.170  24.461  1.00  0.00     0.076 C 
ATOM     18  O   UNL A   1      32.574  17.501  25.477  1.00  0.00    -0.489 OA
ATOM     19  C   UNL A   1      34.257  17.531  23.898  1.00  0.00     0.025 C 
ENDBRANCH  10  14
ENDBRANCH   6   9
ENDBRANCH   4   5
ENDBRANCH   3   4
ENDBRANCH   2   3
ENDBRANCH   1   2
BRANCH   1  20
ATOM     20  C   UNL A   1      38.804  21.841  25.973  1.00  0.00     0.021 C 
BRANCH  20  21
ATOM     21  C   UNL A   1      40.030  21.567  26.831  1.00  0.00     0.116 C 
BRANCH  21  22
ATOM     22  N   UNL A   1      41.289  21.646  26.085  1.00  0.00    -0.352 N 
ATOM     23  C   UNL A   1      42.074  22.759  25.816  1.00  0.00     0.251 C 
ATOM     24  H   UNL A   1      41.624  20.793  25.726  1.00  0.00     0.163 HD
ATOM     25  O   UNL A   1      42.867  22.765  24.890  1.00  0.00    -0.269 OA
BRANCH  23  26
ATOM     26  C   UNL A   1      41.938  23.942  26.687  1.00  0.00     0.039 A 
ATOM     27  C   UNL A   1      42.450  23.989  27.987  1.00  0.00     0.014 A 
ATOM     28  C   UNL A   1      41.289  25.041  26.147  1.00  0.00     0.014 A 
ATOM     29  C   UNL A   1      42.352  25.184  28.698  1.00  0.00     0.010 A 
ATOM     30  C   UNL A   1      41.431  26.263  26.732  1.00  0.00     0.010 A 
ATOM     31  C   UNL A   1      41.847  26.321  28.051  1.00  0.00    -0.014 A 
BRANCH  31  32
ATOM     32  C   UNL A   1      41.775  27.624  28.693  1.00  0.00     0.031 A 
ATOM     33  C   UNL A   1      42.870  28.551  28.322  1.00  0.00     0.074 A 
ATOM     34  C   UNL A   1      40.671  28.038  29.356  1.00  0.00     0.049 A 
ATOM     35  N   UNL A   1      43.812  28.999  29.082  1.00  0.00    -0.248 NA
ATOM     36  C   UNL A   1      43.019  28.920  26.906  1.00  0.00     0.031 C 
ATOM     37  C   UNL A   1      39.376  27.354  29.498  1.00  0.00     0.029 A 
ATOM     38  N   UNL A   1      40.434  29.233  29.957  1.00  0.00    -0.354 N 
ATOM     39  C   UNL A   1      44.556  29.871  28.294  1.00  0.00     0.074 A 
ATOM     40  C   UNL A   1      44.153  29.623  26.934  1.00  0.00     0.031 C 
ATOM     41  C   UNL A   1      38.441  28.229  29.925  1.00  0.00     0.029 A 
ATOM     42  C   UNL A   1      39.099  29.477  30.260  1.00  0.00     0.049 A 
ATOM     43  H   UNL A   1      41.151  29.876  30.163  1.00  0.00     0.167 HD
ATOM     44  C   UNL A   1      45.235  30.906  28.860  1.00  0.00     0.037 A 
ATOM     45  C   UNL A   1      38.576  30.637  30.727  1.00  0.00     0.037 A 
ATOM     46  C   UNL A   1      45.373  30.708  30.285  1.00  0.00     0.049 A 
ATOM     47  C   UNL A   1      39.699  31.425  31.291  1.00  0.00     0.074 A 
ATOM     48  C   UNL A   1      45.937  29.731  31.083  1.00  0.00     0.029 A 
ATOM     49  N   UNL A   1      44.533  31.417  31.111  1.00  0.00    -0.354 N 
ATOM     50  N   UNL A   1      40.366  31.077  32.357  1.00  0.00    -0.248 NA
ATOM     51  C   UNL A   1      40.383  32.349  30.400  1.00  0.00     0.031 C 
ATOM     52  C   UNL A   1      45.046  29.598  32.190  1.00  0.00     0.029 A 
ATOM     53  C   UNL A   1      44.035  30.546  32.045  1.00  0.00     0.049 A 
ATOM     54  H   UNL A   1      44.327  32.376  31.044  1.00  0.00     0.167 HD
ATOM     55  C   UNL A   1      41.687  31.374  32.057  1.00  0.00     0.074 A 
ATOM     56  C   UNL A   1      41.625  32.239  30.879  1.00  0.00     0.031 C 
ATOM     57  C   UNL A   1      42.708  30.654  32.608  1.00  0.00     0.037 A 
BRANCH  44  58
ATOM     58  C   UNL A   1      45.409  32.271  28.229  1.00  0.00     0.064 A 
ATOM     59  C   UNL A   1      44.253  33.001  27.879  1.00  0.00     0.173 A 
ATOM     60  C   UNL A   1      46.614  32.747  27.667  1.00  0.00     0.173 A 
ATOM     61  F   UNL A   1      43.051  32.647  28.355  1.00  0.00    -0.203 F 
ATOM     62  C   UNL A   1      44.288  34.041  26.947  1.00  0.00     0.198 A 
ATOM     63  C   UNL A   1      46.651  33.821  26.779  1.00  0.00     0.198 A 
ATOM     64  F   UNL A   1      47.788  32.135  27.853  1.00  0.00    -0.203 F 
ATOM     65  F   UNL A   1      43.143  34.603  26.535  1.00  0.00    -0.200 F 
ATOM     66  C   UNL A   1      45.486  34.442  26.389  1.00  0.00     0.200 A 
ATOM     67  F   UNL A   1      47.823  34.187  26.240  1.00  0.00    -0.200 F 
ATOM     68  F   UNL A   1      45.515  35.387  25.440  1.00  0.00    -0.200 F 
ENDBRANCH  44  58
BRANCH  45  69
ATOM     69  C   UNL A   1      37.246  31.232  30.452  1.00  0.00     0.064 A 
ATOM     70  C   UNL A   1      36.304  31.401  31.480  1.00  0.00     0.173 A 
ATOM     71  C   UNL A   1      36.984  31.910  29.246  1.00  0.00     0.173 A 
ATOM     72  F   UNL A   1      36.499  30.822  32.674  1.00  0.00    -0.203 F 
ATOM     73  C   UNL A   1      35.185  32.226  31.323  1.00  0.00     0.198 A 
ATOM     74  C   UNL A   1      35.864  32.729  29.088  1.00  0.00     0.198 A 
ATOM     75  F   UNL A   1      37.859  31.871  28.231  1.00  0.00    -0.203 F 
ATOM     76  F   UNL A   1      34.344  32.415  32.349  1.00  0.00    -0.200 F 
ATOM     77  C   UNL A   1      34.972  32.899  30.131  1.00  0.00     0.200 A 
ATOM     78  F   UNL A   1      35.690  33.402  27.942  1.00  0.00    -0.200 F 
ATOM     79  F   UNL A   1      33.938  33.741  30.003  1.00  0.00    -0.200 F 
ENDBRANCH  45  69
BRANCH  57  80
ATOM     80  C   UNL A   1      42.380  29.732  33.750  1.00  0.00     0.064 A 
ATOM     81  C   UNL A   1      41.969  28.396  33.597  1.00  0.00     0.173 A 
ATOM     82  C   UNL A   1      42.628  30.182  35.053  1.00  0.00     0.173 A 
ATOM     83  F   UNL A   1      41.805  27.858  32.383  1.00  0.00    -0.203 F 
ATOM     84  C   UNL A   1      41.773  27.567  34.701  1.00  0.00     0.198 A 
ATOM     85  C   UNL A   1      42.468  29.341  36.151  1.00  0.00     0.198 A 
ATOM     86  F   UNL A   1      43.074  31.431  35.258  1.00  0.00    -0.203 F 
ATOM     87  F   UNL A   1      41.368  26.300  34.528  1.00  0.00    -0.200 F 
ATOM     88  C   UNL A   1      42.031  28.039  35.977  1.00  0.00     0.200 A 
ATOM     89  F   UNL A   1      42.765  29.790  37.379  1.00  0.00    -0.200 F 
ATOM     90  F   UNL A   1      41.881  27.231  37.036  1.00  0.00    -0.200 F 
ENDBRANCH  57  80
ENDBRANCH  31  32
ENDBRANCH  23  26
ENDBRANCH  21  22
ENDBRANCH  20  21
ENDBRANCH   1  20
TORSDOF 14
ENDMDL
