MODEL 1
REMARK VINA RESULT:     -12.2      0.000      0.000
REMARK SMILES Cc1cc(OC(F)(F)F)cc2c1O[C@H](C(F)(F)F)C(C(=O)NCCCCCCNC(=O)c1ccc(-c3c4nc(c(-c5c(F)c(F)c(F)c(F)c5F)c5ccc([nH]5)c(-c5c(F)c(F)c(F)c(F)c5F)c5nc(c(-c6c(F)c(F)c(F)c(F)c6F)c6ccc3[nH]6)C=C5)C=C4)cc1)=C2
REMARK SMILES IDX 25 1 24 2 23 3 22 4 20 5 21 6 19 8 1 9 2 10 3 11 12 12 4 13
REMARK SMILES IDX 11 14 13 15 10 16 95 17 14 18 5 19 6 20 7 21 8 22 9 23 15 24
REMARK SMILES IDX 16 25 17 26 18 27 26 28 27 29 28 30 29 31 30 32 31 34 32 35
REMARK SMILES IDX 33 36 94 37 34 38 93 39 35 40 36 41 37 42 87 43 38 44 92 45
REMARK SMILES IDX 86 46 88 47 39 48 91 49 85 50 84 51 40 53 72 54 52 55 71 56
REMARK SMILES IDX 53 57 56 58 70 59 89 60 54 61 55 62 69 64 90 65 57 66 41 67
REMARK SMILES IDX 42 68 50 69 43 70 44 71 48 72 51 73 45 74 46 75 49 76 47 77
REMARK SMILES IDX 73 78 74 79 82 80 75 81 76 82 80 83 83 84 77 85 78 86 81 87
REMARK SMILES IDX 79 88 58 89 59 90 67 91 60 92 61 93 65 94 68 95 62 96 63 97
REMARK SMILES IDX 66 98 64 99
REMARK H PARENT 22 7 29 33 88 52 56 63
REMARK Flexibility Score: inf
ROOT
ATOM      1  C   UNL A   1      32.914  29.501  26.701  1.00  0.00     0.002 C 
ENDROOT
BRANCH   1   2
ATOM      2  C   UNL A   1      33.806  28.730  25.723  1.00  0.00     0.021 C 
BRANCH   2   3
ATOM      3  C   UNL A   1      34.006  27.266  26.103  1.00  0.00     0.116 C 
BRANCH   3   4
ATOM      4  N   UNL A   1      33.961  26.397  24.942  1.00  0.00    -0.352 N 
ATOM      5  C   UNL A   1      33.057  26.045  23.998  1.00  0.00     0.251 C 
ATOM      6  O   UNL A   1      33.474  25.260  23.140  1.00  0.00    -0.270 OA
ATOM      7  H   UNL A   1      34.822  25.939  24.802  1.00  0.00     0.163 HD
BRANCH   5   8
ATOM      8  C   UNL A   1      31.645  26.526  23.933  1.00  0.00     0.067 C 
ATOM      9  C   UNL A   1      26.536  27.060  23.871  1.00  0.00     0.048 C 
ATOM     10  C   UNL A   1      27.705  27.929  23.502  1.00  0.00    -0.005 A 
ATOM     11  C   UNL A   1      27.488  29.221  23.002  1.00  0.00     0.054 A 
ATOM     12  C   UNL A   1      29.016  27.452  23.598  1.00  0.00     0.131 A 
ATOM     13  C   UNL A   1      28.563  30.028  22.622  1.00  0.00     0.130 A 
ATOM     14  C   UNL A   1      30.102  28.247  23.226  1.00  0.00     0.021 A 
ATOM     15  O   UNL A   1      29.176  26.164  24.017  1.00  0.00    -0.475 OA
ATOM     16  C   UNL A   1      29.867  29.536  22.741  1.00  0.00     0.058 A 
ATOM     17  C   UNL A   1      31.453  27.703  23.308  1.00  0.00     0.025 C 
ATOM     18  C   UNL A   1      30.478  25.802  24.539  1.00  0.00     0.314 C 
BRANCH  13  19
ATOM     19  O   UNL A   1      28.479  31.296  22.118  1.00  0.00    -0.406 OA
BRANCH  19  20
ATOM     20  C   UNL A   1      28.403  32.368  23.043  1.00  0.00     0.573 C 
ATOM     21  F   UNL A   1      27.262  32.309  23.765  1.00  0.00    -0.132 F 
ATOM     22  F   UNL A   1      29.464  32.369  23.876  1.00  0.00    -0.132 F 
ATOM     23  F   UNL A   1      28.404  33.533  22.359  1.00  0.00    -0.132 F 
ENDBRANCH  19  20
ENDBRANCH  13  19
BRANCH  18  24
ATOM     24  C   UNL A   1      30.449  25.894  26.076  1.00  0.00     0.429 C 
ATOM     25  F   UNL A   1      31.410  25.100  26.615  1.00  0.00    -0.167 F 
ATOM     26  F   UNL A   1      30.694  27.145  26.529  1.00  0.00    -0.167 F 
ATOM     27  F   UNL A   1      29.264  25.508  26.600  1.00  0.00    -0.167 F 
ENDBRANCH  18  24
ENDBRANCH   5   8
ENDBRANCH   3   4
ENDBRANCH   2   3
ENDBRANCH   1   2
BRANCH   1  28
ATOM     28  C   UNL A   1      31.711  30.213  26.066  1.00  0.00     0.002 C 
BRANCH  28  29
ATOM     29  C   UNL A   1      31.505  31.667  26.501  1.00  0.00     0.021 C 
BRANCH  29  30
ATOM     30  C   UNL A   1      32.791  32.395  26.876  1.00  0.00     0.116 C 
BRANCH  30  31
ATOM     31  N   UNL A   1      32.524  33.754  27.319  1.00  0.00    -0.352 N 
ATOM     32  C   UNL A   1      33.050  34.422  28.393  1.00  0.00     0.251 C 
ATOM     33  H   UNL A   1      31.880  34.261  26.774  1.00  0.00     0.163 HD
ATOM     34  O   UNL A   1      32.563  35.483  28.774  1.00  0.00    -0.269 OA
BRANCH  32  35
ATOM     35  C   UNL A   1      34.212  33.851  29.095  1.00  0.00     0.039 A 
ATOM     36  C   UNL A   1      35.493  34.304  28.773  1.00  0.00     0.014 A 
ATOM     37  C   UNL A   1      34.027  32.856  30.061  1.00  0.00     0.014 A 
ATOM     38  C   UNL A   1      36.595  33.780  29.448  1.00  0.00     0.010 A 
ATOM     39  C   UNL A   1      35.121  32.372  30.768  1.00  0.00     0.010 A 
ATOM     40  C   UNL A   1      36.414  32.820  30.455  1.00  0.00    -0.014 A 
BRANCH  40  41
ATOM     41  C   UNL A   1      37.574  32.221  31.153  1.00  0.00     0.031 A 
ATOM     42  C   UNL A   1      38.345  31.119  30.486  1.00  0.00     0.074 A 
ATOM     43  C   UNL A   1      37.904  32.638  32.389  1.00  0.00     0.049 A 
ATOM     44  N   UNL A   1      39.361  30.429  30.939  1.00  0.00    -0.248 NA
ATOM     45  C   UNL A   1      37.905  30.728  29.138  1.00  0.00     0.031 C 
ATOM     46  C   UNL A   1      37.212  33.685  33.139  1.00  0.00     0.029 A 
ATOM     47  N   UNL A   1      38.903  32.225  33.233  1.00  0.00    -0.354 N 
ATOM     48  C   UNL A   1      39.679  29.529  29.932  1.00  0.00     0.074 A 
ATOM     49  C   UNL A   1      38.718  29.718  28.869  1.00  0.00     0.031 C 
ATOM     50  C   UNL A   1      37.816  33.845  34.327  1.00  0.00     0.029 A 
ATOM     51  C   UNL A   1      38.919  32.891  34.433  1.00  0.00     0.049 A 
ATOM     52  H   UNL A   1      39.547  31.518  33.000  1.00  0.00     0.167 HD
ATOM     53  C   UNL A   1      40.703  28.646  29.888  1.00  0.00     0.037 A 
ATOM     54  C   UNL A   1      39.733  32.745  35.496  1.00  0.00     0.037 A 
ATOM     55  C   UNL A   1      41.665  28.473  30.943  1.00  0.00     0.049 A 
ATOM     56  C   UNL A   1      40.838  31.724  35.439  1.00  0.00     0.074 A 
ATOM     57  C   UNL A   1      42.763  27.632  30.979  1.00  0.00     0.029 A 
ATOM     58  N   UNL A   1      41.642  29.157  32.150  1.00  0.00    -0.354 N 
ATOM     59  N   UNL A   1      41.165  30.915  34.461  1.00  0.00    -0.248 NA
ATOM     60  C   UNL A   1      41.689  31.601  36.630  1.00  0.00     0.031 C 
ATOM     61  C   UNL A   1      43.379  27.774  32.227  1.00  0.00     0.029 A 
ATOM     62  C   UNL A   1      42.694  28.739  32.948  1.00  0.00     0.049 A 
ATOM     63  H   UNL A   1      40.977  29.838  32.402  1.00  0.00     0.167 HD
ATOM     64  C   UNL A   1      42.272  30.204  34.907  1.00  0.00     0.074 A 
ATOM     65  C   UNL A   1      42.569  30.688  36.239  1.00  0.00     0.031 C 
ATOM     66  C   UNL A   1      42.976  29.238  34.270  1.00  0.00     0.037 A 
BRANCH  53  67
ATOM     67  C   UNL A   1      40.846  27.807  28.654  1.00  0.00     0.064 A 
ATOM     68  C   UNL A   1      40.139  26.604  28.504  1.00  0.00     0.173 A 
ATOM     69  C   UNL A   1      41.652  28.232  27.588  1.00  0.00     0.173 A 
ATOM     70  F   UNL A   1      39.366  26.146  29.500  1.00  0.00    -0.203 F 
ATOM     71  C   UNL A   1      40.248  25.850  27.338  1.00  0.00     0.198 A 
ATOM     72  C   UNL A   1      41.737  27.490  26.414  1.00  0.00     0.198 A 
ATOM     73  F   UNL A   1      42.348  29.377  27.681  1.00  0.00    -0.203 F 
ATOM     74  F   UNL A   1      39.592  24.686  27.232  1.00  0.00    -0.200 F 
ATOM     75  C   UNL A   1      41.039  26.298  26.292  1.00  0.00     0.200 A 
ATOM     76  F   UNL A   1      42.493  27.929  25.398  1.00  0.00    -0.200 F 
ATOM     77  F   UNL A   1      41.130  25.579  25.165  1.00  0.00    -0.200 F 
ENDBRANCH  53  67
BRANCH  54  78
ATOM     78  C   UNL A   1      39.550  33.609  36.690  1.00  0.00     0.064 A 
ATOM     79  C   UNL A   1      38.758  33.186  37.767  1.00  0.00     0.173 A 
ATOM     80  C   UNL A   1      40.171  34.863  36.789  1.00  0.00     0.173 A 
ATOM     81  F   UNL A   1      38.128  32.003  37.709  1.00  0.00    -0.203 F 
ATOM     82  C   UNL A   1      38.584  33.989  38.892  1.00  0.00     0.198 A 
ATOM     83  C   UNL A   1      40.015  35.654  37.926  1.00  0.00     0.198 A 
ATOM     84  F   UNL A   1      40.942  35.312  35.788  1.00  0.00    -0.203 F 
ATOM     85  F   UNL A   1      37.793  33.576  39.891  1.00  0.00    -0.200 F 
ATOM     86  C   UNL A   1      39.218  35.219  38.974  1.00  0.00     0.200 A 
ATOM     87  F   UNL A   1      40.641  36.837  38.006  1.00  0.00    -0.200 F 
ATOM     88  F   UNL A   1      39.057  35.988  40.060  1.00  0.00    -0.200 F 
ENDBRANCH  54  78
BRANCH  66  89
ATOM     89  C   UNL A   1      44.151  28.645  34.992  1.00  0.00     0.064 A 
ATOM     90  C   UNL A   1      44.021  27.487  35.772  1.00  0.00     0.173 A 
ATOM     91  C   UNL A   1      45.433  29.193  34.832  1.00  0.00     0.173 A 
ATOM     92  F   UNL A   1      42.814  26.934  35.964  1.00  0.00    -0.203 F 
ATOM     93  C   UNL A   1      45.132  26.907  36.379  1.00  0.00     0.198 A 
ATOM     94  C   UNL A   1      46.545  28.593  35.417  1.00  0.00     0.198 A 
ATOM     95  F   UNL A   1      45.611  30.294  34.088  1.00  0.00    -0.203 F 
ATOM     96  F   UNL A   1      44.981  25.819  37.147  1.00  0.00    -0.200 F 
ATOM     97  C   UNL A   1      46.393  27.454  36.192  1.00  0.00     0.200 A 
ATOM     98  F   UNL A   1      47.764  29.113  35.222  1.00  0.00    -0.200 F 
ATOM     99  F   UNL A   1      47.463  26.882  36.762  1.00  0.00    -0.200 F 
ENDBRANCH  66  89
ENDBRANCH  40  41
ENDBRANCH  32  35
ENDBRANCH  30  31
ENDBRANCH  29  30
ENDBRANCH  28  29
ENDBRANCH   1  28
TORSDOF 16
ENDMDL
MODEL 2
REMARK VINA RESULT:     -12.0      3.874      9.344
REMARK SMILES Cc1cc(OC(F)(F)F)cc2c1O[C@H](C(F)(F)F)C(C(=O)NCCCCCCNC(=O)c1ccc(-c3c4nc(c(-c5c(F)c(F)c(F)c(F)c5F)c5ccc([nH]5)c(-c5c(F)c(F)c(F)c(F)c5F)c5nc(c(-c6c(F)c(F)c(F)c(F)c6F)c6ccc3[nH]6)C=C5)C=C4)cc1)=C2
REMARK SMILES IDX 25 1 24 2 23 3 22 4 20 5 21 6 19 8 1 9 2 10 3 11 12 12 4 13
REMARK SMILES IDX 11 14 13 15 10 16 95 17 14 18 5 19 6 20 7 21 8 22 9 23 15 24
REMARK SMILES IDX 16 25 17 26 18 27 26 28 27 29 28 30 29 31 30 32 31 34 32 35
REMARK SMILES IDX 33 36 94 37 34 38 93 39 35 40 36 41 37 42 87 43 38 44 92 45
REMARK SMILES IDX 86 46 88 47 39 48 91 49 85 50 84 51 40 53 72 54 52 55 71 56
REMARK SMILES IDX 53 57 56 58 70 59 89 60 54 61 55 62 69 64 90 65 57 66 41 67
REMARK SMILES IDX 42 68 50 69 43 70 44 71 48 72 51 73 45 74 46 75 49 76 47 77
REMARK SMILES IDX 73 78 74 79 82 80 75 81 76 82 80 83 83 84 77 85 78 86 81 87
REMARK SMILES IDX 79 88 58 89 59 90 67 91 60 92 61 93 65 94 68 95 62 96 63 97
REMARK SMILES IDX 66 98 64 99
REMARK H PARENT 22 7 29 33 88 52 56 63
REMARK Flexibility Score: inf
ROOT
ATOM      1  C   UNL A   1      31.595  27.747  24.740  1.00  0.00     0.002 C 
ENDROOT
BRANCH   1   2
ATOM      2  C   UNL A   1      30.370  27.118  24.067  1.00  0.00     0.021 C 
BRANCH   2   3
ATOM      3  C   UNL A   1      30.632  25.723  23.507  1.00  0.00     0.116 C 
BRANCH   3   4
ATOM      4  N   UNL A   1      31.530  25.760  22.368  1.00  0.00    -0.352 N 
ATOM      5  C   UNL A   1      32.662  25.131  21.974  1.00  0.00     0.251 C 
ATOM      6  O   UNL A   1      33.092  25.470  20.866  1.00  0.00    -0.270 OA
ATOM      7  H   UNL A   1      31.237  26.421  21.700  1.00  0.00     0.163 HD
BRANCH   5   8
ATOM      8  C   UNL A   1      33.395  24.097  22.765  1.00  0.00     0.067 C 
ATOM      9  C   UNL A   1      36.820  21.247  25.322  1.00  0.00     0.048 C 
ATOM     10  C   UNL A   1      35.431  21.027  24.791  1.00  0.00    -0.005 A 
ATOM     11  C   UNL A   1      34.803  19.785  24.963  1.00  0.00     0.054 A 
ATOM     12  C   UNL A   1      34.767  22.028  24.074  1.00  0.00     0.131 A 
ATOM     13  C   UNL A   1      33.527  19.553  24.445  1.00  0.00     0.130 A 
ATOM     14  C   UNL A   1      33.489  21.814  23.554  1.00  0.00     0.021 A 
ATOM     15  O   UNL A   1      35.445  23.192  23.866  1.00  0.00    -0.475 OA
ATOM     16  C   UNL A   1      32.874  20.575  23.746  1.00  0.00     0.058 A 
ATOM     17  C   UNL A   1      32.841  22.870  22.783  1.00  0.00     0.025 C 
ATOM     18  C   UNL A   1      34.654  24.362  23.538  1.00  0.00     0.314 C 
BRANCH  13  19
ATOM     19  O   UNL A   1      32.816  18.390  24.543  1.00  0.00    -0.406 OA
BRANCH  19  20
ATOM     20  C   UNL A   1      33.055  17.388  23.568  1.00  0.00     0.573 C 
ATOM     21  F   UNL A   1      32.285  17.578  22.475  1.00  0.00    -0.132 F 
ATOM     22  F   UNL A   1      34.355  17.363  23.204  1.00  0.00    -0.132 F 
ATOM     23  F   UNL A   1      32.744  16.184  24.096  1.00  0.00    -0.132 F 
ENDBRANCH  19  20
ENDBRANCH  13  19
BRANCH  18  24
ATOM     24  C   UNL A   1      34.410  25.180  24.818  1.00  0.00     0.429 C 
ATOM     25  F   UNL A   1      33.198  24.876  25.349  1.00  0.00    -0.167 F 
ATOM     26  F   UNL A   1      35.321  24.923  25.785  1.00  0.00    -0.167 F 
ATOM     27  F   UNL A   1      34.432  26.514  24.598  1.00  0.00    -0.167 F 
ENDBRANCH  18  24
ENDBRANCH   5   8
ENDBRANCH   3   4
ENDBRANCH   2   3
ENDBRANCH   1   2
BRANCH   1  28
ATOM     28  C   UNL A   1      31.455  27.998  26.248  1.00  0.00     0.002 C 
BRANCH  28  29
ATOM     29  C   UNL A   1      32.702  27.690  27.082  1.00  0.00     0.021 C 
BRANCH  29  30
ATOM     30  C   UNL A   1      33.922  28.526  26.716  1.00  0.00     0.116 C 
BRANCH  30  31
ATOM     31  N   UNL A   1      33.724  29.929  27.039  1.00  0.00    -0.352 N 
ATOM     32  C   UNL A   1      34.484  30.738  27.842  1.00  0.00     0.251 C 
ATOM     33  H   UNL A   1      32.938  30.355  26.626  1.00  0.00     0.163 HD
ATOM     34  O   UNL A   1      34.070  31.836  28.203  1.00  0.00    -0.269 OA
BRANCH  32  35
ATOM     35  C   UNL A   1      35.814  30.273  28.275  1.00  0.00     0.039 A 
ATOM     36  C   UNL A   1      35.957  29.706  29.543  1.00  0.00     0.014 A 
ATOM     37  C   UNL A   1      36.916  30.416  27.426  1.00  0.00     0.014 A 
ATOM     38  C   UNL A   1      37.210  29.246  29.950  1.00  0.00     0.010 A 
ATOM     39  C   UNL A   1      38.152  29.911  27.812  1.00  0.00     0.010 A 
ATOM     40  C   UNL A   1      38.310  29.338  29.083  1.00  0.00    -0.014 A 
BRANCH  40  41
ATOM     41  C   UNL A   1      39.656  28.895  29.513  1.00  0.00     0.031 A 
ATOM     42  C   UNL A   1      40.441  29.749  30.466  1.00  0.00     0.074 A 
ATOM     43  C   UNL A   1      40.179  27.758  29.020  1.00  0.00     0.049 A 
ATOM     44  N   UNL A   1      41.651  29.570  30.932  1.00  0.00    -0.248 NA
ATOM     45  C   UNL A   1      39.787  30.976  30.946  1.00  0.00     0.031 C 
ATOM     46  C   UNL A   1      39.514  26.865  28.072  1.00  0.00     0.029 A 
ATOM     47  N   UNL A   1      41.396  27.165  29.243  1.00  0.00    -0.354 N 
ATOM     48  C   UNL A   1      41.898  30.656  31.759  1.00  0.00     0.074 A 
ATOM     49  C   UNL A   1      40.740  31.519  31.688  1.00  0.00     0.031 C 
ATOM     50  C   UNL A   1      40.325  25.827  27.807  1.00  0.00     0.029 A 
ATOM     51  C   UNL A   1      41.575  25.999  28.542  1.00  0.00     0.049 A 
ATOM     52  H   UNL A   1      42.075  27.541  29.849  1.00  0.00     0.167 HD
ATOM     53  C   UNL A   1      42.982  30.895  32.531  1.00  0.00     0.037 A 
ATOM     54  C   UNL A   1      42.633  25.166  28.500  1.00  0.00     0.037 A 
ATOM     55  C   UNL A   1      44.125  30.025  32.608  1.00  0.00     0.049 A 
ATOM     56  C   UNL A   1      43.846  25.477  29.336  1.00  0.00     0.074 A 
ATOM     57  C   UNL A   1      45.258  30.158  33.390  1.00  0.00     0.029 A 
ATOM     58  N   UNL A   1      44.278  28.858  31.873  1.00  0.00    -0.354 N 
ATOM     59  N   UNL A   1      44.049  26.480  30.156  1.00  0.00    -0.248 NA
ATOM     60  C   UNL A   1      44.973  24.539  29.245  1.00  0.00     0.031 C 
ATOM     61  C   UNL A   1      46.118  29.095  33.095  1.00  0.00     0.029 A 
ATOM     62  C   UNL A   1      45.498  28.273  32.167  1.00  0.00     0.049 A 
ATOM     63  H   UNL A   1      43.617  28.499  31.238  1.00  0.00     0.167 HD
ATOM     64  C   UNL A   1      45.313  26.282  30.696  1.00  0.00     0.074 A 
ATOM     65  C   UNL A   1      45.825  25.056  30.121  1.00  0.00     0.031 C 
ATOM     66  C   UNL A   1      45.988  27.049  31.587  1.00  0.00     0.037 A 
BRANCH  53  67
ATOM     67  C   UNL A   1      42.981  32.140  33.367  1.00  0.00     0.064 A 
ATOM     68  C   UNL A   1      42.469  32.140  34.673  1.00  0.00     0.173 A 
ATOM     69  C   UNL A   1      43.546  33.328  32.883  1.00  0.00     0.173 A 
ATOM     70  F   UNL A   1      41.905  31.032  35.179  1.00  0.00    -0.203 F 
ATOM     71  C   UNL A   1      42.506  33.290  35.458  1.00  0.00     0.198 A 
ATOM     72  C   UNL A   1      43.607  34.468  33.679  1.00  0.00     0.198 A 
ATOM     73  F   UNL A   1      44.051  33.380  31.640  1.00  0.00    -0.203 F 
ATOM     74  F   UNL A   1      41.978  33.277  36.688  1.00  0.00    -0.200 F 
ATOM     75  C   UNL A   1      43.083  34.450  34.963  1.00  0.00     0.200 A 
ATOM     76  F   UNL A   1      44.175  35.586  33.204  1.00  0.00    -0.200 F 
ATOM     77  F   UNL A   1      43.132  35.552  35.724  1.00  0.00    -0.200 F 
ENDBRANCH  53  67
BRANCH  54  78
ATOM     78  C   UNL A   1      42.576  23.942  27.661  1.00  0.00     0.064 A 
ATOM     79  C   UNL A   1      42.940  23.984  26.308  1.00  0.00     0.173 A 
ATOM     80  C   UNL A   1      42.174  22.708  28.191  1.00  0.00     0.173 A 
ATOM     81  F   UNL A   1      43.312  25.147  25.751  1.00  0.00    -0.203 F 
ATOM     82  C   UNL A   1      42.892  22.840  25.513  1.00  0.00     0.198 A 
ATOM     83  C   UNL A   1      42.150  21.560  27.401  1.00  0.00     0.198 A 
ATOM     84  F   UNL A   1      41.819  22.614  29.480  1.00  0.00    -0.203 F 
ATOM     85  F   UNL A   1      43.211  22.916  24.214  1.00  0.00    -0.200 F 
ATOM     86  C   UNL A   1      42.505  21.628  26.062  1.00  0.00     0.200 A 
ATOM     87  F   UNL A   1      41.787  20.387  27.938  1.00  0.00    -0.200 F 
ATOM     88  F   UNL A   1      42.467  20.527  25.299  1.00  0.00    -0.200 F 
ENDBRANCH  54  78
BRANCH  66  89
ATOM     89  C   UNL A   1      47.349  26.582  32.014  1.00  0.00     0.064 A 
ATOM     90  C   UNL A   1      48.513  27.062  31.396  1.00  0.00     0.173 A 
ATOM     91  C   UNL A   1      47.492  25.712  33.105  1.00  0.00     0.173 A 
ATOM     92  F   UNL A   1      48.427  27.886  30.341  1.00  0.00    -0.203 F 
ATOM     93  C   UNL A   1      49.772  26.676  31.847  1.00  0.00     0.198 A 
ATOM     94  C   UNL A   1      48.753  25.351  33.571  1.00  0.00     0.198 A 
ATOM     95  F   UNL A   1      46.409  25.233  33.735  1.00  0.00    -0.203 F 
ATOM     96  F   UNL A   1      50.871  27.120  31.222  1.00  0.00    -0.200 F 
ATOM     97  C   UNL A   1      49.891  25.830  32.941  1.00  0.00     0.200 A 
ATOM     98  F   UNL A   1      48.866  24.547  34.637  1.00  0.00    -0.200 F 
ATOM     99  F   UNL A   1      51.105  25.475  33.385  1.00  0.00    -0.200 F 
ENDBRANCH  66  89
ENDBRANCH  40  41
ENDBRANCH  32  35
ENDBRANCH  30  31
ENDBRANCH  29  30
ENDBRANCH  28  29
ENDBRANCH   1  28
TORSDOF 16
ENDMDL
MODEL 3
REMARK VINA RESULT:     -12.0      2.954      8.820
REMARK SMILES Cc1cc(OC(F)(F)F)cc2c1O[C@H](C(F)(F)F)C(C(=O)NCCCCCCNC(=O)c1ccc(-c3c4nc(c(-c5c(F)c(F)c(F)c(F)c5F)c5ccc([nH]5)c(-c5c(F)c(F)c(F)c(F)c5F)c5nc(c(-c6c(F)c(F)c(F)c(F)c6F)c6ccc3[nH]6)C=C5)C=C4)cc1)=C2
REMARK SMILES IDX 25 1 24 2 23 3 22 4 20 5 21 6 19 8 1 9 2 10 3 11 12 12 4 13
REMARK SMILES IDX 11 14 13 15 10 16 95 17 14 18 5 19 6 20 7 21 8 22 9 23 15 24
REMARK SMILES IDX 16 25 17 26 18 27 26 28 27 29 28 30 29 31 30 32 31 34 32 35
REMARK SMILES IDX 33 36 94 37 34 38 93 39 35 40 36 41 37 42 87 43 38 44 92 45
REMARK SMILES IDX 86 46 88 47 39 48 91 49 85 50 84 51 40 53 72 54 52 55 71 56
REMARK SMILES IDX 53 57 56 58 70 59 89 60 54 61 55 62 69 64 90 65 57 66 41 67
REMARK SMILES IDX 42 68 50 69 43 70 44 71 48 72 51 73 45 74 46 75 49 76 47 77
REMARK SMILES IDX 73 78 74 79 82 80 75 81 76 82 80 83 83 84 77 85 78 86 81 87
REMARK SMILES IDX 79 88 58 89 59 90 67 91 60 92 61 93 65 94 68 95 62 96 63 97
REMARK SMILES IDX 66 98 64 99
REMARK H PARENT 22 7 29 33 88 52 56 63
REMARK Flexibility Score: inf
ROOT
ATOM      1  C   UNL A   1      31.303  28.901  23.264  1.00  0.00     0.002 C 
ENDROOT
BRANCH   1   2
ATOM      2  C   UNL A   1      30.219  27.901  22.846  1.00  0.00     0.021 C 
BRANCH   2   3
ATOM      3  C   UNL A   1      30.707  26.455  22.806  1.00  0.00     0.116 C 
BRANCH   3   4
ATOM      4  N   UNL A   1      31.664  26.239  21.738  1.00  0.00    -0.352 N 
ATOM      5  C   UNL A   1      32.732  25.440  21.506  1.00  0.00     0.251 C 
ATOM      6  O   UNL A   1      33.259  25.578  20.397  1.00  0.00    -0.270 OA
ATOM      7  H   UNL A   1      31.490  26.835  20.973  1.00  0.00     0.163 HD
BRANCH   5   8
ATOM      8  C   UNL A   1      33.290  24.444  22.469  1.00  0.00     0.067 C 
ATOM      9  C   UNL A   1      36.141  21.707  25.751  1.00  0.00     0.048 C 
ATOM     10  C   UNL A   1      34.868  21.470  24.988  1.00  0.00    -0.005 A 
ATOM     11  C   UNL A   1      34.196  20.246  25.108  1.00  0.00     0.054 A 
ATOM     12  C   UNL A   1      34.363  22.437  24.112  1.00  0.00     0.131 A 
ATOM     13  C   UNL A   1      33.030  19.997  24.379  1.00  0.00     0.130 A 
ATOM     14  C   UNL A   1      33.197  22.207  23.379  1.00  0.00     0.021 A 
ATOM     15  O   UNL A   1      35.089  23.582  23.970  1.00  0.00    -0.475 OA
ATOM     16  C   UNL A   1      32.534  20.985  23.520  1.00  0.00     0.058 A 
ATOM     17  C   UNL A   1      32.719  23.225  22.450  1.00  0.00     0.025 C 
ATOM     18  C   UNL A   1      34.393  24.739  23.443  1.00  0.00     0.314 C 
BRANCH  13  19
ATOM     19  O   UNL A   1      32.292  18.847  24.406  1.00  0.00    -0.406 OA
BRANCH  19  20
ATOM     20  C   UNL A   1      32.750  17.753  23.630  1.00  0.00     0.573 C 
ATOM     21  F   UNL A   1      32.528  16.580  24.263  1.00  0.00    -0.132 F 
ATOM     22  F   UNL A   1      32.155  17.731  22.419  1.00  0.00    -0.132 F 
ATOM     23  F   UNL A   1      34.082  17.880  23.442  1.00  0.00    -0.132 F 
ENDBRANCH  19  20
ENDBRANCH  13  19
BRANCH  18  24
ATOM     24  C   UNL A   1      33.936  25.628  24.614  1.00  0.00     0.429 C 
ATOM     25  F   UNL A   1      34.777  25.487  25.670  1.00  0.00    -0.167 F 
ATOM     26  F   UNL A   1      33.939  26.945  24.301  1.00  0.00    -0.167 F 
ATOM     27  F   UNL A   1      32.691  25.327  25.044  1.00  0.00    -0.167 F 
ENDBRANCH  18  24
ENDBRANCH   5   8
ENDBRANCH   3   4
ENDBRANCH   2   3
ENDBRANCH   1   2
BRANCH   1  28
ATOM     28  C   UNL A   1      31.077  29.576  24.624  1.00  0.00     0.002 C 
BRANCH  28  29
ATOM     29  C   UNL A   1      31.785  28.913  25.810  1.00  0.00     0.021 C 
BRANCH  29  30
ATOM     30  C   UNL A   1      33.090  29.588  26.216  1.00  0.00     0.116 C 
BRANCH  30  31
ATOM     31  N   UNL A   1      32.911  31.015  26.425  1.00  0.00    -0.352 N 
ATOM     32  C   UNL A   1      33.557  31.839  27.308  1.00  0.00     0.251 C 
ATOM     33  H   UNL A   1      32.234  31.447  25.855  1.00  0.00     0.163 HD
ATOM     34  O   UNL A   1      33.143  32.973  27.530  1.00  0.00    -0.269 OA
BRANCH  32  35
ATOM     35  C   UNL A   1      34.763  31.347  27.997  1.00  0.00     0.039 A 
ATOM     36  C   UNL A   1      34.757  30.064  28.547  1.00  0.00     0.014 A 
ATOM     37  C   UNL A   1      35.891  32.168  28.106  1.00  0.00     0.014 A 
ATOM     38  C   UNL A   1      35.903  29.586  29.183  1.00  0.00     0.010 A 
ATOM     39  C   UNL A   1      37.048  31.672  28.694  1.00  0.00     0.010 A 
ATOM     40  C   UNL A   1      37.056  30.384  29.251  1.00  0.00    -0.014 A 
BRANCH  40  41
ATOM     41  C   UNL A   1      38.267  29.911  29.960  1.00  0.00     0.031 A 
ATOM     42  C   UNL A   1      38.557  30.421  31.341  1.00  0.00     0.074 A 
ATOM     43  C   UNL A   1      39.115  29.063  29.349  1.00  0.00     0.049 A 
ATOM     44  N   UNL A   1      39.582  30.171  32.117  1.00  0.00    -0.248 NA
ATOM     45  C   UNL A   1      37.574  31.348  31.923  1.00  0.00     0.031 C 
ATOM     46  C   UNL A   1      38.943  28.523  28.001  1.00  0.00     0.029 A 
ATOM     47  N   UNL A   1      40.295  28.515  29.783  1.00  0.00    -0.354 N 
ATOM     48  C   UNL A   1      39.363  30.906  33.273  1.00  0.00     0.074 A 
ATOM     49  C   UNL A   1      38.141  31.655  33.079  1.00  0.00     0.031 C 
ATOM     50  C   UNL A   1      39.973  27.707  27.723  1.00  0.00     0.029 A 
ATOM     51  C   UNL A   1      40.890  27.690  28.860  1.00  0.00     0.049 A 
ATOM     52  H   UNL A   1      40.679  28.696  30.671  1.00  0.00     0.167 HD
ATOM     53  C   UNL A   1      40.101  30.928  34.406  1.00  0.00     0.037 A 
ATOM     54  C   UNL A   1      42.046  27.002  28.929  1.00  0.00     0.037 A 
ATOM     55  C   UNL A   1      41.307  30.169  34.598  1.00  0.00     0.049 A 
ATOM     56  C   UNL A   1      42.871  27.078  30.186  1.00  0.00     0.074 A 
ATOM     57  C   UNL A   1      42.107  30.092  35.724  1.00  0.00     0.029 A 
ATOM     58  N   UNL A   1      41.887  29.354  33.637  1.00  0.00    -0.354 N 
ATOM     59  N   UNL A   1      42.629  27.734  31.295  1.00  0.00    -0.248 NA
ATOM     60  C   UNL A   1      44.126  26.315  30.202  1.00  0.00     0.031 C 
ATOM     61  C   UNL A   1      43.196  29.266  35.429  1.00  0.00     0.029 A 
ATOM     62  C   UNL A   1      43.048  28.788  34.136  1.00  0.00     0.049 A 
ATOM     63  H   UNL A   1      41.526  29.200  32.733  1.00  0.00     0.167 HD
ATOM     64  C   UNL A   1      43.685  27.444  32.149  1.00  0.00     0.074 A 
ATOM     65  C   UNL A   1      44.564  26.543  31.434  1.00  0.00     0.031 C 
ATOM     66  C   UNL A   1      43.906  27.888  33.410  1.00  0.00     0.037 A 
BRANCH  53  67
ATOM     67  C   UNL A   1      39.618  31.789  35.535  1.00  0.00     0.064 A 
ATOM     68  C   UNL A   1      40.089  33.101  35.704  1.00  0.00     0.173 A 
ATOM     69  C   UNL A   1      38.638  31.324  36.423  1.00  0.00     0.173 A 
ATOM     70  F   UNL A   1      41.037  33.588  34.889  1.00  0.00    -0.203 F 
ATOM     71  C   UNL A   1      39.607  33.908  36.731  1.00  0.00     0.198 A 
ATOM     72  C   UNL A   1      38.138  32.143  37.431  1.00  0.00     0.198 A 
ATOM     73  F   UNL A   1      38.153  30.078  36.303  1.00  0.00    -0.203 F 
ATOM     74  F   UNL A   1      40.098  35.143  36.895  1.00  0.00    -0.200 F 
ATOM     75  C   UNL A   1      38.627  33.432  37.587  1.00  0.00     0.200 A 
ATOM     76  F   UNL A   1      37.182  31.686  38.252  1.00  0.00    -0.200 F 
ATOM     77  F   UNL A   1      38.153  34.215  38.566  1.00  0.00    -0.200 F 
ENDBRANCH  53  67
BRANCH  54  78
ATOM     78  C   UNL A   1      42.471  26.158  27.784  1.00  0.00     0.064 A 
ATOM     79  C   UNL A   1      43.406  26.631  26.853  1.00  0.00     0.173 A 
ATOM     80  C   UNL A   1      41.968  24.861  27.603  1.00  0.00     0.173 A 
ATOM     81  F   UNL A   1      43.900  27.872  26.973  1.00  0.00    -0.203 F 
ATOM     82  C   UNL A   1      43.813  25.844  25.777  1.00  0.00     0.198 A 
ATOM     83  C   UNL A   1      42.395  24.066  26.540  1.00  0.00     0.198 A 
ATOM     84  F   UNL A   1      41.074  24.360  28.468  1.00  0.00    -0.203 F 
ATOM     85  F   UNL A   1      44.681  26.335  24.883  1.00  0.00    -0.200 F 
ATOM     86  C   UNL A   1      43.313  24.560  25.626  1.00  0.00     0.200 A 
ATOM     87  F   UNL A   1      41.919  22.821  26.405  1.00  0.00    -0.200 F 
ATOM     88  F   UNL A   1      43.711  23.801  24.596  1.00  0.00    -0.200 F 
ENDBRANCH  54  78
BRANCH  66  89
ATOM     89  C   UNL A   1      45.137  27.395  34.113  1.00  0.00     0.064 A 
ATOM     90  C   UNL A   1      46.339  28.116  34.075  1.00  0.00     0.173 A 
ATOM     91  C   UNL A   1      45.089  26.234  34.901  1.00  0.00     0.173 A 
ATOM     92  F   UNL A   1      46.438  29.225  33.326  1.00  0.00    -0.203 F 
ATOM     93  C   UNL A   1      47.454  27.685  34.789  1.00  0.00     0.198 A 
ATOM     94  C   UNL A   1      46.197  25.823  35.636  1.00  0.00     0.198 A 
ATOM     95  F   UNL A   1      43.960  25.515  34.977  1.00  0.00    -0.203 F 
ATOM     96  F   UNL A   1      48.602  28.371  34.712  1.00  0.00    -0.200 F 
ATOM     97  C   UNL A   1      47.378  26.546  35.577  1.00  0.00     0.200 A 
ATOM     98  F   UNL A   1      46.117  24.732  36.409  1.00  0.00    -0.200 F 
ATOM     99  F   UNL A   1      48.448  26.144  36.279  1.00  0.00    -0.200 F 
ENDBRANCH  66  89
ENDBRANCH  40  41
ENDBRANCH  32  35
ENDBRANCH  30  31
ENDBRANCH  29  30
ENDBRANCH  28  29
ENDBRANCH   1  28
TORSDOF 16
ENDMDL
