MODEL 1
REMARK VINA RESULT:     -13.2      0.000      0.000
REMARK SMILES Cc1nc2cc(S(=O)(=O)N3CCC(C(=O)NCCCCCCNC(=O)c4ccc(-c5c6nc(c(-c7c(F)c(F)c(F)c(F)c7F)c7ccc([nH]7)c(-c7c(F)c(F)c(F)c(F)c7F)c7nc(c(-c8c(F)c(F)c(F)c(F)c8F)c8ccc5[nH]8)C=C7)C=C6)cc4)CC3)ccc2n1C1CCCC1
REMARK SMILES IDX 19 1 18 2 17 3 16 4 14 5 15 6 13 8 10 9 11 10 90 11 12 12
REMARK SMILES IDX 89 13 7 14 8 15 9 16 6 17 1 18 2 19 3 20 94 21 4 22 93 23
REMARK SMILES IDX 5 24 92 25 91 26 95 27 96 28 99 29 97 30 98 31 20 32 21 33
REMARK SMILES IDX 22 34 23 35 24 36 25 38 26 39 27 40 88 41 28 42 87 43 29 44
REMARK SMILES IDX 30 45 31 46 81 47 32 48 86 49 80 50 82 51 33 52 85 53 79 54
REMARK SMILES IDX 78 55 34 57 66 58 46 59 65 60 47 61 50 62 64 63 83 64 48 65
REMARK SMILES IDX 49 66 63 68 84 69 51 70 35 71 36 72 44 73 37 74 38 75 42 76
REMARK SMILES IDX 45 77 39 78 40 79 43 80 41 81 67 82 68 83 76 84 69 85 70 86
REMARK SMILES IDX 74 87 77 88 71 89 72 90 75 91 73 92 52 93 53 94 61 95 54 96
REMARK SMILES IDX 55 97 59 98 62 99 56 100 57 101 60 102 58 103
REMARK H PARENT 16 7 23 37 82 56 50 67
REMARK Flexibility Score: inf
ROOT
ATOM      1  C   UNL A   1      41.295  20.674  27.272  1.00  0.00     0.002 C 
ENDROOT
BRANCH   1   2
ATOM      2  C   UNL A   1      40.608  20.485  25.919  1.00  0.00     0.021 C 
BRANCH   2   3
ATOM      3  C   UNL A   1      39.147  20.916  25.919  1.00  0.00     0.116 C 
BRANCH   3   4
ATOM      4  N   UNL A   1      39.002  22.280  26.404  1.00  0.00    -0.356 N 
ATOM      5  C   UNL A   1      38.018  23.196  26.192  1.00  0.00     0.223 C 
ATOM      6  O   UNL A   1      38.146  24.322  26.674  1.00  0.00    -0.275 OA
ATOM      7  H   UNL A   1      39.737  22.592  26.980  1.00  0.00     0.163 HD
BRANCH   5   8
ATOM      8  C   UNL A   1      36.775  22.835  25.395  1.00  0.00     0.081 C 
ATOM      9  N   UNL A   1      34.435  23.635  23.883  1.00  0.00    -0.198 NA
ATOM     10  C   UNL A   1      34.249  23.194  25.287  1.00  0.00     0.103 C 
ATOM     11  C   UNL A   1      35.650  23.218  23.145  1.00  0.00     0.103 C 
ATOM     12  C   UNL A   1      35.510  23.280  26.120  1.00  0.00     0.030 C 
ATOM     13  C   UNL A   1      36.916  23.333  23.960  1.00  0.00     0.030 C 
BRANCH   9  14
ATOM     14  S   UNL A   1      32.989  23.615  22.941  1.00  0.00     0.243 S 
ATOM     15  O   UNL A   1      32.084  22.667  23.576  1.00  0.00    -0.207 OA
ATOM     16  O   UNL A   1      33.367  23.488  21.559  1.00  0.00    -0.207 OA
BRANCH  14  17
ATOM     17  C   UNL A   1      32.244  25.227  23.131  1.00  0.00     0.085 A 
ATOM     18  C   UNL A   1      31.470  30.502  25.836  1.00  0.00     0.088 C 
ATOM     19  C   UNL A   1      31.542  29.242  25.056  1.00  0.00     0.106 A 
ATOM     20  N   UNL A   1      32.312  28.213  25.356  1.00  0.00    -0.233 NA
ATOM     21  N   UNL A   1      30.811  28.996  23.912  1.00  0.00    -0.325 N 
ATOM     22  C   UNL A   1      32.087  27.273  24.388  1.00  0.00     0.090 A 
ATOM     23  C   UNL A   1      31.152  27.737  23.469  1.00  0.00     0.068 A 
ATOM     24  C   UNL A   1      32.650  25.997  24.230  1.00  0.00     0.052 A 
ATOM     25  C   UNL A   1      30.738  26.981  22.376  1.00  0.00     0.030 A 
ATOM     26  C   UNL A   1      31.304  25.724  22.225  1.00  0.00     0.024 A 
BRANCH  21  27
ATOM     27  C   UNL A   1      29.849  29.884  23.285  1.00  0.00     0.089 C 
ATOM     28  C   UNL A   1      30.055  30.088  21.781  1.00  0.00     0.025 C 
ATOM     29  C   UNL A   1      28.391  29.428  23.414  1.00  0.00     0.025 C 
ATOM     30  C   UNL A   1      28.717  30.625  21.296  1.00  0.00     0.002 C 
ATOM     31  C   UNL A   1      27.658  30.039  22.225  1.00  0.00     0.002 C 
ENDBRANCH  21  27
ENDBRANCH  14  17
ENDBRANCH   9  14
ENDBRANCH   5   8
ENDBRANCH   3   4
ENDBRANCH   2   3
ENDBRANCH   1   2
BRANCH   1  32
ATOM     32  C   UNL A   1      42.471  19.726  27.524  1.00  0.00     0.002 C 
BRANCH  32  33
ATOM     33  C   UNL A   1      42.622  18.594  26.501  1.00  0.00     0.021 C 
BRANCH  33  34
ATOM     34  C   UNL A   1      44.073  18.269  26.134  1.00  0.00     0.116 C 
BRANCH  34  35
ATOM     35  N   UNL A   1      44.411  18.631  24.774  1.00  0.00    -0.352 N 
ATOM     36  C   UNL A   1      44.725  19.800  24.141  1.00  0.00     0.251 C 
ATOM     37  H   UNL A   1      44.417  17.857  24.166  1.00  0.00     0.163 HD
ATOM     38  O   UNL A   1      45.034  19.708  22.950  1.00  0.00    -0.269 OA
BRANCH  36  39
ATOM     39  C   UNL A   1      44.670  21.153  24.761  1.00  0.00     0.039 A 
ATOM     40  C   UNL A   1      45.498  21.609  25.785  1.00  0.00     0.014 A 
ATOM     41  C   UNL A   1      43.649  22.007  24.300  1.00  0.00     0.014 A 
ATOM     42  C   UNL A   1      45.252  22.829  26.401  1.00  0.00     0.010 A 
ATOM     43  C   UNL A   1      43.416  23.245  24.894  1.00  0.00     0.010 A 
ATOM     44  C   UNL A   1      44.191  23.634  25.980  1.00  0.00    -0.014 A 
BRANCH  44  45
ATOM     45  C   UNL A   1      43.981  24.879  26.710  1.00  0.00     0.031 A 
ATOM     46  C   UNL A   1      45.031  25.925  26.538  1.00  0.00     0.074 A 
ATOM     47  C   UNL A   1      42.917  25.125  27.497  1.00  0.00     0.049 A 
ATOM     48  N   UNL A   1      45.820  26.415  27.440  1.00  0.00    -0.248 NA
ATOM     49  C   UNL A   1      45.282  26.430  25.182  1.00  0.00     0.031 C 
ATOM     50  C   UNL A   1      41.670  24.370  27.625  1.00  0.00     0.029 A 
ATOM     51  N   UNL A   1      42.723  26.192  28.323  1.00  0.00    -0.354 N 
ATOM     52  C   UNL A   1      46.591  27.385  26.802  1.00  0.00     0.074 A 
ATOM     53  C   UNL A   1      46.276  27.295  25.399  1.00  0.00     0.031 C 
ATOM     54  C   UNL A   1      40.772  25.112  28.313  1.00  0.00     0.029 A 
ATOM     55  C   UNL A   1      41.426  26.320  28.790  1.00  0.00     0.049 A 
ATOM     56  H   UNL A   1      43.443  26.817  28.567  1.00  0.00     0.167 HD
ATOM     57  C   UNL A   1      47.334  28.292  27.498  1.00  0.00     0.037 A 
ATOM     58  C   UNL A   1      40.918  27.376  29.468  1.00  0.00     0.037 A 
ATOM     59  C   UNL A   1      47.579  27.853  28.846  1.00  0.00     0.049 A 
ATOM     60  C   UNL A   1      42.051  28.096  30.102  1.00  0.00     0.074 A 
ATOM     61  C   UNL A   1      48.229  26.771  29.407  1.00  0.00     0.029 A 
ATOM     62  N   UNL A   1      46.858  28.413  29.870  1.00  0.00    -0.354 N 
ATOM     63  N   UNL A   1      42.754  27.620  31.093  1.00  0.00    -0.248 NA
ATOM     64  C   UNL A   1      42.675  29.179  29.357  1.00  0.00     0.031 C 
ATOM     65  C   UNL A   1      47.469  26.446  30.568  1.00  0.00     0.029 A 
ATOM     66  C   UNL A   1      46.430  27.373  30.654  1.00  0.00     0.049 A 
ATOM     67  H   UNL A   1      46.682  29.372  30.014  1.00  0.00     0.167 HD
ATOM     68  C   UNL A   1      44.051  28.037  30.836  1.00  0.00     0.074 A 
ATOM     69  C   UNL A   1      43.925  29.071  29.813  1.00  0.00     0.031 C 
ATOM     70  C   UNL A   1      45.127  27.319  31.270  1.00  0.00     0.037 A 
BRANCH  57  71
ATOM     71  C   UNL A   1      47.607  29.708  27.058  1.00  0.00     0.064 A 
ATOM     72  C   UNL A   1      48.920  30.220  27.137  1.00  0.00     0.173 A 
ATOM     73  C   UNL A   1      46.593  30.667  26.854  1.00  0.00     0.173 A 
ATOM     74  F   UNL A   1      49.963  29.403  27.341  1.00  0.00    -0.203 F 
ATOM     75  C   UNL A   1      49.182  31.592  27.104  1.00  0.00     0.198 A 
ATOM     76  C   UNL A   1      46.864  32.031  26.769  1.00  0.00     0.198 A 
ATOM     77  F   UNL A   1      45.296  30.333  26.839  1.00  0.00    -0.203 F 
ATOM     78  F   UNL A   1      50.429  32.037  27.314  1.00  0.00    -0.200 F 
ATOM     79  C   UNL A   1      48.152  32.497  26.929  1.00  0.00     0.200 A 
ATOM     80  F   UNL A   1      45.852  32.896  26.615  1.00  0.00    -0.200 F 
ATOM     81  F   UNL A   1      48.391  33.815  26.965  1.00  0.00    -0.200 F 
ENDBRANCH  57  71
BRANCH  58  82
ATOM     82  C   UNL A   1      39.562  27.957  29.341  1.00  0.00     0.064 A 
ATOM     83  C   UNL A   1      38.727  28.108  30.459  1.00  0.00     0.173 A 
ATOM     84  C   UNL A   1      39.161  28.622  28.165  1.00  0.00     0.173 A 
ATOM     85  F   UNL A   1      39.062  27.553  31.633  1.00  0.00    -0.203 F 
ATOM     86  C   UNL A   1      37.570  28.893  30.407  1.00  0.00     0.198 A 
ATOM     87  C   UNL A   1      38.001  29.394  28.111  1.00  0.00     0.198 A 
ATOM     88  F   UNL A   1      39.934  28.613  27.069  1.00  0.00    -0.203 F 
ATOM     89  F   UNL A   1      36.830  29.065  31.510  1.00  0.00    -0.200 F 
ATOM     90  C   UNL A   1      37.212  29.541  29.236  1.00  0.00     0.200 A 
ATOM     91  F   UNL A   1      37.689  30.044  26.981  1.00  0.00    -0.200 F 
ATOM     92  F   UNL A   1      36.135  30.337  29.200  1.00  0.00    -0.200 F 
ENDBRANCH  58  82
BRANCH  70  93
ATOM     93  C   UNL A   1      44.893  26.199  32.242  1.00  0.00     0.064 A 
ATOM     94  C   UNL A   1      44.823  26.384  33.633  1.00  0.00     0.173 A 
ATOM     95  C   UNL A   1      44.545  24.938  31.740  1.00  0.00     0.173 A 
ATOM     96  F   UNL A   1      45.036  27.586  34.181  1.00  0.00    -0.203 F 
ATOM     97  C   UNL A   1      44.457  25.341  34.482  1.00  0.00     0.198 A 
ATOM     98  C   UNL A   1      44.144  23.909  32.588  1.00  0.00     0.198 A 
ATOM     99  F   UNL A   1      44.535  24.720  30.415  1.00  0.00    -0.203 F 
ATOM    100  F   UNL A   1      44.396  25.543  35.807  1.00  0.00    -0.200 F 
ATOM    101  C   UNL A   1      44.107  24.108  33.958  1.00  0.00     0.200 A 
ATOM    102  F   UNL A   1      43.756  22.733  32.072  1.00  0.00    -0.200 F 
ATOM    103  F   UNL A   1      43.703  23.121  34.771  1.00  0.00    -0.200 F 
ENDBRANCH  70  93
ENDBRANCH  44  45
ENDBRANCH  36  39
ENDBRANCH  34  35
ENDBRANCH  33  34
ENDBRANCH  32  33
ENDBRANCH   1  32
TORSDOF 16
ENDMDL
MODEL 2
REMARK VINA RESULT:     -12.2      1.136      2.017
REMARK SMILES Cc1nc2cc(S(=O)(=O)N3CCC(C(=O)NCCCCCCNC(=O)c4ccc(-c5c6nc(c(-c7c(F)c(F)c(F)c(F)c7F)c7ccc([nH]7)c(-c7c(F)c(F)c(F)c(F)c7F)c7nc(c(-c8c(F)c(F)c(F)c(F)c8F)c8ccc5[nH]8)C=C7)C=C6)cc4)CC3)ccc2n1C1CCCC1
REMARK SMILES IDX 19 1 18 2 17 3 16 4 14 5 15 6 13 8 10 9 11 10 90 11 12 12
REMARK SMILES IDX 89 13 7 14 8 15 9 16 6 17 1 18 2 19 3 20 94 21 4 22 93 23
REMARK SMILES IDX 5 24 92 25 91 26 95 27 96 28 99 29 97 30 98 31 20 32 21 33
REMARK SMILES IDX 22 34 23 35 24 36 25 38 26 39 27 40 88 41 28 42 87 43 29 44
REMARK SMILES IDX 30 45 31 46 81 47 32 48 86 49 80 50 82 51 33 52 85 53 79 54
REMARK SMILES IDX 78 55 34 57 66 58 46 59 65 60 47 61 50 62 64 63 83 64 48 65
REMARK SMILES IDX 49 66 63 68 84 69 51 70 35 71 36 72 44 73 37 74 38 75 42 76
REMARK SMILES IDX 45 77 39 78 40 79 43 80 41 81 67 82 68 83 76 84 69 85 70 86
REMARK SMILES IDX 74 87 77 88 71 89 72 90 75 91 73 92 52 93 53 94 61 95 54 96
REMARK SMILES IDX 55 97 59 98 62 99 56 100 57 101 60 102 58 103
REMARK H PARENT 16 7 23 37 82 56 50 67
REMARK Flexibility Score: inf
ROOT
ATOM      1  C   UNL A   1      40.693  21.273  27.436  1.00  0.00     0.002 C 
ENDROOT
BRANCH   1   2
ATOM      2  C   UNL A   1      40.003  21.135  26.079  1.00  0.00     0.021 C 
BRANCH   2   3
ATOM      3  C   UNL A   1      38.705  21.927  25.979  1.00  0.00     0.116 C 
BRANCH   3   4
ATOM      4  N   UNL A   1      38.269  22.048  24.596  1.00  0.00    -0.356 N 
ATOM      5  C   UNL A   1      37.072  22.433  24.075  1.00  0.00     0.223 C 
ATOM      6  O   UNL A   1      36.925  22.404  22.853  1.00  0.00    -0.275 OA
ATOM      7  H   UNL A   1      38.952  21.813  23.927  1.00  0.00     0.163 HD
BRANCH   5   8
ATOM      8  C   UNL A   1      35.945  22.908  24.978  1.00  0.00     0.081 C 
ATOM      9  N   UNL A   1      33.124  23.385  25.441  1.00  0.00    -0.198 NA
ATOM     10  C   UNL A   1      33.988  24.542  25.101  1.00  0.00     0.103 C 
ATOM     11  C   UNL A   1      33.740  22.159  26.001  1.00  0.00     0.103 C 
ATOM     12  C   UNL A   1      35.276  24.154  24.409  1.00  0.00     0.030 C 
ATOM     13  C   UNL A   1      35.008  21.747  25.292  1.00  0.00     0.030 C 
BRANCH   9  14
ATOM     14  S   UNL A   1      31.618  23.817  26.163  1.00  0.00     0.243 S 
ATOM     15  O   UNL A   1      31.847  23.910  27.598  1.00  0.00    -0.207 OA
ATOM     16  O   UNL A   1      30.604  22.956  25.615  1.00  0.00    -0.207 OA
BRANCH  14  17
ATOM     17  C   UNL A   1      31.250  25.473  25.605  1.00  0.00     0.085 A 
ATOM     18  C   UNL A   1      31.396  31.436  26.016  1.00  0.00     0.088 C 
ATOM     19  C   UNL A   1      31.269  29.978  25.773  1.00  0.00     0.106 A 
ATOM     20  N   UNL A   1      31.735  29.038  26.573  1.00  0.00    -0.233 NA
ATOM     21  N   UNL A   1      30.648  29.427  24.671  1.00  0.00    -0.325 N 
ATOM     22  C   UNL A   1      31.419  27.845  25.983  1.00  0.00     0.090 A 
ATOM     23  C   UNL A   1      30.740  28.058  24.789  1.00  0.00     0.068 A 
ATOM     24  C   UNL A   1      31.685  26.535  26.412  1.00  0.00     0.052 A 
ATOM     25  C   UNL A   1      30.299  27.014  23.981  1.00  0.00     0.030 A 
ATOM     26  C   UNL A   1      30.572  25.723  24.410  1.00  0.00     0.024 A 
BRANCH  21  27
ATOM     27  C   UNL A   1      30.005  30.144  23.585  1.00  0.00     0.089 C 
ATOM     28  C   UNL A   1      30.424  29.690  22.184  1.00  0.00     0.025 C 
ATOM     29  C   UNL A   1      28.475  30.042  23.580  1.00  0.00     0.025 C 
ATOM     30  C   UNL A   1      29.317  30.214  21.281  1.00  0.00     0.002 C 
ATOM     31  C   UNL A   1      28.050  30.244  22.129  1.00  0.00     0.002 C 
ENDBRANCH  21  27
ENDBRANCH  14  17
ENDBRANCH   9  14
ENDBRANCH   5   8
ENDBRANCH   3   4
ENDBRANCH   2   3
ENDBRANCH   1   2
BRANCH   1  32
ATOM     32  C   UNL A   1      41.449  20.022  27.892  1.00  0.00     0.002 C 
BRANCH  32  33
ATOM     33  C   UNL A   1      41.750  19.006  26.785  1.00  0.00     0.021 C 
BRANCH  33  34
ATOM     34  C   UNL A   1      43.239  18.703  26.598  1.00  0.00     0.116 C 
BRANCH  34  35
ATOM     35  N   UNL A   1      43.710  18.968  25.255  1.00  0.00    -0.352 N 
ATOM     36  C   UNL A   1      44.183  20.071  24.603  1.00  0.00     0.251 C 
ATOM     37  H   UNL A   1      43.685  18.169  24.680  1.00  0.00     0.163 HD
ATOM     38  O   UNL A   1      44.568  19.895  23.444  1.00  0.00    -0.269 OA
BRANCH  36  39
ATOM     39  C   UNL A   1      44.216  21.451  25.164  1.00  0.00     0.039 A 
ATOM     40  C   UNL A   1      45.089  21.903  26.151  1.00  0.00     0.014 A 
ATOM     41  C   UNL A   1      43.234  22.339  24.685  1.00  0.00     0.014 A 
ATOM     42  C   UNL A   1      44.923  23.160  26.717  1.00  0.00     0.010 A 
ATOM     43  C   UNL A   1      43.083  23.614  25.227  1.00  0.00     0.010 A 
ATOM     44  C   UNL A   1      43.900  24.005  26.280  1.00  0.00    -0.014 A 
BRANCH  44  45
ATOM     45  C   UNL A   1      43.774  25.290  26.958  1.00  0.00     0.031 A 
ATOM     46  C   UNL A   1      44.896  26.252  26.753  1.00  0.00     0.074 A 
ATOM     47  C   UNL A   1      42.727  25.641  27.727  1.00  0.00     0.049 A 
ATOM     48  N   UNL A   1      45.713  26.722  27.640  1.00  0.00    -0.248 NA
ATOM     49  C   UNL A   1      45.188  26.684  25.380  1.00  0.00     0.031 C 
ATOM     50  C   UNL A   1      41.429  24.981  27.875  1.00  0.00     0.029 A 
ATOM     51  N   UNL A   1      42.604  26.751  28.508  1.00  0.00    -0.354 N 
ATOM     52  C   UNL A   1      46.553  27.609  26.970  1.00  0.00     0.074 A 
ATOM     53  C   UNL A   1      46.239  27.484  25.569  1.00  0.00     0.031 C 
ATOM     54  C   UNL A   1      40.582  25.811  28.526  1.00  0.00     0.029 A 
ATOM     55  C   UNL A   1      41.317  26.988  28.960  1.00  0.00     0.049 A 
ATOM     56  H   UNL A   1      43.364  27.334  28.733  1.00  0.00     0.167 HD
ATOM     57  C   UNL A   1      47.354  28.489  27.635  1.00  0.00     0.037 A 
ATOM     58  C   UNL A   1      40.881  28.104  29.591  1.00  0.00     0.037 A 
ATOM     59  C   UNL A   1      47.562  28.089  29.001  1.00  0.00     0.049 A 
ATOM     60  C   UNL A   1      42.058  28.768  30.204  1.00  0.00     0.074 A 
ATOM     61  C   UNL A   1      48.131  26.988  29.610  1.00  0.00     0.029 A 
ATOM     62  N   UNL A   1      46.876  28.739  29.996  1.00  0.00    -0.354 N 
ATOM     63  N   UNL A   1      42.721  28.285  31.219  1.00  0.00    -0.248 NA
ATOM     64  C   UNL A   1      42.760  29.773  29.421  1.00  0.00     0.031 C 
ATOM     65  C   UNL A   1      47.345  26.763  30.778  1.00  0.00     0.029 A 
ATOM     66  C   UNL A   1      46.373  27.764  30.818  1.00  0.00     0.049 A 
ATOM     67  H   UNL A   1      46.768  29.712  30.100  1.00  0.00     0.167 HD
ATOM     68  C   UNL A   1      44.046  28.599  30.956  1.00  0.00     0.074 A 
ATOM     69  C   UNL A   1      43.998  29.597  29.891  1.00  0.00     0.031 C 
ATOM     70  C   UNL A   1      45.067  27.826  31.426  1.00  0.00     0.037 A 
BRANCH  57  71
ATOM     71  C   UNL A   1      47.728  29.864  27.141  1.00  0.00     0.064 A 
ATOM     72  C   UNL A   1      49.084  30.256  27.135  1.00  0.00     0.173 A 
ATOM     73  C   UNL A   1      46.794  30.906  26.964  1.00  0.00     0.173 A 
ATOM     74  F   UNL A   1      50.060  29.352  27.306  1.00  0.00    -0.203 F 
ATOM     75  C   UNL A   1      49.466  31.597  27.049  1.00  0.00     0.198 A 
ATOM     76  C   UNL A   1      47.182  32.237  26.826  1.00  0.00     0.198 A 
ATOM     77  F   UNL A   1      45.474  30.691  27.028  1.00  0.00    -0.203 F 
ATOM     78  F   UNL A   1      50.757  31.931  27.179  1.00  0.00    -0.200 F 
ATOM     79  C   UNL A   1      48.513  32.588  26.904  1.00  0.00     0.200 A 
ATOM     80  F   UNL A   1      46.244  33.187  26.701  1.00  0.00    -0.200 F 
ATOM     81  F   UNL A   1      48.871  33.879  26.889  1.00  0.00    -0.200 F 
ENDBRANCH  57  71
BRANCH  58  82
ATOM     82  C   UNL A   1      39.570  28.773  29.431  1.00  0.00     0.064 A 
ATOM     83  C   UNL A   1      39.120  29.201  28.172  1.00  0.00     0.173 A 
ATOM     84  C   UNL A   1      38.615  28.765  30.467  1.00  0.00     0.173 A 
ATOM     85  F   UNL A   1      39.950  29.190  27.118  1.00  0.00    -0.203 F 
ATOM     86  C   UNL A   1      37.790  29.581  27.959  1.00  0.00     0.198 A 
ATOM     87  C   UNL A   1      37.293  29.154  30.257  1.00  0.00     0.198 A 
ATOM     88  F   UNL A   1      38.920  28.289  31.683  1.00  0.00    -0.203 F 
ATOM     89  F   UNL A   1      37.382  29.925  26.731  1.00  0.00    -0.200 F 
ATOM     90  C   UNL A   1      36.877  29.550  29.001  1.00  0.00     0.200 A 
ATOM     91  F   UNL A   1      36.412  29.083  31.266  1.00  0.00    -0.200 F 
ATOM     92  F   UNL A   1      35.591  29.859  28.786  1.00  0.00    -0.200 F 
ENDBRANCH  58  82
BRANCH  70  93
ATOM     93  C   UNL A   1      44.750  26.765  32.440  1.00  0.00     0.064 A 
ATOM     94  C   UNL A   1      44.403  25.447  32.100  1.00  0.00     0.173 A 
ATOM     95  C   UNL A   1      44.986  27.043  33.794  1.00  0.00     0.173 A 
ATOM     96  F   UNL A   1      44.266  25.078  30.821  1.00  0.00    -0.203 F 
ATOM     97  C   UNL A   1      44.262  24.463  33.077  1.00  0.00     0.198 A 
ATOM     98  C   UNL A   1      44.880  26.048  34.763  1.00  0.00     0.198 A 
ATOM     99  F   UNL A   1      45.379  28.269  34.172  1.00  0.00    -0.203 F 
ATOM    100  F   UNL A   1      43.931  23.211  32.726  1.00  0.00    -0.200 F 
ATOM    101  C   UNL A   1      44.512  24.761  34.406  1.00  0.00     0.200 A 
ATOM    102  F   UNL A   1      45.174  26.329  36.041  1.00  0.00    -0.200 F 
ATOM    103  F   UNL A   1      44.430  23.802  35.338  1.00  0.00    -0.200 F 
ENDBRANCH  70  93
ENDBRANCH  44  45
ENDBRANCH  36  39
ENDBRANCH  34  35
ENDBRANCH  33  34
ENDBRANCH  32  33
ENDBRANCH   1  32
TORSDOF 16
ENDMDL
MODEL 3
REMARK VINA RESULT:     -11.5      3.153      9.237
REMARK SMILES Cc1nc2cc(S(=O)(=O)N3CCC(C(=O)NCCCCCCNC(=O)c4ccc(-c5c6nc(c(-c7c(F)c(F)c(F)c(F)c7F)c7ccc([nH]7)c(-c7c(F)c(F)c(F)c(F)c7F)c7nc(c(-c8c(F)c(F)c(F)c(F)c8F)c8ccc5[nH]8)C=C7)C=C6)cc4)CC3)ccc2n1C1CCCC1
REMARK SMILES IDX 19 1 18 2 17 3 16 4 14 5 15 6 13 8 10 9 11 10 90 11 12 12
REMARK SMILES IDX 89 13 7 14 8 15 9 16 6 17 1 18 2 19 3 20 94 21 4 22 93 23
REMARK SMILES IDX 5 24 92 25 91 26 95 27 96 28 99 29 97 30 98 31 20 32 21 33
REMARK SMILES IDX 22 34 23 35 24 36 25 38 26 39 27 40 88 41 28 42 87 43 29 44
REMARK SMILES IDX 30 45 31 46 81 47 32 48 86 49 80 50 82 51 33 52 85 53 79 54
REMARK SMILES IDX 78 55 34 57 66 58 46 59 65 60 47 61 50 62 64 63 83 64 48 65
REMARK SMILES IDX 49 66 63 68 84 69 51 70 35 71 36 72 44 73 37 74 38 75 42 76
REMARK SMILES IDX 45 77 39 78 40 79 43 80 41 81 67 82 68 83 76 84 69 85 70 86
REMARK SMILES IDX 74 87 77 88 71 89 72 90 75 91 73 92 52 93 53 94 61 95 54 96
REMARK SMILES IDX 55 97 59 98 62 99 56 100 57 101 60 102 58 103
REMARK H PARENT 16 7 23 37 82 56 50 67
REMARK Flexibility Score: inf
ROOT
ATOM      1  C   UNL A   1      36.767  30.295  27.922  1.00  0.00     0.002 C 
ENDROOT
BRANCH   1   2
ATOM      2  C   UNL A   1      35.757  29.151  28.016  1.00  0.00     0.021 C 
BRANCH   2   3
ATOM      3  C   UNL A   1      34.751  29.139  26.872  1.00  0.00     0.116 C 
BRANCH   3   4
ATOM      4  N   UNL A   1      33.585  29.949  27.190  1.00  0.00    -0.356 N 
ATOM      5  C   UNL A   1      32.379  30.049  26.567  1.00  0.00     0.223 C 
ATOM      6  O   UNL A   1      31.557  30.857  27.000  1.00  0.00    -0.275 OA
ATOM      7  H   UNL A   1      33.684  30.519  27.987  1.00  0.00     0.163 HD
BRANCH   5   8
ATOM      8  C   UNL A   1      32.043  29.170  25.374  1.00  0.00     0.081 C 
ATOM      9  N   UNL A   1      32.715  26.988  23.588  1.00  0.00    -0.198 NA
ATOM     10  C   UNL A   1      32.929  28.378  23.114  1.00  0.00     0.103 C 
ATOM     11  C   UNL A   1      31.757  26.736  24.690  1.00  0.00     0.103 C 
ATOM     12  C   UNL A   1      33.031  29.390  24.234  1.00  0.00     0.030 C 
ATOM     13  C   UNL A   1      31.877  27.723  25.826  1.00  0.00     0.030 C 
BRANCH   9  14
ATOM     14  S   UNL A   1      32.671  25.812  22.325  1.00  0.00     0.243 S 
ATOM     15  O   UNL A   1      33.678  26.203  21.349  1.00  0.00    -0.207 OA
ATOM     16  O   UNL A   1      31.295  25.617  21.954  1.00  0.00    -0.207 OA
BRANCH  14  17
ATOM     17  C   UNL A   1      33.238  24.281  23.047  1.00  0.00     0.085 A 
ATOM     18  C   UNL A   1      37.421  20.525  25.083  1.00  0.00     0.088 C 
ATOM     19  C   UNL A   1      36.270  21.336  24.615  1.00  0.00     0.106 A 
ATOM     20  N   UNL A   1      36.366  22.534  24.069  1.00  0.00    -0.233 NA
ATOM     21  N   UNL A   1      34.953  20.934  24.700  1.00  0.00    -0.325 N 
ATOM     22  C   UNL A   1      35.085  22.930  23.794  1.00  0.00     0.090 A 
ATOM     23  C   UNL A   1      34.179  21.949  24.180  1.00  0.00     0.068 A 
ATOM     24  C   UNL A   1      34.621  24.122  23.214  1.00  0.00     0.052 A 
ATOM     25  C   UNL A   1      32.804  22.092  24.017  1.00  0.00     0.030 A 
ATOM     26  C   UNL A   1      32.355  23.275  23.449  1.00  0.00     0.024 A 
BRANCH  21  27
ATOM     27  C   UNL A   1      34.458  19.676  25.228  1.00  0.00     0.089 C 
ATOM     28  C   UNL A   1      32.973  19.679  25.600  1.00  0.00     0.025 C 
ATOM     29  C   UNL A   1      34.613  18.487  24.272  1.00  0.00     0.025 C 
ATOM     30  C   UNL A   1      32.605  18.204  25.656  1.00  0.00     0.002 C 
ATOM     31  C   UNL A   1      33.522  17.495  24.664  1.00  0.00     0.002 C 
ENDBRANCH  21  27
ENDBRANCH  14  17
ENDBRANCH   9  14
ENDBRANCH   5   8
ENDBRANCH   3   4
ENDBRANCH   2   3
ENDBRANCH   1   2
BRANCH   1  32
ATOM     32  C   UNL A   1      36.144  31.674  27.687  1.00  0.00     0.002 C 
BRANCH  32  33
ATOM     33  C   UNL A   1      35.962  32.527  28.948  1.00  0.00     0.021 C 
BRANCH  33  34
ATOM     34  C   UNL A   1      34.704  32.194  29.755  1.00  0.00     0.116 C 
BRANCH  34  35
ATOM     35  N   UNL A   1      34.908  32.272  31.185  1.00  0.00    -0.352 N 
ATOM     36  C   UNL A   1      35.866  31.815  32.045  1.00  0.00     0.251 C 
ATOM     37  H   UNL A   1      34.192  32.768  31.644  1.00  0.00     0.163 HD
ATOM     38  O   UNL A   1      35.738  32.144  33.227  1.00  0.00    -0.269 OA
BRANCH  36  39
ATOM     39  C   UNL A   1      36.999  30.923  31.671  1.00  0.00     0.039 A 
ATOM     40  C   UNL A   1      36.927  29.538  31.531  1.00  0.00     0.014 A 
ATOM     41  C   UNL A   1      38.252  31.544  31.509  1.00  0.00     0.014 A 
ATOM     42  C   UNL A   1      38.080  28.787  31.342  1.00  0.00     0.010 A 
ATOM     43  C   UNL A   1      39.408  30.799  31.288  1.00  0.00     0.010 A 
ATOM     44  C   UNL A   1      39.326  29.413  31.253  1.00  0.00    -0.014 A 
BRANCH  44  45
ATOM     45  C   UNL A   1      40.487  28.545  31.095  1.00  0.00     0.031 A 
ATOM     46  C   UNL A   1      41.271  28.267  32.333  1.00  0.00     0.074 A 
ATOM     47  C   UNL A   1      40.867  27.995  29.927  1.00  0.00     0.049 A 
ATOM     48  N   UNL A   1      42.498  28.592  32.588  1.00  0.00    -0.248 NA
ATOM     49  C   UNL A   1      40.579  27.613  33.452  1.00  0.00     0.031 C 
ATOM     50  C   UNL A   1      40.139  27.924  28.660  1.00  0.00     0.029 A 
ATOM     51  N   UNL A   1      42.013  27.302  29.668  1.00  0.00    -0.354 N 
ATOM     52  C   UNL A   1      42.787  28.079  33.851  1.00  0.00     0.074 A 
ATOM     53  C   UNL A   1      41.547  27.560  34.370  1.00  0.00     0.031 C 
ATOM     54  C   UNL A   1      40.766  27.051  27.837  1.00  0.00     0.029 A 
ATOM     55  C   UNL A   1      42.004  26.619  28.464  1.00  0.00     0.049 A 
ATOM     56  H   UNL A   1      42.781  27.289  30.283  1.00  0.00     0.167 HD
ATOM     57  C   UNL A   1      44.063  27.995  34.323  1.00  0.00     0.037 A 
ATOM     58  C   UNL A   1      42.923  25.717  28.047  1.00  0.00     0.037 A 
ATOM     59  C   UNL A   1      44.952  28.870  33.608  1.00  0.00     0.049 A 
ATOM     60  C   UNL A   1      44.182  25.976  28.788  1.00  0.00     0.074 A 
ATOM     61  C   UNL A   1      45.025  30.238  33.428  1.00  0.00     0.029 A 
ATOM     62  N   UNL A   1      45.800  28.337  32.670  1.00  0.00    -0.354 N 
ATOM     63  N   UNL A   1      44.931  27.029  28.608  1.00  0.00    -0.248 NA
ATOM     64  C   UNL A   1      44.399  25.262  30.038  1.00  0.00     0.031 C 
ATOM     65  C   UNL A   1      45.490  30.411  32.092  1.00  0.00     0.029 A 
ATOM     66  C   UNL A   1      45.703  29.138  31.562  1.00  0.00     0.049 A 
ATOM     67  H   UNL A   1      46.366  27.537  32.773  1.00  0.00     0.167 HD
ATOM     68  C   UNL A   1      45.396  27.352  29.874  1.00  0.00     0.074 A 
ATOM     69  C   UNL A   1      45.117  26.177  30.695  1.00  0.00     0.031 C 
ATOM     70  C   UNL A   1      45.709  28.637  30.210  1.00  0.00     0.037 A 
BRANCH  57  71
ATOM     71  C   UNL A   1      44.576  26.917  35.245  1.00  0.00     0.064 A 
ATOM     72  C   UNL A   1      45.249  27.280  36.431  1.00  0.00     0.173 A 
ATOM     73  C   UNL A   1      44.701  25.565  34.865  1.00  0.00     0.173 A 
ATOM     74  F   UNL A   1      45.210  28.541  36.884  1.00  0.00    -0.203 F 
ATOM     75  C   UNL A   1      46.056  26.377  37.129  1.00  0.00     0.198 A 
ATOM     76  C   UNL A   1      45.465  24.655  35.593  1.00  0.00     0.198 A 
ATOM     77  F   UNL A   1      44.182  25.101  33.721  1.00  0.00    -0.203 F 
ATOM     78  F   UNL A   1      46.779  26.801  38.175  1.00  0.00    -0.200 F 
ATOM     79  C   UNL A   1      46.170  25.067  36.703  1.00  0.00     0.200 A 
ATOM     80  F   UNL A   1      45.577  23.392  35.157  1.00  0.00    -0.200 F 
ATOM     81  F   UNL A   1      46.995  24.217  37.330  1.00  0.00    -0.200 F 
ENDBRANCH  57  71
BRANCH  58  82
ATOM     82  C   UNL A   1      42.678  24.473  27.282  1.00  0.00     0.064 A 
ATOM     83  C   UNL A   1      43.068  24.356  25.939  1.00  0.00     0.173 A 
ATOM     84  C   UNL A   1      42.297  23.281  27.929  1.00  0.00     0.173 A 
ATOM     85  F   UNL A   1      43.495  25.433  25.263  1.00  0.00    -0.203 F 
ATOM     86  C   UNL A   1      43.093  23.117  25.288  1.00  0.00     0.198 A 
ATOM     87  C   UNL A   1      42.311  22.048  27.278  1.00  0.00     0.198 A 
ATOM     88  F   UNL A   1      41.994  23.272  29.235  1.00  0.00    -0.203 F 
ATOM     89  F   UNL A   1      43.530  23.034  24.025  1.00  0.00    -0.200 F 
ATOM     90  C   UNL A   1      42.722  21.964  25.961  1.00  0.00     0.200 A 
ATOM     91  F   UNL A   1      41.985  20.937  27.953  1.00  0.00    -0.200 F 
ATOM     92  F   UNL A   1      42.799  20.770  25.358  1.00  0.00    -0.200 F 
ENDBRANCH  58  82
BRANCH  70  93
ATOM     93  C   UNL A   1      45.781  29.663  29.116  1.00  0.00     0.064 A 
ATOM     94  C   UNL A   1      46.956  29.954  28.404  1.00  0.00     0.173 A 
ATOM     95  C   UNL A   1      44.586  30.231  28.653  1.00  0.00     0.173 A 
ATOM     96  F   UNL A   1      48.117  29.368  28.718  1.00  0.00    -0.203 F 
ATOM     97  C   UNL A   1      46.938  30.806  27.301  1.00  0.00     0.198 A 
ATOM     98  C   UNL A   1      44.566  31.052  27.528  1.00  0.00     0.198 A 
ATOM     99  F   UNL A   1      43.423  29.940  29.257  1.00  0.00    -0.203 F 
ATOM    100  F   UNL A   1      48.074  31.068  26.636  1.00  0.00    -0.200 F 
ATOM    101  C   UNL A   1      45.742  31.345  26.857  1.00  0.00     0.200 A 
ATOM    102  F   UNL A   1      43.399  31.529  27.071  1.00  0.00    -0.200 F 
ATOM    103  F   UNL A   1      45.718  32.120  25.764  1.00  0.00    -0.200 F 
ENDBRANCH  70  93
ENDBRANCH  44  45
ENDBRANCH  36  39
ENDBRANCH  34  35
ENDBRANCH  33  34
ENDBRANCH  32  33
ENDBRANCH   1  32
TORSDOF 16
ENDMDL
