MODEL 1
REMARK VINA RESULT:     -12.9      0.000      0.000
REMARK SMILES C=C(C)COc1ccc2nc(C)n(-c3cccc(C(=O)NCCCCCCNC(=O)c4ccc(-c5c6nc(c(-c7c(F)c(F)c(F)c(F)c7F)c7ccc([nH]7)c(-c7c(F)c(F)c(F)c(F)c7F)c7nc(c(-c8c(F)c(F)c(F)c(F)c8F)c8ccc5[nH]8)C=C7)C=C6)cc4)c3)c(=O)c2c1
REMARK SMILES IDX 23 1 22 2 21 3 19 4 20 5 18 7 14 8 15 9 94 10 16 11 17 12
REMARK SMILES IDX 13 13 6 14 7 15 98 16 8 17 97 18 9 19 95 20 10 21 96 22
REMARK SMILES IDX 11 23 12 24 5 25 4 26 2 27 1 28 3 29 24 30 25 31 26 32 27 33
REMARK SMILES IDX 28 34 29 35 30 37 31 38 32 39 93 40 33 41 92 42 34 43 35 44
REMARK SMILES IDX 36 45 86 46 37 47 91 48 85 49 87 50 38 51 90 52 84 53 83 54
REMARK SMILES IDX 39 56 71 57 51 58 70 59 52 60 55 61 69 62 88 63 53 64 54 65
REMARK SMILES IDX 68 67 89 68 56 69 40 70 41 71 49 72 42 73 43 74 47 75 50 76
REMARK SMILES IDX 44 77 45 78 48 79 46 80 72 81 73 82 81 83 74 84 75 85 79 86
REMARK SMILES IDX 82 87 76 88 77 89 80 90 78 91 57 92 58 93 66 94 59 95 60 96
REMARK SMILES IDX 64 97 67 98 61 99 62 100 65 101 63 102
REMARK H PARENT 21 6 28 36 87 55 55 66
REMARK Flexibility Score: inf
ROOT
ATOM      1  C   UNL A   1      32.169  29.217  24.117  1.00  0.00     0.021 C 
ENDROOT
BRANCH   1   2
ATOM      2  C   UNL A   1      31.447  28.305  23.131  1.00  0.00     0.116 C 
BRANCH   2   3
ATOM      3  N   UNL A   1      32.308  27.558  22.233  1.00  0.00    -0.352 N 
ATOM      4  C   UNL A   1      33.014  26.386  22.411  1.00  0.00     0.251 C 
ATOM      5  O   UNL A   1      33.663  25.944  21.464  1.00  0.00    -0.269 OA
ATOM      6  H   UNL A   1      32.406  27.958  21.338  1.00  0.00     0.163 HD
BRANCH   4   7
ATOM      7  C   UNL A   1      33.089  25.686  23.727  1.00  0.00     0.041 A 
ATOM      8  C   UNL A   1      34.066  23.993  25.163  1.00  0.00     0.051 A 
ATOM      9  C   UNL A   1      32.963  24.088  26.020  1.00  0.00     0.027 A 
ATOM     10  C   UNL A   1      34.177  24.902  24.104  1.00  0.00     0.040 A 
ATOM     11  C   UNL A   1      31.937  24.996  25.748  1.00  0.00     0.003 A 
ATOM     12  C   UNL A   1      31.980  25.760  24.581  1.00  0.00     0.014 A 
BRANCH   8  13
ATOM     13  N   UNL A   1      34.966  22.877  25.207  1.00  0.00    -0.264 N 
ATOM     14  C   UNL A   1      39.388  20.946  25.813  1.00  0.00     0.120 A 
ATOM     15  C   UNL A   1      38.867  19.725  25.386  1.00  0.00     0.049 A 
ATOM     16  C   UNL A   1      38.558  22.060  25.927  1.00  0.00     0.062 A 
ATOM     17  C   UNL A   1      37.530  19.631  25.010  1.00  0.00     0.033 A 
ATOM     18  C   UNL A   1      37.210  21.950  25.557  1.00  0.00     0.070 A 
ATOM     19  C   UNL A   1      36.696  20.745  25.089  1.00  0.00     0.078 A 
ATOM     20  C   UNL A   1      36.290  23.103  25.624  1.00  0.00     0.266 A 
ATOM     21  N   UNL A   1      35.384  20.614  24.647  1.00  0.00    -0.234 NA
ATOM     22  O   UNL A   1      36.739  24.177  26.019  1.00  0.00    -0.268 OA
ATOM     23  C   UNL A   1      34.598  21.642  24.687  1.00  0.00     0.113 A 
ATOM     24  C   UNL A   1      33.242  21.429  24.038  1.00  0.00     0.088 C 
BRANCH  14  25
ATOM     25  O   UNL A   1      40.694  21.050  26.211  1.00  0.00    -0.489 OA
BRANCH  25  26
ATOM     26  C   UNL A   1      40.824  21.614  27.529  1.00  0.00     0.260 C 
BRANCH  26  27
ATOM     27  C   UNL A   1      41.958  22.613  27.627  1.00  0.00    -0.043 C 
ATOM     28  C   UNL A   1      42.249  23.271  28.763  1.00  0.00     0.011 C 
ATOM     29  C   UNL A   1      42.772  22.804  26.379  1.00  0.00     0.042 C 
ENDBRANCH  26  27
ENDBRANCH  25  26
ENDBRANCH  14  25
ENDBRANCH   8  13
ENDBRANCH   4   7
ENDBRANCH   2   3
ENDBRANCH   1   2
BRANCH   1  30
ATOM     30  C   UNL A   1      31.308  30.004  25.104  1.00  0.00     0.002 C 
BRANCH  30  31
ATOM     31  C   UNL A   1      31.989  30.500  26.381  1.00  0.00     0.002 C 
BRANCH  31  32
ATOM     32  C   UNL A   1      31.648  31.915  26.841  1.00  0.00     0.021 C 
BRANCH  32  33
ATOM     33  C   UNL A   1      32.820  32.794  27.262  1.00  0.00     0.116 C 
BRANCH  33  34
ATOM     34  N   UNL A   1      32.434  34.129  27.687  1.00  0.00    -0.352 N 
ATOM     35  C   UNL A   1      33.002  34.946  28.642  1.00  0.00     0.251 C 
ATOM     36  H   UNL A   1      31.650  34.507  27.225  1.00  0.00     0.163 HD
ATOM     37  O   UNL A   1      32.487  36.017  28.923  1.00  0.00    -0.269 OA
BRANCH  35  38
ATOM     38  C   UNL A   1      34.218  34.501  29.367  1.00  0.00     0.039 A 
ATOM     39  C   UNL A   1      35.491  34.698  28.833  1.00  0.00     0.014 A 
ATOM     40  C   UNL A   1      34.072  33.850  30.597  1.00  0.00     0.014 A 
ATOM     41  C   UNL A   1      36.590  34.081  29.425  1.00  0.00     0.010 A 
ATOM     42  C   UNL A   1      35.192  33.309  31.238  1.00  0.00     0.010 A 
ATOM     43  C   UNL A   1      36.453  33.366  30.627  1.00  0.00    -0.014 A 
BRANCH  43  44
ATOM     44  C   UNL A   1      37.637  32.671  31.199  1.00  0.00     0.031 A 
ATOM     45  C   UNL A   1      38.134  33.005  32.582  1.00  0.00     0.074 A 
ATOM     46  C   UNL A   1      38.223  31.680  30.500  1.00  0.00     0.049 A 
ATOM     47  N   UNL A   1      39.106  32.451  33.264  1.00  0.00    -0.248 NA
ATOM     48  C   UNL A   1      37.457  34.100  33.293  1.00  0.00     0.031 C 
ATOM     49  C   UNL A   1      37.835  31.261  29.152  1.00  0.00     0.029 A 
ATOM     50  N   UNL A   1      39.245  30.825  30.832  1.00  0.00    -0.354 N 
ATOM     51  C   UNL A   1      39.167  33.139  34.469  1.00  0.00     0.074 A 
ATOM     52  C   UNL A   1      38.156  34.171  34.417  1.00  0.00     0.031 C 
ATOM     53  C   UNL A   1      38.566  30.195  28.796  1.00  0.00     0.029 A 
ATOM     54  C   UNL A   1      39.514  29.890  29.863  1.00  0.00     0.049 A 
ATOM     55  H   UNL A   1      39.737  30.877  31.683  1.00  0.00     0.167 HD
ATOM     56  C   UNL A   1      39.980  32.918  35.530  1.00  0.00     0.037 A 
ATOM     57  C   UNL A   1      40.428  28.900  29.830  1.00  0.00     0.037 A 
ATOM     58  C   UNL A   1      40.970  31.876  35.594  1.00  0.00     0.049 A 
ATOM     59  C   UNL A   1      41.345  28.706  31.003  1.00  0.00     0.074 A 
ATOM     60  C   UNL A   1      41.810  31.550  36.645  1.00  0.00     0.029 A 
ATOM     61  N   UNL A   1      41.255  30.991  34.565  1.00  0.00    -0.354 N 
ATOM     62  N   UNL A   1      41.364  29.339  32.149  1.00  0.00    -0.248 NA
ATOM     63  C   UNL A   1      42.378  27.667  30.874  1.00  0.00     0.031 C 
ATOM     64  C   UNL A   1      42.637  30.500  36.235  1.00  0.00     0.029 A 
ATOM     65  C   UNL A   1      42.281  30.141  34.945  1.00  0.00     0.049 A 
ATOM     66  H   UNL A   1      40.796  30.971  33.694  1.00  0.00     0.167 HD
ATOM     67  C   UNL A   1      42.402  28.778  32.879  1.00  0.00     0.074 A 
ATOM     68  C   UNL A   1      42.974  27.733  32.057  1.00  0.00     0.031 C 
ATOM     69  C   UNL A   1      42.844  29.106  34.117  1.00  0.00     0.037 A 
BRANCH  56  70
ATOM     70  C   UNL A   1      39.841  33.820  36.723  1.00  0.00     0.064 A 
ATOM     71  C   UNL A   1      40.496  35.058  36.785  1.00  0.00     0.173 A 
ATOM     72  C   UNL A   1      38.983  33.476  37.780  1.00  0.00     0.173 A 
ATOM     73  F   UNL A   1      41.334  35.429  35.806  1.00  0.00    -0.203 F 
ATOM     74  C   UNL A   1      40.307  35.914  37.868  1.00  0.00     0.198 A 
ATOM     75  C   UNL A   1      38.778  34.344  38.848  1.00  0.00     0.198 A 
ATOM     76  F   UNL A   1      38.328  32.305  37.765  1.00  0.00    -0.203 F 
ATOM     77  F   UNL A   1      40.966  37.080  37.921  1.00  0.00    -0.200 F 
ATOM     78  C   UNL A   1      39.441  35.561  38.894  1.00  0.00     0.200 A 
ATOM     79  F   UNL A   1      37.930  34.008  39.831  1.00  0.00    -0.200 F 
ATOM     80  F   UNL A   1      39.249  36.393  39.926  1.00  0.00    -0.200 F 
ENDBRANCH  56  70
BRANCH  57  81
ATOM     81  C   UNL A   1      40.505  28.016  28.640  1.00  0.00     0.064 A 
ATOM     82  C   UNL A   1      41.274  28.376  27.525  1.00  0.00     0.173 A 
ATOM     83  C   UNL A   1      39.844  26.779  28.604  1.00  0.00     0.173 A 
ATOM     84  F   UNL A   1      41.911  29.557  27.505  1.00  0.00    -0.203 F 
ATOM     85  C   UNL A   1      41.378  27.535  26.420  1.00  0.00     0.198 A 
ATOM     86  C   UNL A   1      39.970  25.926  27.510  1.00  0.00     0.198 A 
ATOM     87  F   UNL A   1      39.097  26.388  29.648  1.00  0.00    -0.203 F 
ATOM     88  F   UNL A   1      42.099  27.915  25.356  1.00  0.00    -0.200 F 
ATOM     89  C   UNL A   1      40.733  26.306  26.417  1.00  0.00     0.200 A 
ATOM     90  F   UNL A   1      39.360  24.733  27.520  1.00  0.00    -0.200 F 
ATOM     91  F   UNL A   1      40.847  25.490  25.362  1.00  0.00    -0.200 F 
ENDBRANCH  57  81
BRANCH  69  92
ATOM     92  C   UNL A   1      44.007  28.338  34.668  1.00  0.00     0.064 A 
ATOM     93  C   UNL A   1      43.823  27.110  35.319  1.00  0.00     0.173 A 
ATOM     94  C   UNL A   1      45.320  28.786  34.464  1.00  0.00     0.173 A 
ATOM     95  F   UNL A   1      42.585  26.646  35.550  1.00  0.00    -0.203 F 
ATOM     96  C   UNL A   1      44.913  26.359  35.751  1.00  0.00     0.198 A 
ATOM     97  C   UNL A   1      46.409  28.021  34.875  1.00  0.00     0.198 A 
ATOM     98  F   UNL A   1      45.547  29.952  33.841  1.00  0.00    -0.203 F 
ATOM     99  F   UNL A   1      44.714  25.200  36.394  1.00  0.00    -0.200 F 
ATOM    100  C   UNL A   1      46.204  26.810  35.519  1.00  0.00     0.200 A 
ATOM    101  F   UNL A   1      47.655  28.451  34.637  1.00  0.00    -0.200 F 
ATOM    102  F   UNL A   1      47.253  26.076  35.916  1.00  0.00    -0.200 F 
ENDBRANCH  69  92
ENDBRANCH  43  44
ENDBRANCH  35  38
ENDBRANCH  33  34
ENDBRANCH  32  33
ENDBRANCH  31  32
ENDBRANCH  30  31
ENDBRANCH   1  30
TORSDOF 17
ENDMDL
MODEL 2
REMARK VINA RESULT:     -12.7      2.317      7.772
REMARK SMILES C=C(C)COc1ccc2nc(C)n(-c3cccc(C(=O)NCCCCCCNC(=O)c4ccc(-c5c6nc(c(-c7c(F)c(F)c(F)c(F)c7F)c7ccc([nH]7)c(-c7c(F)c(F)c(F)c(F)c7F)c7nc(c(-c8c(F)c(F)c(F)c(F)c8F)c8ccc5[nH]8)C=C7)C=C6)cc4)c3)c(=O)c2c1
REMARK SMILES IDX 23 1 22 2 21 3 19 4 20 5 18 7 14 8 15 9 94 10 16 11 17 12
REMARK SMILES IDX 13 13 6 14 7 15 98 16 8 17 97 18 9 19 95 20 10 21 96 22
REMARK SMILES IDX 11 23 12 24 5 25 4 26 2 27 1 28 3 29 24 30 25 31 26 32 27 33
REMARK SMILES IDX 28 34 29 35 30 37 31 38 32 39 93 40 33 41 92 42 34 43 35 44
REMARK SMILES IDX 36 45 86 46 37 47 91 48 85 49 87 50 38 51 90 52 84 53 83 54
REMARK SMILES IDX 39 56 71 57 51 58 70 59 52 60 55 61 69 62 88 63 53 64 54 65
REMARK SMILES IDX 68 67 89 68 56 69 40 70 41 71 49 72 42 73 43 74 47 75 50 76
REMARK SMILES IDX 44 77 45 78 48 79 46 80 72 81 73 82 81 83 74 84 75 85 79 86
REMARK SMILES IDX 82 87 76 88 77 89 80 90 78 91 57 92 58 93 66 94 59 95 60 96
REMARK SMILES IDX 64 97 67 98 61 99 62 100 65 101 63 102
REMARK H PARENT 21 6 28 36 87 55 55 66
REMARK Flexibility Score: inf
ROOT
ATOM      1  C   UNL A   1      35.268  30.123  27.849  1.00  0.00     0.021 C 
ENDROOT
BRANCH   1   2
ATOM      2  C   UNL A   1      34.311  29.166  27.147  1.00  0.00     0.116 C 
BRANCH   2   3
ATOM      3  N   UNL A   1      33.057  28.925  27.837  1.00  0.00    -0.352 N 
ATOM      4  C   UNL A   1      31.968  28.146  27.505  1.00  0.00     0.251 C 
ATOM      5  O   UNL A   1      31.023  28.097  28.290  1.00  0.00    -0.269 OA
ATOM      6  H   UNL A   1      32.968  29.403  28.694  1.00  0.00     0.163 HD
BRANCH   4   7
ATOM      7  C   UNL A   1      31.860  27.433  26.199  1.00  0.00     0.041 A 
ATOM      8  C   UNL A   1      32.265  25.478  24.822  1.00  0.00     0.051 A 
ATOM      9  C   UNL A   1      32.049  26.247  23.672  1.00  0.00     0.027 A 
ATOM     10  C   UNL A   1      32.022  26.055  26.074  1.00  0.00     0.040 A 
ATOM     11  C   UNL A   1      31.715  27.598  23.781  1.00  0.00     0.003 A 
ATOM     12  C   UNL A   1      31.665  28.199  25.040  1.00  0.00     0.014 A 
BRANCH   8  13
ATOM     13  N   UNL A   1      32.918  24.202  24.770  1.00  0.00    -0.264 N 
ATOM     14  C   UNL A   1      32.853  19.339  24.736  1.00  0.00     0.120 A 
ATOM     15  C   UNL A   1      34.243  19.361  24.839  1.00  0.00     0.049 A 
ATOM     16  C   UNL A   1      32.137  20.533  24.649  1.00  0.00     0.062 A 
ATOM     17  C   UNL A   1      34.917  20.578  24.920  1.00  0.00     0.033 A 
ATOM     18  C   UNL A   1      32.827  21.751  24.721  1.00  0.00     0.070 A 
ATOM     19  C   UNL A   1      34.211  21.779  24.866  1.00  0.00     0.078 A 
ATOM     20  C   UNL A   1      32.123  23.047  24.668  1.00  0.00     0.266 A 
ATOM     21  N   UNL A   1      34.924  22.964  25.011  1.00  0.00    -0.234 NA
ATOM     22  O   UNL A   1      30.898  23.034  24.558  1.00  0.00    -0.268 OA
ATOM     23  C   UNL A   1      34.287  24.091  24.990  1.00  0.00     0.113 A 
ATOM     24  C   UNL A   1      35.137  25.307  25.311  1.00  0.00     0.088 C 
BRANCH  14  25
ATOM     25  O   UNL A   1      32.177  18.153  24.629  1.00  0.00    -0.489 OA
BRANCH  25  26
ATOM     26  C   UNL A   1      32.980  17.115  24.037  1.00  0.00     0.260 C 
BRANCH  26  27
ATOM     27  C   UNL A   1      33.358  16.032  25.027  1.00  0.00    -0.043 C 
ATOM     28  C   UNL A   1      32.443  15.272  25.655  1.00  0.00     0.011 C 
ATOM     29  C   UNL A   1      34.830  15.831  25.244  1.00  0.00     0.042 C 
ENDBRANCH  26  27
ENDBRANCH  25  26
ENDBRANCH  14  25
ENDBRANCH   8  13
ENDBRANCH   4   7
ENDBRANCH   2   3
ENDBRANCH   1   2
BRANCH   1  30
ATOM     30  C   UNL A   1      35.015  31.619  27.676  1.00  0.00     0.002 C 
BRANCH  30  31
ATOM     31  C   UNL A   1      34.352  32.353  28.843  1.00  0.00     0.002 C 
BRANCH  31  32
ATOM     32  C   UNL A   1      33.370  33.468  28.491  1.00  0.00     0.021 C 
BRANCH  32  33
ATOM     33  C   UNL A   1      33.793  34.887  28.854  1.00  0.00     0.116 C 
BRANCH  33  34
ATOM     34  N   UNL A   1      32.911  35.541  29.805  1.00  0.00    -0.352 N 
ATOM     35  C   UNL A   1      32.967  35.568  31.182  1.00  0.00     0.251 C 
ATOM     36  H   UNL A   1      32.160  36.040  29.406  1.00  0.00     0.163 HD
ATOM     37  O   UNL A   1      32.081  36.111  31.826  1.00  0.00    -0.269 OA
BRANCH  35  38
ATOM     38  C   UNL A   1      34.083  34.893  31.890  1.00  0.00     0.039 A 
ATOM     39  C   UNL A   1      35.307  35.531  32.085  1.00  0.00     0.014 A 
ATOM     40  C   UNL A   1      33.901  33.582  32.344  1.00  0.00     0.014 A 
ATOM     41  C   UNL A   1      36.398  34.803  32.553  1.00  0.00     0.010 A 
ATOM     42  C   UNL A   1      34.977  32.879  32.899  1.00  0.00     0.010 A 
ATOM     43  C   UNL A   1      36.250  33.464  32.952  1.00  0.00    -0.014 A 
BRANCH  43  44
ATOM     44  C   UNL A   1      37.449  32.699  33.391  1.00  0.00     0.031 A 
ATOM     45  C   UNL A   1      38.078  31.667  32.492  1.00  0.00     0.074 A 
ATOM     46  C   UNL A   1      38.019  32.988  34.577  1.00  0.00     0.049 A 
ATOM     47  N   UNL A   1      39.163  30.958  32.684  1.00  0.00    -0.248 NA
ATOM     48  C   UNL A   1      37.406  31.390  31.213  1.00  0.00     0.031 C 
ATOM     49  C   UNL A   1      37.507  33.967  35.537  1.00  0.00     0.029 A 
ATOM     50  N   UNL A   1      39.166  32.515  35.164  1.00  0.00    -0.354 N 
ATOM     51  C   UNL A   1      39.291  30.145  31.565  1.00  0.00     0.074 A 
ATOM     52  C   UNL A   1      38.159  30.423  30.710  1.00  0.00     0.031 C 
ATOM     53  C   UNL A   1      38.363  34.065  36.564  1.00  0.00     0.029 A 
ATOM     54  C   UNL A   1      39.455  33.116  36.365  1.00  0.00     0.049 A 
ATOM     55  H   UNL A   1      39.727  31.813  34.764  1.00  0.00     0.167 HD
ATOM     56  C   UNL A   1      40.274  29.261  31.269  1.00  0.00     0.037 A 
ATOM     57  C   UNL A   1      40.479  32.922  37.219  1.00  0.00     0.037 A 
ATOM     58  C   UNL A   1      41.415  29.001  32.108  1.00  0.00     0.049 A 
ATOM     59  C   UNL A   1      41.531  31.903  36.886  1.00  0.00     0.074 A 
ATOM     60  C   UNL A   1      42.483  28.153  31.869  1.00  0.00     0.029 A 
ATOM     61  N   UNL A   1      41.636  29.583  33.346  1.00  0.00    -0.354 N 
ATOM     62  N   UNL A   1      41.659  31.172  35.806  1.00  0.00    -0.248 NA
ATOM     63  C   UNL A   1      42.577  31.673  37.894  1.00  0.00     0.031 C 
ATOM     64  C   UNL A   1      43.325  28.185  32.984  1.00  0.00     0.029 A 
ATOM     65  C   UNL A   1      42.806  29.089  33.898  1.00  0.00     0.049 A 
ATOM     66  H   UNL A   1      41.048  30.250  33.770  1.00  0.00     0.167 HD
ATOM     67  C   UNL A   1      42.796  30.400  36.000  1.00  0.00     0.074 A 
ATOM     68  C   UNL A   1      43.338  30.770  37.291  1.00  0.00     0.031 C 
ATOM     69  C   UNL A   1      43.335  29.463  35.184  1.00  0.00     0.037 A 
BRANCH  56  70
ATOM     70  C   UNL A   1      40.171  28.499  29.979  1.00  0.00     0.064 A 
ATOM     71  C   UNL A   1      40.800  28.952  28.810  1.00  0.00     0.173 A 
ATOM     72  C   UNL A   1      39.502  27.266  29.931  1.00  0.00     0.173 A 
ATOM     73  F   UNL A   1      41.443  30.128  28.801  1.00  0.00    -0.203 F 
ATOM     74  C   UNL A   1      40.751  28.203  27.636  1.00  0.00     0.198 A 
ATOM     75  C   UNL A   1      39.477  26.509  28.763  1.00  0.00     0.198 A 
ATOM     76  F   UNL A   1      38.891  26.785  31.024  1.00  0.00    -0.203 F 
ATOM     77  F   UNL A   1      41.333  28.669  26.523  1.00  0.00    -0.200 F 
ATOM     78  C   UNL A   1      40.098  26.979  27.616  1.00  0.00     0.200 A 
ATOM     79  F   UNL A   1      38.859  25.320  28.749  1.00  0.00    -0.200 F 
ATOM     80  F   UNL A   1      40.067  26.253  26.490  1.00  0.00    -0.200 F 
ENDBRANCH  56  70
BRANCH  57  81
ATOM     81  C   UNL A   1      40.553  33.722  38.467  1.00  0.00     0.064 A 
ATOM     82  C   UNL A   1      41.345  34.877  38.535  1.00  0.00     0.173 A 
ATOM     83  C   UNL A   1      39.810  33.372  39.604  1.00  0.00     0.173 A 
ATOM     84  F   UNL A   1      42.088  35.242  37.479  1.00  0.00    -0.203 F 
ATOM     85  C   UNL A   1      41.391  35.650  39.692  1.00  0.00     0.198 A 
ATOM     86  C   UNL A   1      39.836  34.161  40.752  1.00  0.00     0.198 A 
ATOM     87  F   UNL A   1      39.036  32.277  39.589  1.00  0.00    -0.203 F 
ATOM     88  F   UNL A   1      42.176  36.735  39.740  1.00  0.00    -0.200 F 
ATOM     89  C   UNL A   1      40.629  35.297  40.797  1.00  0.00     0.200 A 
ATOM     90  F   UNL A   1      39.085  33.826  41.810  1.00  0.00    -0.200 F 
ATOM     91  F   UNL A   1      40.661  36.050  41.904  1.00  0.00    -0.200 F 
ENDBRANCH  57  81
BRANCH  69  92
ATOM     92  C   UNL A   1      44.573  28.759  35.653  1.00  0.00     0.064 A 
ATOM     93  C   UNL A   1      44.497  27.563  36.380  1.00  0.00     0.173 A 
ATOM     94  C   UNL A   1      45.843  29.234  35.295  1.00  0.00     0.173 A 
ATOM     95  F   UNL A   1      43.305  27.076  36.757  1.00  0.00    -0.203 F 
ATOM     96  C   UNL A   1      45.651  26.868  36.736  1.00  0.00     0.198 A 
ATOM     97  C   UNL A   1      46.993  28.525  35.631  1.00  0.00     0.198 A 
ATOM     98  F   UNL A   1      45.966  30.372  34.595  1.00  0.00    -0.203 F 
ATOM     99  F   UNL A   1      45.557  25.740  37.452  1.00  0.00    -0.200 F 
ATOM    100  C   UNL A   1      46.895  27.344  36.352  1.00  0.00     0.200 A 
ATOM    101  F   UNL A   1      48.194  28.978  35.247  1.00  0.00    -0.200 F 
ATOM    102  F   UNL A   1      48.003  26.664  36.677  1.00  0.00    -0.200 F 
ENDBRANCH  69  92
ENDBRANCH  43  44
ENDBRANCH  35  38
ENDBRANCH  33  34
ENDBRANCH  32  33
ENDBRANCH  31  32
ENDBRANCH  30  31
ENDBRANCH   1  30
TORSDOF 17
ENDMDL
MODEL 3
REMARK VINA RESULT:     -12.6      0.652      7.073
REMARK SMILES C=C(C)COc1ccc2nc(C)n(-c3cccc(C(=O)NCCCCCCNC(=O)c4ccc(-c5c6nc(c(-c7c(F)c(F)c(F)c(F)c7F)c7ccc([nH]7)c(-c7c(F)c(F)c(F)c(F)c7F)c7nc(c(-c8c(F)c(F)c(F)c(F)c8F)c8ccc5[nH]8)C=C7)C=C6)cc4)c3)c(=O)c2c1
REMARK SMILES IDX 23 1 22 2 21 3 19 4 20 5 18 7 14 8 15 9 94 10 16 11 17 12
REMARK SMILES IDX 13 13 6 14 7 15 98 16 8 17 97 18 9 19 95 20 10 21 96 22
REMARK SMILES IDX 11 23 12 24 5 25 4 26 2 27 1 28 3 29 24 30 25 31 26 32 27 33
REMARK SMILES IDX 28 34 29 35 30 37 31 38 32 39 93 40 33 41 92 42 34 43 35 44
REMARK SMILES IDX 36 45 86 46 37 47 91 48 85 49 87 50 38 51 90 52 84 53 83 54
REMARK SMILES IDX 39 56 71 57 51 58 70 59 52 60 55 61 69 62 88 63 53 64 54 65
REMARK SMILES IDX 68 67 89 68 56 69 40 70 41 71 49 72 42 73 43 74 47 75 50 76
REMARK SMILES IDX 44 77 45 78 48 79 46 80 72 81 73 82 81 83 74 84 75 85 79 86
REMARK SMILES IDX 82 87 76 88 77 89 80 90 78 91 57 92 58 93 66 94 59 95 60 96
REMARK SMILES IDX 64 97 67 98 61 99 62 100 65 101 63 102
REMARK H PARENT 21 6 28 36 87 55 55 66
REMARK Flexibility Score: inf
ROOT
ATOM      1  C   UNL A   1      32.139  29.211  24.109  1.00  0.00     0.021 C 
ENDROOT
BRANCH   1   2
ATOM      2  C   UNL A   1      31.428  28.319  23.098  1.00  0.00     0.116 C 
BRANCH   2   3
ATOM      3  N   UNL A   1      32.300  27.575  22.208  1.00  0.00    -0.352 N 
ATOM      4  C   UNL A   1      33.027  26.418  22.400  1.00  0.00     0.251 C 
ATOM      5  O   UNL A   1      33.681  25.974  21.458  1.00  0.00    -0.269 OA
ATOM      6  H   UNL A   1      32.387  27.963  21.307  1.00  0.00     0.163 HD
BRANCH   4   7
ATOM      7  C   UNL A   1      33.119  25.739  23.726  1.00  0.00     0.041 A 
ATOM      8  C   UNL A   1      34.091  24.046  25.165  1.00  0.00     0.051 A 
ATOM      9  C   UNL A   1      33.013  24.183  26.049  1.00  0.00     0.027 A 
ATOM     10  C   UNL A   1      34.197  24.934  24.088  1.00  0.00     0.040 A 
ATOM     11  C   UNL A   1      32.003  25.111  25.788  1.00  0.00     0.003 A 
ATOM     12  C   UNL A   1      32.035  25.855  24.606  1.00  0.00     0.014 A 
BRANCH   8  13
ATOM     13  N   UNL A   1      34.964  22.909  25.206  1.00  0.00    -0.264 N 
ATOM     14  C   UNL A   1      39.346  20.874  25.765  1.00  0.00     0.120 A 
ATOM     15  C   UNL A   1      38.789  19.663  25.356  1.00  0.00     0.049 A 
ATOM     16  C   UNL A   1      38.545  22.010  25.882  1.00  0.00     0.062 A 
ATOM     17  C   UNL A   1      37.444  19.599  25.000  1.00  0.00     0.033 A 
ATOM     18  C   UNL A   1      37.190  21.930  25.532  1.00  0.00     0.070 A 
ATOM     19  C   UNL A   1      36.639  20.734  25.082  1.00  0.00     0.078 A 
ATOM     20  C   UNL A   1      36.299  23.105  25.602  1.00  0.00     0.266 A 
ATOM     21  N   UNL A   1      35.318  20.631  24.659  1.00  0.00    -0.234 NA
ATOM     22  O   UNL A   1      36.780  24.171  25.981  1.00  0.00    -0.268 OA
ATOM     23  C   UNL A   1      34.558  21.678  24.702  1.00  0.00     0.113 A 
ATOM     24  C   UNL A   1      33.188  21.494  24.075  1.00  0.00     0.088 C 
BRANCH  14  25
ATOM     25  O   UNL A   1      40.660  20.949  26.143  1.00  0.00    -0.489 OA
BRANCH  25  26
ATOM     26  C   UNL A   1      41.151  22.303  26.158  1.00  0.00     0.260 C 
BRANCH  26  27
ATOM     27  C   UNL A   1      42.612  22.399  25.770  1.00  0.00    -0.043 C 
ATOM     28  C   UNL A   1      43.430  21.332  25.755  1.00  0.00     0.011 C 
ATOM     29  C   UNL A   1      43.092  23.763  25.365  1.00  0.00     0.042 C 
ENDBRANCH  26  27
ENDBRANCH  25  26
ENDBRANCH  14  25
ENDBRANCH   8  13
ENDBRANCH   4   7
ENDBRANCH   2   3
ENDBRANCH   1   2
BRANCH   1  30
ATOM     30  C   UNL A   1      31.286  29.846  25.206  1.00  0.00     0.002 C 
BRANCH  30  31
ATOM     31  C   UNL A   1      32.025  30.456  26.398  1.00  0.00     0.002 C 
BRANCH  31  32
ATOM     32  C   UNL A   1      31.711  31.912  26.736  1.00  0.00     0.021 C 
BRANCH  32  33
ATOM     33  C   UNL A   1      32.865  32.749  27.276  1.00  0.00     0.116 C 
BRANCH  33  34
ATOM     34  N   UNL A   1      32.490  34.102  27.645  1.00  0.00    -0.352 N 
ATOM     35  C   UNL A   1      33.000  34.917  28.634  1.00  0.00     0.251 C 
ATOM     36  H   UNL A   1      31.763  34.498  27.110  1.00  0.00     0.163 HD
ATOM     37  O   UNL A   1      32.499  36.010  28.853  1.00  0.00    -0.269 OA
BRANCH  35  38
ATOM     38  C   UNL A   1      34.131  34.445  29.471  1.00  0.00     0.039 A 
ATOM     39  C   UNL A   1      35.449  34.536  29.023  1.00  0.00     0.014 A 
ATOM     40  C   UNL A   1      33.858  33.877  30.719  1.00  0.00     0.014 A 
ATOM     41  C   UNL A   1      36.463  33.892  29.727  1.00  0.00     0.010 A 
ATOM     42  C   UNL A   1      34.894  33.309  31.470  1.00  0.00     0.010 A 
ATOM     43  C   UNL A   1      36.196  33.258  30.952  1.00  0.00    -0.014 A 
BRANCH  43  44
ATOM     44  C   UNL A   1      37.291  32.529  31.648  1.00  0.00     0.031 A 
ATOM     45  C   UNL A   1      38.010  31.390  30.974  1.00  0.00     0.074 A 
ATOM     46  C   UNL A   1      37.691  32.945  32.865  1.00  0.00     0.049 A 
ATOM     47  N   UNL A   1      39.031  30.690  31.404  1.00  0.00    -0.248 NA
ATOM     48  C   UNL A   1      37.523  30.978  29.648  1.00  0.00     0.031 C 
ATOM     49  C   UNL A   1      37.077  34.036  33.623  1.00  0.00     0.029 A 
ATOM     50  N   UNL A   1      38.723  32.524  33.667  1.00  0.00    -0.354 N 
ATOM     51  C   UNL A   1      39.294  29.751  30.415  1.00  0.00     0.074 A 
ATOM     52  C   UNL A   1      38.309  29.947  29.375  1.00  0.00     0.031 C 
ATOM     53  C   UNL A   1      37.777  34.239  34.748  1.00  0.00     0.029 A 
ATOM     54  C   UNL A   1      38.854  33.256  34.822  1.00  0.00     0.049 A 
ATOM     55  H   UNL A   1      39.313  31.771  33.436  1.00  0.00     0.167 HD
ATOM     56  C   UNL A   1      40.279  28.822  30.370  1.00  0.00     0.037 A 
ATOM     57  C   UNL A   1      39.735  33.144  35.835  1.00  0.00     0.037 A 
ATOM     58  C   UNL A   1      41.276  28.643  31.393  1.00  0.00     0.049 A 
ATOM     59  C   UNL A   1      40.790  32.077  35.779  1.00  0.00     0.074 A 
ATOM     60  C   UNL A   1      42.338  27.755  31.413  1.00  0.00     0.029 A 
ATOM     61  N   UNL A   1      41.333  29.361  32.578  1.00  0.00    -0.354 N 
ATOM     62  N   UNL A   1      41.050  31.224  34.819  1.00  0.00    -0.248 NA
ATOM     63  C   UNL A   1      41.668  31.948  36.951  1.00  0.00     0.031 C 
ATOM     64  C   UNL A   1      43.009  27.902  32.630  1.00  0.00     0.029 A 
ATOM     65  C   UNL A   1      42.393  28.914  33.349  1.00  0.00     0.049 A 
ATOM     66  H   UNL A   1      40.712  30.082  32.831  1.00  0.00     0.167 HD
ATOM     67  C   UNL A   1      42.119  30.461  35.266  1.00  0.00     0.074 A 
ATOM     68  C   UNL A   1      42.479  30.968  36.573  1.00  0.00     0.031 C 
ATOM     69  C   UNL A   1      42.740  29.426  34.650  1.00  0.00     0.037 A 
BRANCH  56  70
ATOM     70  C   UNL A   1      40.340  27.918  29.173  1.00  0.00     0.064 A 
ATOM     71  C   UNL A   1      39.606  26.724  29.119  1.00  0.00     0.173 A 
ATOM     72  C   UNL A   1      41.079  28.287  28.038  1.00  0.00     0.173 A 
ATOM     73  F   UNL A   1      38.893  26.322  30.181  1.00  0.00    -0.203 F 
ATOM     74  C   UNL A   1      39.620  25.927  27.977  1.00  0.00     0.198 A 
ATOM     75  C   UNL A   1      41.070  27.500  26.890  1.00  0.00     0.198 A 
ATOM     76  F   UNL A   1      41.792  29.423  28.036  1.00  0.00    -0.203 F 
ATOM     77  F   UNL A   1      38.935  24.775  27.959  1.00  0.00    -0.200 F 
ATOM     78  C   UNL A   1      40.344  26.320  26.860  1.00  0.00     0.200 A 
ATOM     79  F   UNL A   1      41.758  27.889  25.807  1.00  0.00    -0.200 F 
ATOM     80  F   UNL A   1      40.342  25.559  25.757  1.00  0.00    -0.200 F 
ENDBRANCH  56  70
BRANCH  57  81
ATOM     81  C   UNL A   1      39.653  34.083  36.982  1.00  0.00     0.064 A 
ATOM     82  C   UNL A   1      38.907  33.759  38.124  1.00  0.00     0.173 A 
ATOM     83  C   UNL A   1      40.344  35.303  36.979  1.00  0.00     0.173 A 
ATOM     84  F   UNL A   1      38.213  32.611  38.167  1.00  0.00    -0.203 F 
ATOM     85  C   UNL A   1      38.854  34.621  39.217  1.00  0.00     0.198 A 
ATOM     86  C   UNL A   1      40.314  36.152  38.083  1.00  0.00     0.198 A 
ATOM     87  F   UNL A   1      41.075  35.658  35.911  1.00  0.00    -0.203 F 
ATOM     88  F   UNL A   1      38.112  34.300  40.285  1.00  0.00    -0.200 F 
ATOM     89  C   UNL A   1      39.565  35.813  39.199  1.00  0.00     0.200 A 
ATOM     90  F   UNL A   1      41.016  37.293  38.069  1.00  0.00    -0.200 F 
ATOM     91  F   UNL A   1      39.528  36.633  40.258  1.00  0.00    -0.200 F 
ENDBRANCH  57  81
BRANCH  69  92
ATOM     92  C   UNL A   1      43.872  28.761  35.373  1.00  0.00     0.064 A 
ATOM     93  C   UNL A   1      43.648  27.674  36.230  1.00  0.00     0.173 A 
ATOM     94  C   UNL A   1      45.198  29.155  35.140  1.00  0.00     0.173 A 
ATOM     95  F   UNL A   1      42.396  27.270  36.495  1.00  0.00    -0.203 F 
ATOM     96  C   UNL A   1      44.712  27.005  36.830  1.00  0.00     0.198 A 
ATOM     97  C   UNL A   1      46.261  28.469  35.722  1.00  0.00     0.198 A 
ATOM     98  F   UNL A   1      45.463  30.186  34.325  1.00  0.00    -0.203 F 
ATOM     99  F   UNL A   1      44.474  25.984  37.664  1.00  0.00    -0.200 F 
ATOM    100  C   UNL A   1      46.016  27.396  36.567  1.00  0.00     0.200 A 
ATOM    101  F   UNL A   1      47.520  28.838  35.455  1.00  0.00    -0.200 F 
ATOM    102  F   UNL A   1      47.040  26.739  37.129  1.00  0.00    -0.200 F 
ENDBRANCH  69  92
ENDBRANCH  43  44
ENDBRANCH  35  38
ENDBRANCH  33  34
ENDBRANCH  32  33
ENDBRANCH  31  32
ENDBRANCH  30  31
ENDBRANCH   1  30
TORSDOF 17
ENDMDL
