MODEL 1
REMARK VINA RESULT:     -13.1      0.000      0.000
REMARK SMILES CCc1cc(/C=C/C(=O)NCCCCCCNC(=O)c2ccc(-c3c4nc(c(-c5c(F)c(F)c(F)c(F)c5F)c5ccc([nH]5)c(-c5c(F)c(F)c(F)c(F)c5F)c5nc(c(-c6c(F)c(F)c(F)c(F)c6F)c6ccc3[nH]6)C=C5)C=C4)cc2)cc(C(=O)c2ccccc2)c1
REMARK SMILES IDX 13 1 12 2 11 3 10 4 8 5 9 6 7 8 6 9 5 10 3 11 4 12 93 13
REMARK SMILES IDX 84 14 83 15 2 16 1 17 85 18 86 19 87 20 88 21 92 22 89 23
REMARK SMILES IDX 91 24 90 25 14 26 15 27 16 28 17 29 18 30 19 32 20 33 21 34
REMARK SMILES IDX 82 35 22 36 81 37 23 38 24 39 25 40 75 41 26 42 80 43 74 44
REMARK SMILES IDX 76 45 27 46 79 47 73 48 72 49 28 51 60 52 40 53 59 54 41 55
REMARK SMILES IDX 44 56 58 57 77 58 42 59 43 60 57 62 78 63 45 64 29 65 30 66
REMARK SMILES IDX 38 67 31 68 32 69 36 70 39 71 33 72 34 73 37 74 35 75 61 76
REMARK SMILES IDX 62 77 70 78 63 79 64 80 68 81 71 82 65 83 66 84 69 85 67 86
REMARK SMILES IDX 46 87 47 88 55 89 48 90 49 91 53 92 56 93 50 94 51 95 54 96
REMARK SMILES IDX 52 97
REMARK H PARENT 10 7 17 31 76 50 44 61
REMARK Flexibility Score: inf
ROOT
ATOM      1  C   UNL A   1      31.043  30.083  24.930  1.00  0.00     0.002 C 
ENDROOT
BRANCH   1   2
ATOM      2  C   UNL A   1      31.154  28.619  24.478  1.00  0.00     0.021 C 
BRANCH   2   3
ATOM      3  C   UNL A   1      32.335  28.369  23.536  1.00  0.00     0.116 C 
BRANCH   3   4
ATOM      4  N   UNL A   1      31.878  27.718  22.324  1.00  0.00    -0.353 N 
ATOM      5  C   UNL A   1      32.012  26.453  21.856  1.00  0.00     0.243 C 
ATOM      6  O   UNL A   1      31.485  26.166  20.781  1.00  0.00    -0.270 OA
ATOM      7  H   UNL A   1      31.370  28.311  21.724  1.00  0.00     0.163 HD
BRANCH   5   8
ATOM      8  C   UNL A   1      32.704  25.379  22.610  1.00  0.00     0.072 C 
ATOM      9  C   UNL A   1      33.205  24.238  22.120  1.00  0.00     0.014 C 
BRANCH   9  10
ATOM     10  C   UNL A   1      33.843  23.172  22.909  1.00  0.00    -0.024 A 
ATOM     11  C   UNL A   1      35.729  22.251  24.160  1.00  0.00    -0.047 A 
ATOM     12  C   UNL A   1      35.191  23.214  23.291  1.00  0.00     0.011 A 
ATOM     13  C   UNL A   1      34.894  21.236  24.647  1.00  0.00     0.016 A 
ATOM     14  C   UNL A   1      33.543  21.185  24.287  1.00  0.00     0.023 A 
ATOM     15  C   UNL A   1      33.031  22.142  23.402  1.00  0.00     0.020 A 
BRANCH  11  16
ATOM     16  C   UNL A   1      37.157  22.371  24.637  1.00  0.00     0.032 C 
ATOM     17  C   UNL A   1      37.441  23.648  25.415  1.00  0.00     0.009 C 
ENDBRANCH  11  16
BRANCH  14  18
ATOM     18  C   UNL A   1      32.611  20.151  24.822  1.00  0.00     0.193 C 
ATOM     19  O   UNL A   1      31.555  20.484  25.354  1.00  0.00    -0.289 OA
BRANCH  18  20
ATOM     20  C   UNL A   1      32.926  18.710  24.706  1.00  0.00     0.022 A 
ATOM     21  C   UNL A   1      32.712  17.891  25.817  1.00  0.00     0.012 A 
ATOM     22  C   UNL A   1      33.418  18.171  23.511  1.00  0.00     0.012 A 
ATOM     23  C   UNL A   1      32.930  16.517  25.712  1.00  0.00     0.001 A 
ATOM     24  C   UNL A   1      33.631  16.796  23.411  1.00  0.00     0.001 A 
ATOM     25  C   UNL A   1      33.376  15.970  24.508  1.00  0.00     0.000 A 
ENDBRANCH  18  20
ENDBRANCH  14  18
ENDBRANCH   9  10
ENDBRANCH   5   8
ENDBRANCH   3   4
ENDBRANCH   2   3
ENDBRANCH   1   2
BRANCH   1  26
ATOM     26  C   UNL A   1      31.960  30.463  26.101  1.00  0.00     0.002 C 
BRANCH  26  27
ATOM     27  C   UNL A   1      31.622  31.797  26.771  1.00  0.00     0.021 C 
BRANCH  27  28
ATOM     28  C   UNL A   1      32.832  32.508  27.368  1.00  0.00     0.116 C 
BRANCH  28  29
ATOM     29  N   UNL A   1      32.560  33.923  27.587  1.00  0.00    -0.352 N 
ATOM     30  C   UNL A   1      33.062  34.765  28.548  1.00  0.00     0.251 C 
ATOM     31  H   UNL A   1      31.928  34.333  26.955  1.00  0.00     0.163 HD
ATOM     32  O   UNL A   1      32.537  35.850  28.764  1.00  0.00    -0.269 OA
BRANCH  30  33
ATOM     33  C   UNL A   1      34.240  34.344  29.331  1.00  0.00     0.039 A 
ATOM     34  C   UNL A   1      34.051  33.721  30.566  1.00  0.00     0.014 A 
ATOM     35  C   UNL A   1      35.528  34.553  28.830  1.00  0.00     0.014 A 
ATOM     36  C   UNL A   1      35.156  33.233  31.265  1.00  0.00     0.010 A 
ATOM     37  C   UNL A   1      36.620  34.005  29.493  1.00  0.00     0.010 A 
ATOM     38  C   UNL A   1      36.442  33.330  30.709  1.00  0.00    -0.014 A 
BRANCH  38  39
ATOM     39  C   UNL A   1      37.616  32.696  31.358  1.00  0.00     0.031 A 
ATOM     40  C   UNL A   1      38.280  31.508  30.725  1.00  0.00     0.074 A 
ATOM     41  C   UNL A   1      38.021  33.141  32.564  1.00  0.00     0.049 A 
ATOM     42  N   UNL A   1      39.239  30.751  31.192  1.00  0.00    -0.248 NA
ATOM     43  C   UNL A   1      37.782  31.104  29.403  1.00  0.00     0.031 C 
ATOM     44  C   UNL A   1      37.429  34.264  33.291  1.00  0.00     0.029 A 
ATOM     45  N   UNL A   1      39.011  32.688  33.400  1.00  0.00    -0.354 N 
ATOM     46  C   UNL A   1      39.454  29.777  30.227  1.00  0.00     0.074 A 
ATOM     47  C   UNL A   1      38.490  30.008  29.171  1.00  0.00     0.031 C 
ATOM     48  C   UNL A   1      38.075  34.422  34.458  1.00  0.00     0.029 A 
ATOM     49  C   UNL A   1      39.089  33.380  34.583  1.00  0.00     0.049 A 
ATOM     50  H   UNL A   1      39.606  31.937  33.173  1.00  0.00     0.167 HD
ATOM     51  C   UNL A   1      40.384  28.793  30.216  1.00  0.00     0.037 A 
ATOM     52  C   UNL A   1      39.874  33.182  35.660  1.00  0.00     0.037 A 
ATOM     53  C   UNL A   1      41.341  28.577  31.270  1.00  0.00     0.049 A 
ATOM     54  C   UNL A   1      40.860  32.045  35.646  1.00  0.00     0.074 A 
ATOM     55  C   UNL A   1      42.364  27.645  31.327  1.00  0.00     0.029 A 
ATOM     56  N   UNL A   1      41.385  29.292  32.457  1.00  0.00    -0.354 N 
ATOM     57  N   UNL A   1      41.109  31.176  34.695  1.00  0.00    -0.248 NA
ATOM     58  C   UNL A   1      41.671  31.856  36.856  1.00  0.00     0.031 C 
ATOM     59  C   UNL A   1      42.984  27.756  32.574  1.00  0.00     0.029 A 
ATOM     60  C   UNL A   1      42.390  28.795  33.272  1.00  0.00     0.049 A 
ATOM     61  H   UNL A   1      40.790  30.042  32.687  1.00  0.00     0.167 HD
ATOM     62  C   UNL A   1      42.116  30.355  35.183  1.00  0.00     0.074 A 
ATOM     63  C   UNL A   1      42.447  30.840  36.506  1.00  0.00     0.031 C 
ATOM     64  C   UNL A   1      42.708  29.290  34.588  1.00  0.00     0.037 A 
BRANCH  51  65
ATOM     65  C   UNL A   1      40.406  27.869  29.032  1.00  0.00     0.064 A 
ATOM     66  C   UNL A   1      39.660  26.680  29.011  1.00  0.00     0.173 A 
ATOM     67  C   UNL A   1      41.150  28.195  27.888  1.00  0.00     0.173 A 
ATOM     68  F   UNL A   1      38.938  26.317  30.082  1.00  0.00    -0.203 F 
ATOM     69  C   UNL A   1      39.685  25.837  27.904  1.00  0.00     0.198 A 
ATOM     70  C   UNL A   1      41.146  27.366  26.770  1.00  0.00     0.198 A 
ATOM     71  F   UNL A   1      41.875  29.323  27.850  1.00  0.00    -0.203 F 
ATOM     72  F   UNL A   1      39.007  24.681  27.929  1.00  0.00    -0.200 F 
ATOM     73  C   UNL A   1      40.421  26.184  26.781  1.00  0.00     0.200 A 
ATOM     74  F   UNL A   1      41.845  27.710  25.679  1.00  0.00    -0.200 F 
ATOM     75  F   UNL A   1      40.438  25.376  25.713  1.00  0.00    -0.200 F 
ENDBRANCH  51  65
BRANCH  52  76
ATOM     76  C   UNL A   1      39.758  34.079  36.839  1.00  0.00     0.064 A 
ATOM     77  C   UNL A   1      40.468  35.286  36.897  1.00  0.00     0.173 A 
ATOM     78  C   UNL A   1      38.941  33.751  37.932  1.00  0.00     0.173 A 
ATOM     79  F   UNL A   1      41.279  35.634  35.887  1.00  0.00    -0.203 F 
ATOM     80  C   UNL A   1      40.380  36.121  38.009  1.00  0.00     0.198 A 
ATOM     81  C   UNL A   1      38.829  34.602  39.030  1.00  0.00     0.198 A 
ATOM     82  F   UNL A   1      38.237  32.610  37.927  1.00  0.00    -0.203 F 
ATOM     83  F   UNL A   1      41.107  37.246  38.057  1.00  0.00    -0.200 F 
ATOM     84  C   UNL A   1      39.556  35.782  39.071  1.00  0.00     0.200 A 
ATOM     85  F   UNL A   1      38.019  34.279  40.047  1.00  0.00    -0.200 F 
ATOM     86  F   UNL A   1      39.468  36.589  40.137  1.00  0.00    -0.200 F 
ENDBRANCH  52  76
BRANCH  64  87
ATOM     87  C   UNL A   1      43.790  28.585  35.354  1.00  0.00     0.064 A 
ATOM     88  C   UNL A   1      43.497  27.542  36.245  1.00  0.00     0.173 A 
ATOM     89  C   UNL A   1      45.139  28.912  35.145  1.00  0.00     0.173 A 
ATOM     90  F   UNL A   1      42.224  27.202  36.492  1.00  0.00    -0.203 F 
ATOM     91  C   UNL A   1      44.515  26.863  36.910  1.00  0.00     0.198 A 
ATOM     92  C   UNL A   1      46.154  28.210  35.788  1.00  0.00     0.198 A 
ATOM     93  F   UNL A   1      45.473  29.898  34.299  1.00  0.00    -0.203 F 
ATOM     94  F   UNL A   1      44.210  25.896  37.788  1.00  0.00    -0.200 F 
ATOM     95  C   UNL A   1      45.842  27.189  36.673  1.00  0.00     0.200 A 
ATOM     96  F   UNL A   1      47.437  28.515  35.544  1.00  0.00    -0.200 F 
ATOM     97  F   UNL A   1      46.819  26.522  37.301  1.00  0.00    -0.200 F 
ENDBRANCH  64  87
ENDBRANCH  38  39
ENDBRANCH  30  33
ENDBRANCH  28  29
ENDBRANCH  27  28
ENDBRANCH  26  27
ENDBRANCH   1  26
TORSDOF 17
ENDMDL
MODEL 2
REMARK VINA RESULT:     -13.0      0.608      2.088
REMARK SMILES CCc1cc(/C=C/C(=O)NCCCCCCNC(=O)c2ccc(-c3c4nc(c(-c5c(F)c(F)c(F)c(F)c5F)c5ccc([nH]5)c(-c5c(F)c(F)c(F)c(F)c5F)c5nc(c(-c6c(F)c(F)c(F)c(F)c6F)c6ccc3[nH]6)C=C5)C=C4)cc2)cc(C(=O)c2ccccc2)c1
REMARK SMILES IDX 13 1 12 2 11 3 10 4 8 5 9 6 7 8 6 9 5 10 3 11 4 12 93 13
REMARK SMILES IDX 84 14 83 15 2 16 1 17 85 18 86 19 87 20 88 21 92 22 89 23
REMARK SMILES IDX 91 24 90 25 14 26 15 27 16 28 17 29 18 30 19 32 20 33 21 34
REMARK SMILES IDX 82 35 22 36 81 37 23 38 24 39 25 40 75 41 26 42 80 43 74 44
REMARK SMILES IDX 76 45 27 46 79 47 73 48 72 49 28 51 60 52 40 53 59 54 41 55
REMARK SMILES IDX 44 56 58 57 77 58 42 59 43 60 57 62 78 63 45 64 29 65 30 66
REMARK SMILES IDX 38 67 31 68 32 69 36 70 39 71 33 72 34 73 37 74 35 75 61 76
REMARK SMILES IDX 62 77 70 78 63 79 64 80 68 81 71 82 65 83 66 84 69 85 67 86
REMARK SMILES IDX 46 87 47 88 55 89 48 90 49 91 53 92 56 93 50 94 51 95 54 96
REMARK SMILES IDX 52 97
REMARK H PARENT 10 7 17 31 76 50 44 61
REMARK Flexibility Score: inf
ROOT
ATOM      1  C   UNL A   1      31.524  29.522  25.129  1.00  0.00     0.002 C 
ENDROOT
BRANCH   1   2
ATOM      2  C   UNL A   1      31.455  27.988  25.090  1.00  0.00     0.021 C 
BRANCH   2   3
ATOM      3  C   UNL A   1      32.807  27.333  24.794  1.00  0.00     0.116 C 
BRANCH   3   4
ATOM      4  N   UNL A   1      33.027  27.267  23.362  1.00  0.00    -0.353 N 
ATOM      5  C   UNL A   1      33.427  26.265  22.542  1.00  0.00     0.243 C 
ATOM      6  O   UNL A   1      33.502  26.491  21.333  1.00  0.00    -0.270 OA
ATOM      7  H   UNL A   1      32.850  28.116  22.896  1.00  0.00     0.163 HD
BRANCH   5   8
ATOM      8  C   UNL A   1      33.710  24.890  23.020  1.00  0.00     0.072 C 
ATOM      9  C   UNL A   1      34.862  24.426  23.522  1.00  0.00     0.014 C 
BRANCH   9  10
ATOM     10  C   UNL A   1      35.119  23.040  23.942  1.00  0.00    -0.024 A 
ATOM     11  C   UNL A   1      36.575  21.294  24.837  1.00  0.00    -0.047 A 
ATOM     12  C   UNL A   1      36.392  22.582  24.309  1.00  0.00     0.011 A 
ATOM     13  C   UNL A   1      35.459  20.461  24.995  1.00  0.00     0.016 A 
ATOM     14  C   UNL A   1      34.179  20.905  24.645  1.00  0.00     0.023 A 
ATOM     15  C   UNL A   1      34.020  22.185  24.100  1.00  0.00     0.020 A 
BRANCH  11  16
ATOM     16  C   UNL A   1      37.938  20.857  25.319  1.00  0.00     0.032 C 
ATOM     17  C   UNL A   1      38.804  21.997  25.835  1.00  0.00     0.009 C 
ENDBRANCH  11  16
BRANCH  14  18
ATOM     18  C   UNL A   1      32.960  20.068  24.842  1.00  0.00     0.193 C 
ATOM     19  O   UNL A   1      31.875  20.597  25.067  1.00  0.00    -0.289 OA
BRANCH  18  20
ATOM     20  C   UNL A   1      33.028  18.593  24.752  1.00  0.00     0.022 A 
ATOM     21  C   UNL A   1      33.515  18.020  23.575  1.00  0.00     0.012 A 
ATOM     22  C   UNL A   1      32.625  17.783  25.821  1.00  0.00     0.012 A 
ATOM     23  C   UNL A   1      33.661  16.635  23.492  1.00  0.00     0.001 A 
ATOM     24  C   UNL A   1      32.775  16.400  25.733  1.00  0.00     0.001 A 
ATOM     25  C   UNL A   1      33.303  15.828  24.573  1.00  0.00     0.000 A 
ENDBRANCH  18  20
ENDBRANCH  14  18
ENDBRANCH   9  10
ENDBRANCH   5   8
ENDBRANCH   3   4
ENDBRANCH   2   3
ENDBRANCH   1   2
BRANCH   1  26
ATOM     26  C   UNL A   1      31.820  30.114  26.514  1.00  0.00     0.002 C 
BRANCH  26  27
ATOM     27  C   UNL A   1      31.647  31.632  26.611  1.00  0.00     0.021 C 
BRANCH  27  28
ATOM     28  C   UNL A   1      32.808  32.340  27.301  1.00  0.00     0.116 C 
BRANCH  28  29
ATOM     29  N   UNL A   1      32.513  33.750  27.521  1.00  0.00    -0.352 N 
ATOM     30  C   UNL A   1      33.014  34.604  28.473  1.00  0.00     0.251 C 
ATOM     31  H   UNL A   1      31.864  34.147  26.898  1.00  0.00     0.163 HD
ATOM     32  O   UNL A   1      32.473  35.679  28.695  1.00  0.00    -0.269 OA
BRANCH  30  33
ATOM     33  C   UNL A   1      34.211  34.206  29.239  1.00  0.00     0.039 A 
ATOM     34  C   UNL A   1      34.053  33.585  30.479  1.00  0.00     0.014 A 
ATOM     35  C   UNL A   1      35.487  34.435  28.717  1.00  0.00     0.014 A 
ATOM     36  C   UNL A   1      35.178  33.119  31.162  1.00  0.00     0.010 A 
ATOM     37  C   UNL A   1      36.599  33.908  29.363  1.00  0.00     0.010 A 
ATOM     38  C   UNL A   1      36.453  33.236  30.585  1.00  0.00    -0.014 A 
BRANCH  38  39
ATOM     39  C   UNL A   1      37.647  32.625  31.218  1.00  0.00     0.031 A 
ATOM     40  C   UNL A   1      38.347  31.474  30.557  1.00  0.00     0.074 A 
ATOM     41  C   UNL A   1      38.041  33.055  32.433  1.00  0.00     0.049 A 
ATOM     42  N   UNL A   1      39.331  30.737  31.005  1.00  0.00    -0.248 NA
ATOM     43  C   UNL A   1      37.859  31.083  29.226  1.00  0.00     0.031 C 
ATOM     44  C   UNL A   1      37.416  34.142  33.186  1.00  0.00     0.029 A 
ATOM     45  N   UNL A   1      39.046  32.615  33.257  1.00  0.00    -0.354 N 
ATOM     46  C   UNL A   1      39.574  29.792  30.018  1.00  0.00     0.074 A 
ATOM     47  C   UNL A   1      38.601  30.016  28.969  1.00  0.00     0.031 C 
ATOM     48  C   UNL A   1      38.059  34.294  34.355  1.00  0.00     0.029 A 
ATOM     49  C   UNL A   1      39.106  33.282  34.455  1.00  0.00     0.049 A 
ATOM     50  H   UNL A   1      39.665  31.889  33.012  1.00  0.00     0.167 HD
ATOM     51  C   UNL A   1      40.535  28.839  29.983  1.00  0.00     0.037 A 
ATOM     52  C   UNL A   1      39.900  33.085  35.526  1.00  0.00     0.037 A 
ATOM     53  C   UNL A   1      41.501  28.629  31.030  1.00  0.00     0.049 A 
ATOM     54  C   UNL A   1      40.921  31.980  35.484  1.00  0.00     0.074 A 
ATOM     55  C   UNL A   1      42.553  27.729  31.064  1.00  0.00     0.029 A 
ATOM     56  N   UNL A   1      41.525  29.318  32.233  1.00  0.00    -0.354 N 
ATOM     57  N   UNL A   1      41.194  31.142  34.514  1.00  0.00    -0.248 NA
ATOM     58  C   UNL A   1      41.740  31.790  36.689  1.00  0.00     0.031 C 
ATOM     59  C   UNL A   1      43.173  27.831  32.313  1.00  0.00     0.029 A 
ATOM     60  C   UNL A   1      42.548  28.835  33.035  1.00  0.00     0.049 A 
ATOM     61  H   UNL A   1      40.907  30.044  32.481  1.00  0.00     0.167 HD
ATOM     62  C   UNL A   1      42.228  30.341  34.981  1.00  0.00     0.074 A 
ATOM     63  C   UNL A   1      42.547  30.807  36.315  1.00  0.00     0.031 C 
ATOM     64  C   UNL A   1      42.853  29.310  34.361  1.00  0.00     0.037 A 
BRANCH  51  65
ATOM     65  C   UNL A   1      40.583  27.942  28.778  1.00  0.00     0.064 A 
ATOM     66  C   UNL A   1      41.371  28.254  27.659  1.00  0.00     0.173 A 
ATOM     67  C   UNL A   1      39.864  26.738  28.758  1.00  0.00     0.173 A 
ATOM     68  F   UNL A   1      42.072  29.397  27.624  1.00  0.00    -0.203 F 
ATOM     69  C   UNL A   1      41.411  27.409  26.553  1.00  0.00     0.198 A 
ATOM     70  C   UNL A   1      39.933  25.880  27.664  1.00  0.00     0.198 A 
ATOM     71  F   UNL A   1      39.101  26.386  29.804  1.00  0.00    -0.203 F 
ATOM     72  F   UNL A   1      42.128  27.754  25.475  1.00  0.00    -0.200 F 
ATOM     73  C   UNL A   1      40.698  26.220  26.559  1.00  0.00     0.200 A 
ATOM     74  F   UNL A   1      39.256  24.723  27.677  1.00  0.00    -0.200 F 
ATOM     75  F   UNL A   1      40.744  25.405  25.497  1.00  0.00    -0.200 F 
ENDBRANCH  51  65
BRANCH  52  76
ATOM     76  C   UNL A   1      39.758  33.951  36.725  1.00  0.00     0.064 A 
ATOM     77  C   UNL A   1      38.952  33.560  37.803  1.00  0.00     0.173 A 
ATOM     78  C   UNL A   1      40.420  35.184  36.821  1.00  0.00     0.173 A 
ATOM     79  F   UNL A   1      38.282  32.400  37.751  1.00  0.00    -0.203 F 
ATOM     80  C   UNL A   1      38.798  34.377  38.921  1.00  0.00     0.198 A 
ATOM     81  C   UNL A   1      40.291  35.986  37.953  1.00  0.00     0.198 A 
ATOM     82  F   UNL A   1      41.207  35.604  35.820  1.00  0.00    -0.203 F 
ATOM     83  F   UNL A   1      37.984  34.000  39.917  1.00  0.00    -0.200 F 
ATOM     84  C   UNL A   1      39.474  35.586  38.998  1.00  0.00     0.200 A 
ATOM     85  F   UNL A   1      40.958  37.146  38.031  1.00  0.00    -0.200 F 
ATOM     86  F   UNL A   1      39.329  36.368  40.077  1.00  0.00    -0.200 F 
ENDBRANCH  52  76
BRANCH  64  87
ATOM     87  C   UNL A   1      43.958  28.622  35.109  1.00  0.00     0.064 A 
ATOM     88  C   UNL A   1      45.282  29.084  35.049  1.00  0.00     0.173 A 
ATOM     89  C   UNL A   1      43.681  27.529  35.944  1.00  0.00     0.173 A 
ATOM     90  F   UNL A   1      45.602  30.115  34.253  1.00  0.00    -0.203 F 
ATOM     91  C   UNL A   1      46.288  28.467  35.787  1.00  0.00     0.198 A 
ATOM     92  C   UNL A   1      44.684  26.936  36.704  1.00  0.00     0.198 A 
ATOM     93  F   UNL A   1      42.431  27.052  36.040  1.00  0.00    -0.203 F 
ATOM     94  F   UNL A   1      47.553  28.900  35.684  1.00  0.00    -0.200 F 
ATOM     95  C   UNL A   1      45.987  27.401  36.622  1.00  0.00     0.200 A 
ATOM     96  F   UNL A   1      44.387  25.917  37.524  1.00  0.00    -0.200 F 
ATOM     97  F   UNL A   1      46.955  26.821  37.345  1.00  0.00    -0.200 F 
ENDBRANCH  64  87
ENDBRANCH  38  39
ENDBRANCH  30  33
ENDBRANCH  28  29
ENDBRANCH  27  28
ENDBRANCH  26  27
ENDBRANCH   1  26
TORSDOF 17
ENDMDL
MODEL 3
REMARK VINA RESULT:     -12.6      0.791      7.301
REMARK SMILES CCc1cc(/C=C/C(=O)NCCCCCCNC(=O)c2ccc(-c3c4nc(c(-c5c(F)c(F)c(F)c(F)c5F)c5ccc([nH]5)c(-c5c(F)c(F)c(F)c(F)c5F)c5nc(c(-c6c(F)c(F)c(F)c(F)c6F)c6ccc3[nH]6)C=C5)C=C4)cc2)cc(C(=O)c2ccccc2)c1
REMARK SMILES IDX 13 1 12 2 11 3 10 4 8 5 9 6 7 8 6 9 5 10 3 11 4 12 93 13
REMARK SMILES IDX 84 14 83 15 2 16 1 17 85 18 86 19 87 20 88 21 92 22 89 23
REMARK SMILES IDX 91 24 90 25 14 26 15 27 16 28 17 29 18 30 19 32 20 33 21 34
REMARK SMILES IDX 82 35 22 36 81 37 23 38 24 39 25 40 75 41 26 42 80 43 74 44
REMARK SMILES IDX 76 45 27 46 79 47 73 48 72 49 28 51 60 52 40 53 59 54 41 55
REMARK SMILES IDX 44 56 58 57 77 58 42 59 43 60 57 62 78 63 45 64 29 65 30 66
REMARK SMILES IDX 38 67 31 68 32 69 36 70 39 71 33 72 34 73 37 74 35 75 61 76
REMARK SMILES IDX 62 77 70 78 63 79 64 80 68 81 71 82 65 83 66 84 69 85 67 86
REMARK SMILES IDX 46 87 47 88 55 89 48 90 49 91 53 92 56 93 50 94 51 95 54 96
REMARK SMILES IDX 52 97
REMARK H PARENT 10 7 17 31 76 50 44 61
REMARK Flexibility Score: inf
ROOT
ATOM      1  C   UNL A   1      32.855  30.070  26.918  1.00  0.00     0.002 C 
ENDROOT
BRANCH   1   2
ATOM      2  C   UNL A   1      32.946  28.556  26.671  1.00  0.00     0.021 C 
BRANCH   2   3
ATOM      3  C   UNL A   1      33.783  28.198  25.440  1.00  0.00     0.116 C 
BRANCH   3   4
ATOM      4  N   UNL A   1      32.923  28.017  24.287  1.00  0.00    -0.353 N 
ATOM      5  C   UNL A   1      32.553  26.921  23.582  1.00  0.00     0.243 C 
ATOM      6  O   UNL A   1      31.770  27.063  22.642  1.00  0.00    -0.270 OA
ATOM      7  H   UNL A   1      32.531  28.856  23.951  1.00  0.00     0.163 HD
BRANCH   5   8
ATOM      8  C   UNL A   1      32.989  25.547  23.933  1.00  0.00     0.072 C 
ATOM      9  C   UNL A   1      34.134  24.945  23.583  1.00  0.00     0.014 C 
BRANCH   9  10
ATOM     10  C   UNL A   1      34.511  23.561  23.910  1.00  0.00    -0.024 A 
ATOM     11  C   UNL A   1      36.143  21.876  24.593  1.00  0.00    -0.047 A 
ATOM     12  C   UNL A   1      35.836  23.171  24.148  1.00  0.00     0.011 A 
ATOM     13  C   UNL A   1      35.097  20.965  24.801  1.00  0.00     0.016 A 
ATOM     14  C   UNL A   1      33.767  21.340  24.582  1.00  0.00     0.023 A 
ATOM     15  C   UNL A   1      33.484  22.630  24.116  1.00  0.00     0.020 A 
BRANCH  11  16
ATOM     16  C   UNL A   1      37.566  21.507  24.938  1.00  0.00     0.032 C 
ATOM     17  C   UNL A   1      38.293  22.560  25.762  1.00  0.00     0.009 C 
ENDBRANCH  11  16
BRANCH  14  18
ATOM     18  C   UNL A   1      32.623  20.417  24.837  1.00  0.00     0.193 C 
ATOM     19  O   UNL A   1      31.523  20.866  25.147  1.00  0.00    -0.289 OA
BRANCH  18  20
ATOM     20  C   UNL A   1      32.784  18.953  24.706  1.00  0.00     0.022 A 
ATOM     21  C   UNL A   1      33.013  18.420  23.435  1.00  0.00     0.012 A 
ATOM     22  C   UNL A   1      32.719  18.114  25.826  1.00  0.00     0.012 A 
ATOM     23  C   UNL A   1      33.244  17.052  23.293  1.00  0.00     0.001 A 
ATOM     24  C   UNL A   1      32.953  16.747  25.677  1.00  0.00     0.001 A 
ATOM     25  C   UNL A   1      33.226  16.220  24.414  1.00  0.00     0.000 A 
ENDBRANCH  18  20
ENDBRANCH  14  18
ENDBRANCH   9  10
ENDBRANCH   5   8
ENDBRANCH   3   4
ENDBRANCH   2   3
ENDBRANCH   1   2
BRANCH   1  26
ATOM     26  C   UNL A   1      31.562  30.724  26.415  1.00  0.00     0.002 C 
BRANCH  26  27
ATOM     27  C   UNL A   1      31.481  32.236  26.635  1.00  0.00     0.021 C 
BRANCH  27  28
ATOM     28  C   UNL A   1      32.722  32.829  27.296  1.00  0.00     0.116 C 
BRANCH  28  29
ATOM     29  N   UNL A   1      32.524  34.233  27.630  1.00  0.00    -0.352 N 
ATOM     30  C   UNL A   1      33.046  34.959  28.672  1.00  0.00     0.251 C 
ATOM     31  H   UNL A   1      31.934  34.732  27.022  1.00  0.00     0.163 HD
ATOM     32  O   UNL A   1      32.578  36.051  28.969  1.00  0.00    -0.269 OA
BRANCH  30  33
ATOM     33  C   UNL A   1      34.176  34.404  29.442  1.00  0.00     0.039 A 
ATOM     34  C   UNL A   1      33.921  33.728  30.637  1.00  0.00     0.014 A 
ATOM     35  C   UNL A   1      35.484  34.541  28.969  1.00  0.00     0.014 A 
ATOM     36  C   UNL A   1      34.974  33.117  31.318  1.00  0.00     0.010 A 
ATOM     37  C   UNL A   1      36.520  33.874  29.611  1.00  0.00     0.010 A 
ATOM     38  C   UNL A   1      36.273  33.146  30.784  1.00  0.00    -0.014 A 
BRANCH  38  39
ATOM     39  C   UNL A   1      37.384  32.387  31.408  1.00  0.00     0.031 A 
ATOM     40  C   UNL A   1      37.898  32.778  32.763  1.00  0.00     0.074 A 
ATOM     41  C   UNL A   1      37.985  31.405  30.709  1.00  0.00     0.049 A 
ATOM     42  N   UNL A   1      38.929  32.314  33.421  1.00  0.00    -0.248 NA
ATOM     43  C   UNL A   1      37.171  33.850  33.459  1.00  0.00     0.031 C 
ATOM     44  C   UNL A   1      37.595  30.963  29.370  1.00  0.00     0.029 A 
ATOM     45  N   UNL A   1      39.066  30.617  31.017  1.00  0.00    -0.354 N 
ATOM     46  C   UNL A   1      38.980  33.041  34.603  1.00  0.00     0.074 A 
ATOM     47  C   UNL A   1      37.907  34.012  34.549  1.00  0.00     0.031 C 
ATOM     48  C   UNL A   1      38.414  29.974  28.977  1.00  0.00     0.029 A 
ATOM     49  C   UNL A   1      39.417  29.750  30.013  1.00  0.00     0.049 A 
ATOM     50  H   UNL A   1      39.543  30.670  31.877  1.00  0.00     0.167 HD
ATOM     51  C   UNL A   1      39.832  32.896  35.644  1.00  0.00     0.037 A 
ATOM     52  C   UNL A   1      40.448  28.886  29.926  1.00  0.00     0.037 A 
ATOM     53  C   UNL A   1      40.893  31.922  35.690  1.00  0.00     0.049 A 
ATOM     54  C   UNL A   1      41.415  28.786  31.074  1.00  0.00     0.074 A 
ATOM     55  C   UNL A   1      41.773  31.655  36.724  1.00  0.00     0.029 A 
ATOM     56  N   UNL A   1      41.225  31.067  34.649  1.00  0.00    -0.354 N 
ATOM     57  N   UNL A   1      41.409  29.424  32.220  1.00  0.00    -0.248 NA
ATOM     58  C   UNL A   1      42.537  27.851  30.916  1.00  0.00     0.031 C 
ATOM     59  C   UNL A   1      42.676  30.682  36.285  1.00  0.00     0.029 A 
ATOM     60  C   UNL A   1      42.324  30.299  35.002  1.00  0.00     0.049 A 
ATOM     61  H   UNL A   1      40.749  31.012  33.789  1.00  0.00     0.167 HD
ATOM     62  C   UNL A   1      42.508  28.953  32.925  1.00  0.00     0.074 A 
ATOM     63  C   UNL A   1      43.148  27.961  32.086  1.00  0.00     0.031 C 
ATOM     64  C   UNL A   1      42.950  29.314  34.155  1.00  0.00     0.037 A 
BRANCH  51  65
ATOM     65  C   UNL A   1      39.661  33.818  36.818  1.00  0.00     0.064 A 
ATOM     66  C   UNL A   1      38.881  33.460  37.929  1.00  0.00     0.173 A 
ATOM     67  C   UNL A   1      40.316  35.058  36.851  1.00  0.00     0.173 A 
ATOM     68  F   UNL A   1      38.227  32.289  37.945  1.00  0.00    -0.203 F 
ATOM     69  C   UNL A   1      38.737  34.322  39.012  1.00  0.00     0.198 A 
ATOM     70  C   UNL A   1      40.197  35.903  37.950  1.00  0.00     0.198 A 
ATOM     71  F   UNL A   1      41.081  35.448  35.820  1.00  0.00    -0.203 F 
ATOM     72  F   UNL A   1      37.944  33.981  40.037  1.00  0.00    -0.200 F 
ATOM     73  C   UNL A   1      39.401  35.540  39.026  1.00  0.00     0.200 A 
ATOM     74  F   UNL A   1      40.852  37.073  37.969  1.00  0.00    -0.200 F 
ATOM     75  F   UNL A   1      39.268  36.365  40.072  1.00  0.00    -0.200 F 
ENDBRANCH  51  65
BRANCH  52  76
ATOM     76  C   UNL A   1      40.618  28.052  28.708  1.00  0.00     0.064 A 
ATOM     77  C   UNL A   1      40.020  26.788  28.613  1.00  0.00     0.173 A 
ATOM     78  C   UNL A   1      41.379  28.495  27.616  1.00  0.00     0.173 A 
ATOM     79  F   UNL A   1      39.299  26.311  29.638  1.00  0.00    -0.203 F 
ATOM     80  C   UNL A   1      40.192  25.992  27.483  1.00  0.00     0.198 A 
ATOM     81  C   UNL A   1      41.525  27.712  26.473  1.00  0.00     0.198 A 
ATOM     82  F   UNL A   1      41.970  29.699  27.653  1.00  0.00    -0.203 F 
ATOM     83  F   UNL A   1      39.648  24.768  27.439  1.00  0.00    -0.200 F 
ATOM     84  C   UNL A   1      40.939  26.458  26.411  1.00  0.00     0.200 A 
ATOM     85  F   UNL A   1      42.234  28.172  25.433  1.00  0.00    -0.200 F 
ATOM     86  F   UNL A   1      41.100  25.693  25.322  1.00  0.00    -0.200 F 
ENDBRANCH  52  76
BRANCH  64  87
ATOM     87  C   UNL A   1      44.174  28.623  34.681  1.00  0.00     0.064 A 
ATOM     88  C   UNL A   1      45.454  29.174  34.519  1.00  0.00     0.173 A 
ATOM     89  C   UNL A   1      44.060  27.429  35.409  1.00  0.00     0.173 A 
ATOM     90  F   UNL A   1      45.618  30.304  33.816  1.00  0.00    -0.203 F 
ATOM     91  C   UNL A   1      46.575  28.547  35.055  1.00  0.00     0.198 A 
ATOM     92  C   UNL A   1      45.180  26.823  35.971  1.00  0.00     0.198 A 
ATOM     93  F   UNL A   1      42.858  26.863  35.597  1.00  0.00    -0.203 F 
ATOM     94  F   UNL A   1      47.793  29.071  34.854  1.00  0.00    -0.200 F 
ATOM     95  C   UNL A   1      46.437  27.379  35.790  1.00  0.00     0.200 A 
ATOM     96  F   UNL A   1      45.041  25.703  36.695  1.00  0.00    -0.200 F 
ATOM     97  F   UNL A   1      47.516  26.788  36.320  1.00  0.00    -0.200 F 
ENDBRANCH  64  87
ENDBRANCH  38  39
ENDBRANCH  30  33
ENDBRANCH  28  29
ENDBRANCH  27  28
ENDBRANCH  26  27
ENDBRANCH   1  26
TORSDOF 17
ENDMDL
