MODEL 1
REMARK VINA RESULT:     -12.1      0.000      0.000
REMARK SMILES CCOc1ccc(C(=O)NC(=S)Nc2cccc(C(=O)NCCCCCCNC(=O)c3ccc(-c4c5nc(c(-c6c(F)c(F)c(F)c(F)c6F)c6ccc([nH]6)c(-c6c(F)c(F)c(F)c(F)c6F)c6nc(c(-c7c(F)c(F)c(F)c(F)c7F)c7ccc4[nH]7)C=C6)C=C5)cc3)c2C)cc1Br
REMARK SMILES IDX 22 1 21 2 19 3 20 4 18 6 14 7 15 8 94 9 16 10 95 11 17 12
REMARK SMILES IDX 13 13 11 15 12 16 10 17 8 18 9 19 7 21 4 22 5 23 97 24 6 25
REMARK SMILES IDX 96 26 98 27 3 28 2 29 1 30 23 31 24 32 25 33 26 34 27 35
REMARK SMILES IDX 28 36 29 37 30 39 31 40 32 41 93 42 33 43 92 44 34 45 35 46
REMARK SMILES IDX 36 47 86 48 37 49 91 50 85 51 87 52 38 53 90 54 84 55 83 56
REMARK SMILES IDX 39 58 71 59 51 60 70 61 52 62 55 63 69 64 88 65 53 66 54 67
REMARK SMILES IDX 68 69 89 70 56 71 40 72 41 73 49 74 42 75 43 76 47 77 50 78
REMARK SMILES IDX 44 79 45 80 48 81 46 82 72 83 73 84 81 85 74 86 75 87 79 88
REMARK SMILES IDX 82 89 76 90 77 91 80 92 78 93 57 94 58 95 66 96 59 97 60 98
REMARK SMILES IDX 64 99 67 100 61 101 62 102 65 103 63 104
REMARK H PARENT 21 5 13 14 10 20 28 38 87 57 55 68
REMARK Flexibility Score: inf
ROOT
ATOM      1  C   UNL A   1      37.073  22.997  25.660  1.00  0.00     0.116 C 
ENDROOT
BRANCH   1   2
ATOM      2  N   UNL A   1      36.118  22.704  26.694  1.00  0.00    -0.352 N 
ATOM      3  C   UNL A   1      34.793  22.361  26.621  1.00  0.00     0.251 C 
ATOM      4  O   UNL A   1      34.281  21.883  27.629  1.00  0.00    -0.269 OA
ATOM      5  H   UNL A   1      36.476  22.761  27.609  1.00  0.00     0.163 HD
BRANCH   3   6
ATOM      6  C   UNL A   1      33.959  22.612  25.397  1.00  0.00     0.044 A 
ATOM      7  C   UNL A   1      32.536  25.153  23.331  1.00  0.00     0.044 A 
ATOM      8  C   UNL A   1      31.790  23.516  22.417  1.00  0.00     0.026 A 
ATOM      9  C   UNL A   1      33.636  24.531  24.934  1.00  0.00    -0.015 A 
ATOM     10  C   UNL A   1      32.245  21.619  22.780  1.00  0.00     0.003 A 
ATOM     11  C   UNL A   1      34.387  25.644  25.628  1.00  0.00     0.047 C 
ATOM     12  C   UNL A   1      33.455  20.998  24.279  1.00  0.00     0.014 A 
BRANCH   7  13
ATOM     13  N   UNL A   1      31.836  26.379  23.334  1.00  0.00    -0.332 N 
ATOM     14  H   UNL A   1      32.096  27.022  22.636  1.00  0.00     0.169 HD
BRANCH  13  15
ATOM     15  C   UNL A   1      30.848  26.788  24.178  1.00  0.00     0.177 C 
ATOM     16  S   UNL A   1      29.409  27.300  23.487  1.00  0.00    -0.040 S 
BRANCH  15  17
ATOM     17  N   UNL A   1      30.977  26.927  25.569  1.00  0.00    -0.299 N 
ATOM     18  C   UNL A   1      31.392  27.788  26.646  1.00  0.00     0.257 C 
ATOM     19  O   UNL A   1      31.261  27.428  27.813  1.00  0.00    -0.269 OA
ATOM     20  H   UNL A   1      30.651  26.091  25.975  1.00  0.00     0.172 HD
BRANCH  18  21
ATOM     21  C   UNL A   1      32.056  29.064  26.356  1.00  0.00     0.041 A 
ATOM     22  C   UNL A   1      34.590  31.230  27.672  1.00  0.00     0.133 A 
ATOM     23  C   UNL A   1      32.796  31.073  26.738  1.00  0.00     0.048 A 
ATOM     24  C   UNL A   1      34.834  30.158  27.778  1.00  0.00     0.060 A 
ATOM     25  C   UNL A   1      31.678  30.274  26.207  1.00  0.00     0.018 A 
ATOM     26  C   UNL A   1      33.341  29.209  26.821  1.00  0.00     0.033 A 
ATOM     27  Br  UNL A   1      36.454  29.625  29.132  1.00  0.00    -0.047 Br
BRANCH  22  28
ATOM     28  O   UNL A   1      35.487  32.214  28.178  1.00  0.00    -0.493 OA
BRANCH  28  29
ATOM     29  C   UNL A   1      35.107  33.631  28.235  1.00  0.00     0.226 C 
ATOM     30  C   UNL A   1      34.284  34.125  29.419  1.00  0.00     0.049 C 
ENDBRANCH  28  29
ENDBRANCH  22  28
ENDBRANCH  18  21
ENDBRANCH  15  17
ENDBRANCH  13  15
ENDBRANCH   7  13
ENDBRANCH   3   6
ENDBRANCH   1   2
BRANCH   1  31
ATOM     31  C   UNL A   1      37.710  21.725  25.069  1.00  0.00     0.021 C 
BRANCH  31  32
ATOM     32  C   UNL A   1      38.938  21.239  25.835  1.00  0.00     0.002 C 
BRANCH  32  33
ATOM     33  C   UNL A   1      39.255  19.757  25.599  1.00  0.00     0.002 C 
BRANCH  33  34
ATOM     34  C   UNL A   1      40.651  19.322  26.059  1.00  0.00     0.021 C 
BRANCH  34  35
ATOM     35  C   UNL A   1      41.250  20.259  27.080  1.00  0.00     0.116 C 
BRANCH  35  36
ATOM     36  N   UNL A   1      42.573  20.727  26.710  1.00  0.00    -0.352 N 
ATOM     37  C   UNL A   1      43.040  22.006  26.442  1.00  0.00     0.251 C 
ATOM     38  H   UNL A   1      43.253  20.018  26.635  1.00  0.00     0.163 HD
ATOM     39  O   UNL A   1      44.242  22.154  26.223  1.00  0.00    -0.269 OA
BRANCH  37  40
ATOM     40  C   UNL A   1      42.173  23.211  26.687  1.00  0.00     0.039 A 
ATOM     41  C   UNL A   1      42.399  24.297  25.830  1.00  0.00     0.014 A 
ATOM     42  C   UNL A   1      41.731  23.471  27.970  1.00  0.00     0.014 A 
ATOM     43  C   UNL A   1      42.657  25.546  26.386  1.00  0.00     0.010 A 
ATOM     44  C   UNL A   1      42.174  24.625  28.561  1.00  0.00     0.010 A 
ATOM     45  C   UNL A   1      42.740  25.622  27.770  1.00  0.00    -0.014 A 
BRANCH  45  46
ATOM     46  C   UNL A   1      43.089  26.806  28.529  1.00  0.00     0.031 A 
ATOM     47  C   UNL A   1      41.892  27.671  28.691  1.00  0.00     0.074 A 
ATOM     48  C   UNL A   1      44.329  26.847  29.094  1.00  0.00     0.049 A 
ATOM     49  N   UNL A   1      41.892  28.949  28.692  1.00  0.00    -0.248 NA
ATOM     50  C   UNL A   1      40.503  27.153  28.673  1.00  0.00     0.031 C 
ATOM     51  C   UNL A   1      44.906  27.672  30.161  1.00  0.00     0.029 A 
ATOM     52  N   UNL A   1      45.463  26.121  28.649  1.00  0.00    -0.354 N 
ATOM     53  C   UNL A   1      40.659  29.336  29.193  1.00  0.00     0.074 A 
ATOM     54  C   UNL A   1      39.773  28.244  28.923  1.00  0.00     0.031 C 
ATOM     55  C   UNL A   1      46.252  27.704  30.027  1.00  0.00     0.029 A 
ATOM     56  C   UNL A   1      46.595  26.958  28.831  1.00  0.00     0.049 A 
ATOM     57  H   UNL A   1      45.464  25.207  28.283  1.00  0.00     0.167 HD
ATOM     58  C   UNL A   1      40.628  30.411  30.030  1.00  0.00     0.037 A 
ATOM     59  C   UNL A   1      47.267  27.470  27.751  1.00  0.00     0.037 A 
ATOM     60  C   UNL A   1      42.013  30.862  30.211  1.00  0.00     0.049 A 
ATOM     61  C   UNL A   1      46.894  28.913  27.527  1.00  0.00     0.074 A 
ATOM     62  C   UNL A   1      42.963  30.559  31.170  1.00  0.00     0.029 A 
ATOM     63  N   UNL A   1      42.724  31.275  29.096  1.00  0.00    -0.354 N 
ATOM     64  N   UNL A   1      45.872  29.503  28.087  1.00  0.00    -0.248 NA
ATOM     65  C   UNL A   1      47.607  29.767  26.592  1.00  0.00     0.031 C 
ATOM     66  C   UNL A   1      44.250  30.822  30.614  1.00  0.00     0.029 A 
ATOM     67  C   UNL A   1      44.088  31.275  29.316  1.00  0.00     0.049 A 
ATOM     68  H   UNL A   1      42.305  31.539  28.246  1.00  0.00     0.167 HD
ATOM     69  C   UNL A   1      45.816  30.805  27.677  1.00  0.00     0.074 A 
ATOM     70  C   UNL A   1      46.841  30.870  26.639  1.00  0.00     0.031 C 
ATOM     71  C   UNL A   1      44.965  31.726  28.240  1.00  0.00     0.037 A 
BRANCH  58  72
ATOM     72  C   UNL A   1      39.489  30.855  30.930  1.00  0.00     0.064 A 
ATOM     73  C   UNL A   1      38.808  32.060  30.632  1.00  0.00     0.173 A 
ATOM     74  C   UNL A   1      38.997  30.174  32.063  1.00  0.00     0.173 A 
ATOM     75  F   UNL A   1      39.124  32.793  29.557  1.00  0.00    -0.203 F 
ATOM     76  C   UNL A   1      37.769  32.566  31.417  1.00  0.00     0.198 A 
ATOM     77  C   UNL A   1      37.955  30.688  32.856  1.00  0.00     0.198 A 
ATOM     78  F   UNL A   1      39.475  28.977  32.425  1.00  0.00    -0.203 F 
ATOM     79  F   UNL A   1      37.186  33.723  31.074  1.00  0.00    -0.200 F 
ATOM     80  C   UNL A   1      37.345  31.885  32.535  1.00  0.00     0.200 A 
ATOM     81  F   UNL A   1      37.537  30.009  33.935  1.00  0.00    -0.200 F 
ATOM     82  F   UNL A   1      36.348  32.373  33.286  1.00  0.00    -0.200 F 
ENDBRANCH  58  72
BRANCH  59  83
ATOM     83  C   UNL A   1      47.443  26.475  26.634  1.00  0.00     0.064 A 
ATOM     84  C   UNL A   1      46.731  26.803  25.462  1.00  0.00     0.173 A 
ATOM     85  C   UNL A   1      48.711  25.899  26.493  1.00  0.00     0.173 A 
ATOM     86  F   UNL A   1      45.457  27.216  25.532  1.00  0.00    -0.203 F 
ATOM     87  C   UNL A   1      47.451  27.108  24.326  1.00  0.00     0.198 A 
ATOM     88  C   UNL A   1      49.392  26.081  25.309  1.00  0.00     0.198 A 
ATOM     89  F   UNL A   1      49.381  25.435  27.556  1.00  0.00    -0.203 F 
ATOM     90  F   UNL A   1      46.914  27.886  23.376  1.00  0.00    -0.200 F 
ATOM     91  C   UNL A   1      48.807  26.876  24.337  1.00  0.00     0.200 A 
ATOM     92  F   UNL A   1      50.663  25.677  25.205  1.00  0.00    -0.200 F 
ATOM     93  F   UNL A   1      49.557  27.734  23.657  1.00  0.00    -0.200 F 
ENDBRANCH  59  83
BRANCH  71  94
ATOM     94  C   UNL A   1      44.859  33.170  27.795  1.00  0.00     0.064 A 
ATOM     95  C   UNL A   1      44.143  33.573  26.664  1.00  0.00     0.173 A 
ATOM     96  C   UNL A   1      45.514  34.228  28.475  1.00  0.00     0.173 A 
ATOM     97  F   UNL A   1      43.778  32.694  25.722  1.00  0.00    -0.203 F 
ATOM     98  C   UNL A   1      43.864  34.912  26.403  1.00  0.00     0.198 A 
ATOM     99  C   UNL A   1      45.307  35.566  28.167  1.00  0.00     0.198 A 
ATOM    100  F   UNL A   1      46.408  34.034  29.451  1.00  0.00    -0.203 F 
ATOM    101  F   UNL A   1      43.049  35.227  25.388  1.00  0.00    -0.200 F 
ATOM    102  C   UNL A   1      44.433  35.910  27.165  1.00  0.00     0.200 A 
ATOM    103  F   UNL A   1      45.965  36.509  28.856  1.00  0.00    -0.200 F 
ATOM    104  F   UNL A   1      44.188  37.198  26.900  1.00  0.00    -0.200 F 
ENDBRANCH  71  94
ENDBRANCH  45  46
ENDBRANCH  37  40
ENDBRANCH  35  36
ENDBRANCH  34  35
ENDBRANCH  33  34
ENDBRANCH  32  33
ENDBRANCH  31  32
ENDBRANCH   1  31
TORSDOF 19
ENDMDL
MODEL 2
REMARK VINA RESULT:     -12.0      2.055      3.492
REMARK SMILES CCOc1ccc(C(=O)NC(=S)Nc2cccc(C(=O)NCCCCCCNC(=O)c3ccc(-c4c5nc(c(-c6c(F)c(F)c(F)c(F)c6F)c6ccc([nH]6)c(-c6c(F)c(F)c(F)c(F)c6F)c6nc(c(-c7c(F)c(F)c(F)c(F)c7F)c7ccc4[nH]7)C=C6)C=C5)cc3)c2C)cc1Br
REMARK SMILES IDX 22 1 21 2 19 3 20 4 18 6 14 7 15 8 94 9 16 10 95 11 17 12
REMARK SMILES IDX 13 13 11 15 12 16 10 17 8 18 9 19 7 21 4 22 5 23 97 24 6 25
REMARK SMILES IDX 96 26 98 27 3 28 2 29 1 30 23 31 24 32 25 33 26 34 27 35
REMARK SMILES IDX 28 36 29 37 30 39 31 40 32 41 93 42 33 43 92 44 34 45 35 46
REMARK SMILES IDX 36 47 86 48 37 49 91 50 85 51 87 52 38 53 90 54 84 55 83 56
REMARK SMILES IDX 39 58 71 59 51 60 70 61 52 62 55 63 69 64 88 65 53 66 54 67
REMARK SMILES IDX 68 69 89 70 56 71 40 72 41 73 49 74 42 75 43 76 47 77 50 78
REMARK SMILES IDX 44 79 45 80 48 81 46 82 72 83 73 84 81 85 74 86 75 87 79 88
REMARK SMILES IDX 82 89 76 90 77 91 80 92 78 93 57 94 58 95 66 96 59 97 60 98
REMARK SMILES IDX 64 99 67 100 61 101 62 102 65 103 63 104
REMARK H PARENT 21 5 13 14 10 20 28 38 87 57 55 68
REMARK Flexibility Score: inf
ROOT
ATOM      1  C   UNL A   1      37.418  23.321  25.434  1.00  0.00     0.116 C 
ENDROOT
BRANCH   1   2
ATOM      2  N   UNL A   1      36.292  23.444  26.318  1.00  0.00    -0.352 N 
ATOM      3  C   UNL A   1      34.968  23.685  26.058  1.00  0.00     0.251 C 
ATOM      4  O   UNL A   1      34.168  23.454  26.960  1.00  0.00    -0.269 OA
ATOM      5  H   UNL A   1      36.508  23.340  27.273  1.00  0.00     0.163 HD
BRANCH   3   6
ATOM      6  C   UNL A   1      34.493  24.269  24.758  1.00  0.00     0.044 A 
ATOM      7  C   UNL A   1      33.376  27.262  23.164  1.00  0.00     0.044 A 
ATOM      8  C   UNL A   1      33.164  25.963  21.634  1.00  0.00     0.026 A 
ATOM      9  C   UNL A   1      34.048  26.219  24.784  1.00  0.00    -0.015 A 
ATOM     10  C   UNL A   1      33.759  24.072  21.565  1.00  0.00     0.003 A 
ATOM     11  C   UNL A   1      34.403  27.090  25.968  1.00  0.00     0.047 C 
ATOM     12  C   UNL A   1      34.564  23.067  23.128  1.00  0.00     0.014 A 
BRANCH   7  13
ATOM     13  N   UNL A   1      32.538  28.390  23.295  1.00  0.00    -0.332 N 
ATOM     14  H   UNL A   1      32.851  29.210  22.847  1.00  0.00     0.169 HD
BRANCH  13  15
ATOM     15  C   UNL A   1      31.354  28.494  23.961  1.00  0.00     0.177 C 
ATOM     16  S   UNL A   1      31.253  29.645  25.175  1.00  0.00    -0.040 S 
BRANCH  15  17
ATOM     17  N   UNL A   1      30.253  27.640  23.792  1.00  0.00    -0.299 N 
ATOM     18  C   UNL A   1      29.647  26.391  24.171  1.00  0.00     0.257 C 
ATOM     19  O   UNL A   1      28.546  26.075  23.726  1.00  0.00    -0.269 OA
ATOM     20  H   UNL A   1      29.646  28.074  23.149  1.00  0.00     0.172 HD
BRANCH  18  21
ATOM     21  C   UNL A   1      30.378  25.444  25.021  1.00  0.00     0.041 A 
ATOM     22  C   UNL A   1      31.439  22.022  25.081  1.00  0.00     0.133 A 
ATOM     23  C   UNL A   1      30.737  23.610  26.132  1.00  0.00     0.048 A 
ATOM     24  C   UNL A   1      31.509  22.483  24.080  1.00  0.00     0.060 A 
ATOM     25  C   UNL A   1      30.241  24.994  26.209  1.00  0.00     0.018 A 
ATOM     26  C   UNL A   1      31.018  24.410  24.383  1.00  0.00     0.033 A 
ATOM     27  Br  UNL A   1      31.774  21.153  22.376  1.00  0.00    -0.047 Br
BRANCH  22  28
ATOM     28  O   UNL A   1      31.795  20.654  25.258  1.00  0.00    -0.493 OA
BRANCH  28  29
ATOM     29  C   UNL A   1      33.179  20.258  25.540  1.00  0.00     0.226 C 
ATOM     30  C   UNL A   1      33.690  18.927  25.001  1.00  0.00     0.049 C 
ENDBRANCH  28  29
ENDBRANCH  22  28
ENDBRANCH  18  21
ENDBRANCH  15  17
ENDBRANCH  13  15
ENDBRANCH   7  13
ENDBRANCH   3   6
ENDBRANCH   1   2
BRANCH   1  31
ATOM     31  C   UNL A   1      37.703  21.858  25.043  1.00  0.00     0.021 C 
BRANCH  31  32
ATOM     32  C   UNL A   1      38.882  21.240  25.791  1.00  0.00     0.002 C 
BRANCH  32  33
ATOM     33  C   UNL A   1      39.175  19.794  25.376  1.00  0.00     0.002 C 
BRANCH  33  34
ATOM     34  C   UNL A   1      40.476  19.217  25.945  1.00  0.00     0.021 C 
BRANCH  34  35
ATOM     35  C   UNL A   1      41.123  20.124  26.964  1.00  0.00     0.116 C 
BRANCH  35  36
ATOM     36  N   UNL A   1      42.392  20.664  26.514  1.00  0.00    -0.352 N 
ATOM     37  C   UNL A   1      42.770  21.968  26.220  1.00  0.00     0.251 C 
ATOM     38  H   UNL A   1      43.105  19.995  26.396  1.00  0.00     0.163 HD
ATOM     39  O   UNL A   1      43.946  22.182  25.927  1.00  0.00    -0.269 OA
BRANCH  37  40
ATOM     40  C   UNL A   1      41.853  23.122  26.520  1.00  0.00     0.039 A 
ATOM     41  C   UNL A   1      42.005  24.241  25.690  1.00  0.00     0.014 A 
ATOM     42  C   UNL A   1      41.432  23.326  27.820  1.00  0.00     0.014 A 
ATOM     43  C   UNL A   1      42.218  25.485  26.275  1.00  0.00     0.010 A 
ATOM     44  C   UNL A   1      41.835  24.482  28.433  1.00  0.00     0.010 A 
ATOM     45  C   UNL A   1      42.333  25.527  27.658  1.00  0.00    -0.014 A 
BRANCH  45  46
ATOM     46  C   UNL A   1      42.644  26.705  28.441  1.00  0.00     0.031 A 
ATOM     47  C   UNL A   1      41.442  27.572  28.547  1.00  0.00     0.074 A 
ATOM     48  C   UNL A   1      43.855  26.740  29.070  1.00  0.00     0.049 A 
ATOM     49  N   UNL A   1      41.446  28.851  28.556  1.00  0.00    -0.248 NA
ATOM     50  C   UNL A   1      40.056  27.058  28.454  1.00  0.00     0.031 C 
ATOM     51  C   UNL A   1      44.377  27.556  30.171  1.00  0.00     0.029 A 
ATOM     52  N   UNL A   1      45.008  26.014  28.680  1.00  0.00    -0.354 N 
ATOM     53  C   UNL A   1      40.189  29.237  28.995  1.00  0.00     0.074 A 
ATOM     54  C   UNL A   1      39.316  28.150  28.673  1.00  0.00     0.031 C 
ATOM     55  C   UNL A   1      45.728  27.586  30.107  1.00  0.00     0.029 A 
ATOM     56  C   UNL A   1      46.131  26.847  28.925  1.00  0.00     0.049 A 
ATOM     57  H   UNL A   1      45.026  25.102  28.308  1.00  0.00     0.167 HD
ATOM     58  C   UNL A   1      40.117  30.306  29.837  1.00  0.00     0.037 A 
ATOM     59  C   UNL A   1      46.859  27.364  27.885  1.00  0.00     0.037 A 
ATOM     60  C   UNL A   1      41.492  30.753  30.092  1.00  0.00     0.049 A 
ATOM     61  C   UNL A   1      46.501  28.810  27.651  1.00  0.00     0.074 A 
ATOM     62  C   UNL A   1      42.390  30.441  31.097  1.00  0.00     0.029 A 
ATOM     63  N   UNL A   1      42.261  31.171  29.019  1.00  0.00    -0.354 N 
ATOM     64  N   UNL A   1      45.453  29.398  28.161  1.00  0.00    -0.248 NA
ATOM     65  C   UNL A   1      47.263  29.667  26.760  1.00  0.00     0.031 C 
ATOM     66  C   UNL A   1      43.706  30.704  30.609  1.00  0.00     0.029 A 
ATOM     67  C   UNL A   1      43.611  31.167  29.308  1.00  0.00     0.049 A 
ATOM     68  H   UNL A   1      41.887  31.442  28.149  1.00  0.00     0.167 HD
ATOM     69  C   UNL A   1      45.421  30.703  27.757  1.00  0.00     0.074 A 
ATOM     70  C   UNL A   1      46.498  30.772  26.775  1.00  0.00     0.031 C 
ATOM     71  C   UNL A   1      44.544  31.622  28.282  1.00  0.00     0.037 A 
BRANCH  58  72
ATOM     72  C   UNL A   1      38.934  30.748  30.680  1.00  0.00     0.064 A 
ATOM     73  C   UNL A   1      37.867  31.438  30.057  1.00  0.00     0.173 A 
ATOM     74  C   UNL A   1      38.757  30.528  32.061  1.00  0.00     0.173 A 
ATOM     75  F   UNL A   1      37.863  31.677  28.740  1.00  0.00    -0.203 F 
ATOM     76  C   UNL A   1      36.752  31.910  30.754  1.00  0.00     0.198 A 
ATOM     77  C   UNL A   1      37.637  31.009  32.763  1.00  0.00     0.198 A 
ATOM     78  F   UNL A   1      39.634  29.813  32.777  1.00  0.00    -0.203 F 
ATOM     79  F   UNL A   1      35.790  32.569  30.091  1.00  0.00    -0.200 F 
ATOM     80  C   UNL A   1      36.638  31.704  32.109  1.00  0.00     0.200 A 
ATOM     81  F   UNL A   1      37.526  30.789  34.082  1.00  0.00    -0.200 F 
ATOM     82  F   UNL A   1      35.566  32.158  32.775  1.00  0.00    -0.200 F 
ENDBRANCH  58  72
BRANCH  59  83
ATOM     83  C   UNL A   1      47.090  26.375  26.771  1.00  0.00     0.064 A 
ATOM     84  C   UNL A   1      46.405  26.689  25.580  1.00  0.00     0.173 A 
ATOM     85  C   UNL A   1      48.374  25.830  26.667  1.00  0.00     0.173 A 
ATOM     86  F   UNL A   1      45.120  27.072  25.613  1.00  0.00    -0.203 F 
ATOM     87  C   UNL A   1      47.150  27.014  24.466  1.00  0.00     0.198 A 
ATOM     88  C   UNL A   1      49.085  26.030  25.502  1.00  0.00     0.198 A 
ATOM     89  F   UNL A   1      49.025  25.379  27.747  1.00  0.00    -0.203 F 
ATOM     90  F   UNL A   1      46.622  27.781  23.502  1.00  0.00    -0.200 F 
ATOM     91  C   UNL A   1      48.511  26.813  24.516  1.00  0.00     0.200 A 
ATOM     92  F   UNL A   1      50.367  25.656  25.435  1.00  0.00    -0.200 F 
ATOM     93  F   UNL A   1      49.259  27.690  23.858  1.00  0.00    -0.200 F 
ENDBRANCH  59  83
BRANCH  71  94
ATOM     94  C   UNL A   1      44.465  33.070  27.841  1.00  0.00     0.064 A 
ATOM     95  C   UNL A   1      43.913  33.470  26.621  1.00  0.00     0.173 A 
ATOM     96  C   UNL A   1      44.981  34.134  28.623  1.00  0.00     0.173 A 
ATOM     97  F   UNL A   1      43.717  32.596  25.626  1.00  0.00    -0.203 F 
ATOM     98  C   UNL A   1      43.638  34.805  26.335  1.00  0.00     0.198 A 
ATOM     99  C   UNL A   1      44.784  35.471  28.301  1.00  0.00     0.198 A 
ATOM    100  F   UNL A   1      45.725  33.949  29.719  1.00  0.00    -0.203 F 
ATOM    101  F   UNL A   1      42.974  35.113  25.214  1.00  0.00    -0.200 F 
ATOM    102  C   UNL A   1      44.059  35.807  27.185  1.00  0.00     0.200 A 
ATOM    103  F   UNL A   1      45.305  36.420  29.091  1.00  0.00    -0.200 F 
ATOM    104  F   UNL A   1      43.820  37.092  26.900  1.00  0.00    -0.200 F 
ENDBRANCH  71  94
ENDBRANCH  45  46
ENDBRANCH  37  40
ENDBRANCH  35  36
ENDBRANCH  34  35
ENDBRANCH  33  34
ENDBRANCH  32  33
ENDBRANCH  31  32
ENDBRANCH   1  31
TORSDOF 19
ENDMDL
MODEL 3
REMARK VINA RESULT:     -11.6      4.582     10.825
REMARK SMILES CCOc1ccc(C(=O)NC(=S)Nc2cccc(C(=O)NCCCCCCNC(=O)c3ccc(-c4c5nc(c(-c6c(F)c(F)c(F)c(F)c6F)c6ccc([nH]6)c(-c6c(F)c(F)c(F)c(F)c6F)c6nc(c(-c7c(F)c(F)c(F)c(F)c7F)c7ccc4[nH]7)C=C6)C=C5)cc3)c2C)cc1Br
REMARK SMILES IDX 22 1 21 2 19 3 20 4 18 6 14 7 15 8 94 9 16 10 95 11 17 12
REMARK SMILES IDX 13 13 11 15 12 16 10 17 8 18 9 19 7 21 4 22 5 23 97 24 6 25
REMARK SMILES IDX 96 26 98 27 3 28 2 29 1 30 23 31 24 32 25 33 26 34 27 35
REMARK SMILES IDX 28 36 29 37 30 39 31 40 32 41 93 42 33 43 92 44 34 45 35 46
REMARK SMILES IDX 36 47 86 48 37 49 91 50 85 51 87 52 38 53 90 54 84 55 83 56
REMARK SMILES IDX 39 58 71 59 51 60 70 61 52 62 55 63 69 64 88 65 53 66 54 67
REMARK SMILES IDX 68 69 89 70 56 71 40 72 41 73 49 74 42 75 43 76 47 77 50 78
REMARK SMILES IDX 44 79 45 80 48 81 46 82 72 83 73 84 81 85 74 86 75 87 79 88
REMARK SMILES IDX 82 89 76 90 77 91 80 92 78 93 57 94 58 95 66 96 59 97 60 98
REMARK SMILES IDX 64 99 67 100 61 101 62 102 65 103 63 104
REMARK H PARENT 21 5 13 14 10 20 28 38 87 57 55 68
REMARK Flexibility Score: inf
ROOT
ATOM      1  C   UNL A   1      33.986  28.733  26.910  1.00  0.00     0.116 C 
ENDROOT
BRANCH   1   2
ATOM      2  N   UNL A   1      32.604  28.353  27.024  1.00  0.00    -0.352 N 
ATOM      3  C   UNL A   1      31.940  27.238  26.584  1.00  0.00     0.251 C 
ATOM      4  O   UNL A   1      30.830  27.021  27.061  1.00  0.00    -0.269 OA
ATOM      5  H   UNL A   1      32.038  29.005  27.498  1.00  0.00     0.163 HD
BRANCH   3   6
ATOM      6  C   UNL A   1      32.492  26.339  25.514  1.00  0.00     0.044 A 
ATOM      7  C   UNL A   1      33.372  22.969  24.730  1.00  0.00     0.044 A 
ATOM      8  C   UNL A   1      33.961  23.878  23.028  1.00  0.00     0.026 A 
ATOM      9  C   UNL A   1      32.650  24.403  25.990  1.00  0.00    -0.015 A 
ATOM     10  C   UNL A   1      33.653  25.765  22.498  1.00  0.00     0.003 A 
ATOM     11  C   UNL A   1      32.025  23.851  27.251  1.00  0.00     0.047 C 
ATOM     12  C   UNL A   1      32.803  27.164  23.688  1.00  0.00     0.014 A 
BRANCH   7  13
ATOM     13  N   UNL A   1      34.017  21.809  25.208  1.00  0.00    -0.332 N 
ATOM     14  H   UNL A   1      34.568  21.928  26.015  1.00  0.00     0.169 HD
BRANCH  13  15
ATOM     15  C   UNL A   1      33.978  20.546  24.699  1.00  0.00     0.177 C 
ATOM     16  S   UNL A   1      32.528  20.027  24.039  1.00  0.00    -0.040 S 
BRANCH  15  17
ATOM     17  N   UNL A   1      35.017  19.605  24.787  1.00  0.00    -0.299 N 
ATOM     18  C   UNL A   1      36.432  19.408  24.962  1.00  0.00     0.257 C 
ATOM     19  O   UNL A   1      36.900  18.273  25.004  1.00  0.00    -0.269 OA
ATOM     20  H   UNL A   1      34.610  18.714  24.688  1.00  0.00     0.172 HD
BRANCH  18  21
ATOM     21  C   UNL A   1      37.338  20.562  25.001  1.00  0.00     0.041 A 
ATOM     22  C   UNL A   1      40.498  21.559  26.367  1.00  0.00     0.133 A 
ATOM     23  C   UNL A   1      38.599  22.093  25.892  1.00  0.00     0.048 A 
ATOM     24  C   UNL A   1      40.484  20.510  26.020  1.00  0.00     0.060 A 
ATOM     25  C   UNL A   1      37.251  21.775  25.391  1.00  0.00     0.018 A 
ATOM     26  C   UNL A   1      38.674  20.291  25.169  1.00  0.00     0.033 A 
ATOM     27  Br  UNL A   1      42.110  19.214  26.668  1.00  0.00    -0.047 Br
BRANCH  22  28
ATOM     28  O   UNL A   1      41.676  22.091  26.965  1.00  0.00    -0.493 OA
BRANCH  28  29
ATOM     29  C   UNL A   1      41.646  22.685  28.306  1.00  0.00     0.226 C 
ATOM     30  C   UNL A   1      42.541  23.883  28.603  1.00  0.00     0.049 C 
ENDBRANCH  28  29
ENDBRANCH  22  28
ENDBRANCH  18  21
ENDBRANCH  15  17
ENDBRANCH  13  15
ENDBRANCH   7  13
ENDBRANCH   3   6
ENDBRANCH   1   2
BRANCH   1  31
ATOM     31  C   UNL A   1      34.220  30.215  27.258  1.00  0.00     0.021 C 
BRANCH  31  32
ATOM     32  C   UNL A   1      35.666  30.539  27.627  1.00  0.00     0.002 C 
BRANCH  32  33
ATOM     33  C   UNL A   1      35.869  31.993  28.070  1.00  0.00     0.002 C 
BRANCH  33  34
ATOM     34  C   UNL A   1      34.695  32.592  28.853  1.00  0.00     0.021 C 
BRANCH  34  35
ATOM     35  C   UNL A   1      35.133  33.309  30.108  1.00  0.00     0.116 C 
BRANCH  35  36
ATOM     36  N   UNL A   1      34.028  33.613  30.999  1.00  0.00    -0.352 N 
ATOM     37  C   UNL A   1      34.011  33.897  32.358  1.00  0.00     0.251 C 
ATOM     38  H   UNL A   1      33.143  33.619  30.568  1.00  0.00     0.163 HD
ATOM     39  O   UNL A   1      32.938  34.203  32.876  1.00  0.00    -0.269 OA
BRANCH  37  40
ATOM     40  C   UNL A   1      35.292  34.103  33.119  1.00  0.00     0.039 A 
ATOM     41  C   UNL A   1      36.229  34.942  32.501  1.00  0.00     0.014 A 
ATOM     42  C   UNL A   1      35.760  33.090  33.934  1.00  0.00     0.014 A 
ATOM     43  C   UNL A   1      37.525  34.473  32.308  1.00  0.00     0.010 A 
ATOM     44  C   UNL A   1      36.954  32.513  33.592  1.00  0.00     0.010 A 
ATOM     45  C   UNL A   1      37.790  33.163  32.687  1.00  0.00    -0.014 A 
BRANCH  45  46
ATOM     46  C   UNL A   1      39.045  32.467  32.485  1.00  0.00     0.031 A 
ATOM     47  C   UNL A   1      38.794  31.161  31.823  1.00  0.00     0.074 A 
ATOM     48  C   UNL A   1      40.194  33.153  32.747  1.00  0.00     0.049 A 
ATOM     49  N   UNL A   1      39.436  30.078  32.046  1.00  0.00    -0.248 NA
ATOM     50  C   UNL A   1      37.622  30.899  30.955  1.00  0.00     0.031 C 
ATOM     51  C   UNL A   1      41.592  32.929  32.365  1.00  0.00     0.029 A 
ATOM     52  N   UNL A   1      40.311  34.261  33.624  1.00  0.00    -0.354 N 
ATOM     53  C   UNL A   1      39.116  29.217  31.008  1.00  0.00     0.074 A 
ATOM     54  C   UNL A   1      37.839  29.650  30.528  1.00  0.00     0.031 C 
ATOM     55  C   UNL A   1      42.406  33.554  33.246  1.00  0.00     0.029 A 
ATOM     56  C   UNL A   1      41.570  34.152  34.271  1.00  0.00     0.049 A 
ATOM     57  H   UNL A   1      39.644  34.972  33.759  1.00  0.00     0.167 HD
ATOM     58  C   UNL A   1      40.114  28.436  30.506  1.00  0.00     0.037 A 
ATOM     59  C   UNL A   1      41.646  33.869  35.610  1.00  0.00     0.037 A 
ATOM     60  C   UNL A   1      41.342  28.781  31.231  1.00  0.00     0.049 A 
ATOM     61  C   UNL A   1      42.001  32.420  35.830  1.00  0.00     0.074 A 
ATOM     62  C   UNL A   1      42.355  29.681  30.951  1.00  0.00     0.029 A 
ATOM     63  N   UNL A   1      41.374  28.596  32.603  1.00  0.00    -0.354 N 
ATOM     64  N   UNL A   1      41.952  31.504  34.901  1.00  0.00    -0.248 NA
ATOM     65  C   UNL A   1      42.357  31.894  37.136  1.00  0.00     0.031 C 
ATOM     66  C   UNL A   1      43.005  30.009  32.178  1.00  0.00     0.029 A 
ATOM     67  C   UNL A   1      42.386  29.319  33.206  1.00  0.00     0.049 A 
ATOM     68  H   UNL A   1      40.749  28.015  33.093  1.00  0.00     0.167 HD
ATOM     69  C   UNL A   1      42.335  30.302  35.425  1.00  0.00     0.074 A 
ATOM     70  C   UNL A   1      42.440  30.583  36.854  1.00  0.00     0.031 C 
ATOM     71  C   UNL A   1      42.566  29.192  34.649  1.00  0.00     0.037 A 
BRANCH  58  72
ATOM     72  C   UNL A   1      40.112  27.643  29.212  1.00  0.00     0.064 A 
ATOM     73  C   UNL A   1      39.401  26.419  29.157  1.00  0.00     0.173 A 
ATOM     74  C   UNL A   1      40.744  28.003  28.004  1.00  0.00     0.173 A 
ATOM     75  F   UNL A   1      38.706  25.968  30.208  1.00  0.00    -0.203 F 
ATOM     76  C   UNL A   1      39.366  25.606  28.023  1.00  0.00     0.198 A 
ATOM     77  C   UNL A   1      40.712  27.180  26.864  1.00  0.00     0.198 A 
ATOM     78  F   UNL A   1      41.380  29.172  27.866  1.00  0.00    -0.203 F 
ATOM     79  F   UNL A   1      38.683  24.453  28.058  1.00  0.00    -0.200 F 
ATOM     80  C   UNL A   1      40.028  25.980  26.876  1.00  0.00     0.200 A 
ATOM     81  F   UNL A   1      41.347  27.560  25.744  1.00  0.00    -0.200 F 
ATOM     82  F   UNL A   1      39.992  25.197  25.788  1.00  0.00    -0.200 F 
ENDBRANCH  58  72
BRANCH  59  83
ATOM     83  C   UNL A   1      40.623  34.608  36.433  1.00  0.00     0.064 A 
ATOM     84  C   UNL A   1      39.548  33.802  36.863  1.00  0.00     0.173 A 
ATOM     85  C   UNL A   1      41.103  35.585  37.312  1.00  0.00     0.173 A 
ATOM     86  F   UNL A   1      38.951  32.954  36.013  1.00  0.00    -0.203 F 
ATOM     87  C   UNL A   1      39.405  33.574  38.215  1.00  0.00     0.198 A 
ATOM     88  C   UNL A   1      40.851  35.444  38.660  1.00  0.00     0.198 A 
ATOM     89  F   UNL A   1      42.023  36.476  36.919  1.00  0.00    -0.203 F 
ATOM     90  F   UNL A   1      38.773  32.474  38.650  1.00  0.00    -0.200 F 
ATOM     91  C   UNL A   1      40.183  34.307  39.081  1.00  0.00     0.200 A 
ATOM     92  F   UNL A   1      41.429  36.275  39.534  1.00  0.00    -0.200 F 
ATOM     93  F   UNL A   1      40.582  33.685  40.183  1.00  0.00    -0.200 F 
ENDBRANCH  59  83
BRANCH  71  94
ATOM     94  C   UNL A   1      42.968  27.838  35.198  1.00  0.00     0.064 A 
ATOM     95  C   UNL A   1      42.136  27.064  36.013  1.00  0.00     0.173 A 
ATOM     96  C   UNL A   1      44.242  27.264  34.957  1.00  0.00     0.173 A 
ATOM     97  F   UNL A   1      41.072  27.597  36.626  1.00  0.00    -0.203 F 
ATOM     98  C   UNL A   1      42.424  25.735  36.314  1.00  0.00     0.198 A 
ATOM     99  C   UNL A   1      44.568  25.967  35.329  1.00  0.00     0.198 A 
ATOM    100  F   UNL A   1      45.250  27.927  34.378  1.00  0.00    -0.203 F 
ATOM    101  F   UNL A   1      41.519  25.001  36.974  1.00  0.00    -0.200 F 
ATOM    102  C   UNL A   1      43.635  25.180  35.958  1.00  0.00     0.200 A 
ATOM    103  F   UNL A   1      45.796  25.497  35.067  1.00  0.00    -0.200 F 
ATOM    104  F   UNL A   1      43.925  23.912  36.270  1.00  0.00    -0.200 F 
ENDBRANCH  71  94
ENDBRANCH  45  46
ENDBRANCH  37  40
ENDBRANCH  35  36
ENDBRANCH  34  35
ENDBRANCH  33  34
ENDBRANCH  32  33
ENDBRANCH  31  32
ENDBRANCH   1  31
TORSDOF 19
ENDMDL
