MODEL 1
REMARK VINA RESULT:     -13.4      0.000      0.000
REMARK SMILES CCc1nn2c(nnc3c(=O)n([C@H](C(=O)NCCCCCCNC(=O)c4ccc(-c5c6nc(c(-c7c(F)c(F)c(F)c(F)c7F)c7ccc([nH]7)c(-c7c(F)c(F)c(F)c(F)c7F)c7nc(c(-c8c(F)c(F)c(F)c(F)c8F)c8ccc5[nH]8)C=C7)C=C6)cc4)C(C)C)ccc32)c1-c1ccc(Cl)cc1
REMARK SMILES IDX 19 1 18 2 17 3 16 4 14 5 15 6 13 8 12 9 3 10 4 11 95 12 5 13
REMARK SMILES IDX 6 14 94 15 7 16 9 17 93 18 8 19 10 20 92 21 11 22 2 23 1 24
REMARK SMILES IDX 96 25 97 26 102 27 98 28 101 29 99 30 100 31 89 32 90 33
REMARK SMILES IDX 91 34 20 35 21 36 22 37 23 38 24 39 25 41 26 42 27 43 88 44
REMARK SMILES IDX 28 45 87 46 29 47 30 48 31 49 81 50 32 51 86 52 80 53 82 54
REMARK SMILES IDX 33 55 85 56 79 57 78 58 34 60 66 61 46 62 65 63 47 64 50 65
REMARK SMILES IDX 64 66 83 67 48 68 49 69 63 71 84 72 51 73 35 74 36 75 44 76
REMARK SMILES IDX 37 77 38 78 42 79 45 80 39 81 40 82 43 83 41 84 67 85 68 86
REMARK SMILES IDX 76 87 69 88 70 89 74 90 77 91 71 92 72 93 75 94 73 95 52 96
REMARK SMILES IDX 53 97 61 98 54 99 55 100 59 101 62 102 56 103 57 104 60 105
REMARK SMILES IDX 58 106
REMARK H PARENT 16 7 23 40 82 59 50 70
REMARK Flexibility Score: inf
ROOT
ATOM      1  C   UNL A   1      40.123  21.558  25.993  1.00  0.00     0.002 C 
ENDROOT
BRANCH   1   2
ATOM      2  C   UNL A   1      38.852  22.384  26.207  1.00  0.00     0.021 C 
BRANCH   2   3
ATOM      3  C   UNL A   1      37.569  21.711  25.736  1.00  0.00     0.116 C 
BRANCH   3   4
ATOM      4  N   UNL A   1      37.151  22.173  24.425  1.00  0.00    -0.354 N 
ATOM      5  C   UNL A   1      35.893  22.493  23.980  1.00  0.00     0.243 C 
ATOM      6  O   UNL A   1      35.768  22.870  22.813  1.00  0.00    -0.273 OA
ATOM      7  H   UNL A   1      37.871  22.271  23.761  1.00  0.00     0.163 HD
BRANCH   5   8
ATOM      8  C   UNL A   1      34.671  22.406  24.940  1.00  0.00     0.182 C 
BRANCH   8   9
ATOM      9  N   UNL A   1      34.007  23.766  25.022  1.00  0.00    -0.301 N 
ATOM     10  C   UNL A   1      31.701  29.633  25.629  1.00  0.00     0.073 A 
ATOM     11  N   UNL A   1      32.480  28.638  26.091  1.00  0.00    -0.170 NA
ATOM     12  C   UNL A   1      31.105  29.287  24.391  1.00  0.00     0.052 A 
ATOM     13  N   UNL A   1      32.331  27.621  25.195  1.00  0.00    -0.210 N 
ATOM     14  C   UNL A   1      31.506  27.993  24.146  1.00  0.00     0.186 A 
ATOM     15  C   UNL A   1      32.861  26.329  25.217  1.00  0.00     0.102 A 
ATOM     16  N   UNL A   1      31.225  27.121  23.137  1.00  0.00    -0.129 NA
ATOM     17  C   UNL A   1      32.477  25.524  24.213  1.00  0.00     0.177 A 
ATOM     18  C   UNL A   1      33.748  25.831  26.238  1.00  0.00     0.049 A 
ATOM     19  N   UNL A   1      31.660  25.942  23.181  1.00  0.00    -0.141 NA
ATOM     20  C   UNL A   1      32.908  24.088  24.222  1.00  0.00     0.281 A 
ATOM     21  C   UNL A   1      34.299  24.616  26.106  1.00  0.00     0.092 A 
ATOM     22  O   UNL A   1      32.264  23.286  23.558  1.00  0.00    -0.267 OA
BRANCH  10  23
ATOM     23  C   UNL A   1      31.594  30.887  26.445  1.00  0.00     0.055 C 
ATOM     24  C   UNL A   1      32.827  31.281  27.247  1.00  0.00     0.011 C 
ENDBRANCH  10  23
BRANCH  12  25
ATOM     25  C   UNL A   1      30.228  29.990  23.483  1.00  0.00    -0.013 A 
ATOM     26  C   UNL A   1      29.402  31.015  23.958  1.00  0.00     0.010 A 
ATOM     27  C   UNL A   1      30.240  29.680  22.116  1.00  0.00     0.010 A 
ATOM     28  C   UNL A   1      28.586  31.720  23.070  1.00  0.00     0.021 A 
ATOM     29  C   UNL A   1      29.427  30.388  21.231  1.00  0.00     0.021 A 
ATOM     30  C   UNL A   1      28.603  31.405  21.712  1.00  0.00     0.041 A 
ATOM     31  Cl  UNL A   1      27.604  32.281  20.620  1.00  0.00    -0.084 Cl
ENDBRANCH  12  25
ENDBRANCH   8   9
BRANCH   8  32
ATOM     32  C   UNL A   1      33.842  21.125  24.482  1.00  0.00     0.015 C 
ATOM     33  C   UNL A   1      34.675  19.831  24.653  1.00  0.00     0.010 C 
ATOM     34  C   UNL A   1      32.520  20.854  25.208  1.00  0.00     0.010 C 
ENDBRANCH   8  32
ENDBRANCH   5   8
ENDBRANCH   3   4
ENDBRANCH   2   3
ENDBRANCH   1   2
BRANCH   1  35
ATOM     35  C   UNL A   1      40.878  21.150  27.265  1.00  0.00     0.002 C 
BRANCH  35  36
ATOM     36  C   UNL A   1      42.010  20.128  27.094  1.00  0.00     0.021 C 
BRANCH  36  37
ATOM     37  C   UNL A   1      42.143  19.584  25.682  1.00  0.00     0.116 C 
BRANCH  37  38
ATOM     38  N   UNL A   1      43.533  19.484  25.257  1.00  0.00    -0.352 N 
ATOM     39  C   UNL A   1      44.418  20.499  24.965  1.00  0.00     0.251 C 
ATOM     40  H   UNL A   1      43.886  18.570  25.166  1.00  0.00     0.163 HD
ATOM     41  O   UNL A   1      45.407  20.287  24.282  1.00  0.00    -0.269 OA
BRANCH  39  42
ATOM     42  C   UNL A   1      44.166  21.848  25.504  1.00  0.00     0.039 A 
ATOM     43  C   UNL A   1      43.311  22.730  24.837  1.00  0.00     0.014 A 
ATOM     44  C   UNL A   1      44.838  22.246  26.660  1.00  0.00     0.014 A 
ATOM     45  C   UNL A   1      43.112  23.998  25.367  1.00  0.00     0.010 A 
ATOM     46  C   UNL A   1      44.535  23.440  27.262  1.00  0.00     0.010 A 
ATOM     47  C   UNL A   1      43.730  24.340  26.581  1.00  0.00    -0.014 A 
BRANCH  47  48
ATOM     48  C   UNL A   1      43.476  25.627  27.202  1.00  0.00     0.031 A 
ATOM     49  C   UNL A   1      44.460  26.665  26.826  1.00  0.00     0.074 A 
ATOM     50  C   UNL A   1      42.351  25.900  27.896  1.00  0.00     0.049 A 
ATOM     51  N   UNL A   1      45.407  27.141  27.560  1.00  0.00    -0.248 NA
ATOM     52  C   UNL A   1      44.505  27.119  25.426  1.00  0.00     0.031 C 
ATOM     53  C   UNL A   1      41.151  25.065  28.028  1.00  0.00     0.029 A 
ATOM     54  N   UNL A   1      42.008  27.034  28.572  1.00  0.00    -0.354 N 
ATOM     55  C   UNL A   1      46.013  28.132  26.793  1.00  0.00     0.074 A 
ATOM     56  C   UNL A   1      45.571  27.924  25.441  1.00  0.00     0.031 C 
ATOM     57  C   UNL A   1      40.144  25.796  28.558  1.00  0.00     0.029 A 
ATOM     58  C   UNL A   1      40.672  27.086  28.962  1.00  0.00     0.049 A 
ATOM     59  H   UNL A   1      42.650  27.754  28.769  1.00  0.00     0.167 HD
ATOM     60  C   UNL A   1      46.557  29.221  27.404  1.00  0.00     0.037 A 
ATOM     61  C   UNL A   1      40.056  28.127  29.573  1.00  0.00     0.037 A 
ATOM     62  C   UNL A   1      46.660  29.001  28.825  1.00  0.00     0.049 A 
ATOM     63  C   UNL A   1      41.115  28.925  30.233  1.00  0.00     0.074 A 
ATOM     64  C   UNL A   1      47.493  28.315  29.680  1.00  0.00     0.029 A 
ATOM     65  N   UNL A   1      45.492  29.241  29.497  1.00  0.00    -0.354 N 
ATOM     66  N   UNL A   1      41.822  28.486  31.238  1.00  0.00    -0.248 NA
ATOM     67  C   UNL A   1      41.636  30.114  29.567  1.00  0.00     0.031 C 
ATOM     68  C   UNL A   1      46.724  28.033  30.850  1.00  0.00     0.029 A 
ATOM     69  C   UNL A   1      45.457  28.590  30.700  1.00  0.00     0.049 A 
ATOM     70  H   UNL A   1      44.766  29.812  29.156  1.00  0.00     0.167 HD
ATOM     71  C   UNL A   1      43.058  29.072  31.060  1.00  0.00     0.074 A 
ATOM     72  C   UNL A   1      42.835  30.187  30.150  1.00  0.00     0.031 C 
ATOM     73  C   UNL A   1      44.199  28.401  31.385  1.00  0.00     0.037 A 
BRANCH  60  74
ATOM     74  C   UNL A   1      46.529  30.631  26.852  1.00  0.00     0.064 A 
ATOM     75  C   UNL A   1      47.715  31.397  26.876  1.00  0.00     0.173 A 
ATOM     76  C   UNL A   1      45.347  31.359  26.597  1.00  0.00     0.173 A 
ATOM     77  F   UNL A   1      48.895  30.819  27.145  1.00  0.00    -0.203 F 
ATOM     78  C   UNL A   1      47.704  32.786  26.709  1.00  0.00     0.198 A 
ATOM     79  C   UNL A   1      45.347  32.736  26.378  1.00  0.00     0.198 A 
ATOM     80  F   UNL A   1      44.134  30.799  26.669  1.00  0.00    -0.203 F 
ATOM     81  F   UNL A   1      48.839  33.483  26.854  1.00  0.00    -0.200 F 
ATOM     82  C   UNL A   1      46.520  33.454  26.460  1.00  0.00     0.200 A 
ATOM     83  F   UNL A   1      44.183  33.369  26.172  1.00  0.00    -0.200 F 
ATOM     84  F   UNL A   1      46.499  34.789  26.349  1.00  0.00    -0.200 F 
ENDBRANCH  60  74
BRANCH  61  85
ATOM     85  C   UNL A   1      38.657  28.612  29.484  1.00  0.00     0.064 A 
ATOM     86  C   UNL A   1      37.901  28.822  30.653  1.00  0.00     0.173 A 
ATOM     87  C   UNL A   1      38.145  29.172  28.302  1.00  0.00     0.173 A 
ATOM     88  F   UNL A   1      38.318  28.326  31.827  1.00  0.00    -0.203 F 
ATOM     89  C   UNL A   1      36.754  29.621  30.655  1.00  0.00     0.198 A 
ATOM     90  C   UNL A   1      36.980  29.943  28.302  1.00  0.00     0.198 A 
ATOM     91  F   UNL A   1      38.814  29.074  27.144  1.00  0.00    -0.203 F 
ATOM     92  F   UNL A   1      36.122  29.882  31.807  1.00  0.00    -0.200 F 
ATOM     93  C   UNL A   1      36.307  30.200  29.482  1.00  0.00     0.200 A 
ATOM     94  F   UNL A   1      36.544  30.487  27.160  1.00  0.00    -0.200 F 
ATOM     95  F   UNL A   1      35.260  31.035  29.491  1.00  0.00    -0.200 F 
ENDBRANCH  61  85
BRANCH  73  96
ATOM     96  C   UNL A   1      44.095  27.301  32.392  1.00  0.00     0.064 A 
ATOM     97  C   UNL A   1      44.061  25.933  32.081  1.00  0.00     0.173 A 
ATOM     98  C   UNL A   1      44.114  27.659  33.747  1.00  0.00     0.173 A 
ATOM     99  F   UNL A   1      44.104  25.513  30.810  1.00  0.00    -0.203 F 
ATOM    100  C   UNL A   1      44.024  24.968  33.087  1.00  0.00     0.198 A 
ATOM    101  C   UNL A   1      44.111  26.695  34.748  1.00  0.00     0.198 A 
ATOM    102  F   UNL A   1      44.176  28.953  34.098  1.00  0.00    -0.203 F 
ATOM    103  F   UNL A   1      43.980  23.666  32.770  1.00  0.00    -0.200 F 
ATOM    104  C   UNL A   1      44.058  25.350  34.419  1.00  0.00     0.200 A 
ATOM    105  F   UNL A   1      44.183  27.070  36.032  1.00  0.00    -0.200 F 
ATOM    106  F   UNL A   1      44.062  24.423  35.387  1.00  0.00    -0.200 F 
ENDBRANCH  73  96
ENDBRANCH  47  48
ENDBRANCH  39  42
ENDBRANCH  37  38
ENDBRANCH  36  37
ENDBRANCH  35  36
ENDBRANCH   1  35
TORSDOF 17
ENDMDL
MODEL 2
REMARK VINA RESULT:     -13.3      1.168      2.060
REMARK SMILES CCc1nn2c(nnc3c(=O)n([C@H](C(=O)NCCCCCCNC(=O)c4ccc(-c5c6nc(c(-c7c(F)c(F)c(F)c(F)c7F)c7ccc([nH]7)c(-c7c(F)c(F)c(F)c(F)c7F)c7nc(c(-c8c(F)c(F)c(F)c(F)c8F)c8ccc5[nH]8)C=C7)C=C6)cc4)C(C)C)ccc32)c1-c1ccc(Cl)cc1
REMARK SMILES IDX 19 1 18 2 17 3 16 4 14 5 15 6 13 8 12 9 3 10 4 11 95 12 5 13
REMARK SMILES IDX 6 14 94 15 7 16 9 17 93 18 8 19 10 20 92 21 11 22 2 23 1 24
REMARK SMILES IDX 96 25 97 26 102 27 98 28 101 29 99 30 100 31 89 32 90 33
REMARK SMILES IDX 91 34 20 35 21 36 22 37 23 38 24 39 25 41 26 42 27 43 88 44
REMARK SMILES IDX 28 45 87 46 29 47 30 48 31 49 81 50 32 51 86 52 80 53 82 54
REMARK SMILES IDX 33 55 85 56 79 57 78 58 34 60 66 61 46 62 65 63 47 64 50 65
REMARK SMILES IDX 64 66 83 67 48 68 49 69 63 71 84 72 51 73 35 74 36 75 44 76
REMARK SMILES IDX 37 77 38 78 42 79 45 80 39 81 40 82 43 83 41 84 67 85 68 86
REMARK SMILES IDX 76 87 69 88 70 89 74 90 77 91 71 92 72 93 75 94 73 95 52 96
REMARK SMILES IDX 53 97 61 98 54 99 55 100 59 101 62 102 56 103 57 104 60 105
REMARK SMILES IDX 58 106
REMARK H PARENT 16 7 23 40 82 59 50 70
REMARK Flexibility Score: inf
ROOT
ATOM      1  C   UNL A   1      40.287  21.871  26.181  1.00  0.00     0.002 C 
ENDROOT
BRANCH   1   2
ATOM      2  C   UNL A   1      38.943  22.566  26.414  1.00  0.00     0.021 C 
BRANCH   2   3
ATOM      3  C   UNL A   1      37.732  21.797  25.901  1.00  0.00     0.116 C 
BRANCH   3   4
ATOM      4  N   UNL A   1      37.435  22.095  24.511  1.00  0.00    -0.354 N 
ATOM      5  C   UNL A   1      36.220  22.310  23.913  1.00  0.00     0.243 C 
ATOM      6  O   UNL A   1      36.203  22.552  22.704  1.00  0.00    -0.273 OA
ATOM      7  H   UNL A   1      38.216  22.151  23.914  1.00  0.00     0.163 HD
BRANCH   5   8
ATOM      8  C   UNL A   1      34.910  22.276  24.752  1.00  0.00     0.182 C 
BRANCH   8   9
ATOM      9  N   UNL A   1      34.248  23.639  24.695  1.00  0.00    -0.301 N 
ATOM     10  C   UNL A   1      31.003  29.063  24.323  1.00  0.00     0.073 A 
ATOM     11  N   UNL A   1      31.189  27.792  23.924  1.00  0.00    -0.170 NA
ATOM     12  C   UNL A   1      31.914  29.420  25.348  1.00  0.00     0.052 A 
ATOM     13  N   UNL A   1      32.265  27.348  24.634  1.00  0.00    -0.210 N 
ATOM     14  C   UNL A   1      32.720  28.316  25.514  1.00  0.00     0.186 A 
ATOM     15  C   UNL A   1      32.930  26.122  24.570  1.00  0.00     0.102 A 
ATOM     16  N   UNL A   1      33.790  28.076  26.323  1.00  0.00    -0.129 NA
ATOM     17  C   UNL A   1      34.011  26.003  25.360  1.00  0.00     0.177 A 
ATOM     18  C   UNL A   1      32.542  25.029  23.714  1.00  0.00     0.049 A 
ATOM     19  N   UNL A   1      34.421  26.992  26.231  1.00  0.00    -0.141 NA
ATOM     20  C   UNL A   1      34.848  24.763  25.269  1.00  0.00     0.281 A 
ATOM     21  C   UNL A   1      33.172  23.850  23.814  1.00  0.00     0.092 A 
ATOM     22  O   UNL A   1      36.003  24.813  25.672  1.00  0.00    -0.267 OA
BRANCH  10  23
ATOM     23  C   UNL A   1      29.918  29.862  23.663  1.00  0.00     0.055 C 
ATOM     24  C   UNL A   1      29.875  29.821  22.141  1.00  0.00     0.011 C 
ENDBRANCH  10  23
BRANCH  12  25
ATOM     25  C   UNL A   1      32.113  30.624  26.122  1.00  0.00    -0.013 A 
ATOM     26  C   UNL A   1      33.262  30.770  26.908  1.00  0.00     0.010 A 
ATOM     27  C   UNL A   1      31.180  31.667  26.048  1.00  0.00     0.010 A 
ATOM     28  C   UNL A   1      33.470  31.952  27.622  1.00  0.00     0.021 A 
ATOM     29  C   UNL A   1      31.393  32.848  26.759  1.00  0.00     0.021 A 
ATOM     30  C   UNL A   1      32.537  32.985  27.544  1.00  0.00     0.041 A 
ATOM     31  Cl  UNL A   1      32.801  34.443  28.417  1.00  0.00    -0.084 Cl
ENDBRANCH  12  25
ENDBRANCH   8   9
BRANCH   8  32
ATOM     32  C   UNL A   1      34.123  20.972  24.286  1.00  0.00     0.015 C 
ATOM     33  C   UNL A   1      34.839  19.686  24.768  1.00  0.00     0.010 C 
ATOM     34  C   UNL A   1      32.672  20.828  24.758  1.00  0.00     0.010 C 
ENDBRANCH   8  32
ENDBRANCH   5   8
ENDBRANCH   3   4
ENDBRANCH   2   3
ENDBRANCH   1   2
BRANCH   1  35
ATOM     35  C   UNL A   1      40.932  21.229  27.417  1.00  0.00     0.002 C 
BRANCH  35  36
ATOM     36  C   UNL A   1      41.919  20.082  27.159  1.00  0.00     0.021 C 
BRANCH  36  37
ATOM     37  C   UNL A   1      42.017  19.668  25.701  1.00  0.00     0.116 C 
BRANCH  37  38
ATOM     38  N   UNL A   1      43.398  19.544  25.253  1.00  0.00    -0.352 N 
ATOM     39  C   UNL A   1      44.299  20.543  24.953  1.00  0.00     0.251 C 
ATOM     40  H   UNL A   1      43.732  18.623  25.150  1.00  0.00     0.163 HD
ATOM     41  O   UNL A   1      45.272  20.316  24.253  1.00  0.00    -0.269 OA
BRANCH  39  42
ATOM     42  C   UNL A   1      44.082  21.893  25.504  1.00  0.00     0.039 A 
ATOM     43  C   UNL A   1      43.340  22.839  24.791  1.00  0.00     0.014 A 
ATOM     44  C   UNL A   1      44.674  22.225  26.723  1.00  0.00     0.014 A 
ATOM     45  C   UNL A   1      43.172  24.106  25.336  1.00  0.00     0.010 A 
ATOM     46  C   UNL A   1      44.392  23.421  27.328  1.00  0.00     0.010 A 
ATOM     47  C   UNL A   1      43.703  24.383  26.606  1.00  0.00    -0.014 A 
BRANCH  47  48
ATOM     48  C   UNL A   1      43.473  25.670  27.237  1.00  0.00     0.031 A 
ATOM     49  C   UNL A   1      44.454  26.703  26.839  1.00  0.00     0.074 A 
ATOM     50  C   UNL A   1      42.368  25.949  27.960  1.00  0.00     0.049 A 
ATOM     51  N   UNL A   1      45.423  27.171  27.550  1.00  0.00    -0.248 NA
ATOM     52  C   UNL A   1      44.467  27.161  25.440  1.00  0.00     0.031 C 
ATOM     53  C   UNL A   1      41.167  25.121  28.120  1.00  0.00     0.029 A 
ATOM     54  N   UNL A   1      42.049  27.082  28.648  1.00  0.00    -0.354 N 
ATOM     55  C   UNL A   1      46.016  28.160  26.772  1.00  0.00     0.074 A 
ATOM     56  C   UNL A   1      45.538  27.959  25.431  1.00  0.00     0.031 C 
ATOM     57  C   UNL A   1      40.178  25.857  28.677  1.00  0.00     0.029 A 
ATOM     58  C   UNL A   1      40.724  27.142  29.071  1.00  0.00     0.049 A 
ATOM     59  H   UNL A   1      42.701  27.798  28.831  1.00  0.00     0.167 HD
ATOM     60  C   UNL A   1      46.583  29.243  27.371  1.00  0.00     0.037 A 
ATOM     61  C   UNL A   1      40.131  28.185  29.701  1.00  0.00     0.037 A 
ATOM     62  C   UNL A   1      46.720  29.018  28.789  1.00  0.00     0.049 A 
ATOM     63  C   UNL A   1      41.212  28.973  30.337  1.00  0.00     0.074 A 
ATOM     64  C   UNL A   1      47.569  28.323  29.620  1.00  0.00     0.029 A 
ATOM     65  N   UNL A   1      45.571  29.263  29.491  1.00  0.00    -0.354 N 
ATOM     66  N   UNL A   1      41.941  28.527  31.322  1.00  0.00    -0.248 NA
ATOM     67  C   UNL A   1      41.723  30.161  29.661  1.00  0.00     0.031 C 
ATOM     68  C   UNL A   1      46.828  28.044  30.809  1.00  0.00     0.029 A 
ATOM     69  C   UNL A   1      45.562  28.609  30.692  1.00  0.00     0.049 A 
ATOM     70  H   UNL A   1      44.840  29.840  29.171  1.00  0.00     0.167 HD
ATOM     71  C   UNL A   1      43.176  29.105  31.115  1.00  0.00     0.074 A 
ATOM     72  C   UNL A   1      42.938  30.225  30.213  1.00  0.00     0.031 C 
ATOM     73  C   UNL A   1      44.320  28.426  31.408  1.00  0.00     0.037 A 
BRANCH  60  74
ATOM     74  C   UNL A   1      46.550  30.655  26.825  1.00  0.00     0.064 A 
ATOM     75  C   UNL A   1      47.735  31.421  26.841  1.00  0.00     0.173 A 
ATOM     76  C   UNL A   1      45.366  31.384  26.582  1.00  0.00     0.173 A 
ATOM     77  F   UNL A   1      48.918  30.843  27.100  1.00  0.00    -0.203 F 
ATOM     78  C   UNL A   1      47.724  32.811  26.680  1.00  0.00     0.198 A 
ATOM     79  C   UNL A   1      45.363  32.762  26.368  1.00  0.00     0.198 A 
ATOM     80  F   UNL A   1      44.153  30.824  26.662  1.00  0.00    -0.203 F 
ATOM     81  F   UNL A   1      48.860  33.507  26.818  1.00  0.00    -0.200 F 
ATOM     82  C   UNL A   1      46.537  33.480  26.442  1.00  0.00     0.200 A 
ATOM     83  F   UNL A   1      44.198  33.395  26.173  1.00  0.00    -0.200 F 
ATOM     84  F   UNL A   1      46.515  34.815  26.336  1.00  0.00    -0.200 F 
ENDBRANCH  60  74
BRANCH  61  85
ATOM     85  C   UNL A   1      38.734  28.679  29.649  1.00  0.00     0.064 A 
ATOM     86  C   UNL A   1      37.993  28.848  30.835  1.00  0.00     0.173 A 
ATOM     87  C   UNL A   1      38.209  29.287  28.496  1.00  0.00     0.173 A 
ATOM     88  F   UNL A   1      38.423  28.305  31.983  1.00  0.00    -0.203 F 
ATOM     89  C   UNL A   1      36.851  29.651  30.882  1.00  0.00     0.198 A 
ATOM     90  C   UNL A   1      37.048  30.062  28.541  1.00  0.00     0.198 A 
ATOM     91  F   UNL A   1      38.863  29.230  27.327  1.00  0.00    -0.203 F 
ATOM     92  F   UNL A   1      36.235  29.870  32.052  1.00  0.00    -0.200 F 
ATOM     93  C   UNL A   1      36.392  30.277  29.738  1.00  0.00     0.200 A 
ATOM     94  F   UNL A   1      36.601  30.653  27.427  1.00  0.00    -0.200 F 
ATOM     95  F   UNL A   1      35.349  31.116  29.793  1.00  0.00    -0.200 F 
ENDBRANCH  61  85
BRANCH  73  96
ATOM     96  C   UNL A   1      44.234  27.324  32.415  1.00  0.00     0.064 A 
ATOM     97  C   UNL A   1      44.201  25.956  32.101  1.00  0.00     0.173 A 
ATOM     98  C   UNL A   1      44.271  27.679  33.770  1.00  0.00     0.173 A 
ATOM     99  F   UNL A   1      44.227  25.539  30.829  1.00  0.00    -0.203 F 
ATOM    100  C   UNL A   1      44.182  24.989  33.106  1.00  0.00     0.198 A 
ATOM    101  C   UNL A   1      44.286  26.713  34.769  1.00  0.00     0.198 A 
ATOM    102  F   UNL A   1      44.333  28.972  34.123  1.00  0.00    -0.203 F 
ATOM    103  F   UNL A   1      44.138  23.687  32.786  1.00  0.00    -0.200 F 
ATOM    104  C   UNL A   1      44.233  25.368  34.438  1.00  0.00     0.200 A 
ATOM    105  F   UNL A   1      44.374  27.085  36.052  1.00  0.00    -0.200 F 
ATOM    106  F   UNL A   1      44.254  24.439  35.403  1.00  0.00    -0.200 F 
ENDBRANCH  73  96
ENDBRANCH  47  48
ENDBRANCH  39  42
ENDBRANCH  37  38
ENDBRANCH  36  37
ENDBRANCH  35  36
ENDBRANCH   1  35
TORSDOF 17
ENDMDL
MODEL 3
REMARK VINA RESULT:     -12.3      6.043     12.776
REMARK SMILES CCc1nn2c(nnc3c(=O)n([C@H](C(=O)NCCCCCCNC(=O)c4ccc(-c5c6nc(c(-c7c(F)c(F)c(F)c(F)c7F)c7ccc([nH]7)c(-c7c(F)c(F)c(F)c(F)c7F)c7nc(c(-c8c(F)c(F)c(F)c(F)c8F)c8ccc5[nH]8)C=C7)C=C6)cc4)C(C)C)ccc32)c1-c1ccc(Cl)cc1
REMARK SMILES IDX 19 1 18 2 17 3 16 4 14 5 15 6 13 8 12 9 3 10 4 11 95 12 5 13
REMARK SMILES IDX 6 14 94 15 7 16 9 17 93 18 8 19 10 20 92 21 11 22 2 23 1 24
REMARK SMILES IDX 96 25 97 26 102 27 98 28 101 29 99 30 100 31 89 32 90 33
REMARK SMILES IDX 91 34 20 35 21 36 22 37 23 38 24 39 25 41 26 42 27 43 88 44
REMARK SMILES IDX 28 45 87 46 29 47 30 48 31 49 81 50 32 51 86 52 80 53 82 54
REMARK SMILES IDX 33 55 85 56 79 57 78 58 34 60 66 61 46 62 65 63 47 64 50 65
REMARK SMILES IDX 64 66 83 67 48 68 49 69 63 71 84 72 51 73 35 74 36 75 44 76
REMARK SMILES IDX 37 77 38 78 42 79 45 80 39 81 40 82 43 83 41 84 67 85 68 86
REMARK SMILES IDX 76 87 69 88 70 89 74 90 77 91 71 92 72 93 75 94 73 95 52 96
REMARK SMILES IDX 53 97 61 98 54 99 55 100 59 101 62 102 56 103 57 104 60 105
REMARK SMILES IDX 58 106
REMARK H PARENT 16 7 23 40 82 59 50 70
REMARK Flexibility Score: inf
ROOT
ATOM      1  C   UNL A   1      41.944  37.574  27.969  1.00  0.00     0.002 C 
ENDROOT
BRANCH   1   2
ATOM      2  C   UNL A   1      42.856  37.070  26.849  1.00  0.00     0.021 C 
BRANCH   2   3
ATOM      3  C   UNL A   1      42.540  35.662  26.356  1.00  0.00     0.116 C 
BRANCH   3   4
ATOM      4  N   UNL A   1      43.504  35.187  25.381  1.00  0.00    -0.354 N 
ATOM      5  C   UNL A   1      44.661  34.479  25.583  1.00  0.00     0.243 C 
ATOM      6  O   UNL A   1      45.336  34.174  24.596  1.00  0.00    -0.273 OA
ATOM      7  H   UNL A   1      43.299  35.403  24.443  1.00  0.00     0.163 HD
BRANCH   5   8
ATOM      8  C   UNL A   1      45.084  34.051  27.019  1.00  0.00     0.182 C 
BRANCH   8   9
ATOM      9  N   UNL A   1      44.833  32.565  27.188  1.00  0.00    -0.301 N 
ATOM     10  C   UNL A   1      43.243  26.492  28.018  1.00  0.00     0.073 A 
ATOM     11  N   UNL A   1      43.065  27.791  28.321  1.00  0.00    -0.170 NA
ATOM     12  C   UNL A   1      44.217  26.330  27.001  1.00  0.00     0.052 A 
ATOM     13  N   UNL A   1      43.972  28.464  27.558  1.00  0.00    -0.210 N 
ATOM     14  C   UNL A   1      44.680  27.599  26.740  1.00  0.00     0.186 A 
ATOM     15  C   UNL A   1      44.266  29.829  27.519  1.00  0.00     0.102 A 
ATOM     16  N   UNL A   1      45.639  28.069  25.892  1.00  0.00    -0.129 NA
ATOM     17  C   UNL A   1      45.269  30.187  26.700  1.00  0.00     0.177 A 
ATOM     18  C   UNL A   1      43.586  30.830  28.302  1.00  0.00     0.049 A 
ATOM     19  N   UNL A   1      45.940  29.289  25.893  1.00  0.00    -0.141 NA
ATOM     20  C   UNL A   1      45.724  31.615  26.683  1.00  0.00     0.281 A 
ATOM     21  C   UNL A   1      43.859  32.128  28.105  1.00  0.00     0.092 A 
ATOM     22  O   UNL A   1      46.846  31.861  26.260  1.00  0.00    -0.267 OA
BRANCH  10  23
ATOM     23  C   UNL A   1      42.426  25.473  28.757  1.00  0.00     0.055 C 
ATOM     24  C   UNL A   1      41.411  24.692  27.934  1.00  0.00     0.011 C 
ENDBRANCH  10  23
BRANCH  12  25
ATOM     25  C   UNL A   1      44.746  25.175  26.312  1.00  0.00    -0.013 A 
ATOM     26  C   UNL A   1      45.896  24.538  26.791  1.00  0.00     0.010 A 
ATOM     27  C   UNL A   1      44.079  24.662  25.191  1.00  0.00     0.010 A 
ATOM     28  C   UNL A   1      46.381  23.399  26.146  1.00  0.00     0.021 A 
ATOM     29  C   UNL A   1      44.564  23.522  24.551  1.00  0.00     0.021 A 
ATOM     30  C   UNL A   1      45.713  22.896  25.030  1.00  0.00     0.041 A 
ATOM     31  Cl  UNL A   1      46.307  21.487  24.243  1.00  0.00    -0.084 Cl
ENDBRANCH  12  25
ENDBRANCH   8   9
BRANCH   8  32
ATOM     32  C   UNL A   1      46.539  34.658  27.247  1.00  0.00     0.015 C 
ATOM     33  C   UNL A   1      46.530  36.200  27.098  1.00  0.00     0.010 C 
ATOM     34  C   UNL A   1      47.203  34.387  28.601  1.00  0.00     0.010 C 
ENDBRANCH   8  32
ENDBRANCH   5   8
ENDBRANCH   3   4
ENDBRANCH   2   3
ENDBRANCH   1   2
BRANCH   1  35
ATOM     35  C   UNL A   1      41.970  39.088  28.222  1.00  0.00     0.002 C 
BRANCH  35  36
ATOM     36  C   UNL A   1      43.333  39.703  28.572  1.00  0.00     0.021 C 
BRANCH  36  37
ATOM     37  C   UNL A   1      43.606  39.790  30.063  1.00  0.00     0.116 C 
BRANCH  37  38
ATOM     38  N   UNL A   1      44.953  39.351  30.405  1.00  0.00    -0.352 N 
ATOM     39  C   UNL A   1      45.338  38.257  31.150  1.00  0.00     0.251 C 
ATOM     40  H   UNL A   1      45.685  39.909  30.057  1.00  0.00     0.163 HD
ATOM     41  O   UNL A   1      46.444  38.208  31.661  1.00  0.00    -0.269 OA
BRANCH  39  42
ATOM     42  C   UNL A   1      44.399  37.132  31.309  1.00  0.00     0.039 A 
ATOM     43  C   UNL A   1      44.227  36.200  30.282  1.00  0.00     0.014 A 
ATOM     44  C   UNL A   1      43.647  37.044  32.482  1.00  0.00     0.014 A 
ATOM     45  C   UNL A   1      43.320  35.162  30.464  1.00  0.00     0.010 A 
ATOM     46  C   UNL A   1      42.862  35.947  32.722  1.00  0.00     0.010 A 
ATOM     47  C   UNL A   1      42.646  35.048  31.689  1.00  0.00    -0.014 A 
BRANCH  47  48
ATOM     48  C   UNL A   1      41.755  33.930  31.940  1.00  0.00     0.031 A 
ATOM     49  C   UNL A   1      40.445  34.059  31.266  1.00  0.00     0.074 A 
ATOM     50  C   UNL A   1      42.150  32.799  32.563  1.00  0.00     0.049 A 
ATOM     51  N   UNL A   1      39.313  34.342  31.814  1.00  0.00    -0.248 NA
ATOM     52  C   UNL A   1      40.403  34.027  29.795  1.00  0.00     0.031 C 
ATOM     53  C   UNL A   1      43.513  32.417  32.953  1.00  0.00     0.029 A 
ATOM     54  N   UNL A   1      41.417  31.704  32.912  1.00  0.00    -0.354 N 
ATOM     55  C   UNL A   1      38.374  34.282  30.789  1.00  0.00     0.074 A 
ATOM     56  C   UNL A   1      39.118  34.304  29.559  1.00  0.00     0.031 C 
ATOM     57  C   UNL A   1      43.539  31.108  33.290  1.00  0.00     0.029 A 
ATOM     58  C   UNL A   1      42.178  30.607  33.309  1.00  0.00     0.049 A 
ATOM     59  H   UNL A   1      40.432  31.689  32.885  1.00  0.00     0.167 HD
ATOM     60  C   UNL A   1      37.099  33.890  31.061  1.00  0.00     0.037 A 
ATOM     61  C   UNL A   1      41.706  29.378  33.629  1.00  0.00     0.037 A 
ATOM     62  C   UNL A   1      36.870  33.878  32.485  1.00  0.00     0.049 A 
ATOM     63  C   UNL A   1      40.286  29.550  34.014  1.00  0.00     0.074 A 
ATOM     64  C   UNL A   1      36.618  34.804  33.472  1.00  0.00     0.029 A 
ATOM     65  N   UNL A   1      37.323  32.741  33.098  1.00  0.00    -0.354 N 
ATOM     66  N   UNL A   1      39.906  30.199  35.080  1.00  0.00    -0.248 NA
ATOM     67  C   UNL A   1      39.240  29.283  33.033  1.00  0.00     0.031 C 
ATOM     68  C   UNL A   1      37.067  34.220  34.695  1.00  0.00     0.029 A 
ATOM     69  C   UNL A   1      37.543  32.939  34.433  1.00  0.00     0.049 A 
ATOM     70  H   UNL A   1      37.473  31.885  32.634  1.00  0.00     0.167 HD
ATOM     71  C   UNL A   1      38.708  30.775  34.715  1.00  0.00     0.074 A 
ATOM     72  C   UNL A   1      38.263  30.039  33.539  1.00  0.00     0.031 C 
ATOM     73  C   UNL A   1      38.359  32.008  35.179  1.00  0.00     0.037 A 
BRANCH  60  74
ATOM     74  C   UNL A   1      36.233  33.051  30.145  1.00  0.00     0.064 A 
ATOM     75  C   UNL A   1      36.725  31.810  29.688  1.00  0.00     0.173 A 
ATOM     76  C   UNL A   1      35.100  33.539  29.459  1.00  0.00     0.173 A 
ATOM     77  F   UNL A   1      37.821  31.265  30.239  1.00  0.00    -0.203 F 
ATOM     78  C   UNL A   1      36.158  31.142  28.598  1.00  0.00     0.198 A 
ATOM     79  C   UNL A   1      34.503  32.844  28.408  1.00  0.00     0.198 A 
ATOM     80  F   UNL A   1      34.594  34.756  29.690  1.00  0.00    -0.203 F 
ATOM     81  F   UNL A   1      36.730  30.026  28.128  1.00  0.00    -0.200 F 
ATOM     82  C   UNL A   1      35.046  31.660  27.958  1.00  0.00     0.200 A 
ATOM     83  F   UNL A   1      33.447  33.382  27.780  1.00  0.00    -0.200 F 
ATOM     84  F   UNL A   1      34.530  31.050  26.884  1.00  0.00    -0.200 F 
ENDBRANCH  60  74
BRANCH  61  85
ATOM     85  C   UNL A   1      42.306  28.034  33.449  1.00  0.00     0.064 A 
ATOM     86  C   UNL A   1      42.975  27.707  32.254  1.00  0.00     0.173 A 
ATOM     87  C   UNL A   1      42.513  27.167  34.535  1.00  0.00     0.173 A 
ATOM     88  F   UNL A   1      42.838  28.482  31.168  1.00  0.00    -0.203 F 
ATOM     89  C   UNL A   1      43.868  26.634  32.179  1.00  0.00     0.198 A 
ATOM     90  C   UNL A   1      43.380  26.076  34.446  1.00  0.00     0.198 A 
ATOM     91  F   UNL A   1      41.963  27.416  35.732  1.00  0.00    -0.203 F 
ATOM     92  F   UNL A   1      44.564  26.420  31.054  1.00  0.00    -0.200 F 
ATOM     93  C   UNL A   1      44.087  25.832  33.283  1.00  0.00     0.200 A 
ATOM     94  F   UNL A   1      43.576  25.295  35.515  1.00  0.00    -0.200 F 
ATOM     95  F   UNL A   1      45.003  24.856  33.245  1.00  0.00    -0.200 F 
ENDBRANCH  61  85
BRANCH  73  96
ATOM     96  C   UNL A   1      38.989  32.474  36.452  1.00  0.00     0.064 A 
ATOM     97  C   UNL A   1      40.157  33.249  36.529  1.00  0.00     0.173 A 
ATOM     98  C   UNL A   1      38.321  32.186  37.649  1.00  0.00     0.173 A 
ATOM     99  F   UNL A   1      40.814  33.617  35.422  1.00  0.00    -0.203 F 
ATOM    100  C   UNL A   1      40.645  33.694  37.757  1.00  0.00     0.198 A 
ATOM    101  C   UNL A   1      38.790  32.658  38.869  1.00  0.00     0.198 A 
ATOM    102  F   UNL A   1      37.184  31.474  37.628  1.00  0.00    -0.203 F 
ATOM    103  F   UNL A   1      41.769  34.422  37.811  1.00  0.00    -0.200 F 
ATOM    104  C   UNL A   1      39.955  33.405  38.925  1.00  0.00     0.200 A 
ATOM    105  F   UNL A   1      38.099  32.408  39.989  1.00  0.00    -0.200 F 
ATOM    106  F   UNL A   1      40.402  33.865  40.102  1.00  0.00    -0.200 F 
ENDBRANCH  73  96
ENDBRANCH  47  48
ENDBRANCH  39  42
ENDBRANCH  37  38
ENDBRANCH  36  37
ENDBRANCH  35  36
ENDBRANCH   1  35
TORSDOF 17
ENDMDL
