MODEL 1
REMARK VINA RESULT:     -12.7      0.000      0.000
REMARK SMILES Cc1ccccc1OCC(=O)c1nc(C)c(C(=O)NCCCCCCNC(=O)c2ccc(-c3c4nc(c(-c5c(F)c(F)c(F)c(F)c5F)c5ccc([nH]5)c(-c5c(F)c(F)c(F)c(F)c5F)c5nc(c(-c6c(F)c(F)c(F)c(F)c6F)c6ccc3[nH]6)C=C5)C=C4)cc2)s1
REMARK SMILES IDX 21 1 20 2 19 3 17 4 18 5 16 7 12 8 13 9 92 10 14 11 15 12
REMARK SMILES IDX 10 13 11 14 9 15 8 16 7 17 1 18 2 19 3 20 4 21 6 22 5 23
REMARK SMILES IDX 22 24 23 25 24 26 25 27 26 28 27 29 28 31 29 32 30 33 91 34
REMARK SMILES IDX 31 35 90 36 32 37 33 38 34 39 84 40 35 41 89 42 83 43 85 44
REMARK SMILES IDX 36 45 88 46 82 47 81 48 37 50 69 51 49 52 68 53 50 54 53 55
REMARK SMILES IDX 67 56 86 57 51 58 52 59 66 61 87 62 54 63 38 64 39 65 47 66
REMARK SMILES IDX 40 67 41 68 45 69 48 70 42 71 43 72 46 73 44 74 70 75 71 76
REMARK SMILES IDX 79 77 72 78 73 79 77 80 80 81 74 82 75 83 78 84 76 85 55 86
REMARK SMILES IDX 56 87 64 88 57 89 58 90 62 91 65 92 59 93 60 94 63 95 61 96
REMARK H PARENT 19 6 26 30 85 49 53 60
REMARK Flexibility Score: inf
ROOT
ATOM      1  C   UNL A   1      31.493  27.935  25.664  1.00  0.00     0.021 C 
ENDROOT
BRANCH   1   2
ATOM      2  C   UNL A   1      31.945  27.156  26.905  1.00  0.00     0.116 C 
BRANCH   2   3
ATOM      3  N   UNL A   1      31.336  25.850  26.952  1.00  0.00    -0.351 N 
ATOM      4  C   UNL A   1      31.725  24.586  26.592  1.00  0.00     0.263 C 
ATOM      5  O   UNL A   1      30.869  23.736  26.875  1.00  0.00    -0.268 OA
ATOM      6  H   UNL A   1      30.427  25.871  27.330  1.00  0.00     0.163 HD
BRANCH   4   7
ATOM      7  C   UNL A   1      32.997  24.224  25.969  1.00  0.00     0.115 A 
ATOM      8  C   UNL A   1      35.094  22.958  25.624  1.00  0.00     0.164 A 
ATOM      9  N   UNL A   1      34.949  23.885  24.706  1.00  0.00    -0.237 NA
ATOM     10  S   UNL A   1      33.845  22.917  26.769  1.00  0.00    -0.105 S 
ATOM     11  C   UNL A   1      33.748  24.574  24.850  1.00  0.00     0.062 A 
ATOM     12  C   UNL A   1      33.487  25.516  23.734  1.00  0.00     0.068 C 
BRANCH   8  13
ATOM     13  C   UNL A   1      36.237  22.048  25.597  1.00  0.00     0.228 C 
ATOM     14  O   UNL A   1      37.385  22.419  25.882  1.00  0.00    -0.288 OA
BRANCH  13  15
ATOM     15  C   UNL A   1      36.064  20.616  25.078  1.00  0.00     0.313 C 
BRANCH  15  16
ATOM     16  O   UNL A   1      34.983  19.803  25.449  1.00  0.00    -0.485 OA
BRANCH  16  17
ATOM     17  C   UNL A   1      34.135  19.201  24.573  1.00  0.00     0.122 A 
ATOM     18  C   UNL A   1      32.240  20.947  24.265  1.00  0.00     0.048 C 
ATOM     19  C   UNL A   1      32.930  19.640  24.005  1.00  0.00    -0.009 A 
ATOM     20  C   UNL A   1      32.295  18.801  23.058  1.00  0.00     0.007 A 
ATOM     21  C   UNL A   1      32.804  17.549  22.718  1.00  0.00     0.001 A 
ATOM     22  C   UNL A   1      34.625  17.927  24.226  1.00  0.00     0.047 A 
ATOM     23  C   UNL A   1      33.971  17.104  23.314  1.00  0.00     0.004 A 
ENDBRANCH  16  17
ENDBRANCH  15  16
ENDBRANCH  13  15
ENDBRANCH   8  13
ENDBRANCH   4   7
ENDBRANCH   2   3
ENDBRANCH   1   2
BRANCH   1  24
ATOM     24  C   UNL A   1      32.359  29.153  25.305  1.00  0.00     0.002 C 
BRANCH  24  25
ATOM     25  C   UNL A   1      31.825  30.529  25.742  1.00  0.00     0.002 C 
BRANCH  25  26
ATOM     26  C   UNL A   1      32.258  31.012  27.130  1.00  0.00     0.021 C 
BRANCH  26  27
ATOM     27  C   UNL A   1      33.737  30.789  27.427  1.00  0.00     0.116 C 
BRANCH  27  28
ATOM     28  N   UNL A   1      34.255  31.644  28.486  1.00  0.00    -0.352 N 
ATOM     29  C   UNL A   1      35.373  31.460  29.286  1.00  0.00     0.251 C 
ATOM     30  H   UNL A   1      33.740  32.465  28.658  1.00  0.00     0.163 HD
ATOM     31  O   UNL A   1      35.662  32.267  30.155  1.00  0.00    -0.269 OA
BRANCH  29  32
ATOM     32  C   UNL A   1      36.271  30.325  28.990  1.00  0.00     0.039 A 
ATOM     33  C   UNL A   1      36.681  29.517  30.056  1.00  0.00     0.014 A 
ATOM     34  C   UNL A   1      36.853  30.189  27.732  1.00  0.00     0.014 A 
ATOM     35  C   UNL A   1      37.830  28.739  29.917  1.00  0.00     0.010 A 
ATOM     36  C   UNL A   1      38.034  29.480  27.613  1.00  0.00     0.010 A 
ATOM     37  C   UNL A   1      38.555  28.811  28.724  1.00  0.00    -0.014 A 
BRANCH  37  38
ATOM     38  C   UNL A   1      39.923  28.321  28.612  1.00  0.00     0.031 A 
ATOM     39  C   UNL A   1      40.198  26.900  28.328  1.00  0.00     0.074 A 
ATOM     40  C   UNL A   1      40.959  29.174  28.773  1.00  0.00     0.049 A 
ATOM     41  N   UNL A   1      41.222  26.265  28.799  1.00  0.00    -0.248 NA
ATOM     42  C   UNL A   1      39.325  26.067  27.508  1.00  0.00     0.031 C 
ATOM     43  C   UNL A   1      42.370  28.898  28.520  1.00  0.00     0.029 A 
ATOM     44  N   UNL A   1      40.954  30.431  29.401  1.00  0.00    -0.354 N 
ATOM     45  C   UNL A   1      41.283  25.053  28.159  1.00  0.00     0.074 A 
ATOM     46  C   UNL A   1      40.046  24.944  27.418  1.00  0.00     0.031 C 
ATOM     47  C   UNL A   1      43.112  29.763  29.227  1.00  0.00     0.029 A 
ATOM     48  C   UNL A   1      42.206  30.545  30.046  1.00  0.00     0.049 A 
ATOM     49  H   UNL A   1      40.227  31.096  29.392  1.00  0.00     0.167 HD
ATOM     50  C   UNL A   1      42.426  24.314  28.199  1.00  0.00     0.037 A 
ATOM     51  C   UNL A   1      42.309  30.714  31.395  1.00  0.00     0.037 A 
ATOM     52  C   UNL A   1      43.485  24.979  28.942  1.00  0.00     0.049 A 
ATOM     53  C   UNL A   1      43.104  29.637  32.092  1.00  0.00     0.074 A 
ATOM     54  C   UNL A   1      44.537  25.784  28.534  1.00  0.00     0.029 A 
ATOM     55  N   UNL A   1      43.371  25.144  30.317  1.00  0.00    -0.354 N 
ATOM     56  N   UNL A   1      43.370  28.479  31.556  1.00  0.00    -0.248 NA
ATOM     57  C   UNL A   1      43.617  29.753  33.455  1.00  0.00     0.031 C 
ATOM     58  C   UNL A   1      45.035  26.467  29.666  1.00  0.00     0.029 A 
ATOM     59  C   UNL A   1      44.301  26.062  30.766  1.00  0.00     0.049 A 
ATOM     60  H   UNL A   1      42.722  24.675  30.888  1.00  0.00     0.167 HD
ATOM     61  C   UNL A   1      44.038  27.699  32.465  1.00  0.00     0.074 A 
ATOM     62  C   UNL A   1      44.187  28.547  33.631  1.00  0.00     0.031 C 
ATOM     63  C   UNL A   1      44.396  26.414  32.172  1.00  0.00     0.037 A 
BRANCH  50  64
ATOM     64  C   UNL A   1      42.633  23.136  27.290  1.00  0.00     0.064 A 
ATOM     65  C   UNL A   1      42.030  21.889  27.548  1.00  0.00     0.173 A 
ATOM     66  C   UNL A   1      43.474  23.183  26.164  1.00  0.00     0.173 A 
ATOM     67  F   UNL A   1      41.162  21.725  28.554  1.00  0.00    -0.203 F 
ATOM     68  C   UNL A   1      42.325  20.751  26.796  1.00  0.00     0.198 A 
ATOM     69  C   UNL A   1      43.804  22.034  25.438  1.00  0.00     0.198 A 
ATOM     70  F   UNL A   1      44.000  24.346  25.751  1.00  0.00    -0.203 F 
ATOM     71  F   UNL A   1      41.738  19.583  27.097  1.00  0.00    -0.200 F 
ATOM     72  C   UNL A   1      43.238  20.817  25.762  1.00  0.00     0.200 A 
ATOM     73  F   UNL A   1      44.692  22.112  24.437  1.00  0.00    -0.200 F 
ATOM     74  F   UNL A   1      43.564  19.712  25.078  1.00  0.00    -0.200 F 
ENDBRANCH  50  64
BRANCH  51  75
ATOM     75  C   UNL A   1      41.164  31.451  31.984  1.00  0.00     0.064 A 
ATOM     76  C   UNL A   1      40.138  30.702  32.593  1.00  0.00     0.173 A 
ATOM     77  C   UNL A   1      41.248  32.812  32.297  1.00  0.00     0.173 A 
ATOM     78  F   UNL A   1      40.019  29.391  32.328  1.00  0.00    -0.203 F 
ATOM     79  C   UNL A   1      39.309  31.263  33.561  1.00  0.00     0.198 A 
ATOM     80  C   UNL A   1      40.404  33.374  33.258  1.00  0.00     0.198 A 
ATOM     81  F   UNL A   1      42.214  33.572  31.763  1.00  0.00    -0.203 F 
ATOM     82  F   UNL A   1      38.419  30.494  34.205  1.00  0.00    -0.200 F 
ATOM     83  C   UNL A   1      39.462  32.593  33.913  1.00  0.00     0.200 A 
ATOM     84  F   UNL A   1      40.563  34.657  33.614  1.00  0.00    -0.200 F 
ATOM     85  F   UNL A   1      38.730  33.110  34.909  1.00  0.00    -0.200 F 
ENDBRANCH  51  75
BRANCH  63  86
ATOM     86  C   UNL A   1      44.953  25.394  33.132  1.00  0.00     0.064 A 
ATOM     87  C   UNL A   1      46.303  25.019  33.180  1.00  0.00     0.173 A 
ATOM     88  C   UNL A   1      44.133  24.867  34.162  1.00  0.00     0.173 A 
ATOM     89  F   UNL A   1      47.198  25.528  32.322  1.00  0.00    -0.203 F 
ATOM     90  C   UNL A   1      46.792  24.147  34.159  1.00  0.00     0.198 A 
ATOM     91  C   UNL A   1      44.635  24.043  35.167  1.00  0.00     0.198 A 
ATOM     92  F   UNL A   1      42.827  25.159  34.237  1.00  0.00    -0.203 F 
ATOM     93  F   UNL A   1      48.084  23.794  34.146  1.00  0.00    -0.200 F 
ATOM     94  C   UNL A   1      45.963  23.672  35.159  1.00  0.00     0.200 A 
ATOM     95  F   UNL A   1      43.827  23.630  36.155  1.00  0.00    -0.200 F 
ATOM     96  F   UNL A   1      46.447  22.879  36.123  1.00  0.00    -0.200 F 
ENDBRANCH  63  86
ENDBRANCH  37  38
ENDBRANCH  29  32
ENDBRANCH  27  28
ENDBRANCH  26  27
ENDBRANCH  25  26
ENDBRANCH  24  25
ENDBRANCH   1  24
TORSDOF 17
ENDMDL
MODEL 2
REMARK VINA RESULT:     -12.5      3.565     10.011
REMARK SMILES Cc1ccccc1OCC(=O)c1nc(C)c(C(=O)NCCCCCCNC(=O)c2ccc(-c3c4nc(c(-c5c(F)c(F)c(F)c(F)c5F)c5ccc([nH]5)c(-c5c(F)c(F)c(F)c(F)c5F)c5nc(c(-c6c(F)c(F)c(F)c(F)c6F)c6ccc3[nH]6)C=C5)C=C4)cc2)s1
REMARK SMILES IDX 21 1 20 2 19 3 17 4 18 5 16 7 12 8 13 9 92 10 14 11 15 12
REMARK SMILES IDX 10 13 11 14 9 15 8 16 7 17 1 18 2 19 3 20 4 21 6 22 5 23
REMARK SMILES IDX 22 24 23 25 24 26 25 27 26 28 27 29 28 31 29 32 30 33 91 34
REMARK SMILES IDX 31 35 90 36 32 37 33 38 34 39 84 40 35 41 89 42 83 43 85 44
REMARK SMILES IDX 36 45 88 46 82 47 81 48 37 50 69 51 49 52 68 53 50 54 53 55
REMARK SMILES IDX 67 56 86 57 51 58 52 59 66 61 87 62 54 63 38 64 39 65 47 66
REMARK SMILES IDX 40 67 41 68 45 69 48 70 42 71 43 72 46 73 44 74 70 75 71 76
REMARK SMILES IDX 79 77 72 78 73 79 77 80 80 81 74 82 75 83 78 84 76 85 55 86
REMARK SMILES IDX 56 87 64 88 57 89 58 90 62 91 65 92 59 93 60 94 63 95 61 96
REMARK H PARENT 19 6 26 30 85 49 53 60
REMARK Flexibility Score: inf
ROOT
ATOM      1  C   UNL A   1      36.262  20.188  24.949  1.00  0.00     0.021 C 
ENDROOT
BRANCH   1   2
ATOM      2  C   UNL A   1      35.024  20.749  25.659  1.00  0.00     0.116 C 
BRANCH   2   3
ATOM      3  N   UNL A   1      33.850  20.635  24.830  1.00  0.00    -0.351 N 
ATOM      4  C   UNL A   1      33.110  21.507  24.074  1.00  0.00     0.263 C 
ATOM      5  O   UNL A   1      32.191  20.937  23.472  1.00  0.00    -0.268 OA
ATOM      6  H   UNL A   1      33.497  19.717  24.800  1.00  0.00     0.163 HD
BRANCH   4   7
ATOM      7  C   UNL A   1      33.349  22.943  23.940  1.00  0.00     0.115 A 
ATOM      8  C   UNL A   1      33.463  25.146  22.821  1.00  0.00     0.164 A 
ATOM      9  N   UNL A   1      33.777  25.249  24.091  1.00  0.00    -0.237 NA
ATOM     10  S   UNL A   1      33.105  23.566  22.321  1.00  0.00    -0.105 S 
ATOM     11  C   UNL A   1      33.667  24.029  24.752  1.00  0.00     0.062 A 
ATOM     12  C   UNL A   1      33.861  24.149  26.218  1.00  0.00     0.068 C 
BRANCH   8  13
ATOM     13  C   UNL A   1      33.412  26.327  21.963  1.00  0.00     0.228 C 
ATOM     14  O   UNL A   1      33.320  26.245  20.729  1.00  0.00    -0.288 OA
BRANCH  13  15
ATOM     15  C   UNL A   1      33.605  27.723  22.567  1.00  0.00     0.313 C 
BRANCH  15  16
ATOM     16  O   UNL A   1      32.591  28.391  23.268  1.00  0.00    -0.485 OA
BRANCH  16  17
ATOM     17  C   UNL A   1      32.341  28.237  24.596  1.00  0.00     0.122 A 
ATOM     18  C   UNL A   1      30.255  26.694  24.646  1.00  0.00     0.048 C 
ATOM     19  C   UNL A   1      31.352  27.507  25.270  1.00  0.00    -0.009 A 
ATOM     20  C   UNL A   1      31.386  27.487  26.685  1.00  0.00     0.007 A 
ATOM     21  C   UNL A   1      32.335  28.202  27.414  1.00  0.00     0.001 A 
ATOM     22  C   UNL A   1      33.282  28.964  25.350  1.00  0.00     0.047 A 
ATOM     23  C   UNL A   1      33.283  28.954  26.742  1.00  0.00     0.004 A 
ENDBRANCH  16  17
ENDBRANCH  15  16
ENDBRANCH  13  15
ENDBRANCH   8  13
ENDBRANCH   4   7
ENDBRANCH   2   3
ENDBRANCH   1   2
BRANCH   1  24
ATOM     24  C   UNL A   1      37.461  21.145  24.870  1.00  0.00     0.002 C 
BRANCH  24  25
ATOM     25  C   UNL A   1      37.163  22.584  24.413  1.00  0.00     0.002 C 
BRANCH  25  26
ATOM     26  C   UNL A   1      37.748  23.703  25.280  1.00  0.00     0.021 C 
BRANCH  26  27
ATOM     27  C   UNL A   1      38.525  23.203  26.493  1.00  0.00     0.116 C 
BRANCH  27  28
ATOM     28  N   UNL A   1      39.970  23.302  26.343  1.00  0.00    -0.352 N 
ATOM     29  C   UNL A   1      40.795  24.398  26.549  1.00  0.00     0.251 C 
ATOM     30  H   UNL A   1      40.424  22.477  26.054  1.00  0.00     0.163 HD
ATOM     31  O   UNL A   1      41.998  24.323  26.354  1.00  0.00    -0.269 OA
BRANCH  29  32
ATOM     32  C   UNL A   1      40.203  25.626  27.119  1.00  0.00     0.039 A 
ATOM     33  C   UNL A   1      40.474  26.842  26.482  1.00  0.00     0.014 A 
ATOM     34  C   UNL A   1      39.572  25.601  28.361  1.00  0.00     0.014 A 
ATOM     35  C   UNL A   1      40.322  28.031  27.193  1.00  0.00     0.010 A 
ATOM     36  C   UNL A   1      39.493  26.769  29.096  1.00  0.00     0.010 A 
ATOM     37  C   UNL A   1      39.930  27.972  28.533  1.00  0.00    -0.014 A 
BRANCH  37  38
ATOM     38  C   UNL A   1      40.079  29.103  29.441  1.00  0.00     0.031 A 
ATOM     39  C   UNL A   1      39.027  30.132  29.548  1.00  0.00     0.074 A 
ATOM     40  C   UNL A   1      41.195  29.220  30.194  1.00  0.00     0.049 A 
ATOM     41  N   UNL A   1      39.273  31.380  29.779  1.00  0.00    -0.248 NA
ATOM     42  C   UNL A   1      37.608  29.841  29.377  1.00  0.00     0.031 C 
ATOM     43  C   UNL A   1      41.429  30.176  31.272  1.00  0.00     0.029 A 
ATOM     44  N   UNL A   1      42.442  28.605  29.992  1.00  0.00    -0.354 N 
ATOM     45  C   UNL A   1      38.074  31.994  30.036  1.00  0.00     0.074 A 
ATOM     46  C   UNL A   1      37.060  31.016  29.706  1.00  0.00     0.031 C 
ATOM     47  C   UNL A   1      42.752  30.319  31.442  1.00  0.00     0.029 A 
ATOM     48  C   UNL A   1      43.410  29.550  30.401  1.00  0.00     0.049 A 
ATOM     49  H   UNL A   1      42.608  27.700  29.639  1.00  0.00     0.167 HD
ATOM     50  C   UNL A   1      38.044  33.217  30.634  1.00  0.00     0.037 A 
ATOM     51  C   UNL A   1      44.357  30.030  29.546  1.00  0.00     0.037 A 
ATOM     52  C   UNL A   1      39.376  33.706  30.952  1.00  0.00     0.049 A 
ATOM     53  C   UNL A   1      44.330  31.529  29.374  1.00  0.00     0.074 A 
ATOM     54  C   UNL A   1      40.133  33.642  32.111  1.00  0.00     0.029 A 
ATOM     55  N   UNL A   1      40.247  34.065  29.930  1.00  0.00    -0.354 N 
ATOM     56  N   UNL A   1      43.313  32.274  29.707  1.00  0.00    -0.248 NA
ATOM     57  C   UNL A   1      45.415  32.302  28.775  1.00  0.00     0.031 C 
ATOM     58  C   UNL A   1      41.477  33.927  31.777  1.00  0.00     0.029 A 
ATOM     59  C   UNL A   1      41.533  34.185  30.420  1.00  0.00     0.049 A 
ATOM     60  H   UNL A   1      39.986  34.212  28.993  1.00  0.00     0.167 HD
ATOM     61  C   UNL A   1      43.567  33.575  29.358  1.00  0.00     0.074 A 
ATOM     62  C   UNL A   1      44.903  33.546  28.797  1.00  0.00     0.031 C 
ATOM     63  C   UNL A   1      42.639  34.558  29.554  1.00  0.00     0.037 A 
BRANCH  50  64
ATOM     64  C   UNL A   1      36.771  33.792  31.187  1.00  0.00     0.064 A 
ATOM     65  C   UNL A   1      36.538  33.871  32.575  1.00  0.00     0.173 A 
ATOM     66  C   UNL A   1      35.717  34.233  30.368  1.00  0.00     0.173 A 
ATOM     67  F   UNL A   1      37.482  33.538  33.464  1.00  0.00    -0.203 F 
ATOM     68  C   UNL A   1      35.309  34.270  33.100  1.00  0.00     0.198 A 
ATOM     69  C   UNL A   1      34.471  34.589  30.893  1.00  0.00     0.198 A 
ATOM     70  F   UNL A   1      35.874  34.320  29.038  1.00  0.00    -0.203 F 
ATOM     71  F   UNL A   1      35.134  34.309  34.430  1.00  0.00    -0.200 F 
ATOM     72  C   UNL A   1      34.264  34.597  32.259  1.00  0.00     0.200 A 
ATOM     73  F   UNL A   1      33.465  34.904  30.064  1.00  0.00    -0.200 F 
ATOM     74  F   UNL A   1      33.067  34.922  32.763  1.00  0.00    -0.200 F 
ENDBRANCH  50  64
BRANCH  51  75
ATOM     75  C   UNL A   1      44.751  29.055  28.499  1.00  0.00     0.064 A 
ATOM     76  C   UNL A   1      45.595  27.991  28.870  1.00  0.00     0.173 A 
ATOM     77  C   UNL A   1      44.034  28.930  27.304  1.00  0.00     0.173 A 
ATOM     78  F   UNL A   1      46.301  28.062  30.010  1.00  0.00    -0.203 F 
ATOM     79  C   UNL A   1      45.629  26.806  28.139  1.00  0.00     0.198 A 
ATOM     80  C   UNL A   1      44.083  27.744  26.566  1.00  0.00     0.198 A 
ATOM     81  F   UNL A   1      43.201  29.903  26.908  1.00  0.00    -0.203 F 
ATOM     82  F   UNL A   1      46.355  25.768  28.583  1.00  0.00    -0.200 F 
ATOM     83  C   UNL A   1      44.851  26.674  27.003  1.00  0.00     0.200 A 
ATOM     84  F   UNL A   1      43.316  27.608  25.476  1.00  0.00    -0.200 F 
ATOM     85  F   UNL A   1      44.810  25.503  26.352  1.00  0.00    -0.200 F 
ENDBRANCH  51  75
BRANCH  63  86
ATOM     86  C   UNL A   1      42.709  35.976  29.047  1.00  0.00     0.064 A 
ATOM     87  C   UNL A   1      42.008  36.440  27.924  1.00  0.00     0.173 A 
ATOM     88  C   UNL A   1      43.388  36.966  29.800  1.00  0.00     0.173 A 
ATOM     89  F   UNL A   1      41.248  35.618  27.189  1.00  0.00    -0.203 F 
ATOM     90  C   UNL A   1      42.020  37.790  27.555  1.00  0.00     0.198 A 
ATOM     91  C   UNL A   1      43.351  38.317  29.460  1.00  0.00     0.198 A 
ATOM     92  F   UNL A   1      44.084  36.655  30.902  1.00  0.00    -0.203 F 
ATOM     93  F   UNL A   1      41.361  38.181  26.457  1.00  0.00    -0.200 F 
ATOM     94  C   UNL A   1      42.677  38.728  28.330  1.00  0.00     0.200 A 
ATOM     95  F   UNL A   1      43.955  39.218  30.248  1.00  0.00    -0.200 F 
ATOM     96  F   UNL A   1      42.643  40.026  27.999  1.00  0.00    -0.200 F 
ENDBRANCH  63  86
ENDBRANCH  37  38
ENDBRANCH  29  32
ENDBRANCH  27  28
ENDBRANCH  26  27
ENDBRANCH  25  26
ENDBRANCH  24  25
ENDBRANCH   1  24
TORSDOF 17
ENDMDL
MODEL 3
REMARK VINA RESULT:     -12.5      3.524      9.980
REMARK SMILES Cc1ccccc1OCC(=O)c1nc(C)c(C(=O)NCCCCCCNC(=O)c2ccc(-c3c4nc(c(-c5c(F)c(F)c(F)c(F)c5F)c5ccc([nH]5)c(-c5c(F)c(F)c(F)c(F)c5F)c5nc(c(-c6c(F)c(F)c(F)c(F)c6F)c6ccc3[nH]6)C=C5)C=C4)cc2)s1
REMARK SMILES IDX 21 1 20 2 19 3 17 4 18 5 16 7 12 8 13 9 92 10 14 11 15 12
REMARK SMILES IDX 10 13 11 14 9 15 8 16 7 17 1 18 2 19 3 20 4 21 6 22 5 23
REMARK SMILES IDX 22 24 23 25 24 26 25 27 26 28 27 29 28 31 29 32 30 33 91 34
REMARK SMILES IDX 31 35 90 36 32 37 33 38 34 39 84 40 35 41 89 42 83 43 85 44
REMARK SMILES IDX 36 45 88 46 82 47 81 48 37 50 69 51 49 52 68 53 50 54 53 55
REMARK SMILES IDX 67 56 86 57 51 58 52 59 66 61 87 62 54 63 38 64 39 65 47 66
REMARK SMILES IDX 40 67 41 68 45 69 48 70 42 71 43 72 46 73 44 74 70 75 71 76
REMARK SMILES IDX 79 77 72 78 73 79 77 80 80 81 74 82 75 83 78 84 76 85 55 86
REMARK SMILES IDX 56 87 64 88 57 89 58 90 62 91 65 92 59 93 60 94 63 95 61 96
REMARK H PARENT 19 6 26 30 85 49 53 60
REMARK Flexibility Score: inf
ROOT
ATOM      1  C   UNL A   1      34.752  21.135  25.637  1.00  0.00     0.021 C 
ENDROOT
BRANCH   1   2
ATOM      2  C   UNL A   1      34.928  22.320  26.595  1.00  0.00     0.116 C 
BRANCH   2   3
ATOM      3  N   UNL A   1      33.657  22.772  27.105  1.00  0.00    -0.351 N 
ATOM      4  C   UNL A   1      32.625  23.522  26.605  1.00  0.00     0.263 C 
ATOM      5  O   UNL A   1      31.684  23.612  27.406  1.00  0.00    -0.268 OA
ATOM      6  H   UNL A   1      33.494  22.473  28.028  1.00  0.00     0.163 HD
BRANCH   4   7
ATOM      7  C   UNL A   1      32.577  24.145  25.283  1.00  0.00     0.115 A 
ATOM      8  C   UNL A   1      32.786  25.939  23.593  1.00  0.00     0.164 A 
ATOM      9  N   UNL A   1      32.443  24.803  23.031  1.00  0.00    -0.237 NA
ATOM     10  S   UNL A   1      32.955  25.855  25.278  1.00  0.00    -0.105 S 
ATOM     11  C   UNL A   1      32.372  23.767  23.958  1.00  0.00     0.062 A 
ATOM     12  C   UNL A   1      32.143  22.444  23.327  1.00  0.00     0.068 C 
BRANCH   8  13
ATOM     13  C   UNL A   1      33.019  27.135  22.787  1.00  0.00     0.228 C 
ATOM     14  O   UNL A   1      33.670  27.104  21.732  1.00  0.00    -0.288 OA
BRANCH  13  15
ATOM     15  C   UNL A   1      32.566  28.506  23.300  1.00  0.00     0.313 C 
BRANCH  15  16
ATOM     16  O   UNL A   1      31.447  28.672  24.129  1.00  0.00    -0.485 OA
BRANCH  16  17
ATOM     17  C   UNL A   1      30.167  28.787  23.682  1.00  0.00     0.122 A 
ATOM     18  C   UNL A   1      29.251  26.364  23.828  1.00  0.00     0.048 C 
ATOM     19  C   UNL A   1      29.151  27.833  23.534  1.00  0.00    -0.009 A 
ATOM     20  C   UNL A   1      27.880  28.275  23.097  1.00  0.00     0.007 A 
ATOM     21  C   UNL A   1      27.630  29.607  22.771  1.00  0.00     0.001 A 
ATOM     22  C   UNL A   1      29.899  30.125  23.334  1.00  0.00     0.047 A 
ATOM     23  C   UNL A   1      28.649  30.536  22.879  1.00  0.00     0.004 A 
ENDBRANCH  16  17
ENDBRANCH  15  16
ENDBRANCH  13  15
ENDBRANCH   8  13
ENDBRANCH   4   7
ENDBRANCH   2   3
ENDBRANCH   1   2
BRANCH   1  24
ATOM     24  C   UNL A   1      36.052  20.584  25.031  1.00  0.00     0.002 C 
BRANCH  24  25
ATOM     25  C   UNL A   1      37.166  21.608  24.749  1.00  0.00     0.002 C 
BRANCH  25  26
ATOM     26  C   UNL A   1      38.415  21.507  25.631  1.00  0.00     0.021 C 
BRANCH  26  27
ATOM     27  C   UNL A   1      38.861  22.840  26.225  1.00  0.00     0.116 C 
BRANCH  27  28
ATOM     28  N   UNL A   1      40.307  22.992  26.297  1.00  0.00    -0.352 N 
ATOM     29  C   UNL A   1      41.049  24.121  26.609  1.00  0.00     0.251 C 
ATOM     30  H   UNL A   1      40.830  22.182  26.095  1.00  0.00     0.163 HD
ATOM     31  O   UNL A   1      42.270  24.090  26.603  1.00  0.00    -0.269 OA
BRANCH  29  32
ATOM     32  C   UNL A   1      40.333  25.332  27.061  1.00  0.00     0.039 A 
ATOM     33  C   UNL A   1      40.668  26.553  26.465  1.00  0.00     0.014 A 
ATOM     34  C   UNL A   1      39.505  25.292  28.180  1.00  0.00     0.014 A 
ATOM     35  C   UNL A   1      40.363  27.740  27.130  1.00  0.00     0.010 A 
ATOM     36  C   UNL A   1      39.268  26.460  28.880  1.00  0.00     0.010 A 
ATOM     37  C   UNL A   1      39.754  27.674  28.387  1.00  0.00    -0.014 A 
BRANCH  37  38
ATOM     38  C   UNL A   1      39.714  28.814  29.295  1.00  0.00     0.031 A 
ATOM     39  C   UNL A   1      38.682  29.858  29.155  1.00  0.00     0.074 A 
ATOM     40  C   UNL A   1      40.635  28.924  30.278  1.00  0.00     0.049 A 
ATOM     41  N   UNL A   1      38.889  31.105  29.426  1.00  0.00    -0.248 NA
ATOM     42  C   UNL A   1      37.332  29.585  28.673  1.00  0.00     0.031 C 
ATOM     43  C   UNL A   1      40.637  29.888  31.374  1.00  0.00     0.029 A 
ATOM     44  N   UNL A   1      41.886  28.289  30.366  1.00  0.00    -0.354 N 
ATOM     45  C   UNL A   1      37.673  31.738  29.402  1.00  0.00     0.074 A 
ATOM     46  C   UNL A   1      36.743  30.771  28.861  1.00  0.00     0.031 C 
ATOM     47  C   UNL A   1      41.891  30.015  31.834  1.00  0.00     0.029 A 
ATOM     48  C   UNL A   1      42.752  29.226  30.974  1.00  0.00     0.049 A 
ATOM     49  H   UNL A   1      42.112  27.378  30.066  1.00  0.00     0.167 HD
ATOM     50  C   UNL A   1      37.530  32.968  29.968  1.00  0.00     0.037 A 
ATOM     51  C   UNL A   1      43.874  29.682  30.349  1.00  0.00     0.037 A 
ATOM     52  C   UNL A   1      38.764  33.442  30.573  1.00  0.00     0.049 A 
ATOM     53  C   UNL A   1      43.910  31.180  30.163  1.00  0.00     0.074 A 
ATOM     54  C   UNL A   1      39.242  33.381  31.872  1.00  0.00     0.029 A 
ATOM     55  N   UNL A   1      39.848  33.778  29.769  1.00  0.00    -0.354 N 
ATOM     56  N   UNL A   1      42.857  31.942  30.253  1.00  0.00    -0.248 NA
ATOM     57  C   UNL A   1      45.114  31.931  29.816  1.00  0.00     0.031 C 
ATOM     58  C   UNL A   1      40.630  33.644  31.846  1.00  0.00     0.029 A 
ATOM     59  C   UNL A   1      40.993  33.886  30.534  1.00  0.00     0.049 A 
ATOM     60  H   UNL A   1      39.805  33.917  28.796  1.00  0.00     0.167 HD
ATOM     61  C   UNL A   1      43.203  33.235  29.960  1.00  0.00     0.074 A 
ATOM     62  C   UNL A   1      44.630  33.182  29.712  1.00  0.00     0.031 C 
ATOM     63  C   UNL A   1      42.271  34.233  29.935  1.00  0.00     0.037 A 
BRANCH  50  64
ATOM     64  C   UNL A   1      36.174  33.567  30.217  1.00  0.00     0.064 A 
ATOM     65  C   UNL A   1      35.393  34.090  29.168  1.00  0.00     0.173 A 
ATOM     66  C   UNL A   1      35.623  33.691  31.505  1.00  0.00     0.173 A 
ATOM     67  F   UNL A   1      35.776  33.983  27.889  1.00  0.00    -0.203 F 
ATOM     68  C   UNL A   1      34.199  34.774  29.400  1.00  0.00     0.198 A 
ATOM     69  C   UNL A   1      34.451  34.415  31.742  1.00  0.00     0.198 A 
ATOM     70  F   UNL A   1      36.219  33.118  32.562  1.00  0.00    -0.203 F 
ATOM     71  F   UNL A   1      33.505  35.271  28.366  1.00  0.00    -0.200 F 
ATOM     72  C   UNL A   1      33.745  34.966  30.690  1.00  0.00     0.200 A 
ATOM     73  F   UNL A   1      34.021  34.594  32.999  1.00  0.00    -0.200 F 
ATOM     74  F   UNL A   1      32.630  35.673  30.915  1.00  0.00    -0.200 F 
ENDBRANCH  50  64
BRANCH  51  75
ATOM     75  C   UNL A   1      44.477  28.690  29.425  1.00  0.00     0.064 A 
ATOM     76  C   UNL A   1      45.240  27.646  29.981  1.00  0.00     0.173 A 
ATOM     77  C   UNL A   1      44.013  28.529  28.114  1.00  0.00     0.173 A 
ATOM     78  F   UNL A   1      45.705  27.752  31.237  1.00  0.00    -0.203 F 
ATOM     79  C   UNL A   1      45.429  26.446  29.301  1.00  0.00     0.198 A 
ATOM     80  C   UNL A   1      44.218  27.329  27.430  1.00  0.00     0.198 A 
ATOM     81  F   UNL A   1      43.267  29.482  27.538  1.00  0.00    -0.203 F 
ATOM     82  F   UNL A   1      46.062  25.428  29.905  1.00  0.00    -0.200 F 
ATOM     83  C   UNL A   1      44.893  26.278  28.036  1.00  0.00     0.200 A 
ATOM     84  F   UNL A   1      43.684  27.158  26.212  1.00  0.00    -0.200 F 
ATOM     85  F   UNL A   1      44.994  25.093  27.418  1.00  0.00    -0.200 F 
ENDBRANCH  51  75
BRANCH  63  86
ATOM     86  C   UNL A   1      42.475  35.644  29.444  1.00  0.00     0.064 A 
ATOM     87  C   UNL A   1      43.255  36.600  30.111  1.00  0.00     0.173 A 
ATOM     88  C   UNL A   1      41.994  36.028  28.167  1.00  0.00     0.173 A 
ATOM     89  F   UNL A   1      43.848  36.321  31.280  1.00  0.00    -0.203 F 
ATOM     90  C   UNL A   1      43.502  37.863  29.562  1.00  0.00     0.198 A 
ATOM     91  C   UNL A   1      42.288  37.266  27.600  1.00  0.00     0.198 A 
ATOM     92  F   UNL A   1      41.247  35.201  27.421  1.00  0.00    -0.203 F 
ATOM     93  F   UNL A   1      44.228  38.753  30.250  1.00  0.00    -0.200 F 
ATOM     94  C   UNL A   1      43.032  38.189  28.303  1.00  0.00     0.200 A 
ATOM     95  F   UNL A   1      41.864  37.548  26.360  1.00  0.00    -0.200 F 
ATOM     96  F   UNL A   1      43.314  39.381  27.761  1.00  0.00    -0.200 F 
ENDBRANCH  63  86
ENDBRANCH  37  38
ENDBRANCH  29  32
ENDBRANCH  27  28
ENDBRANCH  26  27
ENDBRANCH  25  26
ENDBRANCH  24  25
ENDBRANCH   1  24
TORSDOF 17
ENDMDL
