MODEL 1
REMARK VINA RESULT:     -11.0      0.000      0.000
REMARK SMILES CN(CC(C)(C)O)C(=O)NC[C@@H](C(=O)NCCCCCCNC(=O)c1ccc(-c2c3nc(c(-c4c(F)c(F)c(F)c(F)c4F)c4ccc([nH]4)c(-c4c(F)c(F)c(F)c(F)c4F)c4nc(c(-c5c(F)c(F)c(F)c(F)c5F)c5ccc2[nH]5)C=C4)C=C3)cc1)c1ccccc1
REMARK SMILES IDX 16 1 15 2 13 3 14 4 12 6 11 7 10 8 8 9 9 10 2 12 1 13 3 14
REMARK SMILES IDX 4 15 5 16 6 17 7 18 88 20 89 21 93 22 90 23 92 24 91 25
REMARK SMILES IDX 17 26 18 27 19 28 20 29 21 30 22 31 23 32 24 34 25 35 26 36
REMARK SMILES IDX 87 37 27 38 86 39 28 40 29 41 30 42 80 43 31 44 85 45 79 46
REMARK SMILES IDX 81 47 32 48 84 49 78 50 77 51 33 53 65 54 45 55 64 56 46 57
REMARK SMILES IDX 49 58 63 59 82 60 47 61 48 62 62 64 83 65 50 66 34 67 35 68
REMARK SMILES IDX 43 69 36 70 37 71 41 72 44 73 38 74 39 75 42 76 40 77 66 78
REMARK SMILES IDX 67 79 75 80 68 81 69 82 73 83 76 84 70 85 71 86 74 87 72 88
REMARK SMILES IDX 51 89 52 90 60 91 53 92 54 93 58 94 61 95 55 96 56 97 59 98
REMARK SMILES IDX 57 99
REMARK H PARENT 15 5 10 11 7 19 22 33 81 52 49 63
REMARK Flexibility Score: inf
ROOT
ATOM      1  C   UNL A   1      33.593  26.779  22.003  1.00  0.00     0.116 C 
ENDROOT
BRANCH   1   2
ATOM      2  N   UNL A   1      32.718  26.169  22.988  1.00  0.00    -0.356 N 
ATOM      3  C   UNL A   1      32.493  24.843  23.246  1.00  0.00     0.229 C 
ATOM      4  O   UNL A   1      31.486  24.556  23.894  1.00  0.00    -0.274 OA
ATOM      5  H   UNL A   1      32.214  26.799  23.552  1.00  0.00     0.163 HD
BRANCH   3   6
ATOM      6  C   UNL A   1      33.504  23.789  22.770  1.00  0.00     0.128 C 
BRANCH   6   7
ATOM      7  C   UNL A   1      32.848  22.399  22.587  1.00  0.00     0.136 C 
BRANCH   7   8
ATOM      8  N   UNL A   1      32.141  21.885  23.758  1.00  0.00    -0.337 N 
ATOM      9  C   UNL A   1      32.343  21.138  24.851  1.00  0.00     0.317 C 
ATOM     10  O   UNL A   1      31.310  20.956  25.511  1.00  0.00    -0.249 OA
ATOM     11  H   UNL A   1      31.205  22.188  23.737  1.00  0.00     0.165 HD
BRANCH   9  12
ATOM     12  N   UNL A   1      33.534  20.608  25.244  1.00  0.00    -0.325 N 
ATOM     13  C   UNL A   1      34.147  21.252  26.407  1.00  0.00     0.148 C 
BRANCH  12  14
ATOM     14  C   UNL A   1      34.302  19.484  24.696  1.00  0.00     0.155 C 
BRANCH  14  15
ATOM     15  C   UNL A   1      33.614  18.092  24.773  1.00  0.00     0.077 C 
ATOM     16  C   UNL A   1      32.436  17.935  23.820  1.00  0.00     0.043 C 
ATOM     17  C   UNL A   1      34.664  17.011  24.473  1.00  0.00     0.043 C 
BRANCH  15  18
ATOM     18  O   UNL A   1      33.130  17.866  26.104  1.00  0.00    -0.389 OA
ATOM     19  H   UNL A   1      32.270  18.301  26.213  1.00  0.00     0.211 HD
ENDBRANCH  15  18
ENDBRANCH  14  15
ENDBRANCH  12  14
ENDBRANCH   9  12
ENDBRANCH   7   8
ENDBRANCH   6   7
BRANCH   6  20
ATOM     20  C   UNL A   1      34.741  23.771  23.683  1.00  0.00    -0.034 A 
ATOM     21  C   UNL A   1      35.858  23.000  23.310  1.00  0.00     0.004 A 
ATOM     22  C   UNL A   1      34.803  24.473  24.897  1.00  0.00     0.004 A 
ATOM     23  C   UNL A   1      36.959  22.871  24.162  1.00  0.00     0.000 A 
ATOM     24  C   UNL A   1      35.895  24.330  25.754  1.00  0.00     0.000 A 
ATOM     25  C   UNL A   1      36.966  23.518  25.394  1.00  0.00     0.000 A 
ENDBRANCH   6  20
ENDBRANCH   3   6
ENDBRANCH   1   2
BRANCH   1  26
ATOM     26  C   UNL A   1      33.843  28.240  22.378  1.00  0.00     0.021 C 
BRANCH  26  27
ATOM     27  C   UNL A   1      32.759  28.840  23.274  1.00  0.00     0.002 C 
BRANCH  27  28
ATOM     28  C   UNL A   1      33.257  29.303  24.646  1.00  0.00     0.002 C 
BRANCH  28  29
ATOM     29  C   UNL A   1      34.003  28.239  25.458  1.00  0.00     0.021 C 
BRANCH  29  30
ATOM     30  C   UNL A   1      33.874  28.382  26.971  1.00  0.00     0.116 C 
BRANCH  30  31
ATOM     31  N   UNL A   1      33.734  29.774  27.376  1.00  0.00    -0.352 N 
ATOM     32  C   UNL A   1      34.582  30.556  28.110  1.00  0.00     0.251 C 
ATOM     33  H   UNL A   1      32.906  30.216  27.079  1.00  0.00     0.163 HD
ATOM     34  O   UNL A   1      34.201  31.647  28.543  1.00  0.00    -0.269 OA
BRANCH  32  35
ATOM     35  C   UNL A   1      35.952  30.094  28.396  1.00  0.00     0.039 A 
ATOM     36  C   UNL A   1      36.924  30.193  27.398  1.00  0.00     0.014 A 
ATOM     37  C   UNL A   1      36.274  29.546  29.642  1.00  0.00     0.014 A 
ATOM     38  C   UNL A   1      38.232  29.790  27.665  1.00  0.00     0.010 A 
ATOM     39  C   UNL A   1      37.593  29.209  29.930  1.00  0.00     0.010 A 
ATOM     40  C   UNL A   1      38.583  29.321  28.942  1.00  0.00    -0.014 A 
BRANCH  40  41
ATOM     41  C   UNL A   1      39.980  28.935  29.259  1.00  0.00     0.031 A 
ATOM     42  C   UNL A   1      40.858  29.865  30.047  1.00  0.00     0.074 A 
ATOM     43  C   UNL A   1      40.472  27.774  28.786  1.00  0.00     0.049 A 
ATOM     44  N   UNL A   1      42.120  29.736  30.374  1.00  0.00    -0.248 NA
ATOM     45  C   UNL A   1      40.246  31.121  30.508  1.00  0.00     0.031 C 
ATOM     46  C   UNL A   1      39.729  26.812  27.972  1.00  0.00     0.029 A 
ATOM     47  N   UNL A   1      41.717  27.211  28.915  1.00  0.00    -0.354 N 
ATOM     48  C   UNL A   1      42.451  30.894  31.064  1.00  0.00     0.074 A 
ATOM     49  C   UNL A   1      41.277  31.739  31.064  1.00  0.00     0.031 C 
ATOM     50  C   UNL A   1      40.525  25.767  27.691  1.00  0.00     0.029 A 
ATOM     51  C   UNL A   1      41.843  26.003  28.273  1.00  0.00     0.049 A 
ATOM     52  H   UNL A   1      42.450  27.633  29.419  1.00  0.00     0.167 HD
ATOM     53  C   UNL A   1      43.623  31.212  31.664  1.00  0.00     0.037 A 
ATOM     54  C   UNL A   1      42.906  25.185  28.160  1.00  0.00     0.037 A 
ATOM     55  C   UNL A   1      44.782  30.359  31.678  1.00  0.00     0.049 A 
ATOM     56  C   UNL A   1      44.198  25.567  28.830  1.00  0.00     0.074 A 
ATOM     57  C   UNL A   1      45.998  30.564  32.305  1.00  0.00     0.029 A 
ATOM     58  N   UNL A   1      44.868  29.135  31.030  1.00  0.00    -0.354 N 
ATOM     59  N   UNL A   1      44.480  26.632  29.540  1.00  0.00    -0.248 NA
ATOM     60  C   UNL A   1      45.318  24.628  28.688  1.00  0.00     0.031 C 
ATOM     61  C   UNL A   1      46.836  29.488  31.997  1.00  0.00     0.029 A 
ATOM     62  C   UNL A   1      46.125  28.584  31.225  1.00  0.00     0.049 A 
ATOM     63  H   UNL A   1      44.142  28.718  30.510  1.00  0.00     0.167 HD
ATOM     64  C   UNL A   1      45.796  26.478  29.953  1.00  0.00     0.074 A 
ATOM     65  C   UNL A   1      46.253  25.208  29.427  1.00  0.00     0.031 C 
ATOM     66  C   UNL A   1      46.559  27.313  30.701  1.00  0.00     0.037 A 
BRANCH  53  67
ATOM     67  C   UNL A   1      43.708  32.540  32.360  1.00  0.00     0.064 A 
ATOM     68  C   UNL A   1      44.166  33.690  31.699  1.00  0.00     0.173 A 
ATOM     69  C   UNL A   1      43.292  32.674  33.694  1.00  0.00     0.173 A 
ATOM     70  F   UNL A   1      44.587  33.615  30.428  1.00  0.00    -0.203 F 
ATOM     71  C   UNL A   1      44.233  34.917  32.355  1.00  0.00     0.198 A 
ATOM     72  C   UNL A   1      43.330  33.908  34.337  1.00  0.00     0.198 A 
ATOM     73  F   UNL A   1      42.839  31.608  34.372  1.00  0.00    -0.203 F 
ATOM     74  F   UNL A   1      44.721  35.990  31.719  1.00  0.00    -0.200 F 
ATOM     75  C   UNL A   1      43.807  35.026  33.671  1.00  0.00     0.200 A 
ATOM     76  F   UNL A   1      42.905  34.016  35.604  1.00  0.00    -0.200 F 
ATOM     77  F   UNL A   1      43.864  36.209  34.298  1.00  0.00    -0.200 F 
ENDBRANCH  53  67
BRANCH  54  78
ATOM     78  C   UNL A   1      42.785  23.910  27.407  1.00  0.00     0.064 A 
ATOM     79  C   UNL A   1      42.301  22.750  28.028  1.00  0.00     0.173 A 
ATOM     80  C   UNL A   1      43.156  23.821  26.056  1.00  0.00     0.173 A 
ATOM     81  F   UNL A   1      41.952  22.780  29.323  1.00  0.00    -0.203 F 
ATOM     82  C   UNL A   1      42.214  21.545  27.335  1.00  0.00     0.198 A 
ATOM     83  C   UNL A   1      43.041  22.621  25.357  1.00  0.00     0.198 A 
ATOM     84  F   UNL A   1      43.621  24.902  25.414  1.00  0.00    -0.203 F 
ATOM     85  F   UNL A   1      41.794  20.440  27.967  1.00  0.00    -0.200 F 
ATOM     86  C   UNL A   1      42.579  21.482  25.998  1.00  0.00     0.200 A 
ATOM     87  F   UNL A   1      43.380  22.569  24.062  1.00  0.00    -0.200 F 
ATOM     88  F   UNL A   1      42.493  20.323  25.332  1.00  0.00    -0.200 F 
ENDBRANCH  54  78
BRANCH  66  89
ATOM     89  C   UNL A   1      47.953  26.862  31.028  1.00  0.00     0.064 A 
ATOM     90  C   UNL A   1      49.052  27.230  30.239  1.00  0.00     0.173 A 
ATOM     91  C   UNL A   1      48.195  26.082  32.169  1.00  0.00     0.173 A 
ATOM     92  F   UNL A   1      48.871  27.963  29.129  1.00  0.00    -0.203 F 
ATOM     93  C   UNL A   1      50.339  26.810  30.564  1.00  0.00     0.198 A 
ATOM     94  C   UNL A   1      49.486  25.691  32.510  1.00  0.00     0.198 A 
ATOM     95  F   UNL A   1      47.179  25.709  32.963  1.00  0.00    -0.203 F 
ATOM     96  F   UNL A   1      51.368  27.131  29.768  1.00  0.00    -0.200 F 
ATOM     97  C   UNL A   1      50.556  26.048  31.702  1.00  0.00     0.200 A 
ATOM     98  F   UNL A   1      49.696  24.966  33.617  1.00  0.00    -0.200 F 
ATOM     99  F   UNL A   1      51.796  25.651  32.017  1.00  0.00    -0.200 F 
ENDBRANCH  66  89
ENDBRANCH  40  41
ENDBRANCH  32  35
ENDBRANCH  30  31
ENDBRANCH  29  30
ENDBRANCH  28  29
ENDBRANCH  27  28
ENDBRANCH  26  27
ENDBRANCH   1  26
TORSDOF 20
ENDMDL
MODEL 2
REMARK VINA RESULT:     -10.9      3.574      8.705
REMARK SMILES CN(CC(C)(C)O)C(=O)NC[C@@H](C(=O)NCCCCCCNC(=O)c1ccc(-c2c3nc(c(-c4c(F)c(F)c(F)c(F)c4F)c4ccc([nH]4)c(-c4c(F)c(F)c(F)c(F)c4F)c4nc(c(-c5c(F)c(F)c(F)c(F)c5F)c5ccc2[nH]5)C=C4)C=C3)cc1)c1ccccc1
REMARK SMILES IDX 16 1 15 2 13 3 14 4 12 6 11 7 10 8 8 9 9 10 2 12 1 13 3 14
REMARK SMILES IDX 4 15 5 16 6 17 7 18 88 20 89 21 93 22 90 23 92 24 91 25
REMARK SMILES IDX 17 26 18 27 19 28 20 29 21 30 22 31 23 32 24 34 25 35 26 36
REMARK SMILES IDX 87 37 27 38 86 39 28 40 29 41 30 42 80 43 31 44 85 45 79 46
REMARK SMILES IDX 81 47 32 48 84 49 78 50 77 51 33 53 65 54 45 55 64 56 46 57
REMARK SMILES IDX 49 58 63 59 82 60 47 61 48 62 62 64 83 65 50 66 34 67 35 68
REMARK SMILES IDX 43 69 36 70 37 71 41 72 44 73 38 74 39 75 42 76 40 77 66 78
REMARK SMILES IDX 67 79 75 80 68 81 69 82 73 83 76 84 70 85 71 86 74 87 72 88
REMARK SMILES IDX 51 89 52 90 60 91 53 92 54 93 58 94 61 95 55 96 56 97 59 98
REMARK SMILES IDX 57 99
REMARK H PARENT 15 5 10 11 7 19 22 33 81 52 49 63
REMARK Flexibility Score: inf
ROOT
ATOM      1  C   UNL A   1      33.391  27.815  24.382  1.00  0.00     0.116 C 
ENDROOT
BRANCH   1   2
ATOM      2  N   UNL A   1      32.890  27.331  23.108  1.00  0.00    -0.356 N 
ATOM      3  C   UNL A   1      31.645  26.858  22.789  1.00  0.00     0.229 C 
ATOM      4  O   UNL A   1      31.537  26.210  21.747  1.00  0.00    -0.274 OA
ATOM      5  H   UNL A   1      33.538  27.345  22.367  1.00  0.00     0.163 HD
BRANCH   3   6
ATOM      6  C   UNL A   1      30.448  27.183  23.695  1.00  0.00     0.128 C 
BRANCH   6   7
ATOM      7  C   UNL A   1      29.612  25.922  24.024  1.00  0.00     0.136 C 
BRANCH   7   8
ATOM      8  N   UNL A   1      29.936  25.273  25.293  1.00  0.00    -0.337 N 
ATOM      9  C   UNL A   1      30.895  24.541  25.872  1.00  0.00     0.317 C 
ATOM     10  O   UNL A   1      30.603  24.182  27.021  1.00  0.00    -0.249 OA
ATOM     11  H   UNL A   1      29.207  25.426  25.936  1.00  0.00     0.165 HD
BRANCH   9  12
ATOM     12  N   UNL A   1      32.084  24.196  25.306  1.00  0.00    -0.325 N 
ATOM     13  C   UNL A   1      33.270  24.551  26.086  1.00  0.00     0.148 C 
BRANCH  12  14
ATOM     14  C   UNL A   1      32.372  23.513  24.039  1.00  0.00     0.155 C 
BRANCH  14  15
ATOM     15  C   UNL A   1      32.707  21.999  24.147  1.00  0.00     0.077 C 
ATOM     16  C   UNL A   1      34.189  21.711  24.360  1.00  0.00     0.043 C 
ATOM     17  C   UNL A   1      31.897  21.401  25.307  1.00  0.00     0.043 C 
BRANCH  15  18
ATOM     18  O   UNL A   1      32.302  21.329  22.946  1.00  0.00    -0.389 OA
ATOM     19  H   UNL A   1      31.460  20.872  23.098  1.00  0.00     0.211 HD
ENDBRANCH  15  18
ENDBRANCH  14  15
ENDBRANCH  12  14
ENDBRANCH   9  12
ENDBRANCH   7   8
ENDBRANCH   6   7
BRANCH   6  20
ATOM     20  C   UNL A   1      29.618  28.335  23.106  1.00  0.00    -0.034 A 
ATOM     21  C   UNL A   1      28.226  28.354  23.312  1.00  0.00     0.004 A 
ATOM     22  C   UNL A   1      30.182  29.368  22.340  1.00  0.00     0.004 A 
ATOM     23  C   UNL A   1      27.422  29.323  22.705  1.00  0.00     0.000 A 
ATOM     24  C   UNL A   1      29.377  30.324  21.720  1.00  0.00     0.000 A 
ATOM     25  C   UNL A   1      27.996  30.294  21.891  1.00  0.00     0.000 A 
ENDBRANCH   6  20
ENDBRANCH   3   6
ENDBRANCH   1   2
BRANCH   1  26
ATOM     26  C   UNL A   1      33.165  29.323  24.481  1.00  0.00     0.021 C 
BRANCH  26  27
ATOM     27  C   UNL A   1      32.453  29.757  25.763  1.00  0.00     0.002 C 
BRANCH  27  28
ATOM     28  C   UNL A   1      31.264  30.695  25.540  1.00  0.00     0.002 C 
BRANCH  28  29
ATOM     29  C   UNL A   1      31.173  31.870  26.518  1.00  0.00     0.021 C 
BRANCH  29  30
ATOM     30  C   UNL A   1      32.516  32.445  26.956  1.00  0.00     0.116 C 
BRANCH  30  31
ATOM     31  N   UNL A   1      32.399  33.828  27.395  1.00  0.00    -0.352 N 
ATOM     32  C   UNL A   1      33.073  34.487  28.385  1.00  0.00     0.251 C 
ATOM     33  H   UNL A   1      31.736  34.368  26.907  1.00  0.00     0.163 HD
ATOM     34  O   UNL A   1      32.691  35.597  28.765  1.00  0.00    -0.269 OA
BRANCH  32  35
ATOM     35  C   UNL A   1      34.255  33.868  29.013  1.00  0.00     0.039 A 
ATOM     36  C   UNL A   1      35.525  34.357  28.697  1.00  0.00     0.014 A 
ATOM     37  C   UNL A   1      34.112  32.794  29.896  1.00  0.00     0.014 A 
ATOM     38  C   UNL A   1      36.650  33.802  29.308  1.00  0.00     0.010 A 
ATOM     39  C   UNL A   1      35.228  32.288  30.557  1.00  0.00     0.010 A 
ATOM     40  C   UNL A   1      36.507  32.783  30.263  1.00  0.00    -0.014 A 
BRANCH  40  41
ATOM     41  C   UNL A   1      37.689  32.216  30.960  1.00  0.00     0.031 A 
ATOM     42  C   UNL A   1      38.501  31.134  30.308  1.00  0.00     0.074 A 
ATOM     43  C   UNL A   1      37.991  32.637  32.203  1.00  0.00     0.049 A 
ATOM     44  N   UNL A   1      39.529  30.472  30.777  1.00  0.00    -0.248 NA
ATOM     45  C   UNL A   1      38.089  30.721  28.958  1.00  0.00     0.031 C 
ATOM     46  C   UNL A   1      37.249  33.649  32.956  1.00  0.00     0.029 A 
ATOM     47  N   UNL A   1      38.998  32.259  33.056  1.00  0.00    -0.354 N 
ATOM     48  C   UNL A   1      39.875  29.561  29.789  1.00  0.00     0.074 A 
ATOM     49  C   UNL A   1      38.917  29.715  28.715  1.00  0.00     0.031 C 
ATOM     50  C   UNL A   1      37.837  33.826  34.150  1.00  0.00     0.029 A 
ATOM     51  C   UNL A   1      38.973  32.917  34.261  1.00  0.00     0.049 A 
ATOM     52  H   UNL A   1      39.673  31.580  32.825  1.00  0.00     0.167 HD
ATOM     53  C   UNL A   1      40.913  28.691  29.768  1.00  0.00     0.037 A 
ATOM     54  C   UNL A   1      39.774  32.792  35.336  1.00  0.00     0.037 A 
ATOM     55  C   UNL A   1      41.875  28.555  30.831  1.00  0.00     0.049 A 
ATOM     56  C   UNL A   1      40.915  31.812  35.291  1.00  0.00     0.074 A 
ATOM     57  C   UNL A   1      42.994  27.744  30.884  1.00  0.00     0.029 A 
ATOM     58  N   UNL A   1      41.828  29.250  32.030  1.00  0.00    -0.354 N 
ATOM     59  N   UNL A   1      41.275  31.005  34.322  1.00  0.00    -0.248 NA
ATOM     60  C   UNL A   1      41.764  31.731  36.486  1.00  0.00     0.031 C 
ATOM     61  C   UNL A   1      43.597  27.912  32.134  1.00  0.00     0.029 A 
ATOM     62  C   UNL A   1      42.886  28.870  32.840  1.00  0.00     0.049 A 
ATOM     63  H   UNL A   1      41.143  29.917  32.271  1.00  0.00     0.167 HD
ATOM     64  C   UNL A   1      42.407  30.343  34.778  1.00  0.00     0.074 A 
ATOM     65  C   UNL A   1      42.684  30.855  36.104  1.00  0.00     0.031 C 
ATOM     66  C   UNL A   1      43.151  29.397  34.154  1.00  0.00     0.037 A 
BRANCH  53  67
ATOM     67  C   UNL A   1      41.064  27.819  28.555  1.00  0.00     0.064 A 
ATOM     68  C   UNL A   1      40.369  26.607  28.428  1.00  0.00     0.173 A 
ATOM     69  C   UNL A   1      41.885  28.217  27.489  1.00  0.00     0.173 A 
ATOM     70  F   UNL A   1      39.580  26.174  29.423  1.00  0.00    -0.203 F 
ATOM     71  C   UNL A   1      40.514  25.812  27.294  1.00  0.00     0.198 A 
ATOM     72  C   UNL A   1      42.003  27.435  26.343  1.00  0.00     0.198 A 
ATOM     73  F   UNL A   1      42.568  29.370  27.555  1.00  0.00    -0.203 F 
ATOM     74  F   UNL A   1      39.879  24.634  27.218  1.00  0.00    -0.200 F 
ATOM     75  C   UNL A   1      41.324  26.231  26.250  1.00  0.00     0.200 A 
ATOM     76  F   UNL A   1      42.775  27.848  25.328  1.00  0.00    -0.200 F 
ATOM     77  F   UNL A   1      41.455  25.468  25.155  1.00  0.00    -0.200 F 
ENDBRANCH  53  67
BRANCH  54  78
ATOM     78  C   UNL A   1      39.542  33.637  36.536  1.00  0.00     0.064 A 
ATOM     79  C   UNL A   1      40.088  34.925  36.626  1.00  0.00     0.173 A 
ATOM     80  C   UNL A   1      38.778  33.175  37.619  1.00  0.00     0.173 A 
ATOM     81  F   UNL A   1      40.842  35.403  35.626  1.00  0.00    -0.203 F 
ATOM     82  C   UNL A   1      39.900  35.710  37.762  1.00  0.00     0.198 A 
ATOM     83  C   UNL A   1      38.567  33.972  38.742  1.00  0.00     0.198 A 
ATOM     84  F   UNL A   1      38.229  31.952  37.581  1.00  0.00    -0.203 F 
ATOM     85  F   UNL A   1      40.474  36.918  37.841  1.00  0.00    -0.200 F 
ATOM     86  C   UNL A   1      39.134  35.235  38.817  1.00  0.00     0.200 A 
ATOM     87  F   UNL A   1      37.814  33.516  39.753  1.00  0.00    -0.200 F 
ATOM     88  F   UNL A   1      38.951  35.991  39.907  1.00  0.00    -0.200 F 
ENDBRANCH  54  78
BRANCH  66  89
ATOM     89  C   UNL A   1      44.359  28.882  34.883  1.00  0.00     0.064 A 
ATOM     90  C   UNL A   1      45.606  29.515  34.783  1.00  0.00     0.173 A 
ATOM     91  C   UNL A   1      44.255  27.761  35.721  1.00  0.00     0.173 A 
ATOM     92  F   UNL A   1      45.760  30.581  33.982  1.00  0.00    -0.203 F 
ATOM     93  C   UNL A   1      46.713  29.028  35.474  1.00  0.00     0.198 A 
ATOM     94  C   UNL A   1      45.356  27.296  36.435  1.00  0.00     0.198 A 
ATOM     95  F   UNL A   1      43.083  27.123  35.857  1.00  0.00    -0.203 F 
ATOM     96  F   UNL A   1      47.906  29.618  35.324  1.00  0.00    -0.200 F 
ATOM     97  C   UNL A   1      46.585  27.925  36.304  1.00  0.00     0.200 A 
ATOM     98  F   UNL A   1      45.228  26.239  37.248  1.00  0.00    -0.200 F 
ATOM     99  F   UNL A   1      47.650  27.463  36.973  1.00  0.00    -0.200 F 
ENDBRANCH  66  89
ENDBRANCH  40  41
ENDBRANCH  32  35
ENDBRANCH  30  31
ENDBRANCH  29  30
ENDBRANCH  28  29
ENDBRANCH  27  28
ENDBRANCH  26  27
ENDBRANCH   1  26
TORSDOF 20
ENDMDL
MODEL 3
REMARK VINA RESULT:     -10.9      3.706      8.914
REMARK SMILES CN(CC(C)(C)O)C(=O)NC[C@@H](C(=O)NCCCCCCNC(=O)c1ccc(-c2c3nc(c(-c4c(F)c(F)c(F)c(F)c4F)c4ccc([nH]4)c(-c4c(F)c(F)c(F)c(F)c4F)c4nc(c(-c5c(F)c(F)c(F)c(F)c5F)c5ccc2[nH]5)C=C4)C=C3)cc1)c1ccccc1
REMARK SMILES IDX 16 1 15 2 13 3 14 4 12 6 11 7 10 8 8 9 9 10 2 12 1 13 3 14
REMARK SMILES IDX 4 15 5 16 6 17 7 18 88 20 89 21 93 22 90 23 92 24 91 25
REMARK SMILES IDX 17 26 18 27 19 28 20 29 21 30 22 31 23 32 24 34 25 35 26 36
REMARK SMILES IDX 87 37 27 38 86 39 28 40 29 41 30 42 80 43 31 44 85 45 79 46
REMARK SMILES IDX 81 47 32 48 84 49 78 50 77 51 33 53 65 54 45 55 64 56 46 57
REMARK SMILES IDX 49 58 63 59 82 60 47 61 48 62 62 64 83 65 50 66 34 67 35 68
REMARK SMILES IDX 43 69 36 70 37 71 41 72 44 73 38 74 39 75 42 76 40 77 66 78
REMARK SMILES IDX 67 79 75 80 68 81 69 82 73 83 76 84 70 85 71 86 74 87 72 88
REMARK SMILES IDX 51 89 52 90 60 91 53 92 54 93 58 94 61 95 55 96 56 97 59 98
REMARK SMILES IDX 57 99
REMARK H PARENT 15 5 10 11 7 19 22 33 81 52 49 63
REMARK Flexibility Score: inf
ROOT
ATOM      1  C   UNL A   1      33.489  27.969  25.575  1.00  0.00     0.116 C 
ENDROOT
BRANCH   1   2
ATOM      2  N   UNL A   1      33.611  28.074  24.132  1.00  0.00    -0.356 N 
ATOM      3  C   UNL A   1      32.857  27.486  23.152  1.00  0.00     0.229 C 
ATOM      4  O   UNL A   1      33.329  27.456  22.015  1.00  0.00    -0.274 OA
ATOM      5  H   UNL A   1      34.341  28.652  23.811  1.00  0.00     0.163 HD
BRANCH   3   6
ATOM      6  C   UNL A   1      31.461  26.938  23.487  1.00  0.00     0.128 C 
BRANCH   6   7
ATOM      7  C   UNL A   1      31.228  25.535  22.875  1.00  0.00     0.136 C 
BRANCH   7   8
ATOM      8  N   UNL A   1      32.438  24.828  22.459  1.00  0.00    -0.337 N 
ATOM      9  C   UNL A   1      33.225  23.810  22.825  1.00  0.00     0.317 C 
ATOM     10  O   UNL A   1      34.220  23.681  22.097  1.00  0.00    -0.249 OA
ATOM     11  H   UNL A   1      32.791  25.236  21.635  1.00  0.00     0.165 HD
BRANCH   9  12
ATOM     12  N   UNL A   1      33.006  22.972  23.875  1.00  0.00    -0.325 N 
ATOM     13  C   UNL A   1      33.930  21.841  23.973  1.00  0.00     0.148 C 
BRANCH  12  14
ATOM     14  C   UNL A   1      31.996  23.025  24.939  1.00  0.00     0.155 C 
BRANCH  14  15
ATOM     15  C   UNL A   1      32.394  23.820  26.213  1.00  0.00     0.077 C 
ATOM     16  C   UNL A   1      31.419  24.935  26.572  1.00  0.00     0.043 C 
ATOM     17  C   UNL A   1      32.504  22.837  27.388  1.00  0.00     0.043 C 
BRANCH  15  18
ATOM     18  O   UNL A   1      33.685  24.415  26.026  1.00  0.00    -0.389 OA
ATOM     19  H   UNL A   1      34.057  24.122  25.180  1.00  0.00     0.211 HD
ENDBRANCH  15  18
ENDBRANCH  14  15
ENDBRANCH  12  14
ENDBRANCH   9  12
ENDBRANCH   7   8
ENDBRANCH   6   7
BRANCH   6  20
ATOM     20  C   UNL A   1      30.373  27.959  23.117  1.00  0.00    -0.034 A 
ATOM     21  C   UNL A   1      29.022  27.637  23.345  1.00  0.00     0.004 A 
ATOM     22  C   UNL A   1      30.661  29.203  22.532  1.00  0.00     0.004 A 
ATOM     23  C   UNL A   1      27.998  28.490  22.925  1.00  0.00     0.000 A 
ATOM     24  C   UNL A   1      29.638  30.046  22.097  1.00  0.00     0.000 A 
ATOM     25  C   UNL A   1      28.307  29.685  22.281  1.00  0.00     0.000 A 
ENDBRANCH   6  20
ENDBRANCH   3   6
ENDBRANCH   1   2
BRANCH   1  26
ATOM     26  C   UNL A   1      33.547  29.365  26.195  1.00  0.00     0.021 C 
BRANCH  26  27
ATOM     27  C   UNL A   1      32.213  29.837  26.775  1.00  0.00     0.002 C 
BRANCH  27  28
ATOM     28  C   UNL A   1      31.467  30.850  25.904  1.00  0.00     0.002 C 
BRANCH  28  29
ATOM     29  C   UNL A   1      31.278  32.233  26.534  1.00  0.00     0.021 C 
BRANCH  29  30
ATOM     30  C   UNL A   1      32.503  32.778  27.261  1.00  0.00     0.116 C 
BRANCH  30  31
ATOM     31  N   UNL A   1      32.355  34.187  27.596  1.00  0.00    -0.352 N 
ATOM     32  C   UNL A   1      32.984  34.924  28.561  1.00  0.00     0.251 C 
ATOM     33  H   UNL A   1      31.704  34.683  27.048  1.00  0.00     0.163 HD
ATOM     34  O   UNL A   1      32.576  36.053  28.847  1.00  0.00    -0.269 OA
BRANCH  32  35
ATOM     35  C   UNL A   1      34.149  34.367  29.273  1.00  0.00     0.039 A 
ATOM     36  C   UNL A   1      33.949  33.704  30.486  1.00  0.00     0.014 A 
ATOM     37  C   UNL A   1      35.439  34.514  28.755  1.00  0.00     0.014 A 
ATOM     38  C   UNL A   1      35.038  33.143  31.155  1.00  0.00     0.010 A 
ATOM     39  C   UNL A   1      36.514  33.895  29.386  1.00  0.00     0.010 A 
ATOM     40  C   UNL A   1      36.324  33.211  30.595  1.00  0.00    -0.014 A 
BRANCH  40  41
ATOM     41  C   UNL A   1      37.485  32.577  31.267  1.00  0.00     0.031 A 
ATOM     42  C   UNL A   1      38.221  31.451  30.598  1.00  0.00     0.074 A 
ATOM     43  C   UNL A   1      37.837  32.979  32.504  1.00  0.00     0.049 A 
ATOM     44  N   UNL A   1      39.219  30.731  31.046  1.00  0.00    -0.248 NA
ATOM     45  C   UNL A   1      37.758  31.064  29.257  1.00  0.00     0.031 C 
ATOM     46  C   UNL A   1      37.169  34.030  33.273  1.00  0.00     0.029 A 
ATOM     47  N   UNL A   1      38.838  32.542  33.335  1.00  0.00    -0.354 N 
ATOM     48  C   UNL A   1      39.492  29.803  30.050  1.00  0.00     0.074 A 
ATOM     49  C   UNL A   1      38.522  30.014  28.997  1.00  0.00     0.031 C 
ATOM     50  C   UNL A   1      37.792  34.172  34.454  1.00  0.00     0.029 A 
ATOM     51  C   UNL A   1      38.876  33.199  34.541  1.00  0.00     0.049 A 
ATOM     52  H   UNL A   1      39.469  31.826  33.091  1.00  0.00     0.167 HD
ATOM     53  C   UNL A   1      40.478  28.875  30.008  1.00  0.00     0.037 A 
ATOM     54  C   UNL A   1      39.690  33.027  35.600  1.00  0.00     0.037 A 
ATOM     55  C   UNL A   1      41.452  28.684  31.051  1.00  0.00     0.049 A 
ATOM     56  C   UNL A   1      40.772  31.983  35.530  1.00  0.00     0.074 A 
ATOM     57  C   UNL A   1      42.524  27.810  31.080  1.00  0.00     0.029 A 
ATOM     58  N   UNL A   1      41.470  29.379  32.251  1.00  0.00    -0.354 N 
ATOM     59  N   UNL A   1      41.065  31.158  34.555  1.00  0.00    -0.248 NA
ATOM     60  C   UNL A   1      41.640  31.852  36.707  1.00  0.00     0.031 C 
ATOM     61  C   UNL A   1      43.162  27.942  32.318  1.00  0.00     0.029 A 
ATOM     62  C   UNL A   1      42.521  28.937  33.038  1.00  0.00     0.049 A 
ATOM     63  H   UNL A   1      40.829  30.083  32.506  1.00  0.00     0.167 HD
ATOM     64  C   UNL A   1      42.167  30.433  34.986  1.00  0.00     0.074 A 
ATOM     65  C   UNL A   1      42.500  30.926  36.307  1.00  0.00     0.031 C 
ATOM     66  C   UNL A   1      42.843  29.447  34.347  1.00  0.00     0.037 A 
BRANCH  53  67
ATOM     67  C   UNL A   1      40.554  27.998  28.792  1.00  0.00     0.064 A 
ATOM     68  C   UNL A   1      39.856  26.784  28.715  1.00  0.00     0.173 A 
ATOM     69  C   UNL A   1      41.304  28.394  27.674  1.00  0.00     0.173 A 
ATOM     70  F   UNL A   1      39.133  26.354  29.761  1.00  0.00    -0.203 F 
ATOM     71  C   UNL A   1      39.930  25.983  27.578  1.00  0.00     0.198 A 
ATOM     72  C   UNL A   1      41.351  27.606  26.526  1.00  0.00     0.198 A 
ATOM     73  F   UNL A   1      41.986  29.549  27.690  1.00  0.00    -0.203 F 
ATOM     74  F   UNL A   1      39.296  24.804  27.548  1.00  0.00    -0.200 F 
ATOM     75  C   UNL A   1      40.671  26.399  26.482  1.00  0.00     0.200 A 
ATOM     76  F   UNL A   1      42.055  28.016  25.462  1.00  0.00    -0.200 F 
ATOM     77  F   UNL A   1      40.734  25.632  25.385  1.00  0.00    -0.200 F 
ENDBRANCH  53  67
BRANCH  54  78
ATOM     78  C   UNL A   1      39.531  33.882  36.805  1.00  0.00     0.064 A 
ATOM     79  C   UNL A   1      38.790  33.438  37.909  1.00  0.00     0.173 A 
ATOM     80  C   UNL A   1      40.108  35.159  36.877  1.00  0.00     0.173 A 
ATOM     81  F   UNL A   1      38.203  32.232  37.880  1.00  0.00    -0.203 F 
ATOM     82  C   UNL A   1      38.612  34.247  39.029  1.00  0.00     0.198 A 
ATOM     83  C   UNL A   1      39.952  35.955  38.009  1.00  0.00     0.198 A 
ATOM     84  F   UNL A   1      40.830  35.629  35.850  1.00  0.00    -0.203 F 
ATOM     85  F   UNL A   1      37.858  33.817  40.050  1.00  0.00    -0.200 F 
ATOM     86  C   UNL A   1      39.198  35.503  39.081  1.00  0.00     0.200 A 
ATOM     87  F   UNL A   1      40.533  37.162  38.062  1.00  0.00    -0.200 F 
ATOM     88  F   UNL A   1      39.028  36.280  40.159  1.00  0.00    -0.200 F 
ENDBRANCH  54  78
BRANCH  66  89
ATOM     89  C   UNL A   1      44.034  28.863  35.050  1.00  0.00     0.064 A 
ATOM     90  C   UNL A   1      43.916  27.764  35.913  1.00  0.00     0.173 A 
ATOM     91  C   UNL A   1      45.316  29.389  34.828  1.00  0.00     0.173 A 
ATOM     92  F   UNL A   1      42.710  27.234  36.171  1.00  0.00    -0.203 F 
ATOM     93  C   UNL A   1      45.034  27.230  36.549  1.00  0.00     0.198 A 
ATOM     94  C   UNL A   1      46.435  28.833  35.440  1.00  0.00     0.198 A 
ATOM     95  F   UNL A   1      45.485  30.436  34.005  1.00  0.00    -0.203 F 
ATOM     96  F   UNL A   1      44.891  26.212  37.408  1.00  0.00    -0.200 F 
ATOM     97  C   UNL A   1      46.292  27.760  36.306  1.00  0.00     0.200 A 
ATOM     98  F   UNL A   1      47.652  29.337  35.194  1.00  0.00    -0.200 F 
ATOM     99  F   UNL A   1      47.367  27.240  36.914  1.00  0.00    -0.200 F 
ENDBRANCH  66  89
ENDBRANCH  40  41
ENDBRANCH  32  35
ENDBRANCH  30  31
ENDBRANCH  29  30
ENDBRANCH  28  29
ENDBRANCH  27  28
ENDBRANCH  26  27
ENDBRANCH   1  26
TORSDOF 20
ENDMDL
