MODEL 1
REMARK VINA RESULT:      -9.2      0.000      0.000
REMARK SMILES COc1cc(/C=N/NC(=O)c2cc(Cl)ccc2O)ccc1OCC(=O)NCCCCCCNC(=O)c1ccc(-c2c3nc(c(-c4c(F)c(F)c(F)c(F)c4F)c4ccc([nH]4)c(-c4c(F)c(F)c(F)c(F)c4F)c4nc(c(-c5c(F)c(F)c(F)c(F)c5F)c5ccc2[nH]5)C=C4)C=C3)cc1
REMARK SMILES IDX 27 1 26 2 24 3 25 4 23 6 22 7 21 8 3 9 4 10 5 11 20 12 19 13
REMARK SMILES IDX 2 14 1 15 6 16 7 17 8 18 9 19 10 21 11 22 12 23 17 24 13 25
REMARK SMILES IDX 16 26 14 27 15 28 18 29 28 31 29 32 30 33 31 34 32 35 33 36
REMARK SMILES IDX 34 37 35 39 36 40 37 41 98 42 38 43 97 44 39 45 40 46 41 47
REMARK SMILES IDX 91 48 42 49 96 50 90 51 92 52 43 53 95 54 89 55 88 56 44 58
REMARK SMILES IDX 76 59 56 60 75 61 57 62 60 63 74 64 93 65 58 66 59 67 73 69
REMARK SMILES IDX 94 70 61 71 45 72 46 73 54 74 47 75 48 76 52 77 55 78 49 79
REMARK SMILES IDX 50 80 53 81 51 82 77 83 78 84 86 85 79 86 80 87 84 88 87 89
REMARK SMILES IDX 81 90 82 91 85 92 83 93 62 94 63 95 71 96 64 97 65 98 69 99
REMARK SMILES IDX 72 100 66 101 67 102 70 103 68 104
REMARK H PARENT 26 5 8 20 18 30 33 38 92 57 60 68
REMARK Flexibility Score: inf
ROOT
ATOM      1  C   UNL A   1      40.692  34.800  29.368  1.00  0.00     0.116 C 
ENDROOT
BRANCH   1   2
ATOM      2  N   UNL A   1      41.219  35.694  28.363  1.00  0.00    -0.353 N 
ATOM      3  C   UNL A   1      42.363  35.566  27.630  1.00  0.00     0.257 C 
ATOM      4  O   UNL A   1      42.495  36.295  26.644  1.00  0.00    -0.271 OA
ATOM      5  H   UNL A   1      40.684  36.500  28.183  1.00  0.00     0.163 HD
BRANCH   3   6
ATOM      6  C   UNL A   1      43.397  34.490  27.995  1.00  0.00     0.329 C 
BRANCH   6   7
ATOM      7  O   UNL A   1      44.390  34.143  27.044  1.00  0.00    -0.480 OA
BRANCH   7   8
ATOM      8  C   UNL A   1      44.803  32.845  26.932  1.00  0.00     0.161 A 
ATOM      9  C   UNL A   1      46.054  32.366  26.520  1.00  0.00     0.161 A 
ATOM     10  C   UNL A   1      46.278  30.986  26.420  1.00  0.00     0.060 A 
ATOM     11  C   UNL A   1      45.263  30.086  26.760  1.00  0.00    -0.002 A 
ATOM     12  C   UNL A   1      43.792  31.925  27.246  1.00  0.00     0.051 A 
ATOM     13  C   UNL A   1      44.019  30.550  27.181  1.00  0.00     0.014 A 
BRANCH   9  14
ATOM     14  O   UNL A   1      47.004  33.242  26.071  1.00  0.00    -0.493 OA
ATOM     15  C   UNL A   1      48.275  33.070  26.703  1.00  0.00     0.278 C 
ENDBRANCH   9  14
BRANCH  11  16
ATOM     16  C   UNL A   1      45.432  28.633  26.575  1.00  0.00     0.141 C 
ATOM     17  N   UNL A   1      45.643  28.130  25.397  1.00  0.00    -0.180 NA
BRANCH  17  18
ATOM     18  N   UNL A   1      45.631  26.770  25.273  1.00  0.00    -0.243 N 
ATOM     19  C   UNL A   1      46.657  25.906  24.920  1.00  0.00     0.275 C 
ATOM     20  H   UNL A   1      44.766  26.339  25.459  1.00  0.00     0.194 HD
ATOM     21  O   UNL A   1      46.435  24.701  24.803  1.00  0.00    -0.267 OA
BRANCH  19  22
ATOM     22  C   UNL A   1      48.030  26.405  24.677  1.00  0.00     0.084 A 
ATOM     23  C   UNL A   1      49.041  25.897  25.505  1.00  0.00     0.038 A 
ATOM     24  C   UNL A   1      48.357  27.340  23.686  1.00  0.00     0.128 A 
ATOM     25  C   UNL A   1      50.365  26.270  25.291  1.00  0.00     0.042 A 
ATOM     26  C   UNL A   1      49.685  27.709  23.478  1.00  0.00     0.048 A 
ATOM     27  Cl  UNL A   1      51.608  25.606  26.278  1.00  0.00    -0.084 Cl
ATOM     28  C   UNL A   1      50.695  27.161  24.271  1.00  0.00     0.024 A 
BRANCH  24  29
ATOM     29  O   UNL A   1      47.438  27.930  22.864  1.00  0.00    -0.507 OA
ATOM     30  H   UNL A   1      47.240  27.548  22.032  1.00  0.00     0.293 HD
ENDBRANCH  24  29
ENDBRANCH  19  22
ENDBRANCH  17  18
ENDBRANCH  11  16
ENDBRANCH   7   8
ENDBRANCH   6   7
ENDBRANCH   3   6
ENDBRANCH   1   2
BRANCH   1  31
ATOM     31  C   UNL A   1      39.178  34.916  29.523  1.00  0.00     0.021 C 
BRANCH  31  32
ATOM     32  C   UNL A   1      38.379  33.653  29.179  1.00  0.00     0.002 C 
BRANCH  32  33
ATOM     33  C   UNL A   1      37.466  33.114  30.285  1.00  0.00     0.002 C 
BRANCH  33  34
ATOM     34  C   UNL A   1      35.967  33.203  30.006  1.00  0.00     0.021 C 
BRANCH  34  35
ATOM     35  C   UNL A   1      35.575  33.034  28.545  1.00  0.00     0.116 C 
BRANCH  35  36
ATOM     36  N   UNL A   1      34.621  31.957  28.348  1.00  0.00    -0.352 N 
ATOM     37  C   UNL A   1      34.857  30.615  28.188  1.00  0.00     0.251 C 
ATOM     38  H   UNL A   1      33.674  32.226  28.326  1.00  0.00     0.163 HD
ATOM     39  O   UNL A   1      33.948  29.859  27.854  1.00  0.00    -0.269 OA
BRANCH  37  40
ATOM     40  C   UNL A   1      36.220  30.079  28.394  1.00  0.00     0.039 A 
ATOM     41  C   UNL A   1      37.147  30.170  27.353  1.00  0.00     0.014 A 
ATOM     42  C   UNL A   1      36.585  29.503  29.614  1.00  0.00     0.014 A 
ATOM     43  C   UNL A   1      38.457  29.734  27.557  1.00  0.00     0.010 A 
ATOM     44  C   UNL A   1      37.911  29.148  29.842  1.00  0.00     0.010 A 
ATOM     45  C   UNL A   1      38.859  29.252  28.814  1.00  0.00    -0.014 A 
BRANCH  45  46
ATOM     46  C   UNL A   1      40.264  28.845  29.069  1.00  0.00     0.031 A 
ATOM     47  C   UNL A   1      41.196  29.765  29.806  1.00  0.00     0.074 A 
ATOM     48  C   UNL A   1      40.717  27.671  28.588  1.00  0.00     0.049 A 
ATOM     49  N   UNL A   1      42.464  29.609  30.090  1.00  0.00    -0.248 NA
ATOM     50  C   UNL A   1      40.633  31.046  30.260  1.00  0.00     0.031 C 
ATOM     51  C   UNL A   1      39.921  26.707  27.826  1.00  0.00     0.029 A 
ATOM     52  N   UNL A   1      41.957  27.089  28.668  1.00  0.00    -0.354 N 
ATOM     53  C   UNL A   1      42.851  30.773  30.743  1.00  0.00     0.074 A 
ATOM     54  C   UNL A   1      41.702  31.652  30.751  1.00  0.00     0.031 C 
ATOM     55  C   UNL A   1      40.681  25.637  27.544  1.00  0.00     0.029 A 
ATOM     56  C   UNL A   1      42.027  25.856  28.065  1.00  0.00     0.049 A 
ATOM     57  H   UNL A   1      42.723  27.514  29.115  1.00  0.00     0.167 HD
ATOM     58  C   UNL A   1      44.045  31.070  31.308  1.00  0.00     0.037 A 
ATOM     59  C   UNL A   1      43.061  25.003  27.948  1.00  0.00     0.037 A 
ATOM     60  C   UNL A   1      45.183  30.187  31.304  1.00  0.00     0.049 A 
ATOM     61  C   UNL A   1      44.391  25.375  28.545  1.00  0.00     0.074 A 
ATOM     62  C   UNL A   1      46.421  30.369  31.891  1.00  0.00     0.029 A 
ATOM     63  N   UNL A   1      45.222  28.955  30.664  1.00  0.00    -0.354 N 
ATOM     64  N   UNL A   1      44.726  26.444  29.224  1.00  0.00    -0.248 NA
ATOM     65  C   UNL A   1      45.488  24.415  28.356  1.00  0.00     0.031 C 
ATOM     66  C   UNL A   1      47.230  29.278  31.555  1.00  0.00     0.029 A 
ATOM     67  C   UNL A   1      46.476  28.382  30.815  1.00  0.00     0.049 A 
ATOM     68  H   UNL A   1      44.471  28.548  30.177  1.00  0.00     0.167 HD
ATOM     69  C   UNL A   1      46.058  26.271  29.578  1.00  0.00     0.074 A 
ATOM     70  C   UNL A   1      46.466  24.988  29.044  1.00  0.00     0.031 C 
ATOM     71  C   UNL A   1      46.868  27.099  30.283  1.00  0.00     0.037 A 
BRANCH  58  72
ATOM     72  C   UNL A   1      44.179  32.417  31.965  1.00  0.00     0.064 A 
ATOM     73  C   UNL A   1      44.832  33.488  31.333  1.00  0.00     0.173 A 
ATOM     74  C   UNL A   1      43.651  32.641  33.246  1.00  0.00     0.173 A 
ATOM     75  F   UNL A   1      45.365  33.328  30.111  1.00  0.00    -0.203 F 
ATOM     76  C   UNL A   1      44.999  34.710  31.978  1.00  0.00     0.198 A 
ATOM     77  C   UNL A   1      43.784  33.878  33.872  1.00  0.00     0.198 A 
ATOM     78  F   UNL A   1      43.009  31.659  33.895  1.00  0.00    -0.203 F 
ATOM     79  F   UNL A   1      45.695  35.690  31.385  1.00  0.00    -0.200 F 
ATOM     80  C   UNL A   1      44.471  34.906  33.245  1.00  0.00     0.200 A 
ATOM     81  F   UNL A   1      43.260  34.070  35.090  1.00  0.00    -0.200 F 
ATOM     82  F   UNL A   1      44.636  36.082  33.867  1.00  0.00    -0.200 F 
ENDBRANCH  58  72
BRANCH  59  83
ATOM     83  C   UNL A   1      42.866  23.690  27.278  1.00  0.00     0.064 A 
ATOM     84  C   UNL A   1      43.169  23.532  25.918  1.00  0.00     0.173 A 
ATOM     85  C   UNL A   1      42.381  22.573  27.972  1.00  0.00     0.173 A 
ATOM     86  F   UNL A   1      43.617  24.576  25.206  1.00  0.00    -0.203 F 
ATOM     87  C   UNL A   1      42.980  22.311  25.275  1.00  0.00     0.198 A 
ATOM     88  C   UNL A   1      42.220  21.344  27.335  1.00  0.00     0.198 A 
ATOM     89  F   UNL A   1      42.079  22.670  29.275  1.00  0.00    -0.203 F 
ATOM     90  F   UNL A   1      43.239  22.199  23.965  1.00  0.00    -0.200 F 
ATOM     91  C   UNL A   1      42.512  21.216  25.985  1.00  0.00     0.200 A 
ATOM     92  F   UNL A   1      41.782  20.284  28.029  1.00  0.00    -0.200 F 
ATOM     93  F   UNL A   1      42.337  20.040  25.368  1.00  0.00    -0.200 F 
ENDBRANCH  59  83
BRANCH  71  94
ATOM     94  C   UNL A   1      48.267  26.625  30.560  1.00  0.00     0.064 A 
ATOM     95  C   UNL A   1      49.339  26.946  29.714  1.00  0.00     0.173 A 
ATOM     96  C   UNL A   1      48.543  25.866  31.708  1.00  0.00     0.173 A 
ATOM     97  F   UNL A   1      49.129  27.657  28.596  1.00  0.00    -0.203 F 
ATOM     98  C   UNL A   1      50.630  26.500  29.992  1.00  0.00     0.198 A 
ATOM     99  C   UNL A   1      49.839  25.452  32.001  1.00  0.00     0.198 A 
ATOM    100  F   UNL A   1      47.555  25.536  32.553  1.00  0.00    -0.203 F 
ATOM    101  F   UNL A   1      51.628  26.772  29.141  1.00  0.00    -0.200 F 
ATOM    102  C   UNL A   1      50.880  25.761  31.139  1.00  0.00     0.200 A 
ATOM    103  F   UNL A   1      50.080  24.753  33.119  1.00  0.00    -0.200 F 
ATOM    104  F   UNL A   1      52.123  25.339  31.409  1.00  0.00    -0.200 F 
ENDBRANCH  71  94
ENDBRANCH  45  46
ENDBRANCH  37  40
ENDBRANCH  35  36
ENDBRANCH  34  35
ENDBRANCH  33  34
ENDBRANCH  32  33
ENDBRANCH  31  32
ENDBRANCH   1  31
TORSDOF 20
ENDMDL
MODEL 2
REMARK VINA RESULT:      -8.9      5.503     12.298
REMARK SMILES COc1cc(/C=N/NC(=O)c2cc(Cl)ccc2O)ccc1OCC(=O)NCCCCCCNC(=O)c1ccc(-c2c3nc(c(-c4c(F)c(F)c(F)c(F)c4F)c4ccc([nH]4)c(-c4c(F)c(F)c(F)c(F)c4F)c4nc(c(-c5c(F)c(F)c(F)c(F)c5F)c5ccc2[nH]5)C=C4)C=C3)cc1
REMARK SMILES IDX 27 1 26 2 24 3 25 4 23 6 22 7 21 8 3 9 4 10 5 11 20 12 19 13
REMARK SMILES IDX 2 14 1 15 6 16 7 17 8 18 9 19 10 21 11 22 12 23 17 24 13 25
REMARK SMILES IDX 16 26 14 27 15 28 18 29 28 31 29 32 30 33 31 34 32 35 33 36
REMARK SMILES IDX 34 37 35 39 36 40 37 41 98 42 38 43 97 44 39 45 40 46 41 47
REMARK SMILES IDX 91 48 42 49 96 50 90 51 92 52 43 53 95 54 89 55 88 56 44 58
REMARK SMILES IDX 76 59 56 60 75 61 57 62 60 63 74 64 93 65 58 66 59 67 73 69
REMARK SMILES IDX 94 70 61 71 45 72 46 73 54 74 47 75 48 76 52 77 55 78 49 79
REMARK SMILES IDX 50 80 53 81 51 82 77 83 78 84 86 85 79 86 80 87 84 88 87 89
REMARK SMILES IDX 81 90 82 91 85 92 83 93 62 94 63 95 71 96 64 97 65 98 69 99
REMARK SMILES IDX 72 100 66 101 67 102 70 103 68 104
REMARK H PARENT 26 5 8 20 18 30 33 38 92 57 60 68
REMARK Flexibility Score: inf
ROOT
ATOM      1  C   UNL A   1      34.193  21.488  26.634  1.00  0.00     0.116 C 
ENDROOT
BRANCH   1   2
ATOM      2  N   UNL A   1      33.603  20.173  26.729  1.00  0.00    -0.353 N 
ATOM      3  C   UNL A   1      32.833  19.521  25.810  1.00  0.00     0.257 C 
ATOM      4  O   UNL A   1      32.653  18.312  25.971  1.00  0.00    -0.271 OA
ATOM      5  H   UNL A   1      33.779  19.683  27.564  1.00  0.00     0.163 HD
BRANCH   3   6
ATOM      6  C   UNL A   1      32.287  20.273  24.587  1.00  0.00     0.329 C 
BRANCH   6   7
ATOM      7  O   UNL A   1      31.236  21.207  24.769  1.00  0.00    -0.480 OA
BRANCH   7   8
ATOM      8  C   UNL A   1      31.525  22.529  24.965  1.00  0.00     0.161 A 
ATOM      9  C   UNL A   1      32.341  23.361  24.187  1.00  0.00     0.161 A 
ATOM     10  C   UNL A   1      32.560  24.691  24.576  1.00  0.00     0.060 A 
ATOM     11  C   UNL A   1      31.940  25.195  25.723  1.00  0.00    -0.002 A 
ATOM     12  C   UNL A   1      30.931  23.049  26.124  1.00  0.00     0.051 A 
ATOM     13  C   UNL A   1      31.117  24.380  26.498  1.00  0.00     0.014 A 
BRANCH   9  14
ATOM     14  O   UNL A   1      33.044  22.838  23.136  1.00  0.00    -0.493 OA
ATOM     15  C   UNL A   1      34.378  23.341  23.041  1.00  0.00     0.278 C 
ENDBRANCH   9  14
BRANCH  11  16
ATOM     16  C   UNL A   1      32.223  26.557  26.213  1.00  0.00     0.141 C 
ATOM     17  N   UNL A   1      31.307  27.476  26.192  1.00  0.00    -0.180 NA
BRANCH  17  18
ATOM     18  N   UNL A   1      31.677  28.753  26.508  1.00  0.00    -0.243 N 
ATOM     19  C   UNL A   1      31.545  29.920  25.771  1.00  0.00     0.275 C 
ATOM     20  H   UNL A   1      32.102  28.860  27.390  1.00  0.00     0.194 HD
ATOM     21  O   UNL A   1      31.997  30.978  26.206  1.00  0.00    -0.267 OA
BRANCH  19  22
ATOM     22  C   UNL A   1      30.864  29.922  24.456  1.00  0.00     0.084 A 
ATOM     23  C   UNL A   1      29.734  30.742  24.334  1.00  0.00     0.038 A 
ATOM     24  C   UNL A   1      31.283  29.161  23.357  1.00  0.00     0.128 A 
ATOM     25  C   UNL A   1      29.082  30.847  23.108  1.00  0.00     0.042 A 
ATOM     26  C   UNL A   1      30.625  29.270  22.133  1.00  0.00     0.048 A 
ATOM     27  Cl  UNL A   1      27.725  31.893  22.949  1.00  0.00    -0.084 Cl
ATOM     28  C   UNL A   1      29.532  30.127  22.002  1.00  0.00     0.024 A 
BRANCH  24  29
ATOM     29  O   UNL A   1      32.340  28.294  23.392  1.00  0.00    -0.507 OA
ATOM     30  H   UNL A   1      32.957  28.335  24.097  1.00  0.00     0.293 HD
ENDBRANCH  24  29
ENDBRANCH  19  22
ENDBRANCH  17  18
ENDBRANCH  11  16
ENDBRANCH   7   8
ENDBRANCH   6   7
ENDBRANCH   3   6
ENDBRANCH   1   2
BRANCH   1  31
ATOM     31  C   UNL A   1      35.635  21.451  26.136  1.00  0.00     0.021 C 
BRANCH  31  32
ATOM     32  C   UNL A   1      35.916  20.466  24.995  1.00  0.00     0.002 C 
BRANCH  32  33
ATOM     33  C   UNL A   1      37.367  20.398  24.508  1.00  0.00     0.002 C 
BRANCH  33  34
ATOM     34  C   UNL A   1      38.241  19.342  25.183  1.00  0.00     0.021 C 
BRANCH  34  35
ATOM     35  C   UNL A   1      39.464  19.887  25.905  1.00  0.00     0.116 C 
BRANCH  35  36
ATOM     36  N   UNL A   1      40.570  18.946  25.910  1.00  0.00    -0.352 N 
ATOM     37  C   UNL A   1      41.916  19.195  26.010  1.00  0.00     0.251 C 
ATOM     38  H   UNL A   1      40.320  17.997  25.831  1.00  0.00     0.163 HD
ATOM     39  O   UNL A   1      42.732  18.297  25.819  1.00  0.00    -0.269 OA
BRANCH  37  40
ATOM     40  C   UNL A   1      42.387  20.562  26.323  1.00  0.00     0.039 A 
ATOM     41  C   UNL A   1      42.791  21.395  25.277  1.00  0.00     0.014 A 
ATOM     42  C   UNL A   1      42.417  21.023  27.642  1.00  0.00     0.014 A 
ATOM     43  C   UNL A   1      43.170  22.710  25.550  1.00  0.00     0.010 A 
ATOM     44  C   UNL A   1      42.712  22.358  27.902  1.00  0.00     0.010 A 
ATOM     45  C   UNL A   1      43.100  23.213  26.860  1.00  0.00    -0.014 A 
BRANCH  45  46
ATOM     46  C   UNL A   1      43.437  24.627  27.161  1.00  0.00     0.031 A 
ATOM     47  C   UNL A   1      44.826  25.144  26.906  1.00  0.00     0.074 A 
ATOM     48  C   UNL A   1      42.511  25.431  27.717  1.00  0.00     0.049 A 
ATOM     49  N   UNL A   1      45.326  26.331  27.140  1.00  0.00    -0.248 NA
ATOM     50  C   UNL A   1      45.789  24.189  26.337  1.00  0.00     0.031 C 
ATOM     51  C   UNL A   1      41.140  25.038  28.047  1.00  0.00     0.029 A 
ATOM     52  N   UNL A   1      42.581  26.746  28.103  1.00  0.00    -0.354 N 
ATOM     53  C   UNL A   1      46.660  26.261  26.758  1.00  0.00     0.074 A 
ATOM     54  C   UNL A   1      46.907  24.897  26.344  1.00  0.00     0.031 C 
ATOM     55  C   UNL A   1      40.488  26.099  28.548  1.00  0.00     0.029 A 
ATOM     56  C   UNL A   1      41.404  27.234  28.616  1.00  0.00     0.049 A 
ATOM     57  H   UNL A   1      43.398  27.288  28.021  1.00  0.00     0.167 HD
ATOM     58  C   UNL A   1      47.586  27.249  26.731  1.00  0.00     0.037 A 
ATOM     59  C   UNL A   1      41.100  28.457  29.087  1.00  0.00     0.037 A 
ATOM     60  C   UNL A   1      47.331  28.607  27.137  1.00  0.00     0.049 A 
ATOM     61  C   UNL A   1      42.159  29.527  29.088  1.00  0.00     0.074 A 
ATOM     62  C   UNL A   1      48.183  29.695  27.100  1.00  0.00     0.029 A 
ATOM     63  N   UNL A   1      46.131  29.057  27.671  1.00  0.00    -0.354 N 
ATOM     64  N   UNL A   1      43.395  29.471  28.657  1.00  0.00    -0.248 NA
ATOM     65  C   UNL A   1      41.775  30.832  29.643  1.00  0.00     0.031 C 
ATOM     66  C   UNL A   1      47.521  30.789  27.669  1.00  0.00     0.029 A 
ATOM     67  C   UNL A   1      46.233  30.401  27.999  1.00  0.00     0.049 A 
ATOM     68  H   UNL A   1      45.326  28.505  27.797  1.00  0.00     0.167 HD
ATOM     69  C   UNL A   1      43.926  30.739  28.851  1.00  0.00     0.074 A 
ATOM     70  C   UNL A   1      42.873  31.546  29.432  1.00  0.00     0.031 C 
ATOM     71  C   UNL A   1      45.173  31.195  28.571  1.00  0.00     0.037 A 
BRANCH  58  72
ATOM     72  C   UNL A   1      48.967  26.884  26.256  1.00  0.00     0.064 A 
ATOM     73  C   UNL A   1      49.355  27.042  24.916  1.00  0.00     0.173 A 
ATOM     74  C   UNL A   1      49.914  26.364  27.152  1.00  0.00     0.173 A 
ATOM     75  F   UNL A   1      48.488  27.526  24.014  1.00  0.00    -0.203 F 
ATOM     76  C   UNL A   1      50.617  26.644  24.481  1.00  0.00     0.198 A 
ATOM     77  C   UNL A   1      51.189  26.005  26.721  1.00  0.00     0.198 A 
ATOM     78  F   UNL A   1      49.603  26.198  28.446  1.00  0.00    -0.203 F 
ATOM     79  F   UNL A   1      50.935  26.733  23.182  1.00  0.00    -0.200 F 
ATOM     80  C   UNL A   1      51.534  26.131  25.385  1.00  0.00     0.200 A 
ATOM     81  F   UNL A   1      52.079  25.522  27.599  1.00  0.00    -0.200 F 
ATOM     82  F   UNL A   1      52.747  25.744  24.965  1.00  0.00    -0.200 F 
ENDBRANCH  58  72
BRANCH  59  83
ATOM     83  C   UNL A   1      39.720  28.751  29.552  1.00  0.00     0.064 A 
ATOM     84  C   UNL A   1      38.770  29.288  28.671  1.00  0.00     0.173 A 
ATOM     85  C   UNL A   1      39.317  28.503  30.871  1.00  0.00     0.173 A 
ATOM     86  F   UNL A   1      39.112  29.562  27.403  1.00  0.00    -0.203 F 
ATOM     87  C   UNL A   1      37.476  29.580  29.097  1.00  0.00     0.198 A 
ATOM     88  C   UNL A   1      38.014  28.768  31.289  1.00  0.00     0.198 A 
ATOM     89  F   UNL A   1      40.187  27.987  31.753  1.00  0.00    -0.203 F 
ATOM     90  F   UNL A   1      36.601  30.131  28.245  1.00  0.00    -0.200 F 
ATOM     91  C   UNL A   1      37.097  29.314  30.404  1.00  0.00     0.200 A 
ATOM     92  F   UNL A   1      37.648  28.493  32.549  1.00  0.00    -0.200 F 
ATOM     93  F   UNL A   1      35.851  29.587  30.811  1.00  0.00    -0.200 F 
ENDBRANCH  59  83
BRANCH  71  94
ATOM     94  C   UNL A   1      45.455  32.645  28.847  1.00  0.00     0.064 A 
ATOM     95  C   UNL A   1      46.018  33.074  30.058  1.00  0.00     0.173 A 
ATOM     96  C   UNL A   1      45.189  33.616  27.869  1.00  0.00     0.173 A 
ATOM     97  F   UNL A   1      46.279  32.190  31.033  1.00  0.00    -0.203 F 
ATOM     98  C   UNL A   1      46.276  34.423  30.291  1.00  0.00     0.198 A 
ATOM     99  C   UNL A   1      45.481  34.959  28.090  1.00  0.00     0.198 A 
ATOM    100  F   UNL A   1      44.657  33.260  26.690  1.00  0.00    -0.203 F 
ATOM    101  F   UNL A   1      46.762  34.815  31.476  1.00  0.00    -0.200 F 
ATOM    102  C   UNL A   1      46.016  35.363  29.305  1.00  0.00     0.200 A 
ATOM    103  F   UNL A   1      45.244  35.862  27.129  1.00  0.00    -0.200 F 
ATOM    104  F   UNL A   1      46.272  36.659  29.527  1.00  0.00    -0.200 F 
ENDBRANCH  71  94
ENDBRANCH  45  46
ENDBRANCH  37  40
ENDBRANCH  35  36
ENDBRANCH  34  35
ENDBRANCH  33  34
ENDBRANCH  32  33
ENDBRANCH  31  32
ENDBRANCH   1  31
TORSDOF 20
ENDMDL
MODEL 3
REMARK VINA RESULT:      -8.9      4.770      9.168
REMARK SMILES COc1cc(/C=N/NC(=O)c2cc(Cl)ccc2O)ccc1OCC(=O)NCCCCCCNC(=O)c1ccc(-c2c3nc(c(-c4c(F)c(F)c(F)c(F)c4F)c4ccc([nH]4)c(-c4c(F)c(F)c(F)c(F)c4F)c4nc(c(-c5c(F)c(F)c(F)c(F)c5F)c5ccc2[nH]5)C=C4)C=C3)cc1
REMARK SMILES IDX 27 1 26 2 24 3 25 4 23 6 22 7 21 8 3 9 4 10 5 11 20 12 19 13
REMARK SMILES IDX 2 14 1 15 6 16 7 17 8 18 9 19 10 21 11 22 12 23 17 24 13 25
REMARK SMILES IDX 16 26 14 27 15 28 18 29 28 31 29 32 30 33 31 34 32 35 33 36
REMARK SMILES IDX 34 37 35 39 36 40 37 41 98 42 38 43 97 44 39 45 40 46 41 47
REMARK SMILES IDX 91 48 42 49 96 50 90 51 92 52 43 53 95 54 89 55 88 56 44 58
REMARK SMILES IDX 76 59 56 60 75 61 57 62 60 63 74 64 93 65 58 66 59 67 73 69
REMARK SMILES IDX 94 70 61 71 45 72 46 73 54 74 47 75 48 76 52 77 55 78 49 79
REMARK SMILES IDX 50 80 53 81 51 82 77 83 78 84 86 85 79 86 80 87 84 88 87 89
REMARK SMILES IDX 81 90 82 91 85 92 83 93 62 94 63 95 71 96 64 97 65 98 69 99
REMARK SMILES IDX 72 100 66 101 67 102 70 103 68 104
REMARK H PARENT 26 5 8 20 18 30 33 38 92 57 60 68
REMARK Flexibility Score: inf
ROOT
ATOM      1  C   UNL A   1      35.547  23.437  23.610  1.00  0.00     0.116 C 
ENDROOT
BRANCH   1   2
ATOM      2  N   UNL A   1      36.509  23.362  24.686  1.00  0.00    -0.353 N 
ATOM      3  C   UNL A   1      36.787  22.304  25.501  1.00  0.00     0.257 C 
ATOM      4  O   UNL A   1      37.819  22.358  26.175  1.00  0.00    -0.271 OA
ATOM      5  H   UNL A   1      37.031  24.179  24.853  1.00  0.00     0.163 HD
BRANCH   3   6
ATOM      6  C   UNL A   1      35.874  21.069  25.503  1.00  0.00     0.329 C 
BRANCH   6   7
ATOM      7  O   UNL A   1      34.754  21.045  26.373  1.00  0.00    -0.480 OA
BRANCH   7   8
ATOM      8  C   UNL A   1      33.646  21.789  26.079  1.00  0.00     0.161 A 
ATOM      9  C   UNL A   1      32.788  21.667  24.978  1.00  0.00     0.161 A 
ATOM     10  C   UNL A   1      31.720  22.562  24.819  1.00  0.00     0.060 A 
ATOM     11  C   UNL A   1      31.495  23.559  25.773  1.00  0.00    -0.002 A 
ATOM     12  C   UNL A   1      33.415  22.811  27.012  1.00  0.00     0.051 A 
ATOM     13  C   UNL A   1      32.335  23.683  26.877  1.00  0.00     0.014 A 
BRANCH   9  14
ATOM     14  O   UNL A   1      33.078  20.774  23.984  1.00  0.00    -0.493 OA
ATOM     15  C   UNL A   1      32.438  19.508  24.155  1.00  0.00     0.278 C 
ENDBRANCH   9  14
BRANCH  11  16
ATOM     16  C   UNL A   1      30.441  24.574  25.588  1.00  0.00     0.141 C 
ATOM     17  N   UNL A   1      29.916  24.785  24.420  1.00  0.00    -0.180 NA
BRANCH  17  18
ATOM     18  N   UNL A   1      29.064  25.844  24.285  1.00  0.00    -0.243 N 
ATOM     19  C   UNL A   1      29.300  27.107  23.763  1.00  0.00     0.275 C 
ATOM     20  H   UNL A   1      28.147  25.687  24.606  1.00  0.00     0.194 HD
ATOM     21  O   UNL A   1      28.410  27.957  23.780  1.00  0.00    -0.267 OA
BRANCH  19  22
ATOM     22  C   UNL A   1      30.614  27.462  23.181  1.00  0.00     0.084 A 
ATOM     23  C   UNL A   1      31.203  26.515  22.331  1.00  0.00     0.038 A 
ATOM     24  C   UNL A   1      31.283  28.666  23.436  1.00  0.00     0.128 A 
ATOM     25  C   UNL A   1      32.406  26.807  21.694  1.00  0.00     0.042 A 
ATOM     26  C   UNL A   1      32.488  28.952  22.796  1.00  0.00     0.048 A 
ATOM     27  Cl  UNL A   1      33.100  25.662  20.613  1.00  0.00    -0.084 Cl
ATOM     28  C   UNL A   1      33.044  28.028  21.909  1.00  0.00     0.024 A 
BRANCH  24  29
ATOM     29  O   UNL A   1      30.816  29.628  24.288  1.00  0.00    -0.507 OA
ATOM     30  H   UNL A   1      31.337  30.387  24.469  1.00  0.00     0.293 HD
ENDBRANCH  24  29
ENDBRANCH  19  22
ENDBRANCH  17  18
ENDBRANCH  11  16
ENDBRANCH   7   8
ENDBRANCH   6   7
ENDBRANCH   3   6
ENDBRANCH   1   2
BRANCH   1  31
ATOM     31  C   UNL A   1      34.571  24.598  23.774  1.00  0.00     0.021 C 
BRANCH  31  32
ATOM     32  C   UNL A   1      34.733  25.423  25.057  1.00  0.00     0.002 C 
BRANCH  32  33
ATOM     33  C   UNL A   1      33.661  26.488  25.312  1.00  0.00     0.002 C 
BRANCH  33  34
ATOM     34  C   UNL A   1      34.171  27.820  25.859  1.00  0.00     0.021 C 
BRANCH  34  35
ATOM     35  C   UNL A   1      33.560  28.245  27.187  1.00  0.00     0.116 C 
BRANCH  35  36
ATOM     36  N   UNL A   1      33.484  29.688  27.325  1.00  0.00    -0.352 N 
ATOM     37  C   UNL A   1      34.404  30.554  27.861  1.00  0.00     0.251 C 
ATOM     38  H   UNL A   1      32.657  30.104  26.988  1.00  0.00     0.163 HD
ATOM     39  O   UNL A   1      34.109  31.729  28.064  1.00  0.00    -0.269 OA
BRANCH  37  40
ATOM     40  C   UNL A   1      35.751  30.061  28.221  1.00  0.00     0.039 A 
ATOM     41  C   UNL A   1      36.778  30.148  27.277  1.00  0.00     0.014 A 
ATOM     42  C   UNL A   1      36.002  29.527  29.487  1.00  0.00     0.014 A 
ATOM     43  C   UNL A   1      38.071  29.753  27.626  1.00  0.00     0.010 A 
ATOM     44  C   UNL A   1      37.306  29.215  29.861  1.00  0.00     0.010 A 
ATOM     45  C   UNL A   1      38.352  29.316  28.932  1.00  0.00    -0.014 A 
BRANCH  45  46
ATOM     46  C   UNL A   1      39.732  28.954  29.341  1.00  0.00     0.031 A 
ATOM     47  C   UNL A   1      40.512  29.857  30.256  1.00  0.00     0.074 A 
ATOM     48  C   UNL A   1      40.306  27.841  28.845  1.00  0.00     0.049 A 
ATOM     49  N   UNL A   1      41.740  29.737  30.693  1.00  0.00    -0.248 NA
ATOM     50  C   UNL A   1      39.827  31.074  30.718  1.00  0.00     0.031 C 
ATOM     51  C   UNL A   1      39.668  26.902  27.921  1.00  0.00     0.029 A 
ATOM     52  N   UNL A   1      41.555  27.310  29.047  1.00  0.00    -0.354 N 
ATOM     53  C   UNL A   1      41.977  30.864  31.470  1.00  0.00     0.074 A 
ATOM     54  C   UNL A   1      40.790  31.688  31.387  1.00  0.00     0.031 C 
ATOM     55  C   UNL A   1      40.514  25.891  27.669  1.00  0.00     0.029 A 
ATOM     56  C   UNL A   1      41.768  26.131  28.376  1.00  0.00     0.049 A 
ATOM     57  H   UNL A   1      42.234  27.734  29.620  1.00  0.00     0.167 HD
ATOM     58  C   UNL A   1      43.071  31.171  32.206  1.00  0.00     0.037 A 
ATOM     59  C   UNL A   1      42.853  25.335  28.338  1.00  0.00     0.037 A 
ATOM     60  C   UNL A   1      44.245  30.342  32.291  1.00  0.00     0.049 A 
ATOM     61  C   UNL A   1      44.074  25.720  29.129  1.00  0.00     0.074 A 
ATOM     62  C   UNL A   1      45.386  30.535  33.048  1.00  0.00     0.029 A 
ATOM     63  N   UNL A   1      44.432  29.165  31.580  1.00  0.00    -0.354 N 
ATOM     64  N   UNL A   1      44.261  26.749  29.918  1.00  0.00    -0.248 NA
ATOM     65  C   UNL A   1      45.236  24.827  29.021  1.00  0.00     0.031 C 
ATOM     66  C   UNL A   1      46.289  29.509  32.747  1.00  0.00     0.029 A 
ATOM     67  C   UNL A   1      45.685  28.639  31.855  1.00  0.00     0.049 A 
ATOM     68  H   UNL A   1      43.772  28.762  30.971  1.00  0.00     0.167 HD
ATOM     69  C   UNL A   1      45.543  26.610  30.431  1.00  0.00     0.074 A 
ATOM     70  C   UNL A   1      46.085  25.390  29.869  1.00  0.00     0.031 C 
ATOM     71  C   UNL A   1      46.211  27.418  31.292  1.00  0.00     0.037 A 
BRANCH  58  72
ATOM     72  C   UNL A   1      43.046  32.470  32.966  1.00  0.00     0.064 A 
ATOM     73  C   UNL A   1      42.558  32.551  34.279  1.00  0.00     0.173 A 
ATOM     74  C   UNL A   1      43.514  33.652  32.370  1.00  0.00     0.173 A 
ATOM     75  F   UNL A   1      42.089  31.455  34.895  1.00  0.00    -0.203 F 
ATOM     76  C   UNL A   1      42.487  33.771  34.947  1.00  0.00     0.198 A 
ATOM     77  C   UNL A   1      43.480  34.864  33.056  1.00  0.00     0.198 A 
ATOM     78  F   UNL A   1      44.001  33.635  31.121  1.00  0.00    -0.203 F 
ATOM     79  F   UNL A   1      41.944  33.834  36.170  1.00  0.00    -0.200 F 
ATOM     80  C   UNL A   1      42.953  34.926  34.337  1.00  0.00     0.200 A 
ATOM     81  F   UNL A   1      43.944  35.976  32.470  1.00  0.00    -0.200 F 
ATOM     82  F   UNL A   1      42.881  36.101  34.978  1.00  0.00    -0.200 F 
ENDBRANCH  58  72
BRANCH  59  83
ATOM     83  C   UNL A   1      42.817  24.069  27.559  1.00  0.00     0.064 A 
ATOM     84  C   UNL A   1      43.145  24.061  26.196  1.00  0.00     0.173 A 
ATOM     85  C   UNL A   1      42.462  22.849  28.152  1.00  0.00     0.173 A 
ATOM     86  F   UNL A   1      43.472  25.205  25.579  1.00  0.00    -0.203 F 
ATOM     87  C   UNL A   1      43.103  22.883  25.452  1.00  0.00     0.198 A 
ATOM     88  C   UNL A   1      42.448  21.667  27.414  1.00  0.00     0.198 A 
ATOM     89  F   UNL A   1      42.142  22.802  29.454  1.00  0.00    -0.203 F 
ATOM     90  F   UNL A   1      43.381  22.912  24.142  1.00  0.00    -0.200 F 
ATOM     91  C   UNL A   1      42.761  21.686  26.063  1.00  0.00     0.200 A 
ATOM     92  F   UNL A   1      42.133  20.510  28.012  1.00  0.00    -0.200 F 
ATOM     93  F   UNL A   1      42.729  20.553  25.350  1.00  0.00    -0.200 F 
ENDBRANCH  59  83
BRANCH  71  94
ATOM     94  C   UNL A   1      47.586  26.987  31.717  1.00  0.00     0.064 A 
ATOM     95  C   UNL A   1      47.792  26.155  32.828  1.00  0.00     0.173 A 
ATOM     96  C   UNL A   1      48.713  27.385  30.980  1.00  0.00     0.173 A 
ATOM     97  F   UNL A   1      46.752  25.758  33.577  1.00  0.00    -0.203 F 
ATOM     98  C   UNL A   1      49.076  25.763  33.203  1.00  0.00     0.198 A 
ATOM     99  C   UNL A   1      49.990  26.962  31.335  1.00  0.00     0.198 A 
ATOM    100  F   UNL A   1      48.572  28.175  29.905  1.00  0.00    -0.203 F 
ATOM    101  F   UNL A   1      49.252  25.015  34.300  1.00  0.00    -0.200 F 
ATOM    102  C   UNL A   1      50.172  26.160  32.451  1.00  0.00     0.200 A 
ATOM    103  F   UNL A   1      51.046  27.333  30.597  1.00  0.00    -0.200 F 
ATOM    104  F   UNL A   1      51.406  25.775  32.808  1.00  0.00    -0.200 F 
ENDBRANCH  71  94
ENDBRANCH  45  46
ENDBRANCH  37  40
ENDBRANCH  35  36
ENDBRANCH  34  35
ENDBRANCH  33  34
ENDBRANCH  32  33
ENDBRANCH  31  32
ENDBRANCH   1  31
TORSDOF 20
ENDMDL
