MODEL 1
REMARK VINA RESULT:     -12.5      0.000      0.000
REMARK SMILES O=C(NCCCCCCNC(=O)c1csc(CNc2ccc(-n3cccn3)nc2)c1)c1ccc(-c2c3nc(c(-c4c(F)c(F)c(F)c(F)c4F)c4ccc([nH]4)c(-c4c(F)c(F)c(F)c(F)c4F)c4nc(c(-c5c(F)c(F)c(F)c(F)c5F)c5ccc2[nH]5)C=C4)C=C3)cc1
REMARK SMILES IDX 7 1 6 2 5 3 4 4 3 5 1 6 2 7 31 9 32 10 93 11 33 12 92 13
REMARK SMILES IDX 34 14 35 15 36 16 86 17 37 18 91 19 85 20 87 21 38 22 90 23
REMARK SMILES IDX 84 24 83 25 39 27 71 28 51 29 70 30 52 31 55 32 69 33 88 34
REMARK SMILES IDX 53 35 54 36 68 38 89 39 56 40 40 41 41 42 49 43 42 44 43 45
REMARK SMILES IDX 47 46 50 47 44 48 45 49 48 50 46 51 72 52 73 53 81 54 74 55
REMARK SMILES IDX 75 56 79 57 82 58 76 59 77 60 80 61 78 62 57 63 58 64 66 65
REMARK SMILES IDX 59 66 60 67 64 68 67 69 61 70 62 71 65 72 63 73 8 74 9 75
REMARK SMILES IDX 10 76 11 77 12 79 13 80 14 81 30 82 15 83 16 84 17 85 18 86
REMARK SMILES IDX 19 88 20 89 29 90 21 91 28 92 22 93 23 94 24 95 27 96 25 97
REMARK SMILES IDX 26 98
REMARK H PARENT 3 8 87 26 55 37 10 78 18 87
REMARK Flexibility Score: inf
ROOT
ATOM      1  C   UNL A   1      37.200  22.243  24.545  1.00  0.00     0.002 C 
ENDROOT
BRANCH   1   2
ATOM      2  C   UNL A   1      38.118  21.441  25.472  1.00  0.00     0.002 C 
BRANCH   2   3
ATOM      3  C   UNL A   1      39.103  22.269  26.303  1.00  0.00     0.021 C 
BRANCH   3   4
ATOM      4  C   UNL A   1      40.428  21.571  26.619  1.00  0.00     0.116 C 
BRANCH   4   5
ATOM      5  N   UNL A   1      41.494  21.890  25.693  1.00  0.00    -0.352 N 
ATOM      6  O   UNL A   1      43.202  22.830  24.655  1.00  0.00    -0.269 OA
ATOM      7  C   UNL A   1      42.341  22.950  25.530  1.00  0.00     0.251 C 
ATOM      8  H   UNL A   1      41.644  21.180  25.027  1.00  0.00     0.163 HD
BRANCH   7   9
ATOM      9  C   UNL A   1      42.277  24.229  26.296  1.00  0.00     0.039 A 
ATOM     10  C   UNL A   1      42.968  24.511  27.474  1.00  0.00     0.014 A 
ATOM     11  C   UNL A   1      41.425  25.222  25.774  1.00  0.00     0.014 A 
ATOM     12  C   UNL A   1      42.770  25.714  28.149  1.00  0.00     0.010 A 
ATOM     13  C   UNL A   1      41.242  26.438  26.429  1.00  0.00     0.010 A 
ATOM     14  C   UNL A   1      41.898  26.673  27.637  1.00  0.00    -0.014 A 
BRANCH  14  15
ATOM     15  C   UNL A   1      41.769  27.932  28.369  1.00  0.00     0.031 A 
ATOM     16  C   UNL A   1      42.860  28.939  28.190  1.00  0.00     0.074 A 
ATOM     17  C   UNL A   1      40.667  28.272  29.066  1.00  0.00     0.049 A 
ATOM     18  N   UNL A   1      43.538  29.574  29.098  1.00  0.00    -0.248 NA
ATOM     19  C   UNL A   1      43.249  29.275  26.813  1.00  0.00     0.031 C 
ATOM     20  C   UNL A   1      39.376  27.581  29.101  1.00  0.00     0.029 A 
ATOM     21  N   UNL A   1      40.446  29.394  29.811  1.00  0.00    -0.354 N 
ATOM     22  C   UNL A   1      44.337  30.493  28.415  1.00  0.00     0.074 A 
ATOM     23  C   UNL A   1      44.170  30.217  27.011  1.00  0.00     0.031 C 
ATOM     24  C   UNL A   1      38.454  28.402  29.649  1.00  0.00     0.029 A 
ATOM     25  C   UNL A   1      39.114  29.612  30.113  1.00  0.00     0.049 A 
ATOM     26  H   UNL A   1      41.170  29.993  30.108  1.00  0.00     0.167 HD
ATOM     27  C   UNL A   1      44.969  31.525  29.041  1.00  0.00     0.037 A 
ATOM     28  C   UNL A   1      38.574  30.737  30.635  1.00  0.00     0.037 A 
ATOM     29  C   UNL A   1      45.144  31.282  30.445  1.00  0.00     0.049 A 
ATOM     30  C   UNL A   1      39.653  31.526  31.272  1.00  0.00     0.074 A 
ATOM     31  C   UNL A   1      45.795  30.322  31.196  1.00  0.00     0.029 A 
ATOM     32  N   UNL A   1      44.389  31.988  31.345  1.00  0.00    -0.354 N 
ATOM     33  N   UNL A   1      40.269  31.193  32.371  1.00  0.00    -0.248 NA
ATOM     34  C   UNL A   1      40.298  32.566  30.486  1.00  0.00     0.031 C 
ATOM     35  C   UNL A   1      45.023  30.191  32.388  1.00  0.00     0.029 A 
ATOM     36  C   UNL A   1      43.957  31.084  32.279  1.00  0.00     0.049 A 
ATOM     37  H   UNL A   1      44.194  32.953  31.325  1.00  0.00     0.167 HD
ATOM     38  C   UNL A   1      41.556  31.678  32.215  1.00  0.00     0.074 A 
ATOM     39  C   UNL A   1      41.479  32.619  31.105  1.00  0.00     0.031 C 
ATOM     40  C   UNL A   1      42.618  31.066  32.815  1.00  0.00     0.037 A 
BRANCH  27  41
ATOM     41  C   UNL A   1      45.193  32.889  28.430  1.00  0.00     0.064 A 
ATOM     42  C   UNL A   1      44.089  33.727  28.166  1.00  0.00     0.173 A 
ATOM     43  C   UNL A   1      46.406  33.276  27.822  1.00  0.00     0.173 A 
ATOM     44  F   UNL A   1      42.879  33.444  28.670  1.00  0.00    -0.203 F 
ATOM     45  C   UNL A   1      44.179  34.822  27.302  1.00  0.00     0.198 A 
ATOM     46  C   UNL A   1      46.504  34.401  27.003  1.00  0.00     0.198 A 
ATOM     47  F   UNL A   1      47.511  32.525  27.911  1.00  0.00    -0.203 F 
ATOM     48  F   UNL A   1      43.075  35.512  26.984  1.00  0.00    -0.200 F 
ATOM     49  C   UNL A   1      45.386  35.155  26.716  1.00  0.00     0.200 A 
ATOM     50  F   UNL A   1      47.680  34.700  26.432  1.00  0.00    -0.200 F 
ATOM     51  F   UNL A   1      45.462  36.167  25.842  1.00  0.00    -0.200 F 
ENDBRANCH  27  41
BRANCH  28  52
ATOM     52  C   UNL A   1      37.223  31.287  30.394  1.00  0.00     0.064 A 
ATOM     53  C   UNL A   1      36.357  31.587  31.456  1.00  0.00     0.173 A 
ATOM     54  C   UNL A   1      36.846  31.760  29.121  1.00  0.00     0.173 A 
ATOM     55  F   UNL A   1      36.670  31.221  32.707  1.00  0.00    -0.203 F 
ATOM     56  C   UNL A   1      35.184  32.320  31.256  1.00  0.00     0.198 A 
ATOM     57  C   UNL A   1      35.670  32.479  28.920  1.00  0.00     0.198 A 
ATOM     58  F   UNL A   1      37.658  31.610  28.064  1.00  0.00    -0.203 F 
ATOM     59  F   UNL A   1      34.407  32.636  32.301  1.00  0.00    -0.200 F 
ATOM     60  C   UNL A   1      34.843  32.770  29.990  1.00  0.00     0.200 A 
ATOM     61  F   UNL A   1      35.372  32.938  27.696  1.00  0.00    -0.200 F 
ATOM     62  F   UNL A   1      33.744  33.514  29.806  1.00  0.00    -0.200 F 
ENDBRANCH  28  52
BRANCH  40  63
ATOM     63  C   UNL A   1      42.334  30.064  33.891  1.00  0.00     0.064 A 
ATOM     64  C   UNL A   1      41.937  28.742  33.629  1.00  0.00     0.173 A 
ATOM     65  C   UNL A   1      42.617  30.406  35.221  1.00  0.00     0.173 A 
ATOM     66  F   UNL A   1      41.759  28.314  32.373  1.00  0.00    -0.203 F 
ATOM     67  C   UNL A   1      41.778  27.821  34.662  1.00  0.00     0.198 A 
ATOM     68  C   UNL A   1      42.493  29.473  36.245  1.00  0.00     0.198 A 
ATOM     69  F   UNL A   1      43.064  31.636  35.519  1.00  0.00    -0.203 F 
ATOM     70  F   UNL A   1      41.388  26.567  34.388  1.00  0.00    -0.200 F 
ATOM     71  C   UNL A   1      42.062  28.184  35.967  1.00  0.00     0.200 A 
ATOM     72  F   UNL A   1      42.819  29.812  37.501  1.00  0.00    -0.200 F 
ATOM     73  F   UNL A   1      41.952  27.285  36.955  1.00  0.00    -0.200 F 
ENDBRANCH  40  63
ENDBRANCH  14  15
ENDBRANCH   7   9
ENDBRANCH   4   5
ENDBRANCH   3   4
ENDBRANCH   2   3
ENDBRANCH   1   2
BRANCH   1  74
ATOM     74  C   UNL A   1      35.771  21.707  24.410  1.00  0.00     0.021 C 
BRANCH  74  75
ATOM     75  C   UNL A   1      35.198  21.071  25.677  1.00  0.00     0.116 C 
BRANCH  75  76
ATOM     76  N   UNL A   1      34.249  20.018  25.359  1.00  0.00    -0.352 N 
ATOM     77  C   UNL A   1      32.925  20.117  25.028  1.00  0.00     0.252 C 
ATOM     78  H   UNL A   1      34.610  19.103  25.387  1.00  0.00     0.163 HD
ATOM     79  O   UNL A   1      32.214  19.111  25.094  1.00  0.00    -0.269 OA
BRANCH  77  80
ATOM     80  C   UNL A   1      32.382  21.405  24.622  1.00  0.00     0.050 A 
ATOM     81  C   UNL A   1      32.179  21.785  23.307  1.00  0.00     0.079 A 
ATOM     82  C   UNL A   1      31.904  22.418  25.520  1.00  0.00     0.031 A 
ATOM     83  S   UNL A   1      31.504  23.346  23.165  1.00  0.00    -0.146 S 
ATOM     84  C   UNL A   1      31.435  23.540  24.868  1.00  0.00     0.024 A 
BRANCH  84  85
ATOM     85  C   UNL A   1      30.921  24.827  25.454  1.00  0.00     0.159 C 
BRANCH  85  86
ATOM     86  N   UNL A   1      29.614  25.189  24.923  1.00  0.00    -0.379 N 
ATOM     87  H   UNL A   1      28.862  24.560  25.007  1.00  0.00     0.160 HD
BRANCH  86  88
ATOM     88  C   UNL A   1      29.416  26.410  24.300  1.00  0.00     0.053 A 
ATOM     89  C   UNL A   1      30.431  27.350  24.146  1.00  0.00     0.031 A 
ATOM     90  C   UNL A   1      28.153  26.794  23.852  1.00  0.00     0.139 A 
ATOM     91  C   UNL A   1      30.176  28.576  23.524  1.00  0.00     0.051 A 
ATOM     92  N   UNL A   1      27.855  27.987  23.286  1.00  0.00    -0.235 NA
ATOM     93  C   UNL A   1      28.876  28.863  23.108  1.00  0.00     0.153 A 
BRANCH  93  94
ATOM     94  N   UNL A   1      28.600  30.116  22.474  1.00  0.00    -0.223 N 
ATOM     95  C   UNL A   1      28.184  31.290  23.075  1.00  0.00     0.117 A 
ATOM     96  N   UNL A   1      28.731  30.282  21.128  1.00  0.00    -0.175 NA
ATOM     97  C   UNL A   1      28.001  32.217  22.076  1.00  0.00     0.042 A 
ATOM     98  C   UNL A   1      28.326  31.530  20.898  1.00  0.00     0.135 A 
ENDBRANCH  93  94
ENDBRANCH  86  88
ENDBRANCH  85  86
ENDBRANCH  84  85
ENDBRANCH  77  80
ENDBRANCH  75  76
ENDBRANCH  74  75
ENDBRANCH   1  74
TORSDOF 17
ENDMDL
MODEL 2
REMARK VINA RESULT:     -12.4      1.744      2.696
REMARK SMILES O=C(NCCCCCCNC(=O)c1csc(CNc2ccc(-n3cccn3)nc2)c1)c1ccc(-c2c3nc(c(-c4c(F)c(F)c(F)c(F)c4F)c4ccc([nH]4)c(-c4c(F)c(F)c(F)c(F)c4F)c4nc(c(-c5c(F)c(F)c(F)c(F)c5F)c5ccc2[nH]5)C=C4)C=C3)cc1
REMARK SMILES IDX 7 1 6 2 5 3 4 4 3 5 1 6 2 7 31 9 32 10 93 11 33 12 92 13
REMARK SMILES IDX 34 14 35 15 36 16 86 17 37 18 91 19 85 20 87 21 38 22 90 23
REMARK SMILES IDX 84 24 83 25 39 27 71 28 51 29 70 30 52 31 55 32 69 33 88 34
REMARK SMILES IDX 53 35 54 36 68 38 89 39 56 40 40 41 41 42 49 43 42 44 43 45
REMARK SMILES IDX 47 46 50 47 44 48 45 49 48 50 46 51 72 52 73 53 81 54 74 55
REMARK SMILES IDX 75 56 79 57 82 58 76 59 77 60 80 61 78 62 57 63 58 64 66 65
REMARK SMILES IDX 59 66 60 67 64 68 67 69 61 70 62 71 65 72 63 73 8 74 9 75
REMARK SMILES IDX 10 76 11 77 12 79 13 80 14 81 30 82 15 83 16 84 17 85 18 86
REMARK SMILES IDX 19 88 20 89 29 90 21 91 28 92 22 93 23 94 24 95 27 96 25 97
REMARK SMILES IDX 26 98
REMARK H PARENT 3 8 87 26 55 37 10 78 18 87
REMARK Flexibility Score: inf
ROOT
ATOM      1  C   UNL A   1      37.081  23.579  25.328  1.00  0.00     0.002 C 
ENDROOT
BRANCH   1   2
ATOM      2  C   UNL A   1      38.378  23.525  26.139  1.00  0.00     0.002 C 
BRANCH   2   3
ATOM      3  C   UNL A   1      39.104  22.176  26.134  1.00  0.00     0.021 C 
BRANCH   3   4
ATOM      4  C   UNL A   1      40.515  22.200  26.726  1.00  0.00     0.116 C 
BRANCH   4   5
ATOM      5  N   UNL A   1      41.548  22.526  25.765  1.00  0.00    -0.352 N 
ATOM      6  O   UNL A   1      43.198  23.490  24.658  1.00  0.00    -0.269 OA
ATOM      7  C   UNL A   1      42.352  23.610  25.548  1.00  0.00     0.251 C 
ATOM      8  H   UNL A   1      41.711  21.798  25.121  1.00  0.00     0.163 HD
BRANCH   7   9
ATOM      9  C   UNL A   1      42.256  24.912  26.270  1.00  0.00     0.039 A 
ATOM     10  C   UNL A   1      42.982  25.270  27.406  1.00  0.00     0.014 A 
ATOM     11  C   UNL A   1      41.334  25.842  25.752  1.00  0.00     0.014 A 
ATOM     12  C   UNL A   1      42.753  26.486  28.047  1.00  0.00     0.010 A 
ATOM     13  C   UNL A   1      41.119  27.071  26.372  1.00  0.00     0.010 A 
ATOM     14  C   UNL A   1      41.812  27.382  27.540  1.00  0.00    -0.014 A 
BRANCH  14  15
ATOM     15  C   UNL A   1      41.652  28.660  28.233  1.00  0.00     0.031 A 
ATOM     16  C   UNL A   1      42.698  29.701  27.993  1.00  0.00     0.074 A 
ATOM     17  C   UNL A   1      40.555  28.980  28.946  1.00  0.00     0.049 A 
ATOM     18  N   UNL A   1      43.372  30.393  28.860  1.00  0.00    -0.248 NA
ATOM     19  C   UNL A   1      43.039  30.004  26.595  1.00  0.00     0.031 C 
ATOM     20  C   UNL A   1      39.294  28.242  29.038  1.00  0.00     0.029 A 
ATOM     21  N   UNL A   1      40.308  30.118  29.659  1.00  0.00    -0.354 N 
ATOM     22  C   UNL A   1      44.117  31.318  28.127  1.00  0.00     0.074 A 
ATOM     23  C   UNL A   1      43.927  30.987  26.738  1.00  0.00     0.031 C 
ATOM     24  C   UNL A   1      38.353  29.044  29.582  1.00  0.00     0.029 A 
ATOM     25  C   UNL A   1      38.976  30.294  29.988  1.00  0.00     0.049 A 
ATOM     26  H   UNL A   1      41.014  30.755  29.917  1.00  0.00     0.167 HD
ATOM     27  C   UNL A   1      44.723  32.395  28.701  1.00  0.00     0.037 A 
ATOM     28  C   UNL A   1      38.405  31.415  30.486  1.00  0.00     0.037 A 
ATOM     29  C   UNL A   1      44.942  32.207  30.108  1.00  0.00     0.049 A 
ATOM     30  C   UNL A   1      39.468  32.267  31.068  1.00  0.00     0.074 A 
ATOM     31  C   UNL A   1      45.648  31.300  30.873  1.00  0.00     0.029 A 
ATOM     32  N   UNL A   1      44.182  32.915  31.003  1.00  0.00    -0.354 N 
ATOM     33  N   UNL A   1      40.123  31.996  32.162  1.00  0.00    -0.248 NA
ATOM     34  C   UNL A   1      40.051  33.304  30.231  1.00  0.00     0.031 C 
ATOM     35  C   UNL A   1      44.911  31.180  32.089  1.00  0.00     0.029 A 
ATOM     36  C   UNL A   1      43.809  32.026  31.978  1.00  0.00     0.049 A 
ATOM     37  H   UNL A   1      43.948  33.869  30.955  1.00  0.00     0.167 HD
ATOM     38  C   UNL A   1      41.386  32.525  31.956  1.00  0.00     0.074 A 
ATOM     39  C   UNL A   1      41.244  33.423  30.817  1.00  0.00     0.031 C 
ATOM     40  C   UNL A   1      42.486  31.976  32.548  1.00  0.00     0.037 A 
BRANCH  27  41
ATOM     41  C   UNL A   1      44.878  33.744  28.039  1.00  0.00     0.064 A 
ATOM     42  C   UNL A   1      46.166  34.294  27.866  1.00  0.00     0.173 A 
ATOM     43  C   UNL A   1      43.805  34.640  27.845  1.00  0.00     0.173 A 
ATOM     44  F   UNL A   1      47.262  33.543  28.048  1.00  0.00    -0.203 F 
ATOM     45  C   UNL A   1      46.362  35.652  27.594  1.00  0.00     0.198 A 
ATOM     46  C   UNL A   1      44.004  35.983  27.521  1.00  0.00     0.198 A 
ATOM     47  F   UNL A   1      42.535  34.279  28.067  1.00  0.00    -0.203 F 
ATOM     48  F   UNL A   1      47.605  36.152  27.564  1.00  0.00    -0.200 F 
ATOM     49  C   UNL A   1      45.280  36.496  27.427  1.00  0.00     0.200 A 
ATOM     50  F   UNL A   1      42.943  36.791  27.378  1.00  0.00    -0.200 F 
ATOM     51  F   UNL A   1      45.465  37.808  27.227  1.00  0.00    -0.200 F 
ENDBRANCH  27  41
BRANCH  28  52
ATOM     52  C   UNL A   1      37.028  31.904  30.261  1.00  0.00     0.064 A 
ATOM     53  C   UNL A   1      36.092  31.956  31.306  1.00  0.00     0.173 A 
ATOM     54  C   UNL A   1      36.675  32.562  29.067  1.00  0.00     0.173 A 
ATOM     55  F   UNL A   1      36.375  31.402  32.493  1.00  0.00    -0.203 F 
ATOM     56  C   UNL A   1      34.876  32.630  31.163  1.00  0.00     0.198 A 
ATOM     57  C   UNL A   1      35.456  33.222  28.921  1.00  0.00     0.198 A 
ATOM     58  F   UNL A   1      37.543  32.654  28.050  1.00  0.00    -0.203 F 
ATOM     59  F   UNL A   1      34.029  32.706  32.199  1.00  0.00    -0.200 F 
ATOM     60  C   UNL A   1      34.561  33.266  29.973  1.00  0.00     0.200 A 
ATOM     61  F   UNL A   1      35.181  33.863  27.776  1.00  0.00    -0.200 F 
ATOM     62  F   UNL A   1      33.417  33.953  29.853  1.00  0.00    -0.200 F 
ENDBRANCH  28  52
BRANCH  40  63
ATOM     63  C   UNL A   1      42.268  31.001  33.665  1.00  0.00     0.064 A 
ATOM     64  C   UNL A   1      42.227  31.375  35.018  1.00  0.00     0.173 A 
ATOM     65  C   UNL A   1      41.941  29.676  33.347  1.00  0.00     0.173 A 
ATOM     66  F   UNL A   1      42.418  32.649  35.386  1.00  0.00    -0.203 F 
ATOM     67  C   UNL A   1      41.926  30.448  36.012  1.00  0.00     0.198 A 
ATOM     68  C   UNL A   1      41.604  28.761  34.340  1.00  0.00     0.198 A 
ATOM     69  F   UNL A   1      41.899  29.281  32.065  1.00  0.00    -0.203 F 
ATOM     70  F   UNL A   1      41.903  30.826  37.299  1.00  0.00    -0.200 F 
ATOM     71  C   UNL A   1      41.608  29.144  35.673  1.00  0.00     0.200 A 
ATOM     72  F   UNL A   1      41.245  27.513  34.004  1.00  0.00    -0.200 F 
ATOM     73  F   UNL A   1      41.275  28.263  36.626  1.00  0.00    -0.200 F 
ENDBRANCH  40  63
ENDBRANCH  14  15
ENDBRANCH   7   9
ENDBRANCH   4   5
ENDBRANCH   3   4
ENDBRANCH   2   3
ENDBRANCH   1   2
BRANCH   1  74
ATOM     74  C   UNL A   1      36.599  22.237  24.765  1.00  0.00     0.021 C 
BRANCH  74  75
ATOM     75  C   UNL A   1      35.700  21.431  25.701  1.00  0.00     0.116 C 
BRANCH  75  76
ATOM     76  N   UNL A   1      35.106  20.294  25.018  1.00  0.00    -0.352 N 
ATOM     77  C   UNL A   1      33.792  20.050  24.726  1.00  0.00     0.252 C 
ATOM     78  H   UNL A   1      35.740  19.601  24.723  1.00  0.00     0.163 HD
ATOM     79  O   UNL A   1      33.449  18.904  24.421  1.00  0.00    -0.269 OA
BRANCH  77  80
ATOM     80  C   UNL A   1      32.828  21.138  24.796  1.00  0.00     0.050 A 
ATOM     81  C   UNL A   1      32.325  21.658  25.975  1.00  0.00     0.079 A 
ATOM     82  C   UNL A   1      32.336  21.876  23.667  1.00  0.00     0.031 A 
ATOM     83  S   UNL A   1      31.233  22.944  25.719  1.00  0.00    -0.146 S 
ATOM     84  C   UNL A   1      31.434  22.860  24.018  1.00  0.00     0.024 A 
BRANCH  84  85
ATOM     85  C   UNL A   1      30.656  23.789  23.126  1.00  0.00     0.159 C 
BRANCH  85  86
ATOM     86  N   UNL A   1      31.481  24.871  22.605  1.00  0.00    -0.379 N 
ATOM     87  H   UNL A   1      31.711  24.890  21.649  1.00  0.00     0.160 HD
BRANCH  86  88
ATOM     88  C   UNL A   1      31.945  25.873  23.441  1.00  0.00     0.053 A 
ATOM     89  C   UNL A   1      33.243  25.892  23.945  1.00  0.00     0.031 A 
ATOM     90  C   UNL A   1      31.101  26.891  23.883  1.00  0.00     0.139 A 
ATOM     91  C   UNL A   1      33.658  26.917  24.799  1.00  0.00     0.051 A 
ATOM     92  N   UNL A   1      31.451  27.875  24.743  1.00  0.00    -0.235 NA
ATOM     93  C   UNL A   1      32.736  27.893  25.179  1.00  0.00     0.153 A 
BRANCH  93  94
ATOM     94  N   UNL A   1      33.146  28.946  26.057  1.00  0.00    -0.223 N 
ATOM     95  C   UNL A   1      32.416  30.057  26.440  1.00  0.00     0.117 A 
ATOM     96  N   UNL A   1      34.378  28.953  26.639  1.00  0.00    -0.175 NA
ATOM     97  C   UNL A   1      33.223  30.815  27.253  1.00  0.00     0.042 A 
ATOM     98  C   UNL A   1      34.427  30.100  27.316  1.00  0.00     0.135 A 
ENDBRANCH  93  94
ENDBRANCH  86  88
ENDBRANCH  85  86
ENDBRANCH  84  85
ENDBRANCH  77  80
ENDBRANCH  75  76
ENDBRANCH  74  75
ENDBRANCH   1  74
TORSDOF 17
ENDMDL
MODEL 3
REMARK VINA RESULT:     -12.3      2.232      4.438
REMARK SMILES O=C(NCCCCCCNC(=O)c1csc(CNc2ccc(-n3cccn3)nc2)c1)c1ccc(-c2c3nc(c(-c4c(F)c(F)c(F)c(F)c4F)c4ccc([nH]4)c(-c4c(F)c(F)c(F)c(F)c4F)c4nc(c(-c5c(F)c(F)c(F)c(F)c5F)c5ccc2[nH]5)C=C4)C=C3)cc1
REMARK SMILES IDX 7 1 6 2 5 3 4 4 3 5 1 6 2 7 31 9 32 10 93 11 33 12 92 13
REMARK SMILES IDX 34 14 35 15 36 16 86 17 37 18 91 19 85 20 87 21 38 22 90 23
REMARK SMILES IDX 84 24 83 25 39 27 71 28 51 29 70 30 52 31 55 32 69 33 88 34
REMARK SMILES IDX 53 35 54 36 68 38 89 39 56 40 40 41 41 42 49 43 42 44 43 45
REMARK SMILES IDX 47 46 50 47 44 48 45 49 48 50 46 51 72 52 73 53 81 54 74 55
REMARK SMILES IDX 75 56 79 57 82 58 76 59 77 60 80 61 78 62 57 63 58 64 66 65
REMARK SMILES IDX 59 66 60 67 64 68 67 69 61 70 62 71 65 72 63 73 8 74 9 75
REMARK SMILES IDX 10 76 11 77 12 79 13 80 14 81 30 82 15 83 16 84 17 85 18 86
REMARK SMILES IDX 19 88 20 89 29 90 21 91 28 92 22 93 23 94 24 95 27 96 25 97
REMARK SMILES IDX 26 98
REMARK H PARENT 3 8 87 26 55 37 10 78 18 87
REMARK Flexibility Score: inf
ROOT
ATOM      1  C   UNL A   1      34.811  23.018  23.500  1.00  0.00     0.002 C 
ENDROOT
BRANCH   1   2
ATOM      2  C   UNL A   1      36.293  22.635  23.534  1.00  0.00     0.002 C 
BRANCH   2   3
ATOM      3  C   UNL A   1      37.115  23.278  24.655  1.00  0.00     0.021 C 
BRANCH   3   4
ATOM      4  C   UNL A   1      37.568  22.317  25.757  1.00  0.00     0.116 C 
BRANCH   4   5
ATOM      5  N   UNL A   1      38.957  21.924  25.658  1.00  0.00    -0.352 N 
ATOM      6  O   UNL A   1      41.146  21.759  25.907  1.00  0.00    -0.269 OA
ATOM      7  C   UNL A   1      40.136  22.431  26.130  1.00  0.00     0.251 C 
ATOM      8  H   UNL A   1      39.083  21.102  25.129  1.00  0.00     0.163 HD
BRANCH   7   9
ATOM      9  C   UNL A   1      40.288  23.729  26.850  1.00  0.00     0.039 A 
ATOM     10  C   UNL A   1      39.605  24.910  26.556  1.00  0.00     0.014 A 
ATOM     11  C   UNL A   1      41.219  23.748  27.906  1.00  0.00     0.014 A 
ATOM     12  C   UNL A   1      39.886  26.088  27.245  1.00  0.00     0.010 A 
ATOM     13  C   UNL A   1      41.485  24.916  28.617  1.00  0.00     0.010 A 
ATOM     14  C   UNL A   1      40.835  26.097  28.266  1.00  0.00    -0.014 A 
BRANCH  14  15
ATOM     15  C   UNL A   1      41.050  27.355  28.980  1.00  0.00     0.031 A 
ATOM     16  C   UNL A   1      42.234  28.174  28.577  1.00  0.00     0.074 A 
ATOM     17  C   UNL A   1      40.166  27.863  29.862  1.00  0.00     0.049 A 
ATOM     18  N   UNL A   1      43.162  28.685  29.327  1.00  0.00    -0.248 NA
ATOM     19  C   UNL A   1      42.405  28.452  27.144  1.00  0.00     0.031 C 
ATOM     20  C   UNL A   1      38.812  27.389  30.154  1.00  0.00     0.029 A 
ATOM     21  N   UNL A   1      40.272  29.001  30.609  1.00  0.00    -0.354 N 
ATOM     22  C   UNL A   1      43.955  29.468  28.486  1.00  0.00     0.074 A 
ATOM     23  C   UNL A   1      43.486  29.232  27.145  1.00  0.00     0.031 C 
ATOM     24  C   UNL A   1      38.152  28.344  30.845  1.00  0.00     0.029 A 
ATOM     25  C   UNL A   1      39.072  29.429  31.149  1.00  0.00     0.049 A 
ATOM     26  H   UNL A   1      41.124  29.474  30.752  1.00  0.00     0.167 HD
ATOM     27  C   UNL A   1      44.850  30.381  28.958  1.00  0.00     0.037 A 
ATOM     28  C   UNL A   1      38.826  30.622  31.736  1.00  0.00     0.037 A 
ATOM     29  C   UNL A   1      45.245  30.103  30.311  1.00  0.00     0.049 A 
ATOM     30  C   UNL A   1      40.118  31.223  32.142  1.00  0.00     0.074 A 
ATOM     31  C   UNL A   1      45.863  29.045  30.949  1.00  0.00     0.029 A 
ATOM     32  N   UNL A   1      44.795  30.915  31.319  1.00  0.00    -0.354 N 
ATOM     33  N   UNL A   1      40.868  30.787  33.114  1.00  0.00    -0.248 NA
ATOM     34  C   UNL A   1      40.761  32.151  31.225  1.00  0.00     0.031 C 
ATOM     35  C   UNL A   1      45.318  29.032  32.267  1.00  0.00     0.029 A 
ATOM     36  C   UNL A   1      44.407  30.085  32.338  1.00  0.00     0.049 A 
ATOM     37  H   UNL A   1      44.756  31.898  31.312  1.00  0.00     0.167 HD
ATOM     38  C   UNL A   1      42.164  31.059  32.709  1.00  0.00     0.074 A 
ATOM     39  C   UNL A   1      42.030  32.008  31.611  1.00  0.00     0.031 C 
ATOM     40  C   UNL A   1      43.208  30.280  33.114  1.00  0.00     0.037 A 
BRANCH  27  41
ATOM     41  C   UNL A   1      45.170  31.694  28.284  1.00  0.00     0.064 A 
ATOM     42  C   UNL A   1      44.140  32.631  28.053  1.00  0.00     0.173 A 
ATOM     43  C   UNL A   1      46.376  31.938  27.594  1.00  0.00     0.173 A 
ATOM     44  F   UNL A   1      42.941  32.488  28.636  1.00  0.00    -0.203 F 
ATOM     45  C   UNL A   1      44.285  33.683  27.144  1.00  0.00     0.198 A 
ATOM     46  C   UNL A   1      46.535  33.020  26.729  1.00  0.00     0.198 A 
ATOM     47  F   UNL A   1      47.405  31.082  27.648  1.00  0.00    -0.203 F 
ATOM     48  F   UNL A   1      43.237  34.470  26.864  1.00  0.00    -0.200 F 
ATOM     49  C   UNL A   1      45.482  33.874  26.478  1.00  0.00     0.200 A 
ATOM     50  F   UNL A   1      47.698  33.182  26.080  1.00  0.00    -0.200 F 
ATOM     51  F   UNL A   1      45.604  34.844  25.563  1.00  0.00    -0.200 F 
ENDBRANCH  27  41
BRANCH  28  52
ATOM     52  C   UNL A   1      37.560  31.385  31.738  1.00  0.00     0.064 A 
ATOM     53  C   UNL A   1      36.927  31.745  32.937  1.00  0.00     0.173 A 
ATOM     54  C   UNL A   1      37.071  31.988  30.562  1.00  0.00     0.173 A 
ATOM     55  F   UNL A   1      37.367  31.258  34.106  1.00  0.00    -0.203 F 
ATOM     56  C   UNL A   1      35.869  32.659  32.958  1.00  0.00     0.198 A 
ATOM     57  C   UNL A   1      36.008  32.888  30.582  1.00  0.00     0.198 A 
ATOM     58  F   UNL A   1      37.675  31.784  29.383  1.00  0.00    -0.203 F 
ATOM     59  F   UNL A   1      35.323  33.022  34.127  1.00  0.00    -0.200 F 
ATOM     60  C   UNL A   1      35.413  33.233  31.782  1.00  0.00     0.200 A 
ATOM     61  F   UNL A   1      35.602  33.463  29.441  1.00  0.00    -0.200 F 
ATOM     62  F   UNL A   1      34.432  34.145  31.807  1.00  0.00    -0.200 F 
ENDBRANCH  28  52
BRANCH  40  63
ATOM     63  C   UNL A   1      42.975  29.330  34.248  1.00  0.00     0.064 A 
ATOM     64  C   UNL A   1      42.291  28.111  34.105  1.00  0.00     0.173 A 
ATOM     65  C   UNL A   1      43.591  29.588  35.481  1.00  0.00     0.173 A 
ATOM     66  F   UNL A   1      41.774  27.746  32.924  1.00  0.00    -0.203 F 
ATOM     67  C   UNL A   1      42.184  27.217  35.168  1.00  0.00     0.198 A 
ATOM     68  C   UNL A   1      43.513  28.675  36.528  1.00  0.00     0.198 A 
ATOM     69  F   UNL A   1      44.314  30.706  35.651  1.00  0.00    -0.203 F 
ATOM     70  F   UNL A   1      41.517  26.064  35.010  1.00  0.00    -0.200 F 
ATOM     71  C   UNL A   1      42.800  27.496  36.376  1.00  0.00     0.200 A 
ATOM     72  F   UNL A   1      44.155  28.924  37.679  1.00  0.00    -0.200 F 
ATOM     73  F   UNL A   1      42.734  26.615  37.384  1.00  0.00    -0.200 F 
ENDBRANCH  40  63
ENDBRANCH  14  15
ENDBRANCH   7   9
ENDBRANCH   4   5
ENDBRANCH   3   4
ENDBRANCH   2   3
ENDBRANCH   1   2
BRANCH   1  74
ATOM     74  C   UNL A   1      34.515  24.517  23.618  1.00  0.00     0.021 C 
BRANCH  74  75
ATOM     75  C   UNL A   1      33.762  25.121  22.433  1.00  0.00     0.116 C 
BRANCH  75  76
ATOM     76  N   UNL A   1      33.814  26.573  22.456  1.00  0.00    -0.352 N 
ATOM     77  C   UNL A   1      32.825  27.470  22.752  1.00  0.00     0.252 C 
ATOM     78  H   UNL A   1      34.686  26.968  22.225  1.00  0.00     0.163 HD
ATOM     79  O   UNL A   1      32.968  28.651  22.422  1.00  0.00    -0.269 OA
BRANCH  77  80
ATOM     80  C   UNL A   1      31.623  27.012  23.433  1.00  0.00     0.050 A 
ATOM     81  C   UNL A   1      30.335  27.269  22.998  1.00  0.00     0.079 A 
ATOM     82  C   UNL A   1      31.605  26.162  24.590  1.00  0.00     0.031 A 
ATOM     83  S   UNL A   1      29.144  26.571  24.002  1.00  0.00    -0.146 S 
ATOM     84  C   UNL A   1      30.328  25.875  25.029  1.00  0.00     0.024 A 
BRANCH  84  85
ATOM     85  C   UNL A   1      29.900  25.083  26.235  1.00  0.00     0.159 C 
BRANCH  85  86
ATOM     86  N   UNL A   1      31.036  24.541  26.968  1.00  0.00    -0.379 N 
ATOM     87  H   UNL A   1      31.415  25.047  27.723  1.00  0.00     0.160 HD
BRANCH  86  88
ATOM     88  C   UNL A   1      31.589  23.322  26.617  1.00  0.00     0.053 A 
ATOM     89  C   UNL A   1      32.871  22.938  26.999  1.00  0.00     0.031 A 
ATOM     90  C   UNL A   1      30.905  22.432  25.789  1.00  0.00     0.139 A 
ATOM     91  C   UNL A   1      33.391  21.702  26.604  1.00  0.00     0.051 A 
ATOM     92  N   UNL A   1      31.389  21.248  25.348  1.00  0.00    -0.235 NA
ATOM     93  C   UNL A   1      32.623  20.882  25.777  1.00  0.00     0.153 A 
BRANCH  93  94
ATOM     94  N   UNL A   1      33.145  19.615  25.361  1.00  0.00    -0.223 N 
ATOM     95  C   UNL A   1      34.284  19.378  24.613  1.00  0.00     0.117 A 
ATOM     96  N   UNL A   1      32.526  18.445  25.685  1.00  0.00    -0.175 NA
ATOM     97  C   UNL A   1      34.367  18.020  24.418  1.00  0.00     0.042 A 
ATOM     98  C   UNL A   1      33.244  17.502  25.077  1.00  0.00     0.135 A 
ENDBRANCH  93  94
ENDBRANCH  86  88
ENDBRANCH  85  86
ENDBRANCH  84  85
ENDBRANCH  77  80
ENDBRANCH  75  76
ENDBRANCH  74  75
ENDBRANCH   1  74
TORSDOF 17
ENDMDL
