MODEL 1
REMARK VINA RESULT:     -12.3      0.000      0.000
REMARK SMILES C[C@H]1[C@@H](C(=O)NCCCCCCNC(=O)c2ccc(-c3c4nc(c(-c5c(F)c(F)c(F)c(F)c5F)c5ccc([nH]5)c(-c5c(F)c(F)c(F)c(F)c5F)c5nc(c(-c6c(F)c(F)c(F)c(F)c6F)c6ccc3[nH]6)C=C5)C=C4)cc2)CCN1C(=O)c1cc2cc(F)ccc2s1
REMARK SMILES IDX 9 1 8 2 7 3 6 4 4 5 5 6 3 8 1 9 2 10 81 11 79 12 80 13 82 14
REMARK SMILES IDX 83 15 84 16 85 17 93 18 86 19 92 20 87 21 91 22 88 23 90 24
REMARK SMILES IDX 89 25 10 26 11 27 12 28 13 29 14 30 15 32 16 33 17 34 78 35
REMARK SMILES IDX 18 36 77 37 19 38 20 39 21 40 71 41 22 42 76 43 70 44 72 45
REMARK SMILES IDX 23 46 75 47 69 48 68 49 24 51 56 52 36 53 55 54 37 55 40 56
REMARK SMILES IDX 54 57 73 58 38 59 39 60 53 62 74 63 41 64 25 65 26 66 34 67
REMARK SMILES IDX 27 68 28 69 32 70 35 71 29 72 30 73 33 74 31 75 57 76 58 77
REMARK SMILES IDX 66 78 59 79 60 80 64 81 67 82 61 83 62 84 65 85 63 86 42 87
REMARK SMILES IDX 43 88 51 89 44 90 45 91 49 92 52 93 46 94 47 95 50 96 48 97
REMARK H PARENT 6 7 13 31 72 50 40 61
REMARK Flexibility Score: inf
ROOT
ATOM      1  C   UNL A   1      35.044  32.775  28.053  1.00  0.00     0.002 C 
ENDROOT
BRANCH   1   2
ATOM      2  C   UNL A   1      33.770  31.929  27.995  1.00  0.00     0.021 C 
BRANCH   2   3
ATOM      3  C   UNL A   1      33.935  30.612  27.232  1.00  0.00     0.116 C 
BRANCH   3   4
ATOM      4  N   UNL A   1      32.711  30.326  26.509  1.00  0.00    -0.356 N 
ATOM      5  C   UNL A   1      32.431  29.360  25.590  1.00  0.00     0.225 C 
ATOM      6  O   UNL A   1      31.373  29.474  24.969  1.00  0.00    -0.275 OA
ATOM      7  H   UNL A   1      31.959  30.928  26.716  1.00  0.00     0.163 HD
BRANCH   5   8
ATOM      8  C   UNL A   1      33.355  28.152  25.425  1.00  0.00     0.102 C 
ATOM      9  C   UNL A   1      34.129  28.905  23.037  1.00  0.00     0.032 C 
ATOM     10  C   UNL A   1      33.825  27.778  24.003  1.00  0.00     0.094 C 
ATOM     11  N   UNL A   1      32.841  26.826  23.475  1.00  0.00    -0.334 N 
ATOM     12  C   UNL A   1      32.598  26.872  25.821  1.00  0.00     0.037 C 
ATOM     13  C   UNL A   1      31.898  26.478  24.527  1.00  0.00     0.121 C 
BRANCH  11  14
ATOM     14  C   UNL A   1      33.331  25.779  22.693  1.00  0.00     0.264 C 
ATOM     15  O   UNL A   1      33.665  25.983  21.523  1.00  0.00    -0.268 OA
BRANCH  14  16
ATOM     16  C   UNL A   1      33.385  24.457  23.294  1.00  0.00     0.093 A 
ATOM     17  C   UNL A   1      32.489  23.431  23.071  1.00  0.00     0.034 A 
ATOM     18  S   UNL A   1      34.666  23.945  24.299  1.00  0.00    -0.130 S 
ATOM     19  C   UNL A   1      32.890  22.184  23.650  1.00  0.00    -0.004 A 
ATOM     20  C   UNL A   1      34.099  22.315  24.338  1.00  0.00     0.035 A 
ATOM     21  C   UNL A   1      32.285  20.908  23.585  1.00  0.00     0.048 A 
ATOM     22  C   UNL A   1      34.722  21.207  24.949  1.00  0.00     0.022 A 
ATOM     23  C   UNL A   1      32.914  19.814  24.174  1.00  0.00     0.123 A 
ATOM     24  C   UNL A   1      34.118  19.951  24.844  1.00  0.00     0.041 A 
ATOM     25  F   UNL A   1      32.349  18.603  24.075  1.00  0.00    -0.207 F 
ENDBRANCH  14  16
ENDBRANCH  11  14
ENDBRANCH   5   8
ENDBRANCH   3   4
ENDBRANCH   2   3
ENDBRANCH   1   2
BRANCH   1  26
ATOM     26  C   UNL A   1      34.892  34.096  28.813  1.00  0.00     0.002 C 
BRANCH  26  27
ATOM     27  C   UNL A   1      33.467  34.657  28.903  1.00  0.00     0.021 C 
BRANCH  27  28
ATOM     28  C   UNL A   1      33.349  36.103  29.386  1.00  0.00     0.116 C 
BRANCH  28  29
ATOM     29  N   UNL A   1      32.472  36.232  30.535  1.00  0.00    -0.352 N 
ATOM     30  C   UNL A   1      32.584  35.684  31.788  1.00  0.00     0.251 C 
ATOM     31  H   UNL A   1      31.679  36.798  30.396  1.00  0.00     0.163 HD
ATOM     32  O   UNL A   1      31.652  35.772  32.584  1.00  0.00    -0.269 OA
BRANCH  30  33
ATOM     33  C   UNL A   1      33.814  34.967  32.186  1.00  0.00     0.039 A 
ATOM     34  C   UNL A   1      33.713  33.625  32.565  1.00  0.00     0.014 A 
ATOM     35  C   UNL A   1      35.051  35.618  32.235  1.00  0.00     0.014 A 
ATOM     36  C   UNL A   1      34.855  32.920  32.945  1.00  0.00     0.010 A 
ATOM     37  C   UNL A   1      36.199  34.903  32.579  1.00  0.00     0.010 A 
ATOM     38  C   UNL A   1      36.110  33.550  32.938  1.00  0.00    -0.014 A 
BRANCH  38  39
ATOM     39  C   UNL A   1      37.335  32.806  33.315  1.00  0.00     0.031 A 
ATOM     40  C   UNL A   1      38.021  33.092  34.619  1.00  0.00     0.074 A 
ATOM     41  C   UNL A   1      37.859  31.907  32.463  1.00  0.00     0.049 A 
ATOM     42  N   UNL A   1      39.138  32.598  35.093  1.00  0.00    -0.248 NA
ATOM     43  C   UNL A   1      37.376  34.077  35.501  1.00  0.00     0.031 C 
ATOM     44  C   UNL A   1      37.305  31.559  31.154  1.00  0.00     0.029 A 
ATOM     45  N   UNL A   1      38.984  31.128  32.567  1.00  0.00    -0.354 N 
ATOM     46  C   UNL A   1      39.341  33.226  36.312  1.00  0.00     0.074 A 
ATOM     47  C   UNL A   1      38.243  34.151  36.502  1.00  0.00     0.031 C 
ATOM     48  C   UNL A   1      38.086  30.629  30.580  1.00  0.00     0.029 A 
ATOM     49  C   UNL A   1      39.206  30.334  31.469  1.00  0.00     0.049 A 
ATOM     50  H   UNL A   1      39.577  31.138  33.353  1.00  0.00     0.167 HD
ATOM     51  C   UNL A   1      40.347  33.041  37.200  1.00  0.00     0.037 A 
ATOM     52  C   UNL A   1      40.204  29.469  31.208  1.00  0.00     0.037 A 
ATOM     53  C   UNL A   1      41.419  32.097  37.036  1.00  0.00     0.049 A 
ATOM     54  C   UNL A   1      41.294  29.263  32.220  1.00  0.00     0.074 A 
ATOM     55  C   UNL A   1      42.450  31.799  37.912  1.00  0.00     0.029 A 
ATOM     56  N   UNL A   1      41.595  31.294  35.921  1.00  0.00    -0.354 N 
ATOM     57  N   UNL A   1      41.455  29.837  33.388  1.00  0.00    -0.248 NA
ATOM     58  C   UNL A   1      42.340  28.289  31.880  1.00  0.00     0.031 C 
ATOM     59  C   UNL A   1      43.262  30.826  37.318  1.00  0.00     0.029 A 
ATOM     60  C   UNL A   1      42.724  30.505  36.081  1.00  0.00     0.049 A 
ATOM     61  H   UNL A   1      41.007  31.283  35.133  1.00  0.00     0.167 HD
ATOM     62  C   UNL A   1      42.608  29.286  33.927  1.00  0.00     0.074 A 
ATOM     63  C   UNL A   1      43.105  28.325  32.963  1.00  0.00     0.031 C 
ATOM     64  C   UNL A   1      43.202  29.554  35.114  1.00  0.00     0.037 A 
BRANCH  51  65
ATOM     65  C   UNL A   1      40.334  33.886  38.435  1.00  0.00     0.064 A 
ATOM     66  C   UNL A   1      39.638  33.485  39.586  1.00  0.00     0.173 A 
ATOM     67  C   UNL A   1      41.048  35.091  38.480  1.00  0.00     0.173 A 
ATOM     68  F   UNL A   1      38.931  32.346  39.583  1.00  0.00    -0.203 F 
ATOM     69  C   UNL A   1      39.644  34.273  40.733  1.00  0.00     0.198 A 
ATOM     70  C   UNL A   1      41.065  35.869  39.634  1.00  0.00     0.198 A 
ATOM     71  F   UNL A   1      41.728  35.514  37.404  1.00  0.00    -0.203 F 
ATOM     72  F   UNL A   1      38.948  33.889  41.811  1.00  0.00    -0.200 F 
ATOM     73  C   UNL A   1      40.361  35.461  40.759  1.00  0.00     0.200 A 
ATOM     74  F   UNL A   1      41.760  37.014  39.660  1.00  0.00    -0.200 F 
ATOM     75  F   UNL A   1      40.365  36.218  41.864  1.00  0.00    -0.200 F 
ENDBRANCH  51  65
BRANCH  52  76
ATOM     76  C   UNL A   1      40.204  28.714  29.933  1.00  0.00     0.064 A 
ATOM     77  C   UNL A   1      39.586  27.461  29.845  1.00  0.00     0.173 A 
ATOM     78  C   UNL A   1      40.807  29.235  28.780  1.00  0.00     0.173 A 
ATOM     79  F   UNL A   1      39.015  26.918  30.930  1.00  0.00    -0.203 F 
ATOM     80  C   UNL A   1      39.577  26.749  28.648  1.00  0.00     0.198 A 
ATOM     81  C   UNL A   1      40.784  28.529  27.580  1.00  0.00     0.198 A 
ATOM     82  F   UNL A   1      41.409  30.432  28.820  1.00  0.00    -0.203 F 
ATOM     83  F   UNL A   1      39.000  25.541  28.593  1.00  0.00    -0.200 F 
ATOM     84  C   UNL A   1      40.172  27.286  27.515  1.00  0.00     0.200 A 
ATOM     85  F   UNL A   1      41.354  29.053  26.486  1.00  0.00    -0.200 F 
ATOM     86  F   UNL A   1      40.158  26.603  26.363  1.00  0.00    -0.200 F 
ENDBRANCH  52  76
BRANCH  64  87
ATOM     87  C   UNL A   1      44.443  28.787  35.444  1.00  0.00     0.064 A 
ATOM     88  C   UNL A   1      45.711  29.272  35.093  1.00  0.00     0.173 A 
ATOM     89  C   UNL A   1      44.367  27.576  36.146  1.00  0.00     0.173 A 
ATOM     90  F   UNL A   1      45.828  30.418  34.406  1.00  0.00    -0.203 F 
ATOM     91  C   UNL A   1      46.862  28.563  35.427  1.00  0.00     0.198 A 
ATOM     92  C   UNL A   1      45.520  26.878  36.490  1.00  0.00     0.198 A 
ATOM     93  F   UNL A   1      43.175  27.074  36.500  1.00  0.00    -0.203 F 
ATOM     94  F   UNL A   1      48.064  29.030  35.060  1.00  0.00    -0.200 F 
ATOM     95  C   UNL A   1      46.766  27.371  36.128  1.00  0.00     0.200 A 
ATOM     96  F   UNL A   1      45.428  25.726  37.169  1.00  0.00    -0.200 F 
ATOM     97  F   UNL A   1      47.875  26.690  36.449  1.00  0.00    -0.200 F 
ENDBRANCH  64  87
ENDBRANCH  38  39
ENDBRANCH  30  33
ENDBRANCH  28  29
ENDBRANCH  27  28
ENDBRANCH  26  27
ENDBRANCH   1  26
TORSDOF 15
ENDMDL
MODEL 2
REMARK VINA RESULT:     -12.3      0.805      1.833
REMARK SMILES C[C@H]1[C@@H](C(=O)NCCCCCCNC(=O)c2ccc(-c3c4nc(c(-c5c(F)c(F)c(F)c(F)c5F)c5ccc([nH]5)c(-c5c(F)c(F)c(F)c(F)c5F)c5nc(c(-c6c(F)c(F)c(F)c(F)c6F)c6ccc3[nH]6)C=C5)C=C4)cc2)CCN1C(=O)c1cc2cc(F)ccc2s1
REMARK SMILES IDX 9 1 8 2 7 3 6 4 4 5 5 6 3 8 1 9 2 10 81 11 79 12 80 13 82 14
REMARK SMILES IDX 83 15 84 16 85 17 93 18 86 19 92 20 87 21 91 22 88 23 90 24
REMARK SMILES IDX 89 25 10 26 11 27 12 28 13 29 14 30 15 32 16 33 17 34 78 35
REMARK SMILES IDX 18 36 77 37 19 38 20 39 21 40 71 41 22 42 76 43 70 44 72 45
REMARK SMILES IDX 23 46 75 47 69 48 68 49 24 51 56 52 36 53 55 54 37 55 40 56
REMARK SMILES IDX 54 57 73 58 38 59 39 60 53 62 74 63 41 64 25 65 26 66 34 67
REMARK SMILES IDX 27 68 28 69 32 70 35 71 29 72 30 73 33 74 31 75 57 76 58 77
REMARK SMILES IDX 66 78 59 79 60 80 64 81 67 82 61 83 62 84 65 85 63 86 42 87
REMARK SMILES IDX 43 88 51 89 44 90 45 91 49 92 52 93 46 94 47 95 50 96 48 97
REMARK H PARENT 6 7 13 31 72 50 40 61
REMARK Flexibility Score: inf
ROOT
ATOM      1  C   UNL A   1      34.025  32.207  28.267  1.00  0.00     0.002 C 
ENDROOT
BRANCH   1   2
ATOM      2  C   UNL A   1      35.288  31.384  27.999  1.00  0.00     0.021 C 
BRANCH   2   3
ATOM      3  C   UNL A   1      35.007  29.937  27.584  1.00  0.00     0.116 C 
BRANCH   3   4
ATOM      4  N   UNL A   1      33.578  29.700  27.625  1.00  0.00    -0.356 N 
ATOM      5  C   UNL A   1      32.808  28.811  26.937  1.00  0.00     0.225 C 
ATOM      6  O   UNL A   1      31.587  28.966  27.003  1.00  0.00    -0.275 OA
ATOM      7  H   UNL A   1      33.082  30.273  28.254  1.00  0.00     0.163 HD
BRANCH   5   8
ATOM      8  C   UNL A   1      33.448  27.631  26.203  1.00  0.00     0.102 C 
ATOM      9  C   UNL A   1      33.608  28.954  23.945  1.00  0.00     0.032 C 
ATOM     10  C   UNL A   1      33.426  27.629  24.659  1.00  0.00     0.094 C 
ATOM     11  N   UNL A   1      32.197  26.933  24.261  1.00  0.00    -0.334 N 
ATOM     12  C   UNL A   1      32.650  26.350  26.501  1.00  0.00     0.037 C 
ATOM     13  C   UNL A   1      31.555  26.379  25.442  1.00  0.00     0.121 C 
BRANCH  11  14
ATOM     14  C   UNL A   1      32.274  26.108  23.137  1.00  0.00     0.264 C 
ATOM     15  O   UNL A   1      31.930  26.534  22.032  1.00  0.00    -0.268 OA
BRANCH  14  16
ATOM     16  C   UNL A   1      32.726  24.741  23.334  1.00  0.00     0.093 A 
ATOM     17  C   UNL A   1      34.031  24.346  23.555  1.00  0.00     0.034 A 
ATOM     18  S   UNL A   1      31.659  23.415  23.434  1.00  0.00    -0.130 S 
ATOM     19  C   UNL A   1      34.159  22.962  23.899  1.00  0.00    -0.004 A 
ATOM     20  C   UNL A   1      32.915  22.326  23.899  1.00  0.00     0.035 A 
ATOM     21  C   UNL A   1      35.302  22.210  24.258  1.00  0.00     0.048 A 
ATOM     22  C   UNL A   1      32.782  20.969  24.259  1.00  0.00     0.022 A 
ATOM     23  C   UNL A   1      35.162  20.876  24.631  1.00  0.00     0.123 A 
ATOM     24  C   UNL A   1      33.923  20.258  24.639  1.00  0.00     0.041 A 
ATOM     25  F   UNL A   1      36.247  20.184  25.004  1.00  0.00    -0.207 F 
ENDBRANCH  14  16
ENDBRANCH  11  14
ENDBRANCH   5   8
ENDBRANCH   3   4
ENDBRANCH   2   3
ENDBRANCH   1   2
BRANCH   1  26
ATOM     26  C   UNL A   1      34.292  33.661  28.666  1.00  0.00     0.002 C 
BRANCH  26  27
ATOM     27  C   UNL A   1      33.070  34.590  28.669  1.00  0.00     0.021 C 
BRANCH  27  28
ATOM     28  C   UNL A   1      33.299  35.991  29.235  1.00  0.00     0.116 C 
BRANCH  28  29
ATOM     29  N   UNL A   1      32.471  36.260  30.397  1.00  0.00    -0.352 N 
ATOM     30  C   UNL A   1      32.601  35.814  31.687  1.00  0.00     0.251 C 
ATOM     31  H   UNL A   1      31.700  36.850  30.233  1.00  0.00     0.163 HD
ATOM     32  O   UNL A   1      31.703  36.016  32.501  1.00  0.00    -0.269 OA
BRANCH  30  33
ATOM     33  C   UNL A   1      33.810  35.074  32.107  1.00  0.00     0.039 A 
ATOM     34  C   UNL A   1      33.668  33.748  32.528  1.00  0.00     0.014 A 
ATOM     35  C   UNL A   1      35.066  35.689  32.135  1.00  0.00     0.014 A 
ATOM     36  C   UNL A   1      34.790  33.021  32.930  1.00  0.00     0.010 A 
ATOM     37  C   UNL A   1      36.192  34.951  32.500  1.00  0.00     0.010 A 
ATOM     38  C   UNL A   1      36.063  33.613  32.902  1.00  0.00    -0.014 A 
BRANCH  38  39
ATOM     39  C   UNL A   1      37.266  32.845  33.301  1.00  0.00     0.031 A 
ATOM     40  C   UNL A   1      37.949  33.135  34.606  1.00  0.00     0.074 A 
ATOM     41  C   UNL A   1      37.773  31.918  32.468  1.00  0.00     0.049 A 
ATOM     42  N   UNL A   1      39.049  32.622  35.096  1.00  0.00    -0.248 NA
ATOM     43  C   UNL A   1      37.322  34.151  35.466  1.00  0.00     0.031 C 
ATOM     44  C   UNL A   1      37.220  31.562  31.162  1.00  0.00     0.029 A 
ATOM     45  N   UNL A   1      38.877  31.113  32.594  1.00  0.00    -0.354 N 
ATOM     46  C   UNL A   1      39.259  33.265  36.307  1.00  0.00     0.074 A 
ATOM     47  C   UNL A   1      38.183  34.221  36.471  1.00  0.00     0.031 C 
ATOM     48  C   UNL A   1      37.982  30.603  30.609  1.00  0.00     0.029 A 
ATOM     49  C   UNL A   1      39.088  30.295  31.512  1.00  0.00     0.049 A 
ATOM     50  H   UNL A   1      39.464  31.121  33.385  1.00  0.00     0.167 HD
ATOM     51  C   UNL A   1      40.253  33.070  37.205  1.00  0.00     0.037 A 
ATOM     52  C   UNL A   1      40.065  29.400  31.274  1.00  0.00     0.037 A 
ATOM     53  C   UNL A   1      41.302  32.096  37.067  1.00  0.00     0.049 A 
ATOM     54  C   UNL A   1      41.142  29.185  32.298  1.00  0.00     0.074 A 
ATOM     55  C   UNL A   1      42.318  31.788  37.955  1.00  0.00     0.029 A 
ATOM     56  N   UNL A   1      41.466  31.270  35.967  1.00  0.00    -0.354 N 
ATOM     57  N   UNL A   1      41.308  29.774  33.457  1.00  0.00    -0.248 NA
ATOM     58  C   UNL A   1      42.165  28.179  31.983  1.00  0.00     0.031 C 
ATOM     59  C   UNL A   1      43.110  30.784  37.384  1.00  0.00     0.029 A 
ATOM     60  C   UNL A   1      42.573  30.456  36.149  1.00  0.00     0.049 A 
ATOM     61  H   UNL A   1      40.883  31.261  35.174  1.00  0.00     0.167 HD
ATOM     62  C   UNL A   1      42.442  29.203  34.015  1.00  0.00     0.074 A 
ATOM     63  C   UNL A   1      42.922  28.213  33.071  1.00  0.00     0.031 C 
ATOM     64  C   UNL A   1      43.034  29.476  35.202  1.00  0.00     0.037 A 
BRANCH  51  65
ATOM     65  C   UNL A   1      40.252  33.935  38.426  1.00  0.00     0.064 A 
ATOM     66  C   UNL A   1      40.974  35.137  38.470  1.00  0.00     0.173 A 
ATOM     67  C   UNL A   1      39.498  33.575  39.552  1.00  0.00     0.173 A 
ATOM     68  F   UNL A   1      41.719  35.513  37.421  1.00  0.00    -0.203 F 
ATOM     69  C   UNL A   1      40.956  35.939  39.607  1.00  0.00     0.198 A 
ATOM     70  C   UNL A   1      39.469  34.388  40.682  1.00  0.00     0.198 A 
ATOM     71  F   UNL A   1      38.791  32.435  39.556  1.00  0.00    -0.203 F 
ATOM     72  F   UNL A   1      41.678  37.067  39.641  1.00  0.00    -0.200 F 
ATOM     73  C   UNL A   1      40.200  35.567  40.710  1.00  0.00     0.200 A 
ATOM     74  F   UNL A   1      38.736  34.030  41.745  1.00  0.00    -0.200 F 
ATOM     75  F   UNL A   1      40.183  36.341  41.804  1.00  0.00    -0.200 F 
ENDBRANCH  51  65
BRANCH  52  76
ATOM     76  C   UNL A   1      40.056  28.624  30.012  1.00  0.00     0.064 A 
ATOM     77  C   UNL A   1      40.661  29.133  28.857  1.00  0.00     0.173 A 
ATOM     78  C   UNL A   1      39.456  27.360  29.940  1.00  0.00     0.173 A 
ATOM     79  F   UNL A   1      41.229  30.348  28.877  1.00  0.00    -0.203 F 
ATOM     80  C   UNL A   1      40.661  28.406  27.668  1.00  0.00     0.198 A 
ATOM     81  C   UNL A   1      39.470  26.627  28.756  1.00  0.00     0.198 A 
ATOM     82  F   UNL A   1      38.866  26.835  31.024  1.00  0.00    -0.203 F 
ATOM     83  F   UNL A   1      41.226  28.923  26.569  1.00  0.00    -0.200 F 
ATOM     84  C   UNL A   1      40.069  27.152  27.620  1.00  0.00     0.200 A 
ATOM     85  F   UNL A   1      38.903  25.414  28.715  1.00  0.00    -0.200 F 
ATOM     86  F   UNL A   1      40.074  26.452  26.478  1.00  0.00    -0.200 F 
ENDBRANCH  52  76
BRANCH  64  87
ATOM     87  C   UNL A   1      44.253  28.684  35.554  1.00  0.00     0.064 A 
ATOM     88  C   UNL A   1      45.534  29.119  35.186  1.00  0.00     0.173 A 
ATOM     89  C   UNL A   1      44.143  27.500  36.297  1.00  0.00     0.173 A 
ATOM     90  F   UNL A   1      45.683  30.238  34.461  1.00  0.00    -0.203 F 
ATOM     91  C   UNL A   1      46.664  28.387  35.541  1.00  0.00     0.198 A 
ATOM     92  C   UNL A   1      45.276  26.779  36.662  1.00  0.00     0.198 A 
ATOM     93  F   UNL A   1      42.937  27.046  36.669  1.00  0.00    -0.203 F 
ATOM     94  F   UNL A   1      47.878  28.805  35.155  1.00  0.00    -0.200 F 
ATOM     95  C   UNL A   1      46.535  27.222  36.281  1.00  0.00     0.200 A 
ATOM     96  F   UNL A   1      45.151  25.654  37.378  1.00  0.00    -0.200 F 
ATOM     97  F   UNL A   1      47.624  26.520  36.622  1.00  0.00    -0.200 F 
ENDBRANCH  64  87
ENDBRANCH  38  39
ENDBRANCH  30  33
ENDBRANCH  28  29
ENDBRANCH  27  28
ENDBRANCH  26  27
ENDBRANCH   1  26
TORSDOF 15
ENDMDL
MODEL 3
REMARK VINA RESULT:     -12.2      1.797      7.725
REMARK SMILES C[C@H]1[C@@H](C(=O)NCCCCCCNC(=O)c2ccc(-c3c4nc(c(-c5c(F)c(F)c(F)c(F)c5F)c5ccc([nH]5)c(-c5c(F)c(F)c(F)c(F)c5F)c5nc(c(-c6c(F)c(F)c(F)c(F)c6F)c6ccc3[nH]6)C=C5)C=C4)cc2)CCN1C(=O)c1cc2cc(F)ccc2s1
REMARK SMILES IDX 9 1 8 2 7 3 6 4 4 5 5 6 3 8 1 9 2 10 81 11 79 12 80 13 82 14
REMARK SMILES IDX 83 15 84 16 85 17 93 18 86 19 92 20 87 21 91 22 88 23 90 24
REMARK SMILES IDX 89 25 10 26 11 27 12 28 13 29 14 30 15 32 16 33 17 34 78 35
REMARK SMILES IDX 18 36 77 37 19 38 20 39 21 40 71 41 22 42 76 43 70 44 72 45
REMARK SMILES IDX 23 46 75 47 69 48 68 49 24 51 56 52 36 53 55 54 37 55 40 56
REMARK SMILES IDX 54 57 73 58 38 59 39 60 53 62 74 63 41 64 25 65 26 66 34 67
REMARK SMILES IDX 27 68 28 69 32 70 35 71 29 72 30 73 33 74 31 75 57 76 58 77
REMARK SMILES IDX 66 78 59 79 60 80 64 81 67 82 61 83 62 84 65 85 63 86 42 87
REMARK SMILES IDX 43 88 51 89 44 90 45 91 49 92 52 93 46 94 47 95 50 96 48 97
REMARK H PARENT 6 7 13 31 72 50 40 61
REMARK Flexibility Score: inf
ROOT
ATOM      1  C   UNL A   1      32.734  29.845  25.737  1.00  0.00     0.002 C 
ENDROOT
BRANCH   1   2
ATOM      2  C   UNL A   1      33.222  29.335  24.379  1.00  0.00     0.021 C 
BRANCH   2   3
ATOM      3  C   UNL A   1      32.136  28.646  23.549  1.00  0.00     0.116 C 
BRANCH   3   4
ATOM      4  N   UNL A   1      32.764  27.817  22.539  1.00  0.00    -0.356 N 
ATOM      5  C   UNL A   1      33.037  26.482  22.533  1.00  0.00     0.225 C 
ATOM      6  O   UNL A   1      33.775  26.070  21.636  1.00  0.00    -0.275 OA
ATOM      7  H   UNL A   1      33.036  28.297  21.723  1.00  0.00     0.163 HD
BRANCH   5   8
ATOM      8  C   UNL A   1      32.372  25.548  23.545  1.00  0.00     0.102 C 
ATOM      9  C   UNL A   1      34.059  26.192  25.446  1.00  0.00     0.032 C 
ATOM     10  C   UNL A   1      33.168  25.146  24.805  1.00  0.00     0.094 C 
ATOM     11  N   UNL A   1      33.892  23.915  24.467  1.00  0.00    -0.334 N 
ATOM     12  C   UNL A   1      32.148  24.170  22.898  1.00  0.00     0.037 C 
ATOM     13  C   UNL A   1      33.471  23.458  23.152  1.00  0.00     0.121 C 
BRANCH  11  14
ATOM     14  C   UNL A   1      33.998  22.948  25.468  1.00  0.00     0.264 C 
ATOM     15  O   UNL A   1      34.268  23.281  26.624  1.00  0.00    -0.268 OA
BRANCH  14  16
ATOM     16  C   UNL A   1      33.822  21.557  25.084  1.00  0.00     0.093 A 
ATOM     17  C   UNL A   1      34.835  20.644  24.873  1.00  0.00     0.034 A 
ATOM     18  S   UNL A   1      32.291  20.818  24.947  1.00  0.00    -0.130 S 
ATOM     19  C   UNL A   1      34.367  19.303  24.686  1.00  0.00    -0.004 A 
ATOM     20  C   UNL A   1      32.972  19.247  24.732  1.00  0.00     0.035 A 
ATOM     21  C   UNL A   1      35.087  18.098  24.513  1.00  0.00     0.048 A 
ATOM     22  C   UNL A   1      32.281  18.021  24.625  1.00  0.00     0.022 A 
ATOM     23  C   UNL A   1      34.400  16.890  24.427  1.00  0.00     0.123 A 
ATOM     24  C   UNL A   1      33.018  16.842  24.486  1.00  0.00     0.041 A 
ATOM     25  F   UNL A   1      35.094  15.751  24.300  1.00  0.00    -0.207 F 
ENDBRANCH  14  16
ENDBRANCH  11  14
ENDBRANCH   5   8
ENDBRANCH   3   4
ENDBRANCH   2   3
ENDBRANCH   1   2
BRANCH   1  26
ATOM     26  C   UNL A   1      31.332  30.459  25.715  1.00  0.00     0.002 C 
BRANCH  26  27
ATOM     27  C   UNL A   1      31.203  31.856  26.339  1.00  0.00     0.021 C 
BRANCH  27  28
ATOM     28  C   UNL A   1      32.466  32.413  26.995  1.00  0.00     0.116 C 
BRANCH  28  29
ATOM     29  N   UNL A   1      32.319  33.802  27.389  1.00  0.00    -0.352 N 
ATOM     30  C   UNL A   1      33.001  34.520  28.337  1.00  0.00     0.251 C 
ATOM     31  H   UNL A   1      31.625  34.303  26.903  1.00  0.00     0.163 HD
ATOM     32  O   UNL A   1      32.622  35.647  28.647  1.00  0.00    -0.269 OA
BRANCH  30  33
ATOM     33  C   UNL A   1      34.186  33.943  29.007  1.00  0.00     0.039 A 
ATOM     34  C   UNL A   1      33.994  32.915  29.935  1.00  0.00     0.014 A 
ATOM     35  C   UNL A   1      35.472  34.437  28.764  1.00  0.00     0.014 A 
ATOM     36  C   UNL A   1      35.091  32.348  30.584  1.00  0.00     0.010 A 
ATOM     37  C   UNL A   1      36.572  33.844  29.384  1.00  0.00     0.010 A 
ATOM     38  C   UNL A   1      36.390  32.797  30.300  1.00  0.00    -0.014 A 
BRANCH  38  39
ATOM     39  C   UNL A   1      37.567  32.186  30.963  1.00  0.00     0.031 A 
ATOM     40  C   UNL A   1      38.369  31.132  30.257  1.00  0.00     0.074 A 
ATOM     41  C   UNL A   1      37.887  32.546  32.219  1.00  0.00     0.049 A 
ATOM     42  N   UNL A   1      39.385  30.433  30.696  1.00  0.00    -0.248 NA
ATOM     43  C   UNL A   1      37.964  30.808  28.880  1.00  0.00     0.031 C 
ATOM     44  C   UNL A   1      37.172  33.537  33.023  1.00  0.00     0.029 A 
ATOM     45  N   UNL A   1      38.893  32.109  33.044  1.00  0.00    -0.354 N 
ATOM     46  C   UNL A   1      39.726  29.573  29.662  1.00  0.00     0.074 A 
ATOM     47  C   UNL A   1      38.798  29.823  28.579  1.00  0.00     0.031 C 
ATOM     48  C   UNL A   1      37.766  33.639  34.224  1.00  0.00     0.029 A 
ATOM     49  C   UNL A   1      38.888  32.706  34.280  1.00  0.00     0.049 A 
ATOM     50  H   UNL A   1      39.554  31.430  32.776  1.00  0.00     0.167 HD
ATOM     51  C   UNL A   1      40.728  28.664  29.617  1.00  0.00     0.037 A 
ATOM     52  C   UNL A   1      39.696  32.518  35.341  1.00  0.00     0.037 A 
ATOM     53  C   UNL A   1      41.677  28.437  30.674  1.00  0.00     0.049 A 
ATOM     54  C   UNL A   1      40.815  31.521  35.256  1.00  0.00     0.074 A 
ATOM     55  C   UNL A   1      42.762  27.577  30.693  1.00  0.00     0.029 A 
ATOM     56  N   UNL A   1      41.653  29.080  31.902  1.00  0.00    -0.354 N 
ATOM     57  N   UNL A   1      41.150  30.740  34.258  1.00  0.00    -0.248 NA
ATOM     58  C   UNL A   1      41.671  31.382  36.442  1.00  0.00     0.031 C 
ATOM     59  C   UNL A   1      43.387  27.688  31.941  1.00  0.00     0.029 A 
ATOM     60  C   UNL A   1      42.700  28.630  32.690  1.00  0.00     0.049 A 
ATOM     61  H   UNL A   1      40.992  29.756  32.173  1.00  0.00     0.167 HD
ATOM     62  C   UNL A   1      42.260  30.028  34.689  1.00  0.00     0.074 A 
ATOM     63  C   UNL A   1      42.549  30.474  36.037  1.00  0.00     0.031 C 
ATOM     64  C   UNL A   1      42.974  29.087  34.026  1.00  0.00     0.037 A 
BRANCH  51  65
ATOM     65  C   UNL A   1      40.849  27.839  28.374  1.00  0.00     0.064 A 
ATOM     66  C   UNL A   1      41.619  28.270  27.284  1.00  0.00     0.173 A 
ATOM     67  C   UNL A   1      40.213  26.593  28.284  1.00  0.00     0.173 A 
ATOM     68  F   UNL A   1      42.233  29.461  27.322  1.00  0.00    -0.203 F 
ATOM     69  C   UNL A   1      41.733  27.487  26.138  1.00  0.00     0.198 A 
ATOM     70  C   UNL A   1      40.343  25.806  27.144  1.00  0.00     0.198 A 
ATOM     71  F   UNL A   1      39.467  26.139  29.302  1.00  0.00    -0.203 F 
ATOM     72  F   UNL A   1      42.448  27.931  25.095  1.00  0.00    -0.200 F 
ATOM     73  C   UNL A   1      41.100  26.255  26.070  1.00  0.00     0.200 A 
ATOM     74  F   UNL A   1      39.735  24.614  27.079  1.00  0.00    -0.200 F 
ATOM     75  F   UNL A   1      41.211  25.503  24.967  1.00  0.00    -0.200 F 
ENDBRANCH  51  65
BRANCH  52  76
ATOM     76  C   UNL A   1      39.482  33.312  36.574  1.00  0.00     0.064 A 
ATOM     77  C   UNL A   1      40.099  34.557  36.737  1.00  0.00     0.173 A 
ATOM     78  C   UNL A   1      38.649  32.848  37.601  1.00  0.00     0.173 A 
ATOM     79  F   UNL A   1      40.920  35.027  35.786  1.00  0.00    -0.203 F 
ATOM     80  C   UNL A   1      39.898  35.312  37.890  1.00  0.00     0.198 A 
ATOM     81  C   UNL A   1      38.436  33.610  38.747  1.00  0.00     0.198 A 
ATOM     82  F   UNL A   1      38.037  31.661  37.485  1.00  0.00    -0.203 F 
ATOM     83  F   UNL A   1      40.518  36.490  38.035  1.00  0.00    -0.200 F 
ATOM     84  C   UNL A   1      39.063  34.839  38.892  1.00  0.00     0.200 A 
ATOM     85  F   UNL A   1      37.624  33.154  39.711  1.00  0.00    -0.200 F 
ATOM     86  F   UNL A   1      38.865  35.568  40.000  1.00  0.00    -0.200 F 
ENDBRANCH  52  76
BRANCH  64  87
ATOM     87  C   UNL A   1      44.145  28.491  34.742  1.00  0.00     0.064 A 
ATOM     88  C   UNL A   1      45.411  29.091  34.688  1.00  0.00     0.173 A 
ATOM     89  C   UNL A   1      43.993  27.332  35.516  1.00  0.00     0.173 A 
ATOM     90  F   UNL A   1      45.605  30.191  33.946  1.00  0.00    -0.203 F 
ATOM     91  C   UNL A   1      46.488  28.543  35.379  1.00  0.00     0.198 A 
ATOM     92  C   UNL A   1      45.069  26.795  36.216  1.00  0.00     0.198 A 
ATOM     93  F   UNL A   1      42.799  26.724  35.594  1.00  0.00    -0.203 F 
ATOM     94  F   UNL A   1      47.697  29.116  35.293  1.00  0.00    -0.200 F 
ATOM     95  C   UNL A   1      46.316  27.400  36.144  1.00  0.00     0.200 A 
ATOM     96  F   UNL A   1      44.901  25.691  36.956  1.00  0.00    -0.200 F 
ATOM     97  F   UNL A   1      47.354  26.874  36.808  1.00  0.00    -0.200 F 
ENDBRANCH  64  87
ENDBRANCH  38  39
ENDBRANCH  30  33
ENDBRANCH  28  29
ENDBRANCH  27  28
ENDBRANCH  26  27
ENDBRANCH   1  26
TORSDOF 15
ENDMDL
