MODEL 1
REMARK VINA RESULT:     -11.4      0.000      0.000
REMARK SMILES CC(C)[C@@H]1CSC[C@@H](C(=O)NCCCCCCNC(=O)c2ccc(-c3c4nc(c(-c5c(F)c(F)c(F)c(F)c5F)c5ccc([nH]5)c(-c5c(F)c(F)c(F)c(F)c5F)c5nc(c(-c6c(F)c(F)c(F)c(F)c6F)c6ccc3[nH]6)C=C5)C=C4)cc2)[NH2+]1
REMARK SMILES IDX 15 1 14 2 13 3 12 4 11 5 9 6 10 7 8 9 4 10 5 11 84 12 6 13
REMARK SMILES IDX 7 16 2 17 1 18 3 19 16 20 17 21 18 22 19 23 20 25 21 26
REMARK SMILES IDX 22 27 83 28 23 29 82 30 24 31 25 32 26 33 76 34 27 35 81 36
REMARK SMILES IDX 75 37 77 38 28 39 80 40 74 41 73 42 29 44 61 45 41 46 60 47
REMARK SMILES IDX 42 48 45 49 59 50 78 51 43 52 44 53 58 55 79 56 46 57 30 58
REMARK SMILES IDX 31 59 39 60 32 61 33 62 37 63 40 64 34 65 35 66 38 67 36 68
REMARK SMILES IDX 62 69 63 70 71 71 64 72 65 73 69 74 72 75 66 76 67 77 70 78
REMARK SMILES IDX 68 79 47 80 48 81 56 82 49 83 50 84 54 85 57 86 51 87 52 88
REMARK SMILES IDX 55 89 53 90
REMARK H PARENT 11 8 84 14 84 15 18 24 77 43 45 54
REMARK Flexibility Score: inf
ROOT
ATOM      1  C   UNL A   1      31.386  30.883  26.124  1.00  0.00     0.002 C 
ENDROOT
BRANCH   1   2
ATOM      2  C   UNL A   1      32.106  29.988  27.138  1.00  0.00     0.002 C 
BRANCH   2   3
ATOM      3  C   UNL A   1      32.945  28.860  26.529  1.00  0.00     0.021 C 
BRANCH   3   4
ATOM      4  C   UNL A   1      32.189  27.980  25.540  1.00  0.00     0.116 C 
BRANCH   4   5
ATOM      5  N   UNL A   1      32.699  28.122  24.189  1.00  0.00    -0.351 N 
ATOM      6  C   UNL A   1      32.080  28.618  23.079  1.00  0.00     0.279 C 
ATOM      7  O   UNL A   1      32.706  28.616  22.016  1.00  0.00    -0.268 OA
ATOM      8  H   UNL A   1      33.625  27.817  24.054  1.00  0.00     0.163 HD
BRANCH   6   9
ATOM      9  C   UNL A   1      30.640  29.166  23.154  1.00  0.00     0.282 C 
ATOM     10  C   UNL A   1      29.179  30.883  22.121  1.00  0.00     0.195 C 
ATOM     11  C   UNL A   1      28.082  29.869  21.731  1.00  0.00     0.135 C 
ATOM     12  N   UNL A   1      30.503  30.247  22.159  1.00  0.00    -0.332 N 
ATOM     13  S   UNL A   1      27.902  28.428  22.837  1.00  0.00    -0.149 SA
ATOM     14  H   UNL A   1      31.194  30.966  22.374  1.00  0.00     0.347 HD
ATOM     15  H   UNL A   1      30.642  29.817  21.245  1.00  0.00     0.347 HD
ATOM     16  C   UNL A   1      29.658  27.988  23.049  1.00  0.00     0.145 C 
BRANCH  10  17
ATOM     17  C   UNL A   1      28.825  31.848  23.301  1.00  0.00     0.042 C 
ATOM     18  C   UNL A   1      29.047  33.344  23.073  1.00  0.00     0.014 C 
ATOM     19  C   UNL A   1      27.402  31.622  23.829  1.00  0.00     0.014 C 
ENDBRANCH  10  17
ENDBRANCH   6   9
ENDBRANCH   4   5
ENDBRANCH   3   4
ENDBRANCH   2   3
ENDBRANCH   1   2
BRANCH   1  20
ATOM     20  C   UNL A   1      31.325  32.366  26.494  1.00  0.00     0.021 C 
BRANCH  20  21
ATOM     21  C   UNL A   1      32.551  32.884  27.235  1.00  0.00     0.116 C 
BRANCH  21  22
ATOM     22  N   UNL A   1      32.393  34.265  27.656  1.00  0.00    -0.352 N 
ATOM     23  C   UNL A   1      33.023  34.931  28.673  1.00  0.00     0.251 C 
ATOM     24  H   UNL A   1      31.745  34.795  27.139  1.00  0.00     0.163 HD
ATOM     25  O   UNL A   1      32.637  36.049  29.015  1.00  0.00    -0.269 OA
BRANCH  23  26
ATOM     26  C   UNL A   1      34.162  34.302  29.370  1.00  0.00     0.039 A 
ATOM     27  C   UNL A   1      35.459  34.572  28.928  1.00  0.00     0.014 A 
ATOM     28  C   UNL A   1      33.950  33.431  30.444  1.00  0.00     0.014 A 
ATOM     29  C   UNL A   1      36.547  33.993  29.583  1.00  0.00     0.010 A 
ATOM     30  C   UNL A   1      35.037  32.923  31.147  1.00  0.00     0.010 A 
ATOM     31  C   UNL A   1      36.345  33.177  30.708  1.00  0.00    -0.014 A 
BRANCH  31  32
ATOM     32  C   UNL A   1      37.485  32.534  31.405  1.00  0.00     0.031 A 
ATOM     33  C   UNL A   1      38.221  31.399  30.746  1.00  0.00     0.074 A 
ATOM     34  C   UNL A   1      37.829  32.935  32.644  1.00  0.00     0.049 A 
ATOM     35  N   UNL A   1      39.213  30.677  31.200  1.00  0.00    -0.248 NA
ATOM     36  C   UNL A   1      37.756  31.003  29.407  1.00  0.00     0.031 C 
ATOM     37  C   UNL A   1      37.166  33.995  33.403  1.00  0.00     0.029 A 
ATOM     38  N   UNL A   1      38.821  32.494  33.482  1.00  0.00    -0.354 N 
ATOM     39  C   UNL A   1      39.472  29.731  30.217  1.00  0.00     0.074 A 
ATOM     40  C   UNL A   1      38.495  29.931  29.169  1.00  0.00     0.031 C 
ATOM     41  C   UNL A   1      37.791  34.146  34.582  1.00  0.00     0.029 A 
ATOM     42  C   UNL A   1      38.874  33.171  34.674  1.00  0.00     0.049 A 
ATOM     43  H   UNL A   1      39.436  31.761  33.250  1.00  0.00     0.167 HD
ATOM     44  C   UNL A   1      40.451  28.796  30.179  1.00  0.00     0.037 A 
ATOM     45  C   UNL A   1      39.706  33.022  35.722  1.00  0.00     0.037 A 
ATOM     46  C   UNL A   1      41.440  28.624  31.210  1.00  0.00     0.049 A 
ATOM     47  C   UNL A   1      40.788  31.977  35.656  1.00  0.00     0.074 A 
ATOM     48  C   UNL A   1      42.516  27.755  31.240  1.00  0.00     0.029 A 
ATOM     49  N   UNL A   1      41.471  29.340  32.399  1.00  0.00    -0.354 N 
ATOM     50  N   UNL A   1      41.072  31.137  34.691  1.00  0.00    -0.248 NA
ATOM     51  C   UNL A   1      41.673  31.870  36.824  1.00  0.00     0.031 C 
ATOM     52  C   UNL A   1      43.164  27.905  32.471  1.00  0.00     0.029 A 
ATOM     53  C   UNL A   1      42.532  28.913  33.181  1.00  0.00     0.049 A 
ATOM     54  H   UNL A   1      40.832  30.045  32.651  1.00  0.00     0.167 HD
ATOM     55  C   UNL A   1      42.191  30.432  35.113  1.00  0.00     0.074 A 
ATOM     56  C   UNL A   1      42.537  30.948  36.422  1.00  0.00     0.031 C 
ATOM     57  C   UNL A   1      42.874  29.450  34.473  1.00  0.00     0.037 A 
BRANCH  44  58
ATOM     58  C   UNL A   1      40.490  27.882  28.986  1.00  0.00     0.064 A 
ATOM     59  C   UNL A   1      41.291  28.156  27.866  1.00  0.00     0.173 A 
ATOM     60  C   UNL A   1      39.720  26.708  28.966  1.00  0.00     0.173 A 
ATOM     61  F   UNL A   1      42.037  29.270  27.826  1.00  0.00    -0.203 F 
ATOM     62  C   UNL A   1      41.286  27.315  26.756  1.00  0.00     0.198 A 
ATOM     63  C   UNL A   1      39.746  25.850  27.871  1.00  0.00     0.198 A 
ATOM     64  F   UNL A   1      38.941  26.392  30.012  1.00  0.00    -0.203 F 
ATOM     65  F   UNL A   1      42.006  27.633  25.672  1.00  0.00    -0.200 F 
ATOM     66  C   UNL A   1      40.518  26.160  26.762  1.00  0.00     0.200 A 
ATOM     67  F   UNL A   1      39.014  24.727  27.883  1.00  0.00    -0.200 F 
ATOM     68  F   UNL A   1      40.514  25.350  25.692  1.00  0.00    -0.200 F 
ENDBRANCH  44  58
BRANCH  45  69
ATOM     69  C   UNL A   1      39.584  33.918  36.901  1.00  0.00     0.064 A 
ATOM     70  C   UNL A   1      40.230  35.163  36.924  1.00  0.00     0.173 A 
ATOM     71  C   UNL A   1      38.826  33.557  38.024  1.00  0.00     0.173 A 
ATOM     72  F   UNL A   1      40.983  35.545  35.881  1.00  0.00    -0.203 F 
ATOM     73  C   UNL A   1      40.140  36.002  38.032  1.00  0.00     0.198 A 
ATOM     74  C   UNL A   1      38.713  34.410  39.120  1.00  0.00     0.198 A 
ATOM     75  F   UNL A   1      38.184  32.380  38.050  1.00  0.00    -0.203 F 
ATOM     76  F   UNL A   1      40.804  37.165  38.045  1.00  0.00    -0.200 F 
ATOM     77  C   UNL A   1      39.376  35.627  39.127  1.00  0.00     0.200 A 
ATOM     78  F   UNL A   1      37.963  34.050  40.171  1.00  0.00    -0.200 F 
ATOM     79  F   UNL A   1      39.286  36.436  40.191  1.00  0.00    -0.200 F 
ENDBRANCH  45  69
BRANCH  57  80
ATOM     80  C   UNL A   1      44.103  28.912  35.150  1.00  0.00     0.064 A 
ATOM     81  C   UNL A   1      44.044  27.854  36.069  1.00  0.00     0.173 A 
ATOM     82  C   UNL A   1      45.365  29.444  34.844  1.00  0.00     0.173 A 
ATOM     83  F   UNL A   1      42.861  27.317  36.406  1.00  0.00    -0.203 F 
ATOM     84  C   UNL A   1      45.198  27.373  36.681  1.00  0.00     0.198 A 
ATOM     85  C   UNL A   1      46.521  28.937  35.431  1.00  0.00     0.198 A 
ATOM     86  F   UNL A   1      45.480  30.452  33.965  1.00  0.00    -0.203 F 
ATOM     87  F   UNL A   1      45.111  26.399  37.598  1.00  0.00    -0.200 F 
ATOM     88  C   UNL A   1      46.436  27.909  36.357  1.00  0.00     0.200 A 
ATOM     89  F   UNL A   1      47.715  29.446  35.103  1.00  0.00    -0.200 F 
ATOM     90  F   UNL A   1      47.545  27.439  36.942  1.00  0.00    -0.200 F 
ENDBRANCH  57  80
ENDBRANCH  31  32
ENDBRANCH  23  26
ENDBRANCH  21  22
ENDBRANCH  20  21
ENDBRANCH   1  20
TORSDOF 14
ENDMDL
MODEL 2
REMARK VINA RESULT:     -11.2      1.988      3.619
REMARK SMILES CC(C)[C@@H]1CSC[C@@H](C(=O)NCCCCCCNC(=O)c2ccc(-c3c4nc(c(-c5c(F)c(F)c(F)c(F)c5F)c5ccc([nH]5)c(-c5c(F)c(F)c(F)c(F)c5F)c5nc(c(-c6c(F)c(F)c(F)c(F)c6F)c6ccc3[nH]6)C=C5)C=C4)cc2)[NH2+]1
REMARK SMILES IDX 15 1 14 2 13 3 12 4 11 5 9 6 10 7 8 9 4 10 5 11 84 12 6 13
REMARK SMILES IDX 7 16 2 17 1 18 3 19 16 20 17 21 18 22 19 23 20 25 21 26
REMARK SMILES IDX 22 27 83 28 23 29 82 30 24 31 25 32 26 33 76 34 27 35 81 36
REMARK SMILES IDX 75 37 77 38 28 39 80 40 74 41 73 42 29 44 61 45 41 46 60 47
REMARK SMILES IDX 42 48 45 49 59 50 78 51 43 52 44 53 58 55 79 56 46 57 30 58
REMARK SMILES IDX 31 59 39 60 32 61 33 62 37 63 40 64 34 65 35 66 38 67 36 68
REMARK SMILES IDX 62 69 63 70 71 71 64 72 65 73 69 74 72 75 66 76 67 77 70 78
REMARK SMILES IDX 68 79 47 80 48 81 56 82 49 83 50 84 54 85 57 86 51 87 52 88
REMARK SMILES IDX 55 89 53 90
REMARK H PARENT 11 8 84 14 84 15 18 24 77 43 45 54
REMARK Flexibility Score: inf
ROOT
ATOM      1  C   UNL A   1      31.463  30.765  26.030  1.00  0.00     0.002 C 
ENDROOT
BRANCH   1   2
ATOM      2  C   UNL A   1      32.614  29.968  26.653  1.00  0.00     0.002 C 
BRANCH   2   3
ATOM      3  C   UNL A   1      32.209  28.639  27.299  1.00  0.00     0.021 C 
BRANCH   3   4
ATOM      4  C   UNL A   1      32.306  27.435  26.369  1.00  0.00     0.116 C 
BRANCH   4   5
ATOM      5  N   UNL A   1      31.625  26.274  26.913  1.00  0.00    -0.351 N 
ATOM      6  C   UNL A   1      31.706  24.966  26.533  1.00  0.00     0.279 C 
ATOM      7  O   UNL A   1      31.005  24.144  27.128  1.00  0.00    -0.268 OA
ATOM      8  H   UNL A   1      31.016  26.457  27.664  1.00  0.00     0.163 HD
BRANCH   6   9
ATOM      9  C   UNL A   1      32.649  24.532  25.392  1.00  0.00     0.282 C 
ATOM     10  C   UNL A   1      34.322  22.786  24.841  1.00  0.00     0.195 C 
ATOM     11  C   UNL A   1      33.608  22.362  23.539  1.00  0.00     0.135 C 
ATOM     12  N   UNL A   1      33.368  23.317  25.823  1.00  0.00    -0.332 N 
ATOM     13  S   UNL A   1      32.691  23.679  22.670  1.00  0.00    -0.149 SA
ATOM     14  H   UNL A   1      33.882  23.537  26.677  1.00  0.00     0.347 HD
ATOM     15  H   UNL A   1      32.660  22.595  25.955  1.00  0.00     0.347 HD
ATOM     16  C   UNL A   1      31.839  24.442  24.090  1.00  0.00     0.145 C 
BRANCH  10  17
ATOM     17  C   UNL A   1      35.659  23.578  24.656  1.00  0.00     0.042 C 
ATOM     18  C   UNL A   1      36.587  23.679  25.868  1.00  0.00     0.014 C 
ATOM     19  C   UNL A   1      36.462  23.088  23.442  1.00  0.00     0.014 C 
ENDBRANCH  10  17
ENDBRANCH   6   9
ENDBRANCH   4   5
ENDBRANCH   3   4
ENDBRANCH   2   3
ENDBRANCH   1   2
BRANCH   1  20
ATOM     20  C   UNL A   1      31.307  32.195  26.551  1.00  0.00     0.021 C 
BRANCH  20  21
ATOM     21  C   UNL A   1      32.598  32.832  27.049  1.00  0.00     0.116 C 
BRANCH  21  22
ATOM     22  N   UNL A   1      32.393  34.191  27.518  1.00  0.00    -0.352 N 
ATOM     23  C   UNL A   1      32.989  34.837  28.568  1.00  0.00     0.251 C 
ATOM     24  H   UNL A   1      31.736  34.720  27.012  1.00  0.00     0.163 HD
ATOM     25  O   UNL A   1      32.564  35.929  28.945  1.00  0.00    -0.269 OA
BRANCH  23  26
ATOM     26  C   UNL A   1      34.136  34.216  29.258  1.00  0.00     0.039 A 
ATOM     27  C   UNL A   1      35.427  34.476  28.793  1.00  0.00     0.014 A 
ATOM     28  C   UNL A   1      33.939  33.362  30.348  1.00  0.00     0.014 A 
ATOM     29  C   UNL A   1      36.524  33.905  29.441  1.00  0.00     0.010 A 
ATOM     30  C   UNL A   1      35.035  32.863  31.043  1.00  0.00     0.010 A 
ATOM     31  C   UNL A   1      36.337  33.107  30.581  1.00  0.00    -0.014 A 
BRANCH  31  32
ATOM     32  C   UNL A   1      37.486  32.473  31.271  1.00  0.00     0.031 A 
ATOM     33  C   UNL A   1      38.233  31.351  30.602  1.00  0.00     0.074 A 
ATOM     34  C   UNL A   1      37.828  32.870  32.512  1.00  0.00     0.049 A 
ATOM     35  N   UNL A   1      39.234  30.637  31.049  1.00  0.00    -0.248 NA
ATOM     36  C   UNL A   1      37.769  30.958  29.263  1.00  0.00     0.031 C 
ATOM     37  C   UNL A   1      37.155  33.917  33.279  1.00  0.00     0.029 A 
ATOM     38  N   UNL A   1      38.827  32.435  33.344  1.00  0.00    -0.354 N 
ATOM     39  C   UNL A   1      39.502  29.700  30.060  1.00  0.00     0.074 A 
ATOM     40  C   UNL A   1      38.520  29.896  29.015  1.00  0.00     0.031 C 
ATOM     41  C   UNL A   1      37.782  34.068  34.457  1.00  0.00     0.029 A 
ATOM     42  C   UNL A   1      38.876  33.104  34.541  1.00  0.00     0.049 A 
ATOM     43  H   UNL A   1      39.451  31.710  33.106  1.00  0.00     0.167 HD
ATOM     44  C   UNL A   1      40.491  28.776  30.013  1.00  0.00     0.037 A 
ATOM     45  C   UNL A   1      39.712  32.957  35.586  1.00  0.00     0.037 A 
ATOM     46  C   UNL A   1      41.485  28.609  31.041  1.00  0.00     0.049 A 
ATOM     47  C   UNL A   1      40.806  31.925  35.510  1.00  0.00     0.074 A 
ATOM     48  C   UNL A   1      42.570  27.752  31.062  1.00  0.00     0.029 A 
ATOM     49  N   UNL A   1      41.510  29.317  32.235  1.00  0.00    -0.354 N 
ATOM     50  N   UNL A   1      41.097  31.094  34.539  1.00  0.00    -0.248 NA
ATOM     51  C   UNL A   1      41.694  31.820  36.675  1.00  0.00     0.031 C 
ATOM     52  C   UNL A   1      43.220  27.901  32.293  1.00  0.00     0.029 A 
ATOM     53  C   UNL A   1      42.578  28.897  33.011  1.00  0.00     0.049 A 
ATOM     54  H   UNL A   1      40.864  30.014  32.492  1.00  0.00     0.167 HD
ATOM     55  C   UNL A   1      42.224  30.400  34.954  1.00  0.00     0.074 A 
ATOM     56  C   UNL A   1      42.568  30.911  36.265  1.00  0.00     0.031 C 
ATOM     57  C   UNL A   1      42.917  29.429  34.306  1.00  0.00     0.037 A 
BRANCH  44  58
ATOM     58  C   UNL A   1      40.537  27.871  28.814  1.00  0.00     0.064 A 
ATOM     59  C   UNL A   1      41.306  28.178  27.680  1.00  0.00     0.173 A 
ATOM     60  C   UNL A   1      39.807  26.672  28.802  1.00  0.00     0.173 A 
ATOM     61  F   UNL A   1      42.014  29.317  27.633  1.00  0.00    -0.203 F 
ATOM     62  C   UNL A   1      41.308  27.343  26.566  1.00  0.00     0.198 A 
ATOM     63  C   UNL A   1      39.840  25.821  27.701  1.00  0.00     0.198 A 
ATOM     64  F   UNL A   1      39.060  26.324  29.861  1.00  0.00    -0.203 F 
ATOM     65  F   UNL A   1      41.996  27.692  25.470  1.00  0.00    -0.200 F 
ATOM     66  C   UNL A   1      40.580  26.163  26.579  1.00  0.00     0.200 A 
ATOM     67  F   UNL A   1      39.148  24.674  27.721  1.00  0.00    -0.200 F 
ATOM     68  F   UNL A   1      40.582  25.360  25.505  1.00  0.00    -0.200 F 
ENDBRANCH  44  58
BRANCH  45  69
ATOM     69  C   UNL A   1      39.583  33.845  36.771  1.00  0.00     0.064 A 
ATOM     70  C   UNL A   1      38.806  33.458  37.873  1.00  0.00     0.173 A 
ATOM     71  C   UNL A   1      40.225  35.089  36.831  1.00  0.00     0.173 A 
ATOM     72  F   UNL A   1      38.156  32.285  37.855  1.00  0.00    -0.203 F 
ATOM     73  C   UNL A   1      38.660  34.291  38.980  1.00  0.00     0.198 A 
ATOM     74  C   UNL A   1      40.102  35.909  37.951  1.00  0.00     0.198 A 
ATOM     75  F   UNL A   1      40.985  35.503  35.806  1.00  0.00    -0.203 F 
ATOM     76  F   UNL A   1      37.876  33.916  39.999  1.00  0.00    -0.200 F 
ATOM     77  C   UNL A   1      39.314  35.513  39.021  1.00  0.00     0.200 A 
ATOM     78  F   UNL A   1      40.747  37.083  37.993  1.00  0.00    -0.200 F 
ATOM     79  F   UNL A   1      39.177  36.312  40.088  1.00  0.00    -0.200 F 
ENDBRANCH  45  69
BRANCH  57  80
ATOM     80  C   UNL A   1      44.154  28.901  34.976  1.00  0.00     0.064 A 
ATOM     81  C   UNL A   1      45.417  29.475  34.767  1.00  0.00     0.173 A 
ATOM     82  C   UNL A   1      44.064  27.822  35.869  1.00  0.00     0.173 A 
ATOM     83  F   UNL A   1      45.559  30.500  33.912  1.00  0.00    -0.203 F 
ATOM     84  C   UNL A   1      46.547  28.967  35.401  1.00  0.00     0.198 A 
ATOM     85  C   UNL A   1      45.191  27.339  36.529  1.00  0.00     0.198 A 
ATOM     86  F   UNL A   1      42.879  27.241  36.112  1.00  0.00    -0.203 F 
ATOM     87  F   UNL A   1      47.751  29.495  35.142  1.00  0.00    -0.200 F 
ATOM     88  C   UNL A   1      46.433  27.906  36.286  1.00  0.00     0.200 A 
ATOM     89  F   UNL A   1      45.074  26.325  37.395  1.00  0.00    -0.200 F 
ATOM     90  F   UNL A   1      47.522  27.424  36.900  1.00  0.00    -0.200 F 
ENDBRANCH  57  80
ENDBRANCH  31  32
ENDBRANCH  23  26
ENDBRANCH  21  22
ENDBRANCH  20  21
ENDBRANCH   1  20
TORSDOF 14
ENDMDL
MODEL 3
REMARK VINA RESULT:     -11.2      0.220      2.019
REMARK SMILES CC(C)[C@@H]1CSC[C@@H](C(=O)NCCCCCCNC(=O)c2ccc(-c3c4nc(c(-c5c(F)c(F)c(F)c(F)c5F)c5ccc([nH]5)c(-c5c(F)c(F)c(F)c(F)c5F)c5nc(c(-c6c(F)c(F)c(F)c(F)c6F)c6ccc3[nH]6)C=C5)C=C4)cc2)[NH2+]1
REMARK SMILES IDX 15 1 14 2 13 3 12 4 11 5 9 6 10 7 8 9 4 10 5 11 84 12 6 13
REMARK SMILES IDX 7 16 2 17 1 18 3 19 16 20 17 21 18 22 19 23 20 25 21 26
REMARK SMILES IDX 22 27 83 28 23 29 82 30 24 31 25 32 26 33 76 34 27 35 81 36
REMARK SMILES IDX 75 37 77 38 28 39 80 40 74 41 73 42 29 44 61 45 41 46 60 47
REMARK SMILES IDX 42 48 45 49 59 50 78 51 43 52 44 53 58 55 79 56 46 57 30 58
REMARK SMILES IDX 31 59 39 60 32 61 33 62 37 63 40 64 34 65 35 66 38 67 36 68
REMARK SMILES IDX 62 69 63 70 71 71 64 72 65 73 69 74 72 75 66 76 67 77 70 78
REMARK SMILES IDX 68 79 47 80 48 81 56 82 49 83 50 84 54 85 57 86 51 87 52 88
REMARK SMILES IDX 55 89 53 90
REMARK H PARENT 11 8 84 14 84 15 18 24 77 43 45 54
REMARK Flexibility Score: inf
ROOT
ATOM      1  C   UNL A   1      31.402  31.127  26.142  1.00  0.00     0.002 C 
ENDROOT
BRANCH   1   2
ATOM      2  C   UNL A   1      32.151  30.228  27.131  1.00  0.00     0.002 C 
BRANCH   2   3
ATOM      3  C   UNL A   1      32.827  29.001  26.512  1.00  0.00     0.021 C 
BRANCH   3   4
ATOM      4  C   UNL A   1      31.877  28.074  25.762  1.00  0.00     0.116 C 
BRANCH   4   5
ATOM      5  N   UNL A   1      32.293  27.869  24.386  1.00  0.00    -0.351 N 
ATOM      6  C   UNL A   1      31.651  28.205  23.230  1.00  0.00     0.279 C 
ATOM      7  O   UNL A   1      32.187  27.904  22.160  1.00  0.00    -0.268 OA
ATOM      8  H   UNL A   1      33.163  27.424  24.271  1.00  0.00     0.163 HD
BRANCH   6   9
ATOM      9  C   UNL A   1      30.295  28.939  23.262  1.00  0.00     0.282 C 
ATOM     10  C   UNL A   1      29.105  30.827  22.180  1.00  0.00     0.195 C 
ATOM     11  C   UNL A   1      27.894  29.964  21.764  1.00  0.00     0.135 C 
ATOM     12  N   UNL A   1      30.330  30.021  22.259  1.00  0.00    -0.332 N 
ATOM     13  S   UNL A   1      27.493  28.569  22.871  1.00  0.00    -0.149 SA
ATOM     14  H   UNL A   1      31.105  30.644  22.490  1.00  0.00     0.347 HD
ATOM     15  H   UNL A   1      30.436  29.569  21.351  1.00  0.00     0.347 HD
ATOM     16  C   UNL A   1      29.169  27.902  23.135  1.00  0.00     0.145 C 
BRANCH  10  17
ATOM     17  C   UNL A   1      28.850  31.841  23.346  1.00  0.00     0.042 C 
ATOM     18  C   UNL A   1      29.097  33.321  23.052  1.00  0.00     0.014 C 
ATOM     19  C   UNL A   1      27.457  31.673  23.968  1.00  0.00     0.014 C 
ENDBRANCH  10  17
ENDBRANCH   6   9
ENDBRANCH   4   5
ENDBRANCH   3   4
ENDBRANCH   2   3
ENDBRANCH   1   2
BRANCH   1  20
ATOM     20  C   UNL A   1      31.333  32.605  26.531  1.00  0.00     0.021 C 
BRANCH  20  21
ATOM     21  C   UNL A   1      32.568  33.126  27.254  1.00  0.00     0.116 C 
BRANCH  21  22
ATOM     22  N   UNL A   1      32.385  34.482  27.743  1.00  0.00    -0.352 N 
ATOM     23  C   UNL A   1      32.990  35.103  28.802  1.00  0.00     0.251 C 
ATOM     24  H   UNL A   1      31.739  35.030  27.242  1.00  0.00     0.163 HD
ATOM     25  O   UNL A   1      32.583  36.197  29.194  1.00  0.00    -0.269 OA
BRANCH  23  26
ATOM     26  C   UNL A   1      34.124  34.452  29.487  1.00  0.00     0.039 A 
ATOM     27  C   UNL A   1      35.406  34.587  28.947  1.00  0.00     0.014 A 
ATOM     28  C   UNL A   1      33.923  33.695  30.644  1.00  0.00     0.014 A 
ATOM     29  C   UNL A   1      36.491  33.987  29.588  1.00  0.00     0.010 A 
ATOM     30  C   UNL A   1      35.015  33.170  31.326  1.00  0.00     0.010 A 
ATOM     31  C   UNL A   1      36.306  33.287  30.791  1.00  0.00    -0.014 A 
BRANCH  31  32
ATOM     32  C   UNL A   1      37.442  32.623  31.476  1.00  0.00     0.031 A 
ATOM     33  C   UNL A   1      38.158  31.483  30.803  1.00  0.00     0.074 A 
ATOM     34  C   UNL A   1      37.799  33.010  32.715  1.00  0.00     0.049 A 
ATOM     35  N   UNL A   1      39.143  30.744  31.245  1.00  0.00    -0.248 NA
ATOM     36  C   UNL A   1      37.679  31.104  29.465  1.00  0.00     0.031 C 
ATOM     37  C   UNL A   1      37.155  34.072  33.487  1.00  0.00     0.029 A 
ATOM     38  N   UNL A   1      38.790  32.549  33.544  1.00  0.00    -0.354 N 
ATOM     39  C   UNL A   1      39.383  29.802  30.253  1.00  0.00     0.074 A 
ATOM     40  C   UNL A   1      38.402  30.024  29.213  1.00  0.00     0.031 C 
ATOM     41  C   UNL A   1      37.790  34.206  34.663  1.00  0.00     0.029 A 
ATOM     42  C   UNL A   1      38.861  33.216  34.741  1.00  0.00     0.049 A 
ATOM     43  H   UNL A   1      39.394  31.809  33.302  1.00  0.00     0.167 HD
ATOM     44  C   UNL A   1      40.349  28.854  30.201  1.00  0.00     0.037 A 
ATOM     45  C   UNL A   1      39.697  33.047  35.782  1.00  0.00     0.037 A 
ATOM     46  C   UNL A   1      41.342  28.661  31.225  1.00  0.00     0.049 A 
ATOM     47  C   UNL A   1      40.764  31.987  35.700  1.00  0.00     0.074 A 
ATOM     48  C   UNL A   1      42.406  27.777  31.241  1.00  0.00     0.029 A 
ATOM     49  N   UNL A   1      41.390  29.367  32.419  1.00  0.00    -0.354 N 
ATOM     50  N   UNL A   1      41.030  31.151  34.727  1.00  0.00    -0.248 NA
ATOM     51  C   UNL A   1      41.655  31.859  36.862  1.00  0.00     0.031 C 
ATOM     52  C   UNL A   1      43.064  27.908  32.469  1.00  0.00     0.029 A 
ATOM     53  C   UNL A   1      42.450  28.919  33.191  1.00  0.00     0.049 A 
ATOM     54  H   UNL A   1      40.762  30.079  32.680  1.00  0.00     0.167 HD
ATOM     55  C   UNL A   1      42.142  30.428  35.137  1.00  0.00     0.074 A 
ATOM     56  C   UNL A   1      42.504  30.929  36.448  1.00  0.00     0.031 C 
ATOM     57  C   UNL A   1      42.808  29.441  34.485  1.00  0.00     0.037 A 
BRANCH  44  58
ATOM     58  C   UNL A   1      40.367  27.949  29.001  1.00  0.00     0.064 A 
ATOM     59  C   UNL A   1      39.635  26.752  28.962  1.00  0.00     0.173 A 
ATOM     60  C   UNL A   1      41.122  28.290  27.868  1.00  0.00     0.173 A 
ATOM     61  F   UNL A   1      38.906  26.372  30.022  1.00  0.00    -0.203 F 
ATOM     62  C   UNL A   1      39.693  25.910  27.854  1.00  0.00     0.198 A 
ATOM     63  C   UNL A   1      41.149  27.464  26.748  1.00  0.00     0.198 A 
ATOM     64  F   UNL A   1      41.836  29.426  27.847  1.00  0.00    -0.203 F 
ATOM     65  F   UNL A   1      39.040  24.740  27.868  1.00  0.00    -0.200 F 
ATOM     66  C   UNL A   1      40.446  26.270  26.746  1.00  0.00     0.200 A 
ATOM     67  F   UNL A   1      41.864  27.820  25.671  1.00  0.00    -0.200 F 
ATOM     68  F   UNL A   1      40.500  25.459  25.679  1.00  0.00    -0.200 F 
ENDBRANCH  44  58
BRANCH  45  69
ATOM     69  C   UNL A   1      39.595  33.935  36.969  1.00  0.00     0.064 A 
ATOM     70  C   UNL A   1      38.811  33.567  38.073  1.00  0.00     0.173 A 
ATOM     71  C   UNL A   1      40.270  35.163  37.028  1.00  0.00     0.173 A 
ATOM     72  F   UNL A   1      38.131  32.412  38.055  1.00  0.00    -0.203 F 
ATOM     73  C   UNL A   1      38.691  34.402  39.181  1.00  0.00     0.198 A 
ATOM     74  C   UNL A   1      40.172  35.984  38.150  1.00  0.00     0.198 A 
ATOM     75  F   UNL A   1      41.037  35.558  36.001  1.00  0.00    -0.203 F 
ATOM     76  F   UNL A   1      37.901  34.047  40.202  1.00  0.00    -0.200 F 
ATOM     77  C   UNL A   1      39.377  35.607  39.222  1.00  0.00     0.200 A 
ATOM     78  F   UNL A   1      40.847  37.141  38.191  1.00  0.00    -0.200 F 
ATOM     79  F   UNL A   1      39.264  36.408  40.290  1.00  0.00    -0.200 F 
ENDBRANCH  45  69
BRANCH  57  80
ATOM     80  C   UNL A   1      44.033  28.881  35.149  1.00  0.00     0.064 A 
ATOM     81  C   UNL A   1      45.309  29.424  34.936  1.00  0.00     0.173 A 
ATOM     82  C   UNL A   1      43.921  27.804  36.041  1.00  0.00     0.173 A 
ATOM     83  F   UNL A   1      45.474  30.446  34.082  1.00  0.00    -0.203 F 
ATOM     84  C   UNL A   1      46.429  28.887  35.565  1.00  0.00     0.198 A 
ATOM     85  C   UNL A   1      45.037  27.292  36.696  1.00  0.00     0.198 A 
ATOM     86  F   UNL A   1      42.722  27.252  36.289  1.00  0.00    -0.203 F 
ATOM     87  F   UNL A   1      47.645  29.385  35.302  1.00  0.00    -0.200 F 
ATOM     88  C   UNL A   1      46.292  27.827  36.449  1.00  0.00     0.200 A 
ATOM     89  F   UNL A   1      44.899  26.280  37.562  1.00  0.00    -0.200 F 
ATOM     90  F   UNL A   1      47.371  27.318  37.058  1.00  0.00    -0.200 F 
ENDBRANCH  57  80
ENDBRANCH  31  32
ENDBRANCH  23  26
ENDBRANCH  21  22
ENDBRANCH  20  21
ENDBRANCH   1  20
TORSDOF 14
ENDMDL
