MODEL 1
REMARK VINA RESULT:     -11.4      0.000      0.000
REMARK SMILES Cc1c(CC(=O)NCCCCCCNC(=O)c2ccc(-c3c4nc(c(-c5c(F)c(F)c(F)c(F)c5F)c5ccc([nH]5)c(-c5c(F)c(F)c(F)c(F)c5F)c5nc(c(-c6c(F)c(F)c(F)c(F)c6F)c6ccc3[nH]6)C=C5)C=C4)cc2)c(=O)oc2cc(OCc3c(F)cccc3Cl)ccc12
REMARK SMILES IDX 9 1 8 2 7 3 5 4 6 5 4 7 3 8 1 9 2 10 98 11 80 12 83 13 97 14
REMARK SMILES IDX 81 15 82 16 84 17 96 18 85 19 86 20 87 21 88 22 89 23 94 24
REMARK SMILES IDX 90 25 91 26 93 27 95 28 92 29 10 30 11 31 12 32 13 33 14 34
REMARK SMILES IDX 15 35 16 37 17 38 18 39 79 40 19 41 78 42 20 43 21 44 22 45
REMARK SMILES IDX 72 46 23 47 77 48 71 49 73 50 24 51 76 52 70 53 69 54 25 56
REMARK SMILES IDX 57 57 37 58 56 59 38 60 41 61 55 62 74 63 39 64 40 65 54 67
REMARK SMILES IDX 75 68 42 69 26 70 27 71 35 72 28 73 29 74 33 75 36 76 30 77
REMARK SMILES IDX 31 78 34 79 32 80 58 81 59 82 67 83 60 84 61 85 65 86 68 87
REMARK SMILES IDX 62 88 63 89 66 90 64 91 43 92 44 93 52 94 45 95 46 96 50 97
REMARK SMILES IDX 53 98 47 99 48 100 51 101 49 102
REMARK H PARENT 7 6 14 36 73 55 41 66
REMARK Flexibility Score: inf
ROOT
ATOM      1  C   UNL A   1      48.411  26.702  30.596  1.00  0.00     0.021 C 
ENDROOT
BRANCH   1   2
ATOM      2  C   UNL A   1      46.952  26.562  30.162  1.00  0.00     0.116 C 
BRANCH   2   3
ATOM      3  N   UNL A   1      46.802  26.841  28.750  1.00  0.00    -0.356 N 
ATOM      4  C   UNL A   1      46.860  25.997  27.683  1.00  0.00     0.224 C 
ATOM      5  O   UNL A   1      46.759  26.488  26.557  1.00  0.00    -0.275 OA
ATOM      6  H   UNL A   1      46.630  27.784  28.526  1.00  0.00     0.163 HD
BRANCH   4   7
ATOM      7  C   UNL A   1      46.995  24.489  27.879  1.00  0.00     0.143 C 
BRANCH   7   8
ATOM      8  C   UNL A   1      45.770  23.684  27.499  1.00  0.00     0.051 A 
ATOM      9  C   UNL A   1      44.648  23.884  29.751  1.00  0.00     0.046 C 
ATOM     10  C   UNL A   1      44.719  23.433  28.313  1.00  0.00    -0.029 A 
ATOM     11  C   UNL A   1      43.546  22.720  27.771  1.00  0.00     0.021 A 
ATOM     12  C   UNL A   1      45.814  23.137  26.112  1.00  0.00     0.340 A 
ATOM     13  C   UNL A   1      43.562  22.295  26.445  1.00  0.00     0.142 A 
ATOM     14  C   UNL A   1      42.372  22.496  28.497  1.00  0.00     0.016 A 
ATOM     15  O   UNL A   1      46.792  23.287  25.386  1.00  0.00    -0.246 OA
ATOM     16  O   UNL A   1      44.698  22.470  25.645  1.00  0.00    -0.422 OA
ATOM     17  C   UNL A   1      42.450  21.729  25.813  1.00  0.00     0.094 A 
ATOM     18  C   UNL A   1      41.244  21.945  27.878  1.00  0.00     0.047 A 
ATOM     19  C   UNL A   1      41.261  21.619  26.521  1.00  0.00     0.123 A 
BRANCH  19  20
ATOM     20  O   UNL A   1      40.030  21.335  26.003  1.00  0.00    -0.489 OA
BRANCH  20  21
ATOM     21  C   UNL A   1      38.874  21.997  26.516  1.00  0.00     0.270 C 
BRANCH  21  22
ATOM     22  C   UNL A   1      37.650  22.196  25.637  1.00  0.00     0.044 A 
ATOM     23  C   UNL A   1      37.251  23.532  25.459  1.00  0.00     0.131 A 
ATOM     24  C   UNL A   1      36.889  21.219  24.979  1.00  0.00     0.050 A 
ATOM     25  F   UNL A   1      37.997  24.516  25.983  1.00  0.00    -0.207 F 
ATOM     26  C   UNL A   1      36.103  23.888  24.753  1.00  0.00     0.040 A 
ATOM     27  C   UNL A   1      35.702  21.566  24.312  1.00  0.00     0.021 A 
ATOM     28  Cl  UNL A   1      37.341  19.557  24.856  1.00  0.00    -0.084 Cl
ATOM     29  C   UNL A   1      35.303  22.896  24.206  1.00  0.00     0.005 A 
ENDBRANCH  21  22
ENDBRANCH  20  21
ENDBRANCH  19  20
ENDBRANCH   7   8
ENDBRANCH   4   7
ENDBRANCH   2   3
ENDBRANCH   1   2
BRANCH   1  30
ATOM     30  C   UNL A   1      48.889  25.596  31.547  1.00  0.00     0.002 C 
BRANCH  30  31
ATOM     31  C   UNL A   1      48.702  25.896  33.040  1.00  0.00     0.002 C 
BRANCH  31  32
ATOM     32  C   UNL A   1      49.022  24.730  33.977  1.00  0.00     0.021 C 
BRANCH  32  33
ATOM     33  C   UNL A   1      47.820  24.188  34.742  1.00  0.00     0.116 C 
BRANCH  33  34
ATOM     34  N   UNL A   1      47.756  24.706  36.100  1.00  0.00    -0.352 N 
ATOM     35  C   UNL A   1      47.013  25.742  36.604  1.00  0.00     0.251 C 
ATOM     36  H   UNL A   1      48.331  24.244  36.752  1.00  0.00     0.163 HD
ATOM     37  O   UNL A   1      47.237  26.176  37.729  1.00  0.00    -0.269 OA
BRANCH  35  38
ATOM     38  C   UNL A   1      45.947  26.353  35.779  1.00  0.00     0.039 A 
ATOM     39  C   UNL A   1      44.699  25.728  35.720  1.00  0.00     0.014 A 
ATOM     40  C   UNL A   1      46.181  27.528  35.060  1.00  0.00     0.014 A 
ATOM     41  C   UNL A   1      43.668  26.314  34.985  1.00  0.00     0.010 A 
ATOM     42  C   UNL A   1      45.130  28.152  34.393  1.00  0.00     0.010 A 
ATOM     43  C   UNL A   1      43.864  27.549  34.344  1.00  0.00    -0.014 A 
BRANCH  43  44
ATOM     44  C   UNL A   1      42.754  28.221  33.622  1.00  0.00     0.031 A 
ATOM     45  C   UNL A   1      42.547  27.978  32.153  1.00  0.00     0.074 A 
ATOM     46  C   UNL A   1      41.965  29.093  34.280  1.00  0.00     0.049 A 
ATOM     47  N   UNL A   1      41.666  28.508  31.342  1.00  0.00    -0.248 NA
ATOM     48  C   UNL A   1      43.470  27.036  31.500  1.00  0.00     0.031 C 
ATOM     49  C   UNL A   1      42.096  29.451  35.693  1.00  0.00     0.029 A 
ATOM     50  N   UNL A   1      40.900  29.842  33.846  1.00  0.00    -0.354 N 
ATOM     51  C   UNL A   1      41.934  27.972  30.090  1.00  0.00     0.074 A 
ATOM     52  C   UNL A   1      43.098  27.125  30.233  1.00  0.00     0.031 C 
ATOM     53  C   UNL A   1      41.132  30.327  36.017  1.00  0.00     0.029 A 
ATOM     54  C   UNL A   1      40.341  30.625  34.827  1.00  0.00     0.049 A 
ATOM     55  H   UNL A   1      40.568  29.821  32.920  1.00  0.00     0.167 HD
ATOM     56  C   UNL A   1      41.255  28.150  28.932  1.00  0.00     0.037 A 
ATOM     57  C   UNL A   1      39.312  31.491  34.771  1.00  0.00     0.037 A 
ATOM     58  C   UNL A   1      40.083  28.976  28.799  1.00  0.00     0.049 A 
ATOM     59  C   UNL A   1      38.584  31.683  33.468  1.00  0.00     0.074 A 
ATOM     60  C   UNL A   1      39.288  29.175  27.683  1.00  0.00     0.029 A 
ATOM     61  N   UNL A   1      39.542  29.748  29.817  1.00  0.00    -0.354 N 
ATOM     62  N   UNL A   1      38.800  31.112  32.307  1.00  0.00    -0.248 NA
ATOM     63  C   UNL A   1      37.463  32.633  33.468  1.00  0.00     0.031 C 
ATOM     64  C   UNL A   1      38.301  30.109  28.010  1.00  0.00     0.029 A 
ATOM     65  C   UNL A   1      38.441  30.448  29.346  1.00  0.00     0.049 A 
ATOM     66  H   UNL A   1      39.888  29.793  30.738  1.00  0.00     0.167 HD
ATOM     67  C   UNL A   1      37.828  31.610  31.450  1.00  0.00     0.074 A 
ATOM     68  C   UNL A   1      37.010  32.516  32.229  1.00  0.00     0.031 C 
ATOM     69  C   UNL A   1      37.632  31.342  30.135  1.00  0.00     0.037 A 
BRANCH  56  70
ATOM     70  C   UNL A   1      41.759  27.433  27.711  1.00  0.00     0.064 A 
ATOM     71  C   UNL A   1      42.882  27.885  27.000  1.00  0.00     0.173 A 
ATOM     72  C   UNL A   1      41.135  26.256  27.268  1.00  0.00     0.173 A 
ATOM     73  F   UNL A   1      43.510  29.010  27.374  1.00  0.00    -0.203 F 
ATOM     74  C   UNL A   1      43.342  27.204  25.876  1.00  0.00     0.198 A 
ATOM     75  C   UNL A   1      41.619  25.560  26.163  1.00  0.00     0.198 A 
ATOM     76  F   UNL A   1      40.062  25.775  27.913  1.00  0.00    -0.203 F 
ATOM     77  F   UNL A   1      44.383  27.686  25.182  1.00  0.00    -0.200 F 
ATOM     78  C   UNL A   1      42.715  26.039  25.462  1.00  0.00     0.200 A 
ATOM     79  F   UNL A   1      41.020  24.425  25.775  1.00  0.00    -0.200 F 
ATOM     80  F   UNL A   1      43.163  25.380  24.385  1.00  0.00    -0.200 F 
ENDBRANCH  56  70
BRANCH  57  81
ATOM     81  C   UNL A   1      38.893  32.230  35.992  1.00  0.00     0.064 A 
ATOM     82  C   UNL A   1      39.277  33.563  36.197  1.00  0.00     0.173 A 
ATOM     83  C   UNL A   1      38.109  31.619  36.982  1.00  0.00     0.173 A 
ATOM     84  F   UNL A   1      40.044  34.184  35.290  1.00  0.00    -0.203 F 
ATOM     85  C   UNL A   1      38.915  34.247  37.355  1.00  0.00     0.198 A 
ATOM     86  C   UNL A   1      37.719  32.315  38.125  1.00  0.00     0.198 A 
ATOM     87  F   UNL A   1      37.709  30.348  36.833  1.00  0.00    -0.203 F 
ATOM     88  F   UNL A   1      39.340  35.503  37.549  1.00  0.00    -0.200 F 
ATOM     89  C   UNL A   1      38.132  33.625  38.316  1.00  0.00     0.200 A 
ATOM     90  F   UNL A   1      36.949  31.715  39.042  1.00  0.00    -0.200 F 
ATOM     91  F   UNL A   1      37.781  34.285  39.428  1.00  0.00    -0.200 F 
ENDBRANCH  57  81
BRANCH  69  92
ATOM     92  C   UNL A   1      36.466  32.007  29.462  1.00  0.00     0.064 A 
ATOM     93  C   UNL A   1      36.457  33.384  29.190  1.00  0.00     0.173 A 
ATOM     94  C   UNL A   1      35.360  31.249  29.046  1.00  0.00     0.173 A 
ATOM     95  F   UNL A   1      37.483  34.155  29.580  1.00  0.00    -0.203 F 
ATOM     96  C   UNL A   1      35.373  33.980  28.551  1.00  0.00     0.198 A 
ATOM     97  C   UNL A   1      34.294  31.843  28.377  1.00  0.00     0.198 A 
ATOM     98  F   UNL A   1      35.321  29.928  29.274  1.00  0.00    -0.203 F 
ATOM     99  F   UNL A   1      35.364  35.304  28.347  1.00  0.00    -0.200 F 
ATOM    100  C   UNL A   1      34.297  33.208  28.137  1.00  0.00     0.200 A 
ATOM    101  F   UNL A   1      33.262  31.093  27.964  1.00  0.00    -0.200 F 
ATOM    102  F   UNL A   1      33.259  33.783  27.514  1.00  0.00    -0.200 F 
ENDBRANCH  69  92
ENDBRANCH  43  44
ENDBRANCH  35  38
ENDBRANCH  33  34
ENDBRANCH  32  33
ENDBRANCH  31  32
ENDBRANCH  30  31
ENDBRANCH   1  30
TORSDOF 17
ENDMDL
MODEL 2
REMARK VINA RESULT:     -11.4      5.435     10.326
REMARK SMILES Cc1c(CC(=O)NCCCCCCNC(=O)c2ccc(-c3c4nc(c(-c5c(F)c(F)c(F)c(F)c5F)c5ccc([nH]5)c(-c5c(F)c(F)c(F)c(F)c5F)c5nc(c(-c6c(F)c(F)c(F)c(F)c6F)c6ccc3[nH]6)C=C5)C=C4)cc2)c(=O)oc2cc(OCc3c(F)cccc3Cl)ccc12
REMARK SMILES IDX 9 1 8 2 7 3 5 4 6 5 4 7 3 8 1 9 2 10 98 11 80 12 83 13 97 14
REMARK SMILES IDX 81 15 82 16 84 17 96 18 85 19 86 20 87 21 88 22 89 23 94 24
REMARK SMILES IDX 90 25 91 26 93 27 95 28 92 29 10 30 11 31 12 32 13 33 14 34
REMARK SMILES IDX 15 35 16 37 17 38 18 39 79 40 19 41 78 42 20 43 21 44 22 45
REMARK SMILES IDX 72 46 23 47 77 48 71 49 73 50 24 51 76 52 70 53 69 54 25 56
REMARK SMILES IDX 57 57 37 58 56 59 38 60 41 61 55 62 74 63 39 64 40 65 54 67
REMARK SMILES IDX 75 68 42 69 26 70 27 71 35 72 28 73 29 74 33 75 36 76 30 77
REMARK SMILES IDX 31 78 34 79 32 80 58 81 59 82 67 83 60 84 61 85 65 86 68 87
REMARK SMILES IDX 62 88 63 89 66 90 64 91 43 92 44 93 52 94 45 95 46 96 50 97
REMARK SMILES IDX 53 98 47 99 48 100 51 101 49 102
REMARK H PARENT 7 6 14 36 73 55 41 66
REMARK Flexibility Score: inf
ROOT
ATOM      1  C   UNL A   1      39.184  22.794  26.443  1.00  0.00     0.021 C 
ENDROOT
BRANCH   1   2
ATOM      2  C   UNL A   1      38.130  22.039  25.632  1.00  0.00     0.116 C 
BRANCH   2   3
ATOM      3  N   UNL A   1      36.948  21.785  26.428  1.00  0.00    -0.356 N 
ATOM      4  C   UNL A   1      35.681  21.478  26.036  1.00  0.00     0.224 C 
ATOM      5  O   UNL A   1      34.820  21.364  26.911  1.00  0.00    -0.275 OA
ATOM      6  H   UNL A   1      37.080  21.841  27.403  1.00  0.00     0.163 HD
BRANCH   4   7
ATOM      7  C   UNL A   1      35.350  21.234  24.566  1.00  0.00     0.143 C 
BRANCH   7   8
ATOM      8  C   UNL A   1      34.492  22.301  23.918  1.00  0.00     0.051 A 
ATOM      9  C   UNL A   1      32.295  21.359  24.728  1.00  0.00     0.046 C 
ATOM     10  C   UNL A   1      33.145  22.376  24.006  1.00  0.00    -0.029 A 
ATOM     11  C   UNL A   1      32.450  23.532  23.408  1.00  0.00     0.021 A 
ATOM     12  C   UNL A   1      35.266  23.293  23.118  1.00  0.00     0.340 A 
ATOM     13  C   UNL A   1      33.194  24.502  22.743  1.00  0.00     0.142 A 
ATOM     14  C   UNL A   1      31.074  23.756  23.526  1.00  0.00     0.016 A 
ATOM     15  O   UNL A   1      36.479  23.198  22.961  1.00  0.00    -0.246 OA
ATOM     16  O   UNL A   1      34.577  24.358  22.569  1.00  0.00    -0.422 OA
ATOM     17  C   UNL A   1      32.639  25.691  22.260  1.00  0.00     0.094 A 
ATOM     18  C   UNL A   1      30.502  24.946  23.064  1.00  0.00     0.047 A 
ATOM     19  C   UNL A   1      31.292  25.942  22.487  1.00  0.00     0.123 A 
BRANCH  19  20
ATOM     20  O   UNL A   1      30.648  27.134  22.318  1.00  0.00    -0.489 OA
BRANCH  20  21
ATOM     21  C   UNL A   1      30.559  28.053  23.407  1.00  0.00     0.270 C 
BRANCH  21  22
ATOM     22  C   UNL A   1      31.633  28.075  24.482  1.00  0.00     0.044 A 
ATOM     23  C   UNL A   1      31.286  27.442  25.688  1.00  0.00     0.131 A 
ATOM     24  C   UNL A   1      32.917  28.633  24.411  1.00  0.00     0.050 A 
ATOM     25  F   UNL A   1      30.109  26.805  25.782  1.00  0.00    -0.207 F 
ATOM     26  C   UNL A   1      32.119  27.441  26.805  1.00  0.00     0.040 A 
ATOM     27  C   UNL A   1      33.740  28.682  25.550  1.00  0.00     0.021 A 
ATOM     28  Cl  UNL A   1      33.635  29.232  22.960  1.00  0.00    -0.084 Cl
ATOM     29  C   UNL A   1      33.339  28.097  26.748  1.00  0.00     0.005 A 
ENDBRANCH  21  22
ENDBRANCH  20  21
ENDBRANCH  19  20
ENDBRANCH   7   8
ENDBRANCH   4   7
ENDBRANCH   2   3
ENDBRANCH   1   2
BRANCH   1  30
ATOM     30  C   UNL A   1      40.404  21.945  26.824  1.00  0.00     0.002 C 
BRANCH  30  31
ATOM     31  C   UNL A   1      40.942  21.042  25.708  1.00  0.00     0.002 C 
BRANCH  31  32
ATOM     32  C   UNL A   1      41.185  19.588  26.115  1.00  0.00     0.021 C 
BRANCH  32  33
ATOM     33  C   UNL A   1      42.630  19.267  26.480  1.00  0.00     0.116 C 
BRANCH  33  34
ATOM     34  N   UNL A   1      43.424  18.912  25.314  1.00  0.00    -0.352 N 
ATOM     35  C   UNL A   1      44.203  19.708  24.514  1.00  0.00     0.251 C 
ATOM     36  H   UNL A   1      43.397  17.961  25.062  1.00  0.00     0.163 HD
ATOM     37  O   UNL A   1      44.638  19.281  23.450  1.00  0.00    -0.269 OA
BRANCH  35  38
ATOM     38  C   UNL A   1      44.506  21.096  24.927  1.00  0.00     0.039 A 
ATOM     39  C   UNL A   1      44.059  22.151  24.128  1.00  0.00     0.014 A 
ATOM     40  C   UNL A   1      45.235  21.354  26.091  1.00  0.00     0.014 A 
ATOM     41  C   UNL A   1      44.294  23.467  24.527  1.00  0.00     0.010 A 
ATOM     42  C   UNL A   1      45.400  22.666  26.528  1.00  0.00     0.010 A 
ATOM     43  C   UNL A   1      44.936  23.736  25.747  1.00  0.00    -0.014 A 
BRANCH  43  44
ATOM     44  C   UNL A   1      45.125  25.131  26.220  1.00  0.00     0.031 A 
ATOM     45  C   UNL A   1      46.483  25.776  26.160  1.00  0.00     0.074 A 
ATOM     46  C   UNL A   1      44.085  25.799  26.756  1.00  0.00     0.049 A 
ATOM     47  N   UNL A   1      46.854  26.962  26.569  1.00  0.00    -0.248 NA
ATOM     48  C   UNL A   1      47.574  24.969  25.591  1.00  0.00     0.031 C 
ATOM     49  C   UNL A   1      42.731  25.265  26.916  1.00  0.00     0.029 A 
ATOM     50  N   UNL A   1      44.002  27.069  27.270  1.00  0.00    -0.354 N 
ATOM     51  C   UNL A   1      48.217  27.041  26.315  1.00  0.00     0.074 A 
ATOM     52  C   UNL A   1      48.620  25.760  25.776  1.00  0.00     0.031 C 
ATOM     53  C   UNL A   1      41.947  26.208  27.462  1.00  0.00     0.029 A 
ATOM     54  C   UNL A   1      42.750  27.398  27.729  1.00  0.00     0.049 A 
ATOM     55  H   UNL A   1      44.768  27.685  27.307  1.00  0.00     0.167 HD
ATOM     56  C   UNL A   1      49.050  28.094  26.490  1.00  0.00     0.037 A 
ATOM     57  C   UNL A   1      42.301  28.528  28.306  1.00  0.00     0.037 A 
ATOM     58  C   UNL A   1      48.639  29.374  27.006  1.00  0.00     0.049 A 
ATOM     59  C   UNL A   1      43.252  29.678  28.504  1.00  0.00     0.074 A 
ATOM     60  C   UNL A   1      49.395  30.523  27.165  1.00  0.00     0.029 A 
ATOM     61  N   UNL A   1      47.360  29.671  27.452  1.00  0.00    -0.354 N 
ATOM     62  N   UNL A   1      44.522  29.766  28.190  1.00  0.00    -0.248 NA
ATOM     63  C   UNL A   1      42.705  30.889  29.131  1.00  0.00     0.031 C 
ATOM     64  C   UNL A   1      48.589  31.497  27.761  1.00  0.00     0.029 A 
ATOM     65  C   UNL A   1      47.313  30.978  27.916  1.00  0.00     0.049 A 
ATOM     66  H   UNL A   1      46.598  29.049  27.442  1.00  0.00     0.167 HD
ATOM     67  C   UNL A   1      44.917  31.046  28.553  1.00  0.00     0.074 A 
ATOM     68  C   UNL A   1      43.748  31.706  29.094  1.00  0.00     0.031 C 
ATOM     69  C   UNL A   1      46.139  31.623  28.447  1.00  0.00     0.037 A 
BRANCH  56  70
ATOM     70  C   UNL A   1      50.494  27.908  26.117  1.00  0.00     0.064 A 
ATOM     71  C   UNL A   1      50.938  28.036  24.792  1.00  0.00     0.173 A 
ATOM     72  C   UNL A   1      51.455  27.637  27.105  1.00  0.00     0.173 A 
ATOM     73  F   UNL A   1      50.060  28.284  23.807  1.00  0.00    -0.203 F 
ATOM     74  C   UNL A   1      52.281  27.869  24.465  1.00  0.00     0.198 A 
ATOM     75  C   UNL A   1      52.802  27.505  26.778  1.00  0.00     0.198 A 
ATOM     76  F   UNL A   1      51.088  27.511  28.389  1.00  0.00    -0.203 F 
ATOM     77  F   UNL A   1      52.670  27.942  23.184  1.00  0.00    -0.200 F 
ATOM     78  C   UNL A   1      53.212  27.611  25.458  1.00  0.00     0.200 A 
ATOM     79  F   UNL A   1      53.703  27.271  27.742  1.00  0.00    -0.200 F 
ATOM     80  F   UNL A   1      54.507  27.459  25.143  1.00  0.00    -0.200 F 
ENDBRANCH  56  70
BRANCH  57  81
ATOM     81  C   UNL A   1      40.877  28.638  28.721  1.00  0.00     0.064 A 
ATOM     82  C   UNL A   1      40.476  28.303  30.023  1.00  0.00     0.173 A 
ATOM     83  C   UNL A   1      39.887  29.070  27.825  1.00  0.00     0.173 A 
ATOM     84  F   UNL A   1      41.382  27.866  30.909  1.00  0.00    -0.203 F 
ATOM     85  C   UNL A   1      39.138  28.374  30.405  1.00  0.00     0.198 A 
ATOM     86  C   UNL A   1      38.554  29.171  28.219  1.00  0.00     0.198 A 
ATOM     87  F   UNL A   1      40.217  29.408  26.571  1.00  0.00    -0.203 F 
ATOM     88  F   UNL A   1      38.776  27.998  31.639  1.00  0.00    -0.200 F 
ATOM     89  C   UNL A   1      38.179  28.812  29.504  1.00  0.00     0.200 A 
ATOM     90  F   UNL A   1      37.633  29.610  27.351  1.00  0.00    -0.200 F 
ATOM     91  F   UNL A   1      36.893  28.882  29.875  1.00  0.00    -0.200 F 
ENDBRANCH  57  81
BRANCH  69  92
ATOM     92  C   UNL A   1      46.269  33.052  28.892  1.00  0.00     0.064 A 
ATOM     93  C   UNL A   1      46.640  33.386  30.203  1.00  0.00     0.173 A 
ATOM     94  C   UNL A   1      46.059  34.100  27.982  1.00  0.00     0.173 A 
ATOM     95  F   UNL A   1      46.838  32.422  31.114  1.00  0.00    -0.203 F 
ATOM     96  C   UNL A   1      46.770  34.717  30.593  1.00  0.00     0.198 A 
ATOM     97  C   UNL A   1      46.223  35.428  28.367  1.00  0.00     0.198 A 
ATOM     98  F   UNL A   1      45.710  33.836  26.714  1.00  0.00    -0.203 F 
ATOM     99  F   UNL A   1      47.075  35.013  31.864  1.00  0.00    -0.200 F 
ATOM    100  C   UNL A   1      46.570  35.735  29.673  1.00  0.00     0.200 A 
ATOM    101  F   UNL A   1      46.044  36.410  27.473  1.00  0.00    -0.200 F 
ATOM    102  F   UNL A   1      46.704  37.015  30.049  1.00  0.00    -0.200 F 
ENDBRANCH  69  92
ENDBRANCH  43  44
ENDBRANCH  35  38
ENDBRANCH  33  34
ENDBRANCH  32  33
ENDBRANCH  31  32
ENDBRANCH  30  31
ENDBRANCH   1  30
TORSDOF 17
ENDMDL
MODEL 3
REMARK VINA RESULT:     -11.0      3.788     12.108
REMARK SMILES Cc1c(CC(=O)NCCCCCCNC(=O)c2ccc(-c3c4nc(c(-c5c(F)c(F)c(F)c(F)c5F)c5ccc([nH]5)c(-c5c(F)c(F)c(F)c(F)c5F)c5nc(c(-c6c(F)c(F)c(F)c(F)c6F)c6ccc3[nH]6)C=C5)C=C4)cc2)c(=O)oc2cc(OCc3c(F)cccc3Cl)ccc12
REMARK SMILES IDX 9 1 8 2 7 3 5 4 6 5 4 7 3 8 1 9 2 10 98 11 80 12 83 13 97 14
REMARK SMILES IDX 81 15 82 16 84 17 96 18 85 19 86 20 87 21 88 22 89 23 94 24
REMARK SMILES IDX 90 25 91 26 93 27 95 28 92 29 10 30 11 31 12 32 13 33 14 34
REMARK SMILES IDX 15 35 16 37 17 38 18 39 79 40 19 41 78 42 20 43 21 44 22 45
REMARK SMILES IDX 72 46 23 47 77 48 71 49 73 50 24 51 76 52 70 53 69 54 25 56
REMARK SMILES IDX 57 57 37 58 56 59 38 60 41 61 55 62 74 63 39 64 40 65 54 67
REMARK SMILES IDX 75 68 42 69 26 70 27 71 35 72 28 73 29 74 33 75 36 76 30 77
REMARK SMILES IDX 31 78 34 79 32 80 58 81 59 82 67 83 60 84 61 85 65 86 68 87
REMARK SMILES IDX 62 88 63 89 66 90 64 91 43 92 44 93 52 94 45 95 46 96 50 97
REMARK SMILES IDX 53 98 47 99 48 100 51 101 49 102
REMARK H PARENT 7 6 14 36 73 55 41 66
REMARK Flexibility Score: inf
ROOT
ATOM      1  C   UNL A   1      30.407  29.060  24.314  1.00  0.00     0.021 C 
ENDROOT
BRANCH   1   2
ATOM      2  C   UNL A   1      31.443  27.935  24.316  1.00  0.00     0.116 C 
BRANCH   2   3
ATOM      3  N   UNL A   1      31.840  27.594  22.966  1.00  0.00    -0.356 N 
ATOM      4  C   UNL A   1      32.236  26.399  22.450  1.00  0.00     0.224 C 
ATOM      5  O   UNL A   1      32.586  26.371  21.268  1.00  0.00    -0.275 OA
ATOM      6  H   UNL A   1      31.819  28.339  22.323  1.00  0.00     0.163 HD
BRANCH   4   7
ATOM      7  C   UNL A   1      32.199  25.126  23.292  1.00  0.00     0.143 C 
BRANCH   7   8
ATOM      8  C   UNL A   1      33.549  24.490  23.548  1.00  0.00     0.051 A 
ATOM      9  C   UNL A   1      33.967  25.691  25.727  1.00  0.00     0.046 C 
ATOM     10  C   UNL A   1      34.324  24.716  24.632  1.00  0.00    -0.029 A 
ATOM     11  C   UNL A   1      35.571  23.944  24.797  1.00  0.00     0.021 A 
ATOM     12  C   UNL A   1      34.000  23.574  22.460  1.00  0.00     0.340 A 
ATOM     13  C   UNL A   1      35.935  23.023  23.818  1.00  0.00     0.142 A 
ATOM     14  C   UNL A   1      36.393  24.030  25.926  1.00  0.00     0.016 A 
ATOM     15  O   UNL A   1      33.348  23.416  21.432  1.00  0.00    -0.246 OA
ATOM     16  O   UNL A   1      35.176  22.874  22.650  1.00  0.00    -0.422 OA
ATOM     17  C   UNL A   1      37.026  22.159  23.952  1.00  0.00     0.094 A 
ATOM     18  C   UNL A   1      37.479  23.164  26.086  1.00  0.00     0.047 A 
ATOM     19  C   UNL A   1      37.761  22.186  25.130  1.00  0.00     0.123 A 
BRANCH  19  20
ATOM     20  O   UNL A   1      38.681  21.261  25.535  1.00  0.00    -0.489 OA
BRANCH  20  21
ATOM     21  C   UNL A   1      39.861  21.686  26.217  1.00  0.00     0.270 C 
BRANCH  21  22
ATOM     22  C   UNL A   1      41.174  20.949  26.011  1.00  0.00     0.044 A 
ATOM     23  C   UNL A   1      41.083  19.547  26.024  1.00  0.00     0.131 A 
ATOM     24  C   UNL A   1      42.448  21.495  25.798  1.00  0.00     0.050 A 
ATOM     25  F   UNL A   1      39.876  18.967  26.125  1.00  0.00    -0.207 F 
ATOM     26  C   UNL A   1      42.199  18.718  25.933  1.00  0.00     0.040 A 
ATOM     27  C   UNL A   1      43.583  20.667  25.760  1.00  0.00     0.021 A 
ATOM     28  Cl  UNL A   1      42.749  23.168  25.499  1.00  0.00    -0.084 Cl
ATOM     29  C   UNL A   1      43.462  19.282  25.836  1.00  0.00     0.005 A 
ENDBRANCH  21  22
ENDBRANCH  20  21
ENDBRANCH  19  20
ENDBRANCH   7   8
ENDBRANCH   4   7
ENDBRANCH   2   3
ENDBRANCH   1   2
BRANCH   1  30
ATOM     30  C   UNL A   1      30.995  30.450  24.590  1.00  0.00     0.002 C 
BRANCH  30  31
ATOM     31  C   UNL A   1      31.465  30.684  26.031  1.00  0.00     0.002 C 
BRANCH  31  32
ATOM     32  C   UNL A   1      31.339  32.127  26.524  1.00  0.00     0.021 C 
BRANCH  32  33
ATOM     33  C   UNL A   1      32.588  32.671  27.208  1.00  0.00     0.116 C 
BRANCH  33  34
ATOM     34  N   UNL A   1      32.429  34.057  27.617  1.00  0.00    -0.352 N 
ATOM     35  C   UNL A   1      33.066  34.752  28.613  1.00  0.00     0.251 C 
ATOM     36  H   UNL A   1      31.767  34.573  27.103  1.00  0.00     0.163 HD
ATOM     37  O   UNL A   1      32.661  35.857  28.956  1.00  0.00    -0.269 OA
BRANCH  35  38
ATOM     38  C   UNL A   1      34.238  34.156  29.292  1.00  0.00     0.039 A 
ATOM     39  C   UNL A   1      34.025  33.229  30.315  1.00  0.00     0.014 A 
ATOM     40  C   UNL A   1      35.537  34.518  28.929  1.00  0.00     0.014 A 
ATOM     41  C   UNL A   1      35.118  32.621  30.934  1.00  0.00     0.010 A 
ATOM     42  C   UNL A   1      36.624  33.854  29.492  1.00  0.00     0.010 A 
ATOM     43  C   UNL A   1      36.426  32.902  30.504  1.00  0.00    -0.014 A 
BRANCH  43  44
ATOM     44  C   UNL A   1      37.594  32.207  31.102  1.00  0.00     0.031 A 
ATOM     45  C   UNL A   1      38.059  32.559  32.488  1.00  0.00     0.074 A 
ATOM     46  C   UNL A   1      38.269  31.296  30.375  1.00  0.00     0.049 A 
ATOM     47  N   UNL A   1      39.084  32.099  33.159  1.00  0.00    -0.248 NA
ATOM     48  C   UNL A   1      37.287  33.587  33.205  1.00  0.00     0.031 C 
ATOM     49  C   UNL A   1      37.948  30.904  29.002  1.00  0.00     0.029 A 
ATOM     50  N   UNL A   1      39.371  30.538  30.685  1.00  0.00    -0.354 N 
ATOM     51  C   UNL A   1      39.084  32.783  34.367  1.00  0.00     0.074 A 
ATOM     52  C   UNL A   1      37.996  33.735  34.313  1.00  0.00     0.031 C 
ATOM     53  C   UNL A   1      38.812  29.960  28.599  1.00  0.00     0.029 A 
ATOM     54  C   UNL A   1      39.774  29.709  29.667  1.00  0.00     0.049 A 
ATOM     55  H   UNL A   1      39.829  30.585  31.555  1.00  0.00     0.167 HD
ATOM     56  C   UNL A   1      39.900  32.613  35.435  1.00  0.00     0.037 A 
ATOM     57  C   UNL A   1      40.807  28.848  29.600  1.00  0.00     0.037 A 
ATOM     58  C   UNL A   1      40.967  31.648  35.492  1.00  0.00     0.049 A 
ATOM     59  C   UNL A   1      41.709  28.690  30.795  1.00  0.00     0.074 A 
ATOM     60  C   UNL A   1      41.812  31.358  36.550  1.00  0.00     0.029 A 
ATOM     61  N   UNL A   1      41.340  30.820  34.444  1.00  0.00    -0.354 N 
ATOM     62  N   UNL A   1      41.653  29.290  31.960  1.00  0.00    -0.248 NA
ATOM     63  C   UNL A   1      42.815  27.731  30.668  1.00  0.00     0.031 C 
ATOM     64  C   UNL A   1      42.732  30.396  36.123  1.00  0.00     0.029 A 
ATOM     65  C   UNL A   1      42.423  30.040  34.820  1.00  0.00     0.049 A 
ATOM     66  H   UNL A   1      40.902  30.790  33.563  1.00  0.00     0.167 HD
ATOM     67  C   UNL A   1      42.693  28.760  32.712  1.00  0.00     0.074 A 
ATOM     68  C   UNL A   1      43.353  27.779  31.878  1.00  0.00     0.031 C 
ATOM     69  C   UNL A   1      43.067  29.061  33.980  1.00  0.00     0.037 A 
BRANCH  56  70
ATOM     70  C   UNL A   1      39.670  33.489  36.634  1.00  0.00     0.064 A 
ATOM     71  C   UNL A   1      38.752  33.143  37.637  1.00  0.00     0.173 A 
ATOM     72  C   UNL A   1      40.405  34.674  36.801  1.00  0.00     0.173 A 
ATOM     73  F   UNL A   1      38.015  32.027  37.522  1.00  0.00    -0.203 F 
ATOM     74  C   UNL A   1      38.556  33.962  38.746  1.00  0.00     0.198 A 
ATOM     75  C   UNL A   1      40.230  35.473  37.928  1.00  0.00     0.198 A 
ATOM     76  F   UNL A   1      41.300  35.051  35.877  1.00  0.00    -0.203 F 
ATOM     77  F   UNL A   1      37.635  33.636  39.663  1.00  0.00    -0.200 F 
ATOM     78  C   UNL A   1      39.300  35.122  38.894  1.00  0.00     0.200 A 
ATOM     79  F   UNL A   1      40.962  36.586  38.077  1.00  0.00    -0.200 F 
ATOM     80  F   UNL A   1      39.117  35.906  39.967  1.00  0.00    -0.200 F 
ENDBRANCH  56  70
BRANCH  57  81
ATOM     81  C   UNL A   1      41.035  28.052  28.365  1.00  0.00     0.064 A 
ATOM     82  C   UNL A   1      40.377  26.830  28.162  1.00  0.00     0.173 A 
ATOM     83  C   UNL A   1      41.918  28.490  27.366  1.00  0.00     0.173 A 
ATOM     84  F   UNL A   1      39.539  26.359  29.097  1.00  0.00    -0.203 F 
ATOM     85  C   UNL A   1      40.613  26.066  27.022  1.00  0.00     0.198 A 
ATOM     86  C   UNL A   1      42.127  27.740  26.210  1.00  0.00     0.198 A 
ATOM     87  F   UNL A   1      42.567  29.654  27.506  1.00  0.00    -0.203 F 
ATOM     88  F   UNL A   1      40.011  24.877  26.879  1.00  0.00    -0.200 F 
ATOM     89  C   UNL A   1      41.484  26.523  26.044  1.00  0.00     0.200 A 
ATOM     90  F   UNL A   1      42.957  28.194  25.261  1.00  0.00    -0.200 F 
ATOM     91  F   UNL A   1      41.707  25.788  24.946  1.00  0.00    -0.200 F 
ENDBRANCH  57  81
BRANCH  69  92
ATOM     92  C   UNL A   1      44.223  28.296  34.559  1.00  0.00     0.064 A 
ATOM     93  C   UNL A   1      44.043  27.065  35.208  1.00  0.00     0.173 A 
ATOM     94  C   UNL A   1      45.533  28.781  34.424  1.00  0.00     0.173 A 
ATOM     95  F   UNL A   1      42.809  26.565  35.375  1.00  0.00    -0.203 F 
ATOM     96  C   UNL A   1      45.128  26.363  35.724  1.00  0.00     0.198 A 
ATOM     97  C   UNL A   1      46.619  28.059  34.912  1.00  0.00     0.198 A 
ATOM     98  F   UNL A   1      45.762  29.949  33.806  1.00  0.00    -0.203 F 
ATOM     99  F   UNL A   1      44.927  25.215  36.386  1.00  0.00    -0.200 F 
ATOM    100  C   UNL A   1      46.415  26.856  35.568  1.00  0.00     0.200 A 
ATOM    101  F   UNL A   1      47.863  28.530  34.746  1.00  0.00    -0.200 F 
ATOM    102  F   UNL A   1      47.460  26.173  36.058  1.00  0.00    -0.200 F 
ENDBRANCH  69  92
ENDBRANCH  43  44
ENDBRANCH  35  38
ENDBRANCH  33  34
ENDBRANCH  32  33
ENDBRANCH  31  32
ENDBRANCH  30  31
ENDBRANCH   1  30
TORSDOF 17
ENDMDL
