MODEL 1
REMARK VINA RESULT:     -12.3      0.000      0.000
REMARK SMILES Cc1nsc(NC[C@@H]2C[C@H]3CC[C@@H]2C3)c1C(=O)NCCCCCCNC(=O)c1ccc(-c2c3nc(c(-c4c(F)c(F)c(F)c(F)c4F)c4ccc([nH]4)c(-c4c(F)c(F)c(F)c(F)c4F)c4nc(c(-c5c(F)c(F)c(F)c(F)c5F)c5ccc2[nH]5)C=C4)C=C3)cc1
REMARK SMILES IDX 21 1 20 2 19 3 18 4 16 5 17 6 15 8 1 9 2 10 3 11 4 12 5 13
REMARK SMILES IDX 6 14 7 16 8 17 9 18 13 19 10 20 12 21 14 22 11 23 22 24
REMARK SMILES IDX 23 25 24 26 25 27 26 28 27 30 28 31 29 32 90 33 30 34 89 35
REMARK SMILES IDX 31 36 32 37 33 38 83 39 34 40 88 41 82 42 84 43 35 44 87 45
REMARK SMILES IDX 81 46 80 47 36 49 68 50 48 51 67 52 49 53 52 54 66 55 85 56
REMARK SMILES IDX 50 57 51 58 65 60 86 61 53 62 37 63 38 64 46 65 39 66 40 67
REMARK SMILES IDX 44 68 47 69 41 70 42 71 45 72 43 73 69 74 70 75 78 76 71 77
REMARK SMILES IDX 72 78 76 79 79 80 73 81 74 82 77 83 75 84 54 85 55 86 63 87
REMARK SMILES IDX 56 88 57 89 61 90 64 91 58 92 59 93 62 94 60 95
REMARK H PARENT 18 7 6 15 25 29 84 48 52 59
REMARK Flexibility Score: inf
ROOT
ATOM      1  C   UNL A   1      34.034  28.841  27.183  1.00  0.00     0.002 C 
ENDROOT
BRANCH   1   2
ATOM      2  C   UNL A   1      34.043  28.315  25.742  1.00  0.00     0.021 C 
BRANCH   2   3
ATOM      3  C   UNL A   1      33.345  29.252  24.753  1.00  0.00     0.116 C 
BRANCH   3   4
ATOM      4  N   UNL A   1      33.749  28.914  23.419  1.00  0.00    -0.352 N 
ATOM      5  C   UNL A   1      33.644  27.798  22.642  1.00  0.00     0.256 C 
ATOM      6  O   UNL A   1      34.262  27.903  21.573  1.00  0.00    -0.269 OA
ATOM      7  H   UNL A   1      34.205  29.656  22.960  1.00  0.00     0.163 HD
BRANCH   5   8
ATOM      8  C   UNL A   1      32.818  26.610  22.939  1.00  0.00     0.097 A 
ATOM      9  C   UNL A   1      34.397  24.503  23.484  1.00  0.00     0.069 C 
ATOM     10  C   UNL A   1      33.108  25.237  23.349  1.00  0.00     0.066 A 
ATOM     11  N   UNL A   1      32.051  24.468  23.618  1.00  0.00    -0.195 NA
ATOM     12  S   UNL A   1      30.676  25.274  23.268  1.00  0.00    -0.018 S 
ATOM     13  C   UNL A   1      31.428  26.719  22.742  1.00  0.00     0.122 A 
BRANCH  13  14
ATOM     14  N   UNL A   1      30.776  27.799  22.228  1.00  0.00    -0.375 N 
ATOM     15  H   UNL A   1      31.226  28.283  21.498  1.00  0.00     0.161 HD
BRANCH  14  16
ATOM     16  C   UNL A   1      29.489  28.305  22.650  1.00  0.00     0.117 C 
BRANCH  16  17
ATOM     17  C   UNL A   1      29.435  29.810  22.381  1.00  0.00     0.012 C 
ATOM     18  C   UNL A   1      29.760  30.632  23.646  1.00  0.00     0.009 C 
ATOM     19  C   UNL A   1      28.017  30.319  22.007  1.00  0.00    -0.006 C 
ATOM     20  C   UNL A   1      28.561  31.586  23.756  1.00  0.00    -0.011 C 
ATOM     21  C   UNL A   1      28.156  31.719  21.385  1.00  0.00     0.004 C 
ATOM     22  C   UNL A   1      27.406  30.665  23.367  1.00  0.00     0.007 C 
ATOM     23  C   UNL A   1      28.596  32.578  22.580  1.00  0.00     0.004 C 
ENDBRANCH  16  17
ENDBRANCH  14  16
ENDBRANCH  13  14
ENDBRANCH   5   8
ENDBRANCH   3   4
ENDBRANCH   2   3
ENDBRANCH   1   2
BRANCH   1  24
ATOM     24  C   UNL A   1      35.021  29.987  27.464  1.00  0.00     0.002 C 
BRANCH  24  25
ATOM     25  C   UNL A   1      34.389  31.354  27.774  1.00  0.00     0.021 C 
BRANCH  25  26
ATOM     26  C   UNL A   1      35.398  32.349  28.312  1.00  0.00     0.116 C 
BRANCH  26  27
ATOM     27  N   UNL A   1      35.105  32.738  29.698  1.00  0.00    -0.352 N 
ATOM     28  C   UNL A   1      35.493  32.125  30.881  1.00  0.00     0.251 C 
ATOM     29  H   UNL A   1      34.556  33.549  29.803  1.00  0.00     0.163 HD
ATOM     30  O   UNL A   1      34.924  32.343  31.934  1.00  0.00    -0.269 OA
BRANCH  28  31
ATOM     31  C   UNL A   1      36.647  31.215  30.823  1.00  0.00     0.039 A 
ATOM     32  C   UNL A   1      36.539  29.834  30.634  1.00  0.00     0.014 A 
ATOM     33  C   UNL A   1      37.887  31.824  30.918  1.00  0.00     0.014 A 
ATOM     34  C   UNL A   1      37.714  29.093  30.522  1.00  0.00     0.010 A 
ATOM     35  C   UNL A   1      38.978  31.167  30.456  1.00  0.00     0.010 A 
ATOM     36  C   UNL A   1      38.928  29.785  30.450  1.00  0.00    -0.014 A 
BRANCH  36  37
ATOM     37  C   UNL A   1      40.229  29.152  30.364  1.00  0.00     0.031 A 
ATOM     38  C   UNL A   1      40.889  28.927  31.669  1.00  0.00     0.074 A 
ATOM     39  C   UNL A   1      40.611  28.551  29.212  1.00  0.00     0.049 A 
ATOM     40  N   UNL A   1      41.996  29.439  32.088  1.00  0.00    -0.248 NA
ATOM     41  C   UNL A   1      40.164  28.157  32.694  1.00  0.00     0.031 C 
ATOM     42  C   UNL A   1      39.873  28.413  27.944  1.00  0.00     0.029 A 
ATOM     43  N   UNL A   1      41.724  27.809  28.977  1.00  0.00    -0.354 N 
ATOM     44  C   UNL A   1      42.207  28.914  33.360  1.00  0.00     0.074 A 
ATOM     45  C   UNL A   1      40.968  28.296  33.750  1.00  0.00     0.031 C 
ATOM     46  C   UNL A   1      40.445  27.456  27.179  1.00  0.00     0.029 A 
ATOM     47  C   UNL A   1      41.675  27.036  27.819  1.00  0.00     0.049 A 
ATOM     48  H   UNL A   1      42.503  27.817  29.578  1.00  0.00     0.167 HD
ATOM     49  C   UNL A   1      43.461  28.840  33.885  1.00  0.00     0.037 A 
ATOM     50  C   UNL A   1      42.579  26.085  27.474  1.00  0.00     0.037 A 
ATOM     51  C   UNL A   1      44.384  29.636  33.116  1.00  0.00     0.049 A 
ATOM     52  C   UNL A   1      43.809  26.361  28.270  1.00  0.00     0.074 A 
ATOM     53  C   UNL A   1      44.485  30.985  32.835  1.00  0.00     0.029 A 
ATOM     54  N   UNL A   1      45.138  28.997  32.160  1.00  0.00    -0.354 N 
ATOM     55  N   UNL A   1      44.537  27.436  28.109  1.00  0.00    -0.248 NA
ATOM     56  C   UNL A   1      43.908  25.728  29.579  1.00  0.00     0.031 C 
ATOM     57  C   UNL A   1      44.853  31.042  31.458  1.00  0.00     0.029 A 
ATOM     58  C   UNL A   1      45.049  29.736  31.007  1.00  0.00     0.049 A 
ATOM     59  H   UNL A   1      45.647  28.163  32.281  1.00  0.00     0.167 HD
ATOM     60  C   UNL A   1      44.856  27.847  29.396  1.00  0.00     0.074 A 
ATOM     61  C   UNL A   1      44.479  26.728  30.260  1.00  0.00     0.031 C 
ATOM     62  C   UNL A   1      45.099  29.160  29.683  1.00  0.00     0.037 A 
BRANCH  49  63
ATOM     63  C   UNL A   1      43.942  27.792  34.856  1.00  0.00     0.064 A 
ATOM     64  C   UNL A   1      43.864  26.434  34.479  1.00  0.00     0.173 A 
ATOM     65  C   UNL A   1      44.186  28.028  36.225  1.00  0.00     0.173 A 
ATOM     66  F   UNL A   1      43.640  26.090  33.202  1.00  0.00    -0.203 F 
ATOM     67  C   UNL A   1      43.923  25.403  35.418  1.00  0.00     0.198 A 
ATOM     68  C   UNL A   1      44.299  26.992  37.151  1.00  0.00     0.198 A 
ATOM     69  F   UNL A   1      44.215  29.260  36.745  1.00  0.00    -0.203 F 
ATOM     70  F   UNL A   1      43.708  24.138  35.030  1.00  0.00    -0.200 F 
ATOM     71  C   UNL A   1      44.129  25.683  36.755  1.00  0.00     0.200 A 
ATOM     72  F   UNL A   1      44.488  27.286  38.445  1.00  0.00    -0.200 F 
ATOM     73  F   UNL A   1      44.117  24.703  37.667  1.00  0.00    -0.200 F 
ENDBRANCH  49  63
BRANCH  50  74
ATOM     74  C   UNL A   1      42.323  24.788  26.799  1.00  0.00     0.064 A 
ATOM     75  C   UNL A   1      43.061  24.384  25.674  1.00  0.00     0.173 A 
ATOM     76  C   UNL A   1      41.525  23.797  27.407  1.00  0.00     0.173 A 
ATOM     77  F   UNL A   1      43.883  25.249  25.063  1.00  0.00    -0.203 F 
ATOM     78  C   UNL A   1      43.014  23.066  25.198  1.00  0.00     0.198 A 
ATOM     79  C   UNL A   1      41.478  22.486  26.931  1.00  0.00     0.198 A 
ATOM     80  F   UNL A   1      40.848  24.060  28.535  1.00  0.00    -0.203 F 
ATOM     81  F   UNL A   1      43.772  22.704  24.153  1.00  0.00    -0.200 F 
ATOM     82  C   UNL A   1      42.230  22.116  25.833  1.00  0.00     0.200 A 
ATOM     83  F   UNL A   1      40.745  21.569  27.581  1.00  0.00    -0.200 F 
ATOM     84  F   UNL A   1      42.231  20.844  25.414  1.00  0.00    -0.200 F 
ENDBRANCH  50  74
BRANCH  62  85
ATOM     85  C   UNL A   1      45.203  30.135  28.541  1.00  0.00     0.064 A 
ATOM     86  C   UNL A   1      44.141  30.944  28.098  1.00  0.00     0.173 A 
ATOM     87  C   UNL A   1      46.473  30.404  28.014  1.00  0.00     0.173 A 
ATOM     88  F   UNL A   1      42.918  30.822  28.622  1.00  0.00    -0.203 F 
ATOM     89  C   UNL A   1      44.338  31.953  27.156  1.00  0.00     0.198 A 
ATOM     90  C   UNL A   1      46.674  31.434  27.100  1.00  0.00     0.198 A 
ATOM     91  F   UNL A   1      47.535  29.705  28.443  1.00  0.00    -0.203 F 
ATOM     92  F   UNL A   1      43.306  32.713  26.757  1.00  0.00    -0.200 F 
ATOM     93  C   UNL A   1      45.606  32.203  26.665  1.00  0.00     0.200 A 
ATOM     94  F   UNL A   1      47.913  31.706  26.669  1.00  0.00    -0.200 F 
ATOM     95  F   UNL A   1      45.808  33.205  25.798  1.00  0.00    -0.200 F 
ENDBRANCH  62  85
ENDBRANCH  36  37
ENDBRANCH  28  31
ENDBRANCH  26  27
ENDBRANCH  25  26
ENDBRANCH  24  25
ENDBRANCH   1  24
TORSDOF 16
ENDMDL
MODEL 2
REMARK VINA RESULT:     -12.3      1.312      3.741
REMARK SMILES Cc1nsc(NC[C@@H]2C[C@H]3CC[C@@H]2C3)c1C(=O)NCCCCCCNC(=O)c1ccc(-c2c3nc(c(-c4c(F)c(F)c(F)c(F)c4F)c4ccc([nH]4)c(-c4c(F)c(F)c(F)c(F)c4F)c4nc(c(-c5c(F)c(F)c(F)c(F)c5F)c5ccc2[nH]5)C=C4)C=C3)cc1
REMARK SMILES IDX 21 1 20 2 19 3 18 4 16 5 17 6 15 8 1 9 2 10 3 11 4 12 5 13
REMARK SMILES IDX 6 14 7 16 8 17 9 18 13 19 10 20 12 21 14 22 11 23 22 24
REMARK SMILES IDX 23 25 24 26 25 27 26 28 27 30 28 31 29 32 90 33 30 34 89 35
REMARK SMILES IDX 31 36 32 37 33 38 83 39 34 40 88 41 82 42 84 43 35 44 87 45
REMARK SMILES IDX 81 46 80 47 36 49 68 50 48 51 67 52 49 53 52 54 66 55 85 56
REMARK SMILES IDX 50 57 51 58 65 60 86 61 53 62 37 63 38 64 46 65 39 66 40 67
REMARK SMILES IDX 44 68 47 69 41 70 42 71 45 72 43 73 69 74 70 75 78 76 71 77
REMARK SMILES IDX 72 78 76 79 79 80 73 81 74 82 77 83 75 84 54 85 55 86 63 87
REMARK SMILES IDX 56 88 57 89 61 90 64 91 58 92 59 93 62 94 60 95
REMARK H PARENT 18 7 6 15 25 29 84 48 52 59
REMARK Flexibility Score: inf
ROOT
ATOM      1  C   UNL A   1      33.199  28.627  25.533  1.00  0.00     0.002 C 
ENDROOT
BRANCH   1   2
ATOM      2  C   UNL A   1      34.053  28.246  24.316  1.00  0.00     0.021 C 
BRANCH   2   3
ATOM      3  C   UNL A   1      33.554  28.868  23.010  1.00  0.00     0.116 C 
BRANCH   3   4
ATOM      4  N   UNL A   1      33.566  27.870  21.979  1.00  0.00    -0.352 N 
ATOM      5  C   UNL A   1      32.966  26.657  21.817  1.00  0.00     0.256 C 
ATOM      6  O   UNL A   1      33.369  26.059  20.808  1.00  0.00    -0.269 OA
ATOM      7  H   UNL A   1      34.137  28.118  21.216  1.00  0.00     0.163 HD
BRANCH   5   8
ATOM      8  C   UNL A   1      31.881  26.108  22.653  1.00  0.00     0.097 A 
ATOM      9  C   UNL A   1      29.977  27.968  23.031  1.00  0.00     0.069 C 
ATOM     10  C   UNL A   1      30.594  26.616  23.127  1.00  0.00     0.066 A 
ATOM     11  N   UNL A   1      29.834  25.754  23.805  1.00  0.00    -0.195 NA
ATOM     12  S   UNL A   1      30.649  24.360  24.034  1.00  0.00    -0.018 S 
ATOM     13  C   UNL A   1      32.078  24.834  23.221  1.00  0.00     0.122 A 
BRANCH  13  14
ATOM     14  N   UNL A   1      33.214  24.088  23.133  1.00  0.00    -0.375 N 
ATOM     15  H   UNL A   1      33.742  24.178  22.307  1.00  0.00     0.161 HD
BRANCH  14  16
ATOM     16  C   UNL A   1      33.720  23.175  24.133  1.00  0.00     0.117 C 
BRANCH  16  17
ATOM     17  C   UNL A   1      35.167  23.549  24.461  1.00  0.00     0.012 C 
ATOM     18  C   UNL A   1      36.166  22.890  23.487  1.00  0.00     0.009 C 
ATOM     19  C   UNL A   1      35.644  23.018  25.839  1.00  0.00    -0.006 C 
ATOM     20  C   UNL A   1      37.153  22.184  24.428  1.00  0.00    -0.011 C 
ATOM     21  C   UNL A   1      36.929  23.771  26.227  1.00  0.00     0.004 C 
ATOM     22  C   UNL A   1      36.209  21.637  25.498  1.00  0.00     0.007 C 
ATOM     23  C   UNL A   1      37.951  23.242  25.210  1.00  0.00     0.004 C 
ENDBRANCH  16  17
ENDBRANCH  14  16
ENDBRANCH  13  14
ENDBRANCH   5   8
ENDBRANCH   3   4
ENDBRANCH   2   3
ENDBRANCH   1   2
BRANCH   1  24
ATOM     24  C   UNL A   1      33.994  28.997  26.796  1.00  0.00     0.002 C 
BRANCH  24  25
ATOM     25  C   UNL A   1      33.681  30.372  27.408  1.00  0.00     0.021 C 
BRANCH  25  26
ATOM     26  C   UNL A   1      34.907  31.258  27.497  1.00  0.00     0.116 C 
BRANCH  26  27
ATOM     27  N   UNL A   1      34.849  32.165  28.653  1.00  0.00    -0.352 N 
ATOM     28  C   UNL A   1      35.426  32.023  29.906  1.00  0.00     0.251 C 
ATOM     29  H   UNL A   1      34.328  32.989  28.517  1.00  0.00     0.163 HD
ATOM     30  O   UNL A   1      35.042  32.663  30.866  1.00  0.00    -0.269 OA
BRANCH  28  31
ATOM     31  C   UNL A   1      36.552  31.085  30.030  1.00  0.00     0.039 A 
ATOM     32  C   UNL A   1      36.402  29.696  30.101  1.00  0.00     0.014 A 
ATOM     33  C   UNL A   1      37.810  31.663  30.018  1.00  0.00     0.014 A 
ATOM     34  C   UNL A   1      37.553  28.913  30.140  1.00  0.00     0.010 A 
ATOM     35  C   UNL A   1      38.881  30.899  29.697  1.00  0.00     0.010 A 
ATOM     36  C   UNL A   1      38.789  29.543  29.950  1.00  0.00    -0.014 A 
BRANCH  36  37
ATOM     37  C   UNL A   1      40.070  28.866  29.994  1.00  0.00     0.031 A 
ATOM     38  C   UNL A   1      40.614  28.674  31.357  1.00  0.00     0.074 A 
ATOM     39  C   UNL A   1      40.522  28.206  28.902  1.00  0.00     0.049 A 
ATOM     40  N   UNL A   1      41.701  29.167  31.846  1.00  0.00    -0.248 NA
ATOM     41  C   UNL A   1      39.783  27.969  32.348  1.00  0.00     0.031 C 
ATOM     42  C   UNL A   1      39.885  28.040  27.584  1.00  0.00     0.029 A 
ATOM     43  N   UNL A   1      41.624  27.421  28.787  1.00  0.00    -0.354 N 
ATOM     44  C   UNL A   1      41.791  28.689  33.149  1.00  0.00     0.074 A 
ATOM     45  C   UNL A   1      40.503  28.126  33.460  1.00  0.00     0.031 C 
ATOM     46  C   UNL A   1      40.483  27.035  26.906  1.00  0.00     0.029 A 
ATOM     47  C   UNL A   1      41.642  26.603  27.660  1.00  0.00     0.049 A 
ATOM     48  H   UNL A   1      42.352  27.429  29.449  1.00  0.00     0.167 HD
ATOM     49  C   UNL A   1      42.995  28.597  33.778  1.00  0.00     0.037 A 
ATOM     50  C   UNL A   1      42.538  25.610  27.426  1.00  0.00     0.037 A 
ATOM     51  C   UNL A   1      44.004  29.332  33.057  1.00  0.00     0.049 A 
ATOM     52  C   UNL A   1      43.708  25.880  28.309  1.00  0.00     0.074 A 
ATOM     53  C   UNL A   1      44.174  30.664  32.733  1.00  0.00     0.029 A 
ATOM     54  N   UNL A   1      44.810  28.630  32.191  1.00  0.00    -0.354 N 
ATOM     55  N   UNL A   1      44.483  26.924  28.167  1.00  0.00    -0.248 NA
ATOM     56  C   UNL A   1      43.679  25.299  29.646  1.00  0.00     0.031 C 
ATOM     57  C   UNL A   1      44.654  30.653  31.390  1.00  0.00     0.029 A 
ATOM     58  C   UNL A   1      44.840  29.324  31.007  1.00  0.00     0.049 A 
ATOM     59  H   UNL A   1      45.278  27.786  32.385  1.00  0.00     0.167 HD
ATOM     60  C   UNL A   1      44.712  27.378  29.460  1.00  0.00     0.074 A 
ATOM     61  C   UNL A   1      44.228  26.307  30.332  1.00  0.00     0.031 C 
ATOM     62  C   UNL A   1      44.976  28.693  29.715  1.00  0.00     0.037 A 
BRANCH  49  63
ATOM     63  C   UNL A   1      43.359  27.575  34.824  1.00  0.00     0.064 A 
ATOM     64  C   UNL A   1      43.681  28.022  36.123  1.00  0.00     0.173 A 
ATOM     65  C   UNL A   1      43.696  26.235  34.543  1.00  0.00     0.173 A 
ATOM     66  F   UNL A   1      43.402  29.277  36.504  1.00  0.00    -0.203 F 
ATOM     67  C   UNL A   1      44.378  27.219  37.029  1.00  0.00     0.198 A 
ATOM     68  C   UNL A   1      44.344  25.419  35.470  1.00  0.00     0.198 A 
ATOM     69  F   UNL A   1      43.519  25.690  33.335  1.00  0.00    -0.203 F 
ATOM     70  F   UNL A   1      44.779  27.733  38.200  1.00  0.00    -0.200 F 
ATOM     71  C   UNL A   1      44.719  25.922  36.697  1.00  0.00     0.200 A 
ATOM     72  F   UNL A   1      44.675  24.167  35.124  1.00  0.00    -0.200 F 
ATOM     73  F   UNL A   1      45.446  25.173  37.535  1.00  0.00    -0.200 F 
ENDBRANCH  49  63
BRANCH  50  74
ATOM     74  C   UNL A   1      42.291  24.295  26.783  1.00  0.00     0.064 A 
ATOM     75  C   UNL A   1      43.220  23.723  25.898  1.00  0.00     0.173 A 
ATOM     76  C   UNL A   1      41.257  23.449  27.231  1.00  0.00     0.173 A 
ATOM     77  F   UNL A   1      44.263  24.442  25.460  1.00  0.00    -0.203 F 
ATOM     78  C   UNL A   1      43.126  22.381  25.500  1.00  0.00     0.198 A 
ATOM     79  C   UNL A   1      41.163  22.114  26.833  1.00  0.00     0.198 A 
ATOM     80  F   UNL A   1      40.368  23.876  28.142  1.00  0.00    -0.203 F 
ATOM     81  F   UNL A   1      44.060  21.855  24.695  1.00  0.00    -0.200 F 
ATOM     82  C   UNL A   1      42.104  21.577  25.975  1.00  0.00     0.200 A 
ATOM     83  F   UNL A   1      40.191  21.338  27.333  1.00  0.00    -0.200 F 
ATOM     84  F   UNL A   1      42.047  20.280  25.641  1.00  0.00    -0.200 F 
ENDBRANCH  50  74
BRANCH  62  85
ATOM     85  C   UNL A   1      45.206  29.616  28.548  1.00  0.00     0.064 A 
ATOM     86  C   UNL A   1      44.198  30.396  27.952  1.00  0.00     0.173 A 
ATOM     87  C   UNL A   1      46.526  29.871  28.157  1.00  0.00     0.173 A 
ATOM     88  F   UNL A   1      42.924  30.288  28.340  1.00  0.00    -0.203 F 
ATOM     89  C   UNL A   1      44.496  31.363  26.993  1.00  0.00     0.198 A 
ATOM     90  C   UNL A   1      46.826  30.861  27.224  1.00  0.00     0.198 A 
ATOM     91  F   UNL A   1      47.535  29.202  28.734  1.00  0.00    -0.203 F 
ATOM     92  F   UNL A   1      43.514  32.095  26.447  1.00  0.00    -0.200 F 
ATOM     93  C   UNL A   1      45.812  31.601  26.638  1.00  0.00     0.200 A 
ATOM     94  F   UNL A   1      48.104  31.124  26.924  1.00  0.00    -0.200 F 
ATOM     95  F   UNL A   1      46.107  32.565  25.754  1.00  0.00    -0.200 F 
ENDBRANCH  62  85
ENDBRANCH  36  37
ENDBRANCH  28  31
ENDBRANCH  26  27
ENDBRANCH  25  26
ENDBRANCH  24  25
ENDBRANCH   1  24
TORSDOF 16
ENDMDL
MODEL 3
REMARK VINA RESULT:     -12.2      1.714      3.770
REMARK SMILES Cc1nsc(NC[C@@H]2C[C@H]3CC[C@@H]2C3)c1C(=O)NCCCCCCNC(=O)c1ccc(-c2c3nc(c(-c4c(F)c(F)c(F)c(F)c4F)c4ccc([nH]4)c(-c4c(F)c(F)c(F)c(F)c4F)c4nc(c(-c5c(F)c(F)c(F)c(F)c5F)c5ccc2[nH]5)C=C4)C=C3)cc1
REMARK SMILES IDX 21 1 20 2 19 3 18 4 16 5 17 6 15 8 1 9 2 10 3 11 4 12 5 13
REMARK SMILES IDX 6 14 7 16 8 17 9 18 13 19 10 20 12 21 14 22 11 23 22 24
REMARK SMILES IDX 23 25 24 26 25 27 26 28 27 30 28 31 29 32 90 33 30 34 89 35
REMARK SMILES IDX 31 36 32 37 33 38 83 39 34 40 88 41 82 42 84 43 35 44 87 45
REMARK SMILES IDX 81 46 80 47 36 49 68 50 48 51 67 52 49 53 52 54 66 55 85 56
REMARK SMILES IDX 50 57 51 58 65 60 86 61 53 62 37 63 38 64 46 65 39 66 40 67
REMARK SMILES IDX 44 68 47 69 41 70 42 71 45 72 43 73 69 74 70 75 78 76 71 77
REMARK SMILES IDX 72 78 76 79 79 80 73 81 74 82 77 83 75 84 54 85 55 86 63 87
REMARK SMILES IDX 56 88 57 89 61 90 64 91 58 92 59 93 62 94 60 95
REMARK H PARENT 18 7 6 15 25 29 84 48 52 59
REMARK Flexibility Score: inf
ROOT
ATOM      1  C   UNL A   1      34.067  28.587  26.713  1.00  0.00     0.002 C 
ENDROOT
BRANCH   1   2
ATOM      2  C   UNL A   1      32.803  28.357  27.551  1.00  0.00     0.021 C 
BRANCH   2   3
ATOM      3  C   UNL A   1      31.591  27.942  26.715  1.00  0.00     0.116 C 
BRANCH   3   4
ATOM      4  N   UNL A   1      31.320  26.550  26.937  1.00  0.00    -0.352 N 
ATOM      5  C   UNL A   1      31.239  25.452  26.133  1.00  0.00     0.256 C 
ATOM      6  O   UNL A   1      30.842  24.447  26.740  1.00  0.00    -0.269 OA
ATOM      7  H   UNL A   1      31.155  26.342  27.885  1.00  0.00     0.163 HD
BRANCH   5   8
ATOM      8  C   UNL A   1      31.659  25.380  24.720  1.00  0.00     0.097 A 
ATOM      9  C   UNL A   1      30.024  26.870  23.193  1.00  0.00     0.069 C 
ATOM     10  C   UNL A   1      31.204  26.008  23.481  1.00  0.00     0.066 A 
ATOM     11  N   UNL A   1      31.926  25.750  22.389  1.00  0.00    -0.195 NA
ATOM     12  S   UNL A   1      33.084  24.655  22.739  1.00  0.00    -0.018 S 
ATOM     13  C   UNL A   1      32.684  24.471  24.392  1.00  0.00     0.122 A 
BRANCH  13  14
ATOM     14  N   UNL A   1      33.276  23.591  25.248  1.00  0.00    -0.375 N 
ATOM     15  H   UNL A   1      33.501  23.928  26.145  1.00  0.00     0.161 HD
BRANCH  14  16
ATOM     16  C   UNL A   1      33.605  22.212  24.968  1.00  0.00     0.117 C 
BRANCH  16  17
ATOM     17  C   UNL A   1      35.055  21.953  25.383  1.00  0.00     0.012 C 
ATOM     18  C   UNL A   1      35.607  23.084  26.277  1.00  0.00     0.009 C 
ATOM     19  C   UNL A   1      36.048  21.956  24.190  1.00  0.00    -0.006 C 
ATOM     20  C   UNL A   1      36.901  23.493  25.558  1.00  0.00    -0.011 C 
ATOM     21  C   UNL A   1      37.362  21.307  24.657  1.00  0.00     0.004 C 
ATOM     22  C   UNL A   1      36.467  23.425  24.095  1.00  0.00     0.007 C 
ATOM     23  C   UNL A   1      37.916  22.339  25.650  1.00  0.00     0.004 C 
ENDBRANCH  16  17
ENDBRANCH  14  16
ENDBRANCH  13  14
ENDBRANCH   5   8
ENDBRANCH   3   4
ENDBRANCH   2   3
ENDBRANCH   1   2
BRANCH   1  24
ATOM     24  C   UNL A   1      34.993  29.703  27.225  1.00  0.00     0.002 C 
BRANCH  24  25
ATOM     25  C   UNL A   1      34.324  31.061  27.492  1.00  0.00     0.021 C 
BRANCH  25  26
ATOM     26  C   UNL A   1      35.316  32.119  27.933  1.00  0.00     0.116 C 
BRANCH  26  27
ATOM     27  N   UNL A   1      35.033  32.611  29.288  1.00  0.00    -0.352 N 
ATOM     28  C   UNL A   1      35.432  32.090  30.510  1.00  0.00     0.251 C 
ATOM     29  H   UNL A   1      34.482  33.426  29.335  1.00  0.00     0.163 HD
ATOM     30  O   UNL A   1      34.871  32.386  31.548  1.00  0.00    -0.269 OA
BRANCH  28  31
ATOM     31  C   UNL A   1      36.588  31.181  30.512  1.00  0.00     0.039 A 
ATOM     32  C   UNL A   1      36.482  29.788  30.442  1.00  0.00     0.014 A 
ATOM     33  C   UNL A   1      37.827  31.798  30.535  1.00  0.00     0.014 A 
ATOM     34  C   UNL A   1      37.657  29.043  30.375  1.00  0.00     0.010 A 
ATOM     35  C   UNL A   1      38.913  31.107  30.113  1.00  0.00     0.010 A 
ATOM     36  C   UNL A   1      38.868  29.729  30.225  1.00  0.00    -0.014 A 
BRANCH  36  37
ATOM     37  C   UNL A   1      40.169  29.094  30.173  1.00  0.00     0.031 A 
ATOM     38  C   UNL A   1      40.805  28.889  31.494  1.00  0.00     0.074 A 
ATOM     39  C   UNL A   1      40.571  28.474  29.038  1.00  0.00     0.049 A 
ATOM     40  N   UNL A   1      41.906  29.407  31.924  1.00  0.00    -0.248 NA
ATOM     41  C   UNL A   1      40.062  28.137  32.517  1.00  0.00     0.031 C 
ATOM     42  C   UNL A   1      39.856  28.316  27.759  1.00  0.00     0.029 A 
ATOM     43  N   UNL A   1      41.688  27.727  28.835  1.00  0.00    -0.354 N 
ATOM     44  C   UNL A   1      42.093  28.904  33.207  1.00  0.00     0.074 A 
ATOM     45  C   UNL A   1      40.847  28.292  33.585  1.00  0.00     0.031 C 
ATOM     46  C   UNL A   1      40.441  27.346  27.021  1.00  0.00     0.029 A 
ATOM     47  C   UNL A   1      41.659  26.935  27.689  1.00  0.00     0.049 A 
ATOM     48  H   UNL A   1      42.456  27.744  29.450  1.00  0.00     0.167 HD
ATOM     49  C   UNL A   1      43.338  28.837  33.756  1.00  0.00     0.037 A 
ATOM     50  C   UNL A   1      42.568  25.978  27.376  1.00  0.00     0.037 A 
ATOM     51  C   UNL A   1      44.275  29.620  32.990  1.00  0.00     0.049 A 
ATOM     52  C   UNL A   1      43.783  26.266  28.189  1.00  0.00     0.074 A 
ATOM     53  C   UNL A   1      44.382  30.964  32.689  1.00  0.00     0.029 A 
ATOM     54  N   UNL A   1      45.045  28.964  32.059  1.00  0.00    -0.354 N 
ATOM     55  N   UNL A   1      44.515  27.338  28.024  1.00  0.00    -0.248 NA
ATOM     56  C   UNL A   1      43.858  25.655  29.510  1.00  0.00     0.031 C 
ATOM     57  C   UNL A   1      44.776  30.998  31.319  1.00  0.00     0.029 A 
ATOM     58  C   UNL A   1      44.978  29.685  30.893  1.00  0.00     0.049 A 
ATOM     59  H   UNL A   1      45.551  28.132  32.202  1.00  0.00     0.167 HD
ATOM     60  C   UNL A   1      44.812  27.770  29.310  1.00  0.00     0.074 A 
ATOM     61  C   UNL A   1      44.418  26.665  30.185  1.00  0.00     0.031 C 
ATOM     62  C   UNL A   1      45.051  29.087  29.579  1.00  0.00     0.037 A 
BRANCH  49  63
ATOM     63  C   UNL A   1      43.800  27.804  34.752  1.00  0.00     0.064 A 
ATOM     64  C   UNL A   1      43.739  26.441  34.391  1.00  0.00     0.173 A 
ATOM     65  C   UNL A   1      44.009  28.060  36.123  1.00  0.00     0.173 A 
ATOM     66  F   UNL A   1      43.549  26.079  33.114  1.00  0.00    -0.203 F 
ATOM     67  C   UNL A   1      43.780  25.422  35.345  1.00  0.00     0.198 A 
ATOM     68  C   UNL A   1      44.104  27.037  37.066  1.00  0.00     0.198 A 
ATOM     69  F   UNL A   1      44.018  29.298  36.627  1.00  0.00    -0.203 F 
ATOM     70  F   UNL A   1      43.583  24.151  34.968  1.00  0.00    -0.200 F 
ATOM     71  C   UNL A   1      43.951  25.721  36.683  1.00  0.00     0.200 A 
ATOM     72  F   UNL A   1      44.259  27.349  38.360  1.00  0.00    -0.200 F 
ATOM     73  F   UNL A   1      43.923  24.754  37.607  1.00  0.00    -0.200 F 
ENDBRANCH  49  63
BRANCH  50  74
ATOM     74  C   UNL A   1      42.322  24.670  26.717  1.00  0.00     0.064 A 
ATOM     75  C   UNL A   1      43.118  24.222  25.651  1.00  0.00     0.173 A 
ATOM     76  C   UNL A   1      41.465  23.713  27.299  1.00  0.00     0.173 A 
ATOM     77  F   UNL A   1      43.996  25.052  25.071  1.00  0.00    -0.203 F 
ATOM     78  C   UNL A   1      43.068  22.893  25.205  1.00  0.00     0.198 A 
ATOM     79  C   UNL A   1      41.416  22.392  26.853  1.00  0.00     0.198 A 
ATOM     80  F   UNL A   1      40.726  24.021  28.376  1.00  0.00    -0.203 F 
ATOM     81  F   UNL A   1      43.880  22.488  24.217  1.00  0.00    -0.200 F 
ATOM     82  C   UNL A   1      42.225  21.978  25.812  1.00  0.00     0.200 A 
ATOM     83  F   UNL A   1      40.623  21.509  27.478  1.00  0.00    -0.200 F 
ATOM     84  F   UNL A   1      42.220  20.695  25.425  1.00  0.00    -0.200 F 
ENDBRANCH  50  74
BRANCH  62  85
ATOM     85  C   UNL A   1      45.177  30.043  28.423  1.00  0.00     0.064 A 
ATOM     86  C   UNL A   1      44.111  30.810  27.917  1.00  0.00     0.173 A 
ATOM     87  C   UNL A   1      46.460  30.341  27.948  1.00  0.00     0.173 A 
ATOM     88  F   UNL A   1      42.870  30.660  28.389  1.00  0.00    -0.203 F 
ATOM     89  C   UNL A   1      44.319  31.807  26.965  1.00  0.00     0.198 A 
ATOM     90  C   UNL A   1      46.671  31.360  27.022  1.00  0.00     0.198 A 
ATOM     91  F   UNL A   1      47.522  29.685  28.437  1.00  0.00    -0.203 F 
ATOM     92  F   UNL A   1      43.283  32.526  26.506  1.00  0.00    -0.200 F 
ATOM     93  C   UNL A   1      45.600  32.087  26.526  1.00  0.00     0.200 A 
ATOM     94  F   UNL A   1      47.918  31.663  26.642  1.00  0.00    -0.200 F 
ATOM     95  F   UNL A   1      45.811  33.078  25.648  1.00  0.00    -0.200 F 
ENDBRANCH  62  85
ENDBRANCH  36  37
ENDBRANCH  28  31
ENDBRANCH  26  27
ENDBRANCH  25  26
ENDBRANCH  24  25
ENDBRANCH   1  24
TORSDOF 16
ENDMDL
