MODEL 1
REMARK VINA RESULT:     -12.9      0.000      0.000
REMARK SMILES O=C(NCCCCCCNC(=O)c1oc2cccc3c2c1CCC3)c1ccc(-c2c3nc(c(-c4c(F)c(F)c(F)c(F)c4F)c4ccc([nH]4)c(-c4c(F)c(F)c(F)c(F)c4F)c4nc(c(-c5c(F)c(F)c(F)c(F)c5F)c5ccc2[nH]5)C=C4)C=C3)cc1
REMARK SMILES IDX 5 1 4 2 3 3 1 4 2 5 25 7 26 8 87 9 27 10 86 11 28 12 29 13
REMARK SMILES IDX 30 14 80 15 31 16 85 17 79 18 81 19 32 20 84 21 78 22 77 23
REMARK SMILES IDX 33 25 65 26 45 27 64 28 46 29 49 30 63 31 82 32 47 33 48 34
REMARK SMILES IDX 62 36 83 37 50 38 34 39 35 40 43 41 36 42 37 43 41 44 44 45
REMARK SMILES IDX 38 46 39 47 42 48 40 49 66 50 67 51 75 52 68 53 69 54 73 55
REMARK SMILES IDX 76 56 70 57 71 58 74 59 72 60 51 61 52 62 60 63 53 64 54 65
REMARK SMILES IDX 58 66 61 67 55 68 56 69 59 70 57 71 6 72 7 73 8 74 9 75
REMARK SMILES IDX 10 76 11 77 12 79 13 80 14 81 21 82 15 83 20 84 22 85 16 86
REMARK SMILES IDX 19 87 23 88 17 89 18 90 24 91
REMARK H PARENT 3 6 81 24 49 35 10 78
REMARK Flexibility Score: inf
ROOT
ATOM      1  C   UNL A   1      33.627  30.573  27.274  1.00  0.00     0.021 C 
ENDROOT
BRANCH   1   2
ATOM      2  C   UNL A   1      34.584  31.629  27.827  1.00  0.00     0.116 C 
BRANCH   2   3
ATOM      3  N   UNL A   1      34.384  31.971  29.222  1.00  0.00    -0.352 N 
ATOM      4  O   UNL A   1      34.738  32.258  31.410  1.00  0.00    -0.269 OA
ATOM      5  C   UNL A   1      35.166  31.834  30.337  1.00  0.00     0.251 C 
ATOM      6  H   UNL A   1      33.509  32.385  29.403  1.00  0.00     0.163 HD
BRANCH   5   7
ATOM      7  C   UNL A   1      36.463  31.124  30.315  1.00  0.00     0.039 A 
ATOM      8  C   UNL A   1      37.696  31.770  30.252  1.00  0.00     0.014 A 
ATOM      9  C   UNL A   1      36.421  29.722  30.387  1.00  0.00     0.014 A 
ATOM     10  C   UNL A   1      38.861  31.029  30.116  1.00  0.00     0.010 A 
ATOM     11  C   UNL A   1      37.592  28.976  30.307  1.00  0.00     0.010 A 
ATOM     12  C   UNL A   1      38.809  29.632  30.127  1.00  0.00    -0.014 A 
BRANCH  12  13
ATOM     13  C   UNL A   1      40.084  28.921  30.074  1.00  0.00     0.031 A 
ATOM     14  C   UNL A   1      40.796  28.756  31.377  1.00  0.00     0.074 A 
ATOM     15  C   UNL A   1      40.566  28.325  28.967  1.00  0.00     0.049 A 
ATOM     16  N   UNL A   1      42.006  29.103  31.693  1.00  0.00    -0.248 NA
ATOM     17  C   UNL A   1      40.033  28.162  32.487  1.00  0.00     0.031 C 
ATOM     18  C   UNL A   1      39.889  28.100  27.690  1.00  0.00     0.029 A 
ATOM     19  N   UNL A   1      41.766  27.698  28.804  1.00  0.00    -0.354 N 
ATOM     20  C   UNL A   1      42.207  28.655  32.998  1.00  0.00     0.074 A 
ATOM     21  C   UNL A   1      40.938  28.156  33.466  1.00  0.00     0.031 C 
ATOM     22  C   UNL A   1      40.602  27.208  26.966  1.00  0.00     0.029 A 
ATOM     23  C   UNL A   1      41.838  26.906  27.671  1.00  0.00     0.049 A 
ATOM     24  H   UNL A   1      42.515  27.798  29.437  1.00  0.00     0.167 HD
ATOM     25  C   UNL A   1      43.438  28.581  33.573  1.00  0.00     0.037 A 
ATOM     26  C   UNL A   1      42.807  26.008  27.380  1.00  0.00     0.037 A 
ATOM     27  C   UNL A   1      44.409  29.397  32.905  1.00  0.00     0.049 A 
ATOM     28  C   UNL A   1      44.001  26.337  28.194  1.00  0.00     0.074 A 
ATOM     29  C   UNL A   1      44.557  30.752  32.687  1.00  0.00     0.029 A 
ATOM     30  N   UNL A   1      45.320  28.793  32.079  1.00  0.00    -0.354 N 
ATOM     31  N   UNL A   1      44.753  27.388  28.021  1.00  0.00    -0.248 NA
ATOM     32  C   UNL A   1      44.174  25.651  29.466  1.00  0.00     0.031 C 
ATOM     33  C   UNL A   1      45.190  30.859  31.414  1.00  0.00     0.029 A 
ATOM     34  C   UNL A   1      45.393  29.561  30.946  1.00  0.00     0.049 A 
ATOM     35  H   UNL A   1      45.826  27.968  32.263  1.00  0.00     0.167 HD
ATOM     36  C   UNL A   1      45.189  27.725  29.292  1.00  0.00     0.074 A 
ATOM     37  C   UNL A   1      44.904  26.559  30.116  1.00  0.00     0.031 C 
ATOM     38  C   UNL A   1      45.489  29.016  29.613  1.00  0.00     0.037 A 
BRANCH  25  39
ATOM     39  C   UNL A   1      43.825  27.548  34.597  1.00  0.00     0.064 A 
ATOM     40  C   UNL A   1      43.806  26.179  34.267  1.00  0.00     0.173 A 
ATOM     41  C   UNL A   1      43.944  27.848  35.970  1.00  0.00     0.173 A 
ATOM     42  F   UNL A   1      43.653  25.786  32.994  1.00  0.00    -0.203 F 
ATOM     43  C   UNL A   1      43.866  25.185  35.249  1.00  0.00     0.198 A 
ATOM     44  C   UNL A   1      44.055  26.855  36.941  1.00  0.00     0.198 A 
ATOM     45  F   UNL A   1      43.851  29.106  36.424  1.00  0.00    -0.203 F 
ATOM     46  F   UNL A   1      43.741  23.897  34.900  1.00  0.00    -0.200 F 
ATOM     47  C   UNL A   1      43.991  25.524  36.584  1.00  0.00     0.200 A 
ATOM     48  F   UNL A   1      44.150  27.202  38.233  1.00  0.00    -0.200 F 
ATOM     49  F   UNL A   1      43.999  24.574  37.528  1.00  0.00    -0.200 F 
ENDBRANCH  25  39
BRANCH  26  50
ATOM     50  C   UNL A   1      42.667  24.714  26.676  1.00  0.00     0.064 A 
ATOM     51  C   UNL A   1      43.366  24.462  25.485  1.00  0.00     0.173 A 
ATOM     52  C   UNL A   1      42.066  23.604  27.300  1.00  0.00     0.173 A 
ATOM     53  F   UNL A   1      44.005  25.456  24.853  1.00  0.00    -0.203 F 
ATOM     54  C   UNL A   1      43.479  23.169  24.964  1.00  0.00     0.198 A 
ATOM     55  C   UNL A   1      42.169  22.317  26.773  1.00  0.00     0.198 A 
ATOM     56  F   UNL A   1      41.450  23.728  28.484  1.00  0.00    -0.203 F 
ATOM     57  F   UNL A   1      44.212  22.955  23.863  1.00  0.00    -0.200 F 
ATOM     58  C   UNL A   1      42.889  22.097  25.613  1.00  0.00     0.200 A 
ATOM     59  F   UNL A   1      41.622  21.284  27.430  1.00  0.00    -0.200 F 
ATOM     60  F   UNL A   1      43.049  20.851  25.148  1.00  0.00    -0.200 F 
ENDBRANCH  26  50
BRANCH  38  61
ATOM     61  C   UNL A   1      45.631  30.000  28.490  1.00  0.00     0.064 A 
ATOM     62  C   UNL A   1      44.545  30.680  27.913  1.00  0.00     0.173 A 
ATOM     63  C   UNL A   1      46.920  30.379  28.090  1.00  0.00     0.173 A 
ATOM     64  F   UNL A   1      43.291  30.450  28.323  1.00  0.00    -0.203 F 
ATOM     65  C   UNL A   1      44.742  31.661  26.943  1.00  0.00     0.198 A 
ATOM     66  C   UNL A   1      47.115  31.385  27.148  1.00  0.00     0.198 A 
ATOM     67  F   UNL A   1      47.995  29.808  28.656  1.00  0.00    -0.203 F 
ATOM     68  F   UNL A   1      43.691  32.292  26.401  1.00  0.00    -0.200 F 
ATOM     69  C   UNL A   1      46.027  32.018  26.567  1.00  0.00     0.200 A 
ATOM     70  F   UNL A   1      48.359  31.766  26.826  1.00  0.00    -0.200 F 
ATOM     71  F   UNL A   1      46.218  32.996  25.671  1.00  0.00    -0.200 F 
ENDBRANCH  38  61
ENDBRANCH  12  13
ENDBRANCH   5   7
ENDBRANCH   2   3
ENDBRANCH   1   2
BRANCH   1  72
ATOM     72  C   UNL A   1      34.124  29.127  27.389  1.00  0.00     0.002 C 
BRANCH  72  73
ATOM     73  C   UNL A   1      33.154  28.047  26.895  1.00  0.00     0.002 C 
BRANCH  73  74
ATOM     74  C   UNL A   1      33.676  27.140  25.777  1.00  0.00     0.021 C 
BRANCH  74  75
ATOM     75  C   UNL A   1      32.597  26.454  24.948  1.00  0.00     0.116 C 
BRANCH  75  76
ATOM     76  N   UNL A   1      32.887  26.496  23.529  1.00  0.00    -0.349 N 
ATOM     77  C   UNL A   1      33.420  25.503  22.737  1.00  0.00     0.287 C 
ATOM     78  H   UNL A   1      32.676  27.341  23.073  1.00  0.00     0.163 HD
ATOM     79  O   UNL A   1      33.772  25.811  21.597  1.00  0.00    -0.266 OA
BRANCH  77  80
ATOM     80  C   UNL A   1      33.548  24.173  23.285  1.00  0.00     0.195 A 
ATOM     81  O   UNL A   1      32.572  23.244  22.962  1.00  0.00    -0.451 OA
ATOM     82  C   UNL A   1      34.491  23.576  24.106  1.00  0.00     0.012 A 
ATOM     83  C   UNL A   1      32.935  22.054  23.525  1.00  0.00     0.135 A 
ATOM     84  C   UNL A   1      34.103  22.232  24.224  1.00  0.00     0.028 A 
ATOM     85  C   UNL A   1      35.732  24.027  24.801  1.00  0.00     0.041 C 
ATOM     86  C   UNL A   1      32.296  20.824  23.444  1.00  0.00     0.048 A 
ATOM     87  C   UNL A   1      34.737  21.200  24.913  1.00  0.00    -0.037 A 
ATOM     88  C   UNL A   1      36.089  23.057  25.969  1.00  0.00     0.010 C 
ATOM     89  C   UNL A   1      32.938  19.763  24.115  1.00  0.00     0.004 A 
ATOM     90  C   UNL A   1      34.139  19.940  24.830  1.00  0.00     0.004 A 
ATOM     91  C   UNL A   1      36.031  21.540  25.603  1.00  0.00     0.036 C 
ENDBRANCH  77  80
ENDBRANCH  75  76
ENDBRANCH  74  75
ENDBRANCH  73  74
ENDBRANCH  72  73
ENDBRANCH   1  72
TORSDOF 13
ENDMDL
MODEL 2
REMARK VINA RESULT:     -12.9      3.288      9.054
REMARK SMILES O=C(NCCCCCCNC(=O)c1oc2cccc3c2c1CCC3)c1ccc(-c2c3nc(c(-c4c(F)c(F)c(F)c(F)c4F)c4ccc([nH]4)c(-c4c(F)c(F)c(F)c(F)c4F)c4nc(c(-c5c(F)c(F)c(F)c(F)c5F)c5ccc2[nH]5)C=C4)C=C3)cc1
REMARK SMILES IDX 5 1 4 2 3 3 1 4 2 5 25 7 26 8 87 9 27 10 86 11 28 12 29 13
REMARK SMILES IDX 30 14 80 15 31 16 85 17 79 18 81 19 32 20 84 21 78 22 77 23
REMARK SMILES IDX 33 25 65 26 45 27 64 28 46 29 49 30 63 31 82 32 47 33 48 34
REMARK SMILES IDX 62 36 83 37 50 38 34 39 35 40 43 41 36 42 37 43 41 44 44 45
REMARK SMILES IDX 38 46 39 47 42 48 40 49 66 50 67 51 75 52 68 53 69 54 73 55
REMARK SMILES IDX 76 56 70 57 71 58 74 59 72 60 51 61 52 62 60 63 53 64 54 65
REMARK SMILES IDX 58 66 61 67 55 68 56 69 59 70 57 71 6 72 7 73 8 74 9 75
REMARK SMILES IDX 10 76 11 77 12 79 13 80 14 81 21 82 15 83 20 84 22 85 16 86
REMARK SMILES IDX 19 87 23 88 17 89 18 90 24 91
REMARK H PARENT 3 6 81 24 49 35 10 78
REMARK Flexibility Score: inf
ROOT
ATOM      1  C   UNL A   1      38.338  22.154  25.751  1.00  0.00     0.021 C 
ENDROOT
BRANCH   1   2
ATOM      2  C   UNL A   1      39.613  21.989  26.577  1.00  0.00     0.116 C 
BRANCH   2   3
ATOM      3  N   UNL A   1      40.849  22.053  25.821  1.00  0.00    -0.352 N 
ATOM      4  O   UNL A   1      42.822  22.746  25.032  1.00  0.00    -0.269 OA
ATOM      5  C   UNL A   1      41.853  22.981  25.752  1.00  0.00     0.251 C 
ATOM      6  H   UNL A   1      40.995  21.272  25.239  1.00  0.00     0.163 HD
BRANCH   5   7
ATOM      7  C   UNL A   1      41.777  24.286  26.443  1.00  0.00     0.039 A 
ATOM      8  C   UNL A   1      42.398  24.552  27.662  1.00  0.00     0.014 A 
ATOM      9  C   UNL A   1      41.051  25.304  25.803  1.00  0.00     0.014 A 
ATOM     10  C   UNL A   1      42.181  25.763  28.303  1.00  0.00     0.010 A 
ATOM     11  C   UNL A   1      40.877  26.540  26.416  1.00  0.00     0.010 A 
ATOM     12  C   UNL A   1      41.407  26.752  27.688  1.00  0.00    -0.014 A 
BRANCH  12  13
ATOM     13  C   UNL A   1      41.299  28.035  28.379  1.00  0.00     0.031 A 
ATOM     14  C   UNL A   1      42.412  29.003  28.138  1.00  0.00     0.074 A 
ATOM     15  C   UNL A   1      40.226  28.413  29.098  1.00  0.00     0.049 A 
ATOM     16  N   UNL A   1      43.174  29.598  29.003  1.00  0.00    -0.248 NA
ATOM     17  C   UNL A   1      42.739  29.311  26.737  1.00  0.00     0.031 C 
ATOM     18  C   UNL A   1      38.923  27.757  29.195  1.00  0.00     0.029 A 
ATOM     19  N   UNL A   1      40.061  29.554  29.826  1.00  0.00    -0.354 N 
ATOM     20  C   UNL A   1      43.992  30.456  28.268  1.00  0.00     0.074 A 
ATOM     21  C   UNL A   1      43.739  30.182  26.876  1.00  0.00     0.031 C 
ATOM     22  C   UNL A   1      38.040  28.611  29.761  1.00  0.00     0.029 A 
ATOM     23  C   UNL A   1      38.747  29.813  30.176  1.00  0.00     0.049 A 
ATOM     24  H   UNL A   1      40.809  30.143  30.080  1.00  0.00     0.167 HD
ATOM     25  C   UNL A   1      44.724  31.450  28.841  1.00  0.00     0.037 A 
ATOM     26  C   UNL A   1      38.267  30.967  30.695  1.00  0.00     0.037 A 
ATOM     27  C   UNL A   1      44.922  31.250  30.247  1.00  0.00     0.049 A 
ATOM     28  C   UNL A   1      39.405  31.722  31.272  1.00  0.00     0.074 A 
ATOM     29  C   UNL A   1      45.559  30.294  31.014  1.00  0.00     0.029 A 
ATOM     30  N   UNL A   1      44.177  31.987  31.128  1.00  0.00    -0.354 N 
ATOM     31  N   UNL A   1      40.063  31.373  32.340  1.00  0.00    -0.248 NA
ATOM     32  C   UNL A   1      40.054  32.725  30.439  1.00  0.00     0.031 C 
ATOM     33  C   UNL A   1      44.793  30.206  32.213  1.00  0.00     0.029 A 
ATOM     34  C   UNL A   1      43.747  31.121  32.099  1.00  0.00     0.049 A 
ATOM     35  H   UNL A   1      43.986  32.952  31.075  1.00  0.00     0.167 HD
ATOM     36  C   UNL A   1      41.362  31.799  32.112  1.00  0.00     0.074 A 
ATOM     37  C   UNL A   1      41.268  32.724  30.991  1.00  0.00     0.031 C 
ATOM     38  C   UNL A   1      42.423  31.153  32.674  1.00  0.00     0.037 A 
BRANCH  25  39
ATOM     39  C   UNL A   1      45.041  32.757  28.164  1.00  0.00     0.064 A 
ATOM     40  C   UNL A   1      44.030  33.717  27.968  1.00  0.00     0.173 A 
ATOM     41  C   UNL A   1      46.242  32.973  27.456  1.00  0.00     0.173 A 
ATOM     42  F   UNL A   1      42.835  33.582  28.560  1.00  0.00    -0.203 F 
ATOM     43  C   UNL A   1      44.201  34.797  27.096  1.00  0.00     0.198 A 
ATOM     44  C   UNL A   1      46.427  34.078  26.628  1.00  0.00     0.198 A 
ATOM     45  F   UNL A   1      47.232  32.070  27.462  1.00  0.00    -0.203 F 
ATOM     46  F   UNL A   1      43.178  35.630  26.859  1.00  0.00    -0.200 F 
ATOM     47  C   UNL A   1      45.399  34.977  26.428  1.00  0.00     0.200 A 
ATOM     48  F   UNL A   1      47.586  34.222  25.969  1.00  0.00    -0.200 F 
ATOM     49  F   UNL A   1      45.547  35.982  25.556  1.00  0.00    -0.200 F 
ENDBRANCH  25  39
BRANCH  26  50
ATOM     50  C   UNL A   1      36.947  31.593  30.456  1.00  0.00     0.064 A 
ATOM     51  C   UNL A   1      36.031  31.765  31.505  1.00  0.00     0.173 A 
ATOM     52  C   UNL A   1      36.671  32.282  29.259  1.00  0.00     0.173 A 
ATOM     53  F   UNL A   1      36.245  31.180  32.692  1.00  0.00    -0.203 F 
ATOM     54  C   UNL A   1      34.917  32.601  31.373  1.00  0.00     0.198 A 
ATOM     55  C   UNL A   1      35.553  33.105  29.125  1.00  0.00     0.198 A 
ATOM     56  F   UNL A   1      37.530  32.250  28.230  1.00  0.00    -0.203 F 
ATOM     57  F   UNL A   1      34.101  32.796  32.418  1.00  0.00    -0.200 F 
ATOM     58  C   UNL A   1      34.685  33.276  30.186  1.00  0.00     0.200 A 
ATOM     59  F   UNL A   1      35.359  33.780  27.982  1.00  0.00    -0.200 F 
ATOM     60  F   UNL A   1      33.653  34.124  30.080  1.00  0.00    -0.200 F 
ENDBRANCH  26  50
BRANCH  38  61
ATOM     61  C   UNL A   1      42.142  30.177  33.778  1.00  0.00     0.064 A 
ATOM     62  C   UNL A   1      41.718  28.856  33.555  1.00  0.00     0.173 A 
ATOM     63  C   UNL A   1      42.457  30.544  35.093  1.00  0.00     0.173 A 
ATOM     64  F   UNL A   1      41.504  28.401  32.314  1.00  0.00    -0.203 F 
ATOM     65  C   UNL A   1      41.571  27.959  34.611  1.00  0.00     0.198 A 
ATOM     66  C   UNL A   1      42.344  29.635  36.141  1.00  0.00     0.198 A 
ATOM     67  F   UNL A   1      42.927  31.774  35.355  1.00  0.00    -0.203 F 
ATOM     68  F   UNL A   1      41.160  26.704  34.375  1.00  0.00    -0.200 F 
ATOM     69  C   UNL A   1      41.892  28.346  35.902  1.00  0.00     0.200 A 
ATOM     70  F   UNL A   1      42.706  29.996  37.380  1.00  0.00    -0.200 F 
ATOM     71  F   UNL A   1      41.797  27.469  36.910  1.00  0.00    -0.200 F 
ENDBRANCH  38  61
ENDBRANCH  12  13
ENDBRANCH   5   7
ENDBRANCH   2   3
ENDBRANCH   1   2
BRANCH   1  72
ATOM     72  C   UNL A   1      37.696  23.544  25.824  1.00  0.00     0.002 C 
BRANCH  72  73
ATOM     73  C   UNL A   1      36.360  23.701  25.089  1.00  0.00     0.002 C 
BRANCH  73  74
ATOM     74  C   UNL A   1      35.117  23.815  25.979  1.00  0.00     0.021 C 
BRANCH  74  75
ATOM     75  C   UNL A   1      33.817  24.096  25.236  1.00  0.00     0.116 C 
BRANCH  75  76
ATOM     76  N   UNL A   1      32.660  23.595  25.948  1.00  0.00    -0.349 N 
ATOM     77  C   UNL A   1      31.633  24.313  26.520  1.00  0.00     0.287 C 
ATOM     78  H   UNL A   1      32.599  22.616  26.035  1.00  0.00     0.163 HD
ATOM     79  O   UNL A   1      30.850  23.703  27.251  1.00  0.00    -0.266 OA
BRANCH  77  80
ATOM     80  C   UNL A   1      31.539  25.728  26.245  1.00  0.00     0.195 A 
ATOM     81  O   UNL A   1      32.049  26.605  27.189  1.00  0.00    -0.451 OA
ATOM     82  C   UNL A   1      31.030  26.451  25.178  1.00  0.00     0.012 A 
ATOM     83  C   UNL A   1      31.918  27.868  26.689  1.00  0.00     0.135 A 
ATOM     84  C   UNL A   1      31.303  27.798  25.463  1.00  0.00     0.028 A 
ATOM     85  C   UNL A   1      30.341  26.115  23.899  1.00  0.00     0.041 C 
ATOM     86  C   UNL A   1      32.321  29.071  27.251  1.00  0.00     0.048 A 
ATOM     87  C   UNL A   1      31.028  28.925  24.690  1.00  0.00    -0.037 A 
ATOM     88  C   UNL A   1      29.569  27.354  23.351  1.00  0.00     0.010 C 
ATOM     89  C   UNL A   1      32.072  30.219  26.471  1.00  0.00     0.004 A 
ATOM     90  C   UNL A   1      31.446  30.152  25.211  1.00  0.00     0.004 A 
ATOM     91  C   UNL A   1      30.382  28.686  23.351  1.00  0.00     0.036 C 
ENDBRANCH  77  80
ENDBRANCH  75  76
ENDBRANCH  74  75
ENDBRANCH  73  74
ENDBRANCH  72  73
ENDBRANCH   1  72
TORSDOF 13
ENDMDL
MODEL 3
REMARK VINA RESULT:     -12.8      3.256      8.939
REMARK SMILES O=C(NCCCCCCNC(=O)c1oc2cccc3c2c1CCC3)c1ccc(-c2c3nc(c(-c4c(F)c(F)c(F)c(F)c4F)c4ccc([nH]4)c(-c4c(F)c(F)c(F)c(F)c4F)c4nc(c(-c5c(F)c(F)c(F)c(F)c5F)c5ccc2[nH]5)C=C4)C=C3)cc1
REMARK SMILES IDX 5 1 4 2 3 3 1 4 2 5 25 7 26 8 87 9 27 10 86 11 28 12 29 13
REMARK SMILES IDX 30 14 80 15 31 16 85 17 79 18 81 19 32 20 84 21 78 22 77 23
REMARK SMILES IDX 33 25 65 26 45 27 64 28 46 29 49 30 63 31 82 32 47 33 48 34
REMARK SMILES IDX 62 36 83 37 50 38 34 39 35 40 43 41 36 42 37 43 41 44 44 45
REMARK SMILES IDX 38 46 39 47 42 48 40 49 66 50 67 51 75 52 68 53 69 54 73 55
REMARK SMILES IDX 76 56 70 57 71 58 74 59 72 60 51 61 52 62 60 63 53 64 54 65
REMARK SMILES IDX 58 66 61 67 55 68 56 69 59 70 57 71 6 72 7 73 8 74 9 75
REMARK SMILES IDX 10 76 11 77 12 79 13 80 14 81 21 82 15 83 20 84 22 85 16 86
REMARK SMILES IDX 19 87 23 88 17 89 18 90 24 91
REMARK H PARENT 3 6 81 24 49 35 10 78
REMARK Flexibility Score: inf
ROOT
ATOM      1  C   UNL A   1      38.051  22.196  25.382  1.00  0.00     0.021 C 
ENDROOT
BRANCH   1   2
ATOM      2  C   UNL A   1      39.181  22.088  26.405  1.00  0.00     0.116 C 
BRANCH   2   3
ATOM      3  N   UNL A   1      40.515  22.000  25.843  1.00  0.00    -0.352 N 
ATOM      4  O   UNL A   1      42.649  22.451  25.358  1.00  0.00    -0.269 OA
ATOM      5  C   UNL A   1      41.618  22.806  25.926  1.00  0.00     0.251 C 
ATOM      6  H   UNL A   1      40.654  21.197  25.289  1.00  0.00     0.163 HD
BRANCH   5   7
ATOM      7  C   UNL A   1      41.590  24.123  26.599  1.00  0.00     0.039 A 
ATOM      8  C   UNL A   1      42.194  24.374  27.829  1.00  0.00     0.014 A 
ATOM      9  C   UNL A   1      40.931  25.166  25.929  1.00  0.00     0.014 A 
ATOM     10  C   UNL A   1      42.022  25.603  28.449  1.00  0.00     0.010 A 
ATOM     11  C   UNL A   1      40.803  26.417  26.522  1.00  0.00     0.010 A 
ATOM     12  C   UNL A   1      41.313  26.621  27.804  1.00  0.00    -0.014 A 
BRANCH  12  13
ATOM     13  C   UNL A   1      41.253  27.916  28.476  1.00  0.00     0.031 A 
ATOM     14  C   UNL A   1      42.386  28.851  28.198  1.00  0.00     0.074 A 
ATOM     15  C   UNL A   1      40.204  28.334  29.208  1.00  0.00     0.049 A 
ATOM     16  N   UNL A   1      43.180  29.438  29.038  1.00  0.00    -0.248 NA
ATOM     17  C   UNL A   1      42.694  29.128  26.786  1.00  0.00     0.031 C 
ATOM     18  C   UNL A   1      38.886  27.714  29.342  1.00  0.00     0.029 A 
ATOM     19  N   UNL A   1      40.083  29.491  29.922  1.00  0.00    -0.354 N 
ATOM     20  C   UNL A   1      44.006  30.263  28.275  1.00  0.00     0.074 A 
ATOM     21  C   UNL A   1      43.719  29.973  26.892  1.00  0.00     0.031 C 
ATOM     22  C   UNL A   1      38.038  28.601  29.910  1.00  0.00     0.029 A 
ATOM     23  C   UNL A   1      38.784  29.790  30.292  1.00  0.00     0.049 A 
ATOM     24  H   UNL A   1      40.852  30.063  30.151  1.00  0.00     0.167 HD
ATOM     25  C   UNL A   1      44.776  31.245  28.817  1.00  0.00     0.037 A 
ATOM     26  C   UNL A   1      38.345  30.964  30.801  1.00  0.00     0.037 A 
ATOM     27  C   UNL A   1      44.996  31.062  30.222  1.00  0.00     0.049 A 
ATOM     28  C   UNL A   1      39.513  31.698  31.344  1.00  0.00     0.074 A 
ATOM     29  C   UNL A   1      45.622  30.101  30.992  1.00  0.00     0.029 A 
ATOM     30  N   UNL A   1      44.287  31.833  31.106  1.00  0.00    -0.354 N 
ATOM     31  N   UNL A   1      40.183  31.348  32.406  1.00  0.00    -0.248 NA
ATOM     32  C   UNL A   1      40.172  32.669  30.483  1.00  0.00     0.031 C 
ATOM     33  C   UNL A   1      44.877  30.053  32.207  1.00  0.00     0.029 A 
ATOM     34  C   UNL A   1      43.853  30.993  32.099  1.00  0.00     0.049 A 
ATOM     35  H   UNL A   1      44.121  32.801  31.041  1.00  0.00     0.167 HD
ATOM     36  C   UNL A   1      41.488  31.734  32.146  1.00  0.00     0.074 A 
ATOM     37  C   UNL A   1      41.397  32.645  31.012  1.00  0.00     0.031 C 
ATOM     38  C   UNL A   1      42.542  31.070  32.698  1.00  0.00     0.037 A 
BRANCH  25  39
ATOM     39  C   UNL A   1      45.113  32.532  28.114  1.00  0.00     0.064 A 
ATOM     40  C   UNL A   1      44.122  33.512  27.912  1.00  0.00     0.173 A 
ATOM     41  C   UNL A   1      46.310  32.709  27.389  1.00  0.00     0.173 A 
ATOM     42  F   UNL A   1      42.931  33.414  28.520  1.00  0.00    -0.203 F 
ATOM     43  C   UNL A   1      44.307  34.572  27.019  1.00  0.00     0.198 A 
ATOM     44  C   UNL A   1      46.510  33.795  26.538  1.00  0.00     0.198 A 
ATOM     45  F   UNL A   1      47.280  31.784  27.399  1.00  0.00    -0.203 F 
ATOM     46  F   UNL A   1      43.300  35.423  26.779  1.00  0.00    -0.200 F 
ATOM     47  C   UNL A   1      45.501  34.713  26.335  1.00  0.00     0.200 A 
ATOM     48  F   UNL A   1      47.665  33.901  25.864  1.00  0.00    -0.200 F 
ATOM     49  F   UNL A   1      45.661  35.699  25.443  1.00  0.00    -0.200 F 
ENDBRANCH  25  39
BRANCH  26  50
ATOM     50  C   UNL A   1      37.038  31.622  30.578  1.00  0.00     0.064 A 
ATOM     51  C   UNL A   1      36.095  31.722  31.613  1.00  0.00     0.173 A 
ATOM     52  C   UNL A   1      36.800  32.405  29.432  1.00  0.00     0.173 A 
ATOM     53  F   UNL A   1      36.271  31.043  32.755  1.00  0.00    -0.203 F 
ATOM     54  C   UNL A   1      34.993  32.577  31.517  1.00  0.00     0.198 A 
ATOM     55  C   UNL A   1      35.694  33.248  29.333  1.00  0.00     0.198 A 
ATOM     56  F   UNL A   1      37.686  32.443  28.427  1.00  0.00    -0.203 F 
ATOM     57  F   UNL A   1      34.150  32.699  32.552  1.00  0.00    -0.200 F 
ATOM     58  C   UNL A   1      34.799  33.346  30.381  1.00  0.00     0.200 A 
ATOM     59  F   UNL A   1      35.537  34.012  28.242  1.00  0.00    -0.200 F 
ATOM     60  F   UNL A   1      33.778  34.211  30.315  1.00  0.00    -0.200 F 
ENDBRANCH  26  50
BRANCH  38  61
ATOM     61  C   UNL A   1      42.257  30.119  33.823  1.00  0.00     0.064 A 
ATOM     62  C   UNL A   1      41.811  28.800  33.628  1.00  0.00     0.173 A 
ATOM     63  C   UNL A   1      42.590  30.505  35.128  1.00  0.00     0.173 A 
ATOM     64  F   UNL A   1      41.578  28.326  32.398  1.00  0.00    -0.203 F 
ATOM     65  C   UNL A   1      41.661  27.925  34.702  1.00  0.00     0.198 A 
ATOM     66  C   UNL A   1      42.474  29.618  36.194  1.00  0.00     0.198 A 
ATOM     67  F   UNL A   1      43.081  31.733  35.362  1.00  0.00    -0.203 F 
ATOM     68  F   UNL A   1      41.228  26.673  34.494  1.00  0.00    -0.200 F 
ATOM     69  C   UNL A   1      41.999  28.332  35.982  1.00  0.00     0.200 A 
ATOM     70  F   UNL A   1      42.853  29.996  37.422  1.00  0.00    -0.200 F 
ATOM     71  F   UNL A   1      41.901  27.475  37.008  1.00  0.00    -0.200 F 
ENDBRANCH  38  61
ENDBRANCH  12  13
ENDBRANCH   5   7
ENDBRANCH   2   3
ENDBRANCH   1   2
BRANCH   1  72
ATOM     72  C   UNL A   1      37.296  23.530  25.391  1.00  0.00     0.002 C 
BRANCH  72  73
ATOM     73  C   UNL A   1      35.914  23.510  26.056  1.00  0.00     0.002 C 
BRANCH  73  74
ATOM     74  C   UNL A   1      34.889  24.503  25.497  1.00  0.00     0.021 C 
BRANCH  74  75
ATOM     75  C   UNL A   1      33.640  23.869  24.899  1.00  0.00     0.116 C 
BRANCH  75  76
ATOM     76  N   UNL A   1      32.648  23.555  25.907  1.00  0.00    -0.349 N 
ATOM     77  C   UNL A   1      31.632  24.354  26.384  1.00  0.00     0.287 C 
ATOM     78  H   UNL A   1      32.707  22.655  26.302  1.00  0.00     0.163 HD
ATOM     79  O   UNL A   1      31.025  23.967  27.383  1.00  0.00    -0.266 OA
BRANCH  77  80
ATOM     80  C   UNL A   1      31.348  25.595  25.701  1.00  0.00     0.195 A 
ATOM     81  O   UNL A   1      30.336  25.594  24.755  1.00  0.00    -0.451 OA
ATOM     82  C   UNL A   1      31.888  26.867  25.791  1.00  0.00     0.012 A 
ATOM     83  C   UNL A   1      30.199  26.874  24.300  1.00  0.00     0.135 A 
ATOM     84  C   UNL A   1      31.131  27.667  24.920  1.00  0.00     0.028 A 
ATOM     85  C   UNL A   1      32.988  27.502  26.573  1.00  0.00     0.041 C 
ATOM     86  C   UNL A   1      29.289  27.376  23.378  1.00  0.00     0.048 A 
ATOM     87  C   UNL A   1      31.247  29.034  24.671  1.00  0.00    -0.037 A 
ATOM     88  C   UNL A   1      33.451  28.826  25.891  1.00  0.00     0.010 C 
ATOM     89  C   UNL A   1      29.377  28.761  23.133  1.00  0.00     0.004 A 
ATOM     90  C   UNL A   1      30.330  29.581  23.770  1.00  0.00     0.004 A 
ATOM     91  C   UNL A   1      32.295  29.779  25.455  1.00  0.00     0.036 C 
ENDBRANCH  77  80
ENDBRANCH  75  76
ENDBRANCH  74  75
ENDBRANCH  73  74
ENDBRANCH  72  73
ENDBRANCH   1  72
TORSDOF 13
ENDMDL
