MODEL 1
REMARK VINA RESULT:     -10.6      0.000      0.000
REMARK SMILES CCC[NH2+][C@]1(C(=O)NCCCCCCNC(=O)c2ccc(-c3c4nc(c(-c5c(F)c(F)c(F)c(F)c5F)c5ccc([nH]5)c(-c5c(F)c(F)c(F)c(F)c5F)c5nc(c(-c6c(F)c(F)c(F)c(F)c6F)c6ccc3[nH]6)C=C5)C=C4)cc2)CCC[C@H](OC(C)(C)C)C1
REMARK SMILES IDX 11 1 10 2 9 3 8 4 6 5 7 6 5 8 81 9 90 10 82 11 84 12 83 13
REMARK SMILES IDX 4 14 3 17 2 18 1 19 85 20 86 21 87 22 88 23 89 24 12 25
REMARK SMILES IDX 13 26 14 27 15 28 16 29 17 31 18 32 19 33 80 34 20 35 79 36
REMARK SMILES IDX 21 37 22 38 23 39 73 40 24 41 78 42 72 43 74 44 25 45 77 46
REMARK SMILES IDX 71 47 70 48 26 50 58 51 38 52 57 53 39 54 42 55 56 56 75 57
REMARK SMILES IDX 40 58 41 59 55 61 76 62 43 63 27 64 28 65 36 66 29 67 30 68
REMARK SMILES IDX 34 69 37 70 31 71 32 72 35 73 33 74 59 75 60 76 68 77 61 78
REMARK SMILES IDX 62 79 66 80 69 81 63 82 64 83 67 84 65 85 44 86 45 87 53 88
REMARK SMILES IDX 46 89 47 90 51 91 54 92 48 93 49 94 52 95 50 96
REMARK H PARENT 8 7 4 15 4 16 15 30 74 49 42 60
REMARK Flexibility Score: inf
ROOT
ATOM      1  C   UNL A   1      35.477  20.264  24.985  1.00  0.00     0.002 C 
ENDROOT
BRANCH   1   2
ATOM      2  C   UNL A   1      34.067  19.676  24.982  1.00  0.00     0.021 C 
BRANCH   2   3
ATOM      3  C   UNL A   1      32.944  20.688  25.163  1.00  0.00     0.116 C 
BRANCH   3   4
ATOM      4  N   UNL A   1      33.121  21.599  26.271  1.00  0.00    -0.351 N 
ATOM      5  C   UNL A   1      32.427  22.757  26.519  1.00  0.00     0.281 C 
ATOM      6  O   UNL A   1      32.117  22.934  27.706  1.00  0.00    -0.268 OA
ATOM      7  H   UNL A   1      33.819  21.362  26.922  1.00  0.00     0.163 HD
BRANCH   5   8
ATOM      8  C   UNL A   1      32.262  23.926  25.480  1.00  0.00     0.178 C 
ATOM      9  C   UNL A   1      31.121  23.631  24.484  1.00  0.00     0.079 C 
ATOM     10  C   UNL A   1      31.757  25.113  26.357  1.00  0.00     0.111 C 
ATOM     11  C   UNL A   1      30.790  24.849  23.614  1.00  0.00     0.010 C 
ATOM     12  C   UNL A   1      31.476  26.404  25.587  1.00  0.00     0.125 C 
ATOM     13  C   UNL A   1      30.496  26.115  24.428  1.00  0.00     0.032 C 
BRANCH   8  14
ATOM     14  N   UNL A   1      33.499  24.332  24.789  1.00  0.00    -0.334 N 
ATOM     15  H   UNL A   1      33.668  23.640  24.059  1.00  0.00     0.347 HD
ATOM     16  H   UNL A   1      33.301  25.287  24.493  1.00  0.00     0.347 HD
BRANCH  14  17
ATOM     17  C   UNL A   1      34.737  24.464  25.535  1.00  0.00     0.261 C 
BRANCH  17  18
ATOM     18  C   UNL A   1      35.938  23.763  24.866  1.00  0.00     0.058 C 
ATOM     19  C   UNL A   1      37.190  23.550  25.709  1.00  0.00     0.010 C 
ENDBRANCH  17  18
ENDBRANCH  14  17
ENDBRANCH   8  14
BRANCH  12  20
ATOM     20  O   UNL A   1      32.649  27.033  25.066  1.00  0.00    -0.372 OA
BRANCH  20  21
ATOM     21  C   UNL A   1      32.887  28.440  25.250  1.00  0.00     0.060 C 
ATOM     22  C   UNL A   1      31.641  29.203  25.709  1.00  0.00     0.042 C 
ATOM     23  C   UNL A   1      34.057  28.772  26.188  1.00  0.00     0.042 C 
ATOM     24  C   UNL A   1      33.282  28.937  23.848  1.00  0.00     0.042 C 
ENDBRANCH  20  21
ENDBRANCH  12  20
ENDBRANCH   5   8
ENDBRANCH   3   4
ENDBRANCH   2   3
ENDBRANCH   1   2
BRANCH   1  25
ATOM     25  C   UNL A   1      36.637  19.260  24.959  1.00  0.00     0.002 C 
BRANCH  25  26
ATOM     26  C   UNL A   1      38.024  19.814  24.612  1.00  0.00     0.021 C 
BRANCH  26  27
ATOM     27  C   UNL A   1      38.934  20.116  25.800  1.00  0.00     0.116 C 
BRANCH  27  28
ATOM     28  N   UNL A   1      40.039  19.181  25.900  1.00  0.00    -0.352 N 
ATOM     29  C   UNL A   1      41.379  19.402  26.085  1.00  0.00     0.251 C 
ATOM     30  H   UNL A   1      39.786  18.233  25.823  1.00  0.00     0.163 HD
ATOM     31  O   UNL A   1      42.173  18.477  25.948  1.00  0.00    -0.269 OA
BRANCH  29  32
ATOM     32  C   UNL A   1      41.883  20.747  26.439  1.00  0.00     0.039 A 
ATOM     33  C   UNL A   1      42.102  21.669  25.410  1.00  0.00     0.014 A 
ATOM     34  C   UNL A   1      42.199  21.085  27.757  1.00  0.00     0.014 A 
ATOM     35  C   UNL A   1      42.592  22.942  25.707  1.00  0.00     0.010 A 
ATOM     36  C   UNL A   1      42.630  22.376  28.061  1.00  0.00     0.010 A 
ATOM     37  C   UNL A   1      42.838  23.314  27.038  1.00  0.00    -0.014 A 
BRANCH  37  38
ATOM     38  C   UNL A   1      43.325  24.675  27.375  1.00  0.00     0.031 A 
ATOM     39  C   UNL A   1      42.378  25.700  27.933  1.00  0.00     0.074 A 
ATOM     40  C   UNL A   1      44.610  25.001  27.136  1.00  0.00     0.049 A 
ATOM     41  N   UNL A   1      42.595  26.959  28.224  1.00  0.00    -0.248 NA
ATOM     42  C   UNL A   1      40.996  25.259  28.176  1.00  0.00     0.031 C 
ATOM     43  C   UNL A   1      45.618  24.104  26.569  1.00  0.00     0.029 A 
ATOM     44  N   UNL A   1      45.286  26.180  27.329  1.00  0.00    -0.354 N 
ATOM     45  C   UNL A   1      41.381  27.458  28.677  1.00  0.00     0.074 A 
ATOM     46  C   UNL A   1      40.418  26.383  28.573  1.00  0.00     0.031 C 
ATOM     47  C   UNL A   1      46.786  24.759  26.476  1.00  0.00     0.029 A 
ATOM     48  C   UNL A   1      46.601  26.131  26.940  1.00  0.00     0.049 A 
ATOM     49  H   UNL A   1      44.866  26.985  27.711  1.00  0.00     0.167 HD
ATOM     50  C   UNL A   1      41.101  28.692  29.159  1.00  0.00     0.037 A 
ATOM     51  C   UNL A   1      47.549  27.087  26.948  1.00  0.00     0.037 A 
ATOM     52  C   UNL A   1      42.065  29.755  29.276  1.00  0.00     0.049 A 
ATOM     53  C   UNL A   1      47.204  28.457  27.468  1.00  0.00     0.074 A 
ATOM     54  C   UNL A   1      41.887  31.032  29.780  1.00  0.00     0.029 A 
ATOM     55  N   UNL A   1      43.393  29.662  28.885  1.00  0.00    -0.354 N 
ATOM     56  N   UNL A   1      46.066  28.902  27.939  1.00  0.00    -0.248 NA
ATOM     57  C   UNL A   1      48.282  29.457  27.461  1.00  0.00     0.031 C 
ATOM     58  C   UNL A   1      43.098  31.723  29.659  1.00  0.00     0.029 A 
ATOM     59  C   UNL A   1      44.041  30.863  29.123  1.00  0.00     0.049 A 
ATOM     60  H   UNL A   1      43.812  28.861  28.494  1.00  0.00     0.167 HD
ATOM     61  C   UNL A   1      46.296  30.218  28.313  1.00  0.00     0.074 A 
ATOM     62  C   UNL A   1      47.687  30.498  28.027  1.00  0.00     0.031 C 
ATOM     63  C   UNL A   1      45.431  31.117  28.846  1.00  0.00     0.037 A 
BRANCH  50  64
ATOM     64  C   UNL A   1      39.693  28.958  29.607  1.00  0.00     0.064 A 
ATOM     65  C   UNL A   1      38.716  29.418  28.711  1.00  0.00     0.173 A 
ATOM     66  C   UNL A   1      39.305  28.715  30.933  1.00  0.00     0.173 A 
ATOM     67  F   UNL A   1      39.038  29.677  27.435  1.00  0.00    -0.203 F 
ATOM     68  C   UNL A   1      37.409  29.650  29.132  1.00  0.00     0.198 A 
ATOM     69  C   UNL A   1      37.990  28.920  31.344  1.00  0.00     0.198 A 
ATOM     70  F   UNL A   1      40.198  28.269  31.829  1.00  0.00    -0.203 F 
ATOM     71  F   UNL A   1      36.505  30.134  28.269  1.00  0.00    -0.200 F 
ATOM     72  C   UNL A   1      37.046  29.394  30.446  1.00  0.00     0.200 A 
ATOM     73  F   UNL A   1      37.636  28.661  32.611  1.00  0.00    -0.200 F 
ATOM     74  F   UNL A   1      35.786  29.611  30.847  1.00  0.00    -0.200 F 
ENDBRANCH  50  64
BRANCH  51  75
ATOM     75  C   UNL A   1      48.921  26.782  26.467  1.00  0.00     0.064 A 
ATOM     76  C   UNL A   1      49.284  27.012  25.133  1.00  0.00     0.173 A 
ATOM     77  C   UNL A   1      49.891  26.238  27.322  1.00  0.00     0.173 A 
ATOM     78  F   UNL A   1      48.384  27.511  24.272  1.00  0.00    -0.203 F 
ATOM     79  C   UNL A   1      50.556  26.688  24.665  1.00  0.00     0.198 A 
ATOM     80  C   UNL A   1      51.172  25.941  26.861  1.00  0.00     0.198 A 
ATOM     81  F   UNL A   1      49.597  26.002  28.609  1.00  0.00    -0.203 F 
ATOM     82  F   UNL A   1      50.859  26.872  23.373  1.00  0.00    -0.200 F 
ATOM     83  C   UNL A   1      51.500  26.156  25.531  1.00  0.00     0.200 A 
ATOM     84  F   UNL A   1      52.086  25.440  27.704  1.00  0.00    -0.200 F 
ATOM     85  F   UNL A   1      52.723  25.844  25.082  1.00  0.00    -0.200 F 
ENDBRANCH  51  75
BRANCH  63  86
ATOM     86  C   UNL A   1      45.977  32.471  29.192  1.00  0.00     0.064 A 
ATOM     87  C   UNL A   1      45.937  33.536  28.282  1.00  0.00     0.173 A 
ATOM     88  C   UNL A   1      46.514  32.714  30.466  1.00  0.00     0.173 A 
ATOM     89  F   UNL A   1      45.447  33.351  27.047  1.00  0.00    -0.203 F 
ATOM     90  C   UNL A   1      46.438  34.789  28.625  1.00  0.00     0.198 A 
ATOM     91  C   UNL A   1      46.989  33.974  30.815  1.00  0.00     0.198 A 
ATOM     92  F   UNL A   1      46.570  31.729  31.375  1.00  0.00    -0.203 F 
ATOM     93  F   UNL A   1      46.432  35.781  27.723  1.00  0.00    -0.200 F 
ATOM     94  C   UNL A   1      46.957  35.009  29.892  1.00  0.00     0.200 A 
ATOM     95  F   UNL A   1      47.478  34.188  32.044  1.00  0.00    -0.200 F 
ATOM     96  F   UNL A   1      47.433  36.218  30.222  1.00  0.00    -0.200 F 
ENDBRANCH  63  86
ENDBRANCH  37  38
ENDBRANCH  29  32
ENDBRANCH  27  28
ENDBRANCH  26  27
ENDBRANCH  25  26
ENDBRANCH   1  25
TORSDOF 18
ENDMDL
MODEL 2
REMARK VINA RESULT:     -10.6      1.060      2.143
REMARK SMILES CCC[NH2+][C@]1(C(=O)NCCCCCCNC(=O)c2ccc(-c3c4nc(c(-c5c(F)c(F)c(F)c(F)c5F)c5ccc([nH]5)c(-c5c(F)c(F)c(F)c(F)c5F)c5nc(c(-c6c(F)c(F)c(F)c(F)c6F)c6ccc3[nH]6)C=C5)C=C4)cc2)CCC[C@H](OC(C)(C)C)C1
REMARK SMILES IDX 11 1 10 2 9 3 8 4 6 5 7 6 5 8 81 9 90 10 82 11 84 12 83 13
REMARK SMILES IDX 4 14 3 17 2 18 1 19 85 20 86 21 87 22 88 23 89 24 12 25
REMARK SMILES IDX 13 26 14 27 15 28 16 29 17 31 18 32 19 33 80 34 20 35 79 36
REMARK SMILES IDX 21 37 22 38 23 39 73 40 24 41 78 42 72 43 74 44 25 45 77 46
REMARK SMILES IDX 71 47 70 48 26 50 58 51 38 52 57 53 39 54 42 55 56 56 75 57
REMARK SMILES IDX 40 58 41 59 55 61 76 62 43 63 27 64 28 65 36 66 29 67 30 68
REMARK SMILES IDX 34 69 37 70 31 71 32 72 35 73 33 74 59 75 60 76 68 77 61 78
REMARK SMILES IDX 62 79 66 80 69 81 63 82 64 83 67 84 65 85 44 86 45 87 53 88
REMARK SMILES IDX 46 89 47 90 51 91 54 92 48 93 49 94 52 95 50 96
REMARK H PARENT 8 7 4 15 4 16 15 30 74 49 42 60
REMARK Flexibility Score: inf
ROOT
ATOM      1  C   UNL A   1      36.276  21.767  24.089  1.00  0.00     0.002 C 
ENDROOT
BRANCH   1   2
ATOM      2  C   UNL A   1      35.773  23.069  24.711  1.00  0.00     0.021 C 
BRANCH   2   3
ATOM      3  C   UNL A   1      34.873  22.899  25.927  1.00  0.00     0.116 C 
BRANCH   3   4
ATOM      4  N   UNL A   1      33.592  22.289  25.653  1.00  0.00    -0.351 N 
ATOM      5  C   UNL A   1      32.702  22.624  24.662  1.00  0.00     0.281 C 
ATOM      6  O   UNL A   1      32.174  21.659  24.090  1.00  0.00    -0.268 OA
ATOM      7  H   UNL A   1      33.325  21.550  26.245  1.00  0.00     0.163 HD
BRANCH   5   8
ATOM      8  C   UNL A   1      32.151  24.078  24.425  1.00  0.00     0.178 C 
ATOM      9  C   UNL A   1      30.793  24.047  23.693  1.00  0.00     0.079 C 
ATOM     10  C   UNL A   1      31.840  24.580  25.868  1.00  0.00     0.111 C 
ATOM     11  C   UNL A   1      30.130  25.429  23.658  1.00  0.00     0.010 C 
ATOM     12  C   UNL A   1      31.248  25.988  25.943  1.00  0.00     0.125 C 
ATOM     13  C   UNL A   1      29.994  26.073  25.044  1.00  0.00     0.032 C 
BRANCH   8  14
ATOM     14  N   UNL A   1      33.096  25.011  23.785  1.00  0.00    -0.334 N 
ATOM     15  H   UNL A   1      32.776  25.953  24.009  1.00  0.00     0.347 HD
ATOM     16  H   UNL A   1      34.000  24.722  24.156  1.00  0.00     0.347 HD
BRANCH  14  17
ATOM     17  C   UNL A   1      33.296  24.968  22.348  1.00  0.00     0.261 C 
BRANCH  17  18
ATOM     18  C   UNL A   1      33.044  26.321  21.650  1.00  0.00     0.058 C 
ATOM     19  C   UNL A   1      33.481  27.585  22.381  1.00  0.00     0.010 C 
ENDBRANCH  17  18
ENDBRANCH  14  17
ENDBRANCH   8  14
BRANCH  12  20
ATOM     20  O   UNL A   1      32.165  27.021  25.572  1.00  0.00    -0.372 OA
BRANCH  20  21
ATOM     21  C   UNL A   1      32.367  28.176  26.405  1.00  0.00     0.060 C 
ATOM     22  C   UNL A   1      31.442  28.202  27.626  1.00  0.00     0.042 C 
ATOM     23  C   UNL A   1      33.817  28.386  26.866  1.00  0.00     0.042 C 
ATOM     24  C   UNL A   1      32.011  29.361  25.490  1.00  0.00     0.042 C 
ENDBRANCH  20  21
ENDBRANCH  12  20
ENDBRANCH   5   8
ENDBRANCH   3   4
ENDBRANCH   2   3
ENDBRANCH   1   2
BRANCH   1  25
ATOM     25  C   UNL A   1      36.573  20.615  25.059  1.00  0.00     0.002 C 
BRANCH  25  26
ATOM     26  C   UNL A   1      37.925  19.910  24.902  1.00  0.00     0.021 C 
BRANCH  26  27
ATOM     27  C   UNL A   1      38.921  20.126  26.039  1.00  0.00     0.116 C 
BRANCH  27  28
ATOM     28  N   UNL A   1      40.057  19.227  25.956  1.00  0.00    -0.352 N 
ATOM     29  C   UNL A   1      41.401  19.480  26.036  1.00  0.00     0.251 C 
ATOM     30  H   UNL A   1      39.824  18.280  25.821  1.00  0.00     0.163 HD
ATOM     31  O   UNL A   1      42.204  18.599  25.748  1.00  0.00    -0.269 OA
BRANCH  29  32
ATOM     32  C   UNL A   1      41.899  20.808  26.457  1.00  0.00     0.039 A 
ATOM     33  C   UNL A   1      42.158  21.765  25.470  1.00  0.00     0.014 A 
ATOM     34  C   UNL A   1      42.168  21.096  27.797  1.00  0.00     0.014 A 
ATOM     35  C   UNL A   1      42.644  23.024  25.832  1.00  0.00     0.010 A 
ATOM     36  C   UNL A   1      42.594  22.373  28.163  1.00  0.00     0.010 A 
ATOM     37  C   UNL A   1      42.843  23.346  27.183  1.00  0.00    -0.014 A 
BRANCH  37  38
ATOM     38  C   UNL A   1      43.324  24.691  27.587  1.00  0.00     0.031 A 
ATOM     39  C   UNL A   1      42.341  25.761  27.974  1.00  0.00     0.074 A 
ATOM     40  C   UNL A   1      44.643  24.962  27.561  1.00  0.00     0.049 A 
ATOM     41  N   UNL A   1      42.559  27.014  28.288  1.00  0.00    -0.248 NA
ATOM     42  C   UNL A   1      40.921  25.378  27.988  1.00  0.00     0.031 C 
ATOM     43  C   UNL A   1      45.693  24.018  27.175  1.00  0.00     0.029 A 
ATOM     44  N   UNL A   1      45.326  26.116  27.855  1.00  0.00    -0.354 N 
ATOM     45  C   UNL A   1      41.309  27.566  28.530  1.00  0.00     0.074 A 
ATOM     46  C   UNL A   1      40.332  26.530  28.276  1.00  0.00     0.031 C 
ATOM     47  C   UNL A   1      46.886  24.625  27.272  1.00  0.00     0.029 A 
ATOM     48  C   UNL A   1      46.685  26.009  27.690  1.00  0.00     0.049 A 
ATOM     49  H   UNL A   1      44.883  26.942  28.157  1.00  0.00     0.167 HD
ATOM     50  C   UNL A   1      41.005  28.817  28.951  1.00  0.00     0.037 A 
ATOM     51  C   UNL A   1      47.657  26.926  27.848  1.00  0.00     0.037 A 
ATOM     52  C   UNL A   1      41.979  29.842  29.219  1.00  0.00     0.049 A 
ATOM     53  C   UNL A   1      47.288  28.316  28.295  1.00  0.00     0.074 A 
ATOM     54  C   UNL A   1      41.774  31.132  29.678  1.00  0.00     0.029 A 
ATOM     55  N   UNL A   1      43.349  29.691  29.053  1.00  0.00    -0.354 N 
ATOM     56  N   UNL A   1      46.107  28.812  28.568  1.00  0.00    -0.248 NA
ATOM     57  C   UNL A   1      48.393  29.272  28.459  1.00  0.00     0.031 C 
ATOM     58  C   UNL A   1      43.016  31.772  29.754  1.00  0.00     0.029 A 
ATOM     59  C   UNL A   1      43.998  30.868  29.387  1.00  0.00     0.049 A 
ATOM     60  H   UNL A   1      43.793  28.868  28.743  1.00  0.00     0.167 HD
ATOM     61  C   UNL A   1      46.327  30.123  28.966  1.00  0.00     0.074 A 
ATOM     62  C   UNL A   1      47.757  30.343  28.913  1.00  0.00     0.031 C 
ATOM     63  C   UNL A   1      45.424  31.063  29.342  1.00  0.00     0.037 A 
BRANCH  50  64
ATOM     64  C   UNL A   1      39.555  29.145  29.158  1.00  0.00     0.064 A 
ATOM     65  C   UNL A   1      38.965  29.083  30.430  1.00  0.00     0.173 A 
ATOM     66  C   UNL A   1      38.755  29.565  28.085  1.00  0.00     0.173 A 
ATOM     67  F   UNL A   1      39.683  28.676  31.488  1.00  0.00    -0.203 F 
ATOM     68  C   UNL A   1      37.622  29.402  30.614  1.00  0.00     0.198 A 
ATOM     69  C   UNL A   1      37.420  29.911  28.277  1.00  0.00     0.198 A 
ATOM     70  F   UNL A   1      39.271  29.649  26.849  1.00  0.00    -0.203 F 
ATOM     71  F   UNL A   1      37.069  29.289  31.830  1.00  0.00    -0.200 F 
ATOM     72  C   UNL A   1      36.853  29.823  29.540  1.00  0.00     0.200 A 
ATOM     73  F   UNL A   1      36.681  30.331  27.241  1.00  0.00    -0.200 F 
ATOM     74  F   UNL A   1      35.563  30.137  29.721  1.00  0.00    -0.200 F 
ENDBRANCH  50  64
BRANCH  51  75
ATOM     75  C   UNL A   1      49.076  26.560  27.603  1.00  0.00     0.064 A 
ATOM     76  C   UNL A   1      49.941  26.280  28.669  1.00  0.00     0.173 A 
ATOM     77  C   UNL A   1      49.601  26.501  26.304  1.00  0.00     0.173 A 
ATOM     78  F   UNL A   1      49.491  26.344  29.931  1.00  0.00    -0.203 F 
ATOM     79  C   UNL A   1      51.284  25.979  28.447  1.00  0.00     0.198 A 
ATOM     80  C   UNL A   1      50.936  26.172  26.080  1.00  0.00     0.198 A 
ATOM     81  F   UNL A   1      48.813  26.756  25.248  1.00  0.00    -0.203 F 
ATOM     82  F   UNL A   1      52.101  25.765  29.487  1.00  0.00    -0.200 F 
ATOM     83  C   UNL A   1      51.779  25.921  27.153  1.00  0.00     0.200 A 
ATOM     84  F   UNL A   1      51.407  26.103  24.828  1.00  0.00    -0.200 F 
ATOM     85  F   UNL A   1      53.070  25.632  26.939  1.00  0.00    -0.200 F 
ENDBRANCH  51  75
BRANCH  63  86
ATOM     86  C   UNL A   1      45.961  32.399  29.765  1.00  0.00     0.064 A 
ATOM     87  C   UNL A   1      46.114  33.453  28.854  1.00  0.00     0.173 A 
ATOM     88  C   UNL A   1      46.292  32.636  31.108  1.00  0.00     0.173 A 
ATOM     89  F   UNL A   1      45.825  33.271  27.556  1.00  0.00    -0.203 F 
ATOM     90  C   UNL A   1      46.604  34.690  29.267  1.00  0.00     0.198 A 
ATOM     91  C   UNL A   1      46.755  33.882  31.522  1.00  0.00     0.198 A 
ATOM     92  F   UNL A   1      46.159  31.662  32.020  1.00  0.00    -0.203 F 
ATOM     93  F   UNL A   1      46.786  35.669  28.370  1.00  0.00    -0.200 F 
ATOM     94  C   UNL A   1      46.917  34.905  30.600  1.00  0.00     0.200 A 
ATOM     95  F   UNL A   1      47.046  34.092  32.814  1.00  0.00    -0.200 F 
ATOM     96  F   UNL A   1      47.382  36.098  30.996  1.00  0.00    -0.200 F 
ENDBRANCH  63  86
ENDBRANCH  37  38
ENDBRANCH  29  32
ENDBRANCH  27  28
ENDBRANCH  26  27
ENDBRANCH  25  26
ENDBRANCH   1  25
TORSDOF 18
ENDMDL
MODEL 3
REMARK VINA RESULT:     -10.5      5.191     10.811
REMARK SMILES CCC[NH2+][C@]1(C(=O)NCCCCCCNC(=O)c2ccc(-c3c4nc(c(-c5c(F)c(F)c(F)c(F)c5F)c5ccc([nH]5)c(-c5c(F)c(F)c(F)c(F)c5F)c5nc(c(-c6c(F)c(F)c(F)c(F)c6F)c6ccc3[nH]6)C=C5)C=C4)cc2)CCC[C@H](OC(C)(C)C)C1
REMARK SMILES IDX 11 1 10 2 9 3 8 4 6 5 7 6 5 8 81 9 90 10 82 11 84 12 83 13
REMARK SMILES IDX 4 14 3 17 2 18 1 19 85 20 86 21 87 22 88 23 89 24 12 25
REMARK SMILES IDX 13 26 14 27 15 28 16 29 17 31 18 32 19 33 80 34 20 35 79 36
REMARK SMILES IDX 21 37 22 38 23 39 73 40 24 41 78 42 72 43 74 44 25 45 77 46
REMARK SMILES IDX 71 47 70 48 26 50 58 51 38 52 57 53 39 54 42 55 56 56 75 57
REMARK SMILES IDX 40 58 41 59 55 61 76 62 43 63 27 64 28 65 36 66 29 67 30 68
REMARK SMILES IDX 34 69 37 70 31 71 32 72 35 73 33 74 59 75 60 76 68 77 61 78
REMARK SMILES IDX 62 79 66 80 69 81 63 82 64 83 67 84 65 85 44 86 45 87 53 88
REMARK SMILES IDX 46 89 47 90 51 91 54 92 48 93 49 94 52 95 50 96
REMARK H PARENT 8 7 4 15 4 16 15 30 74 49 42 60
REMARK Flexibility Score: inf
ROOT
ATOM      1  C   UNL A   1      32.507  29.985  25.957  1.00  0.00     0.002 C 
ENDROOT
BRANCH   1   2
ATOM      2  C   UNL A   1      32.016  29.337  24.664  1.00  0.00     0.021 C 
BRANCH   2   3
ATOM      3  C   UNL A   1      33.078  28.583  23.874  1.00  0.00     0.116 C 
BRANCH   3   4
ATOM      4  N   UNL A   1      32.605  27.968  22.655  1.00  0.00    -0.351 N 
ATOM      5  C   UNL A   1      31.805  26.858  22.536  1.00  0.00     0.281 C 
ATOM      6  O   UNL A   1      30.923  26.943  21.669  1.00  0.00    -0.268 OA
ATOM      7  H   UNL A   1      32.889  28.392  21.814  1.00  0.00     0.163 HD
BRANCH   5   8
ATOM      8  C   UNL A   1      32.114  25.472  23.211  1.00  0.00     0.178 C 
ATOM      9  C   UNL A   1      31.005  24.443  22.906  1.00  0.00     0.079 C 
ATOM     10  C   UNL A   1      33.374  24.973  22.440  1.00  0.00     0.111 C 
ATOM     11  C   UNL A   1      31.395  23.030  23.354  1.00  0.00     0.010 C 
ATOM     12  C   UNL A   1      33.890  23.601  22.875  1.00  0.00     0.125 C 
ATOM     13  C   UNL A   1      32.746  22.566  22.795  1.00  0.00     0.032 C 
BRANCH   8  14
ATOM     14  N   UNL A   1      32.424  25.529  24.651  1.00  0.00    -0.334 N 
ATOM     15  H   UNL A   1      32.831  24.627  24.901  1.00  0.00     0.347 HD
ATOM     16  H   UNL A   1      33.021  26.351  24.730  1.00  0.00     0.347 HD
BRANCH  14  17
ATOM     17  C   UNL A   1      31.367  25.791  25.611  1.00  0.00     0.261 C 
BRANCH  17  18
ATOM     18  C   UNL A   1      31.106  24.617  26.577  1.00  0.00     0.058 C 
ATOM     19  C   UNL A   1      32.266  23.673  26.870  1.00  0.00     0.010 C 
ENDBRANCH  17  18
ENDBRANCH  14  17
ENDBRANCH   8  14
BRANCH  12  20
ATOM     20  O   UNL A   1      34.450  23.584  24.191  1.00  0.00    -0.372 OA
BRANCH  20  21
ATOM     21  C   UNL A   1      35.703  22.933  24.462  1.00  0.00     0.060 C 
ATOM     22  C   UNL A   1      35.534  21.538  25.071  1.00  0.00     0.042 C 
ATOM     23  C   UNL A   1      36.652  22.846  23.257  1.00  0.00     0.042 C 
ATOM     24  C   UNL A   1      36.380  23.846  25.499  1.00  0.00     0.042 C 
ENDBRANCH  20  21
ENDBRANCH  12  20
ENDBRANCH   5   8
ENDBRANCH   3   4
ENDBRANCH   2   3
ENDBRANCH   1   2
BRANCH   1  25
ATOM     25  C   UNL A   1      31.447  30.687  26.816  1.00  0.00     0.002 C 
BRANCH  25  26
ATOM     26  C   UNL A   1      31.376  32.215  26.716  1.00  0.00     0.021 C 
BRANCH  26  27
ATOM     27  C   UNL A   1      32.678  32.959  27.002  1.00  0.00     0.116 C 
BRANCH  27  28
ATOM     28  N   UNL A   1      32.449  34.266  27.589  1.00  0.00    -0.352 N 
ATOM     29  C   UNL A   1      33.025  34.868  28.676  1.00  0.00     0.251 C 
ATOM     30  H   UNL A   1      31.769  34.810  27.130  1.00  0.00     0.163 HD
ATOM     31  O   UNL A   1      32.550  35.908  29.120  1.00  0.00    -0.269 OA
BRANCH  29  32
ATOM     32  C   UNL A   1      34.212  34.274  29.332  1.00  0.00     0.039 A 
ATOM     33  C   UNL A   1      34.013  33.420  30.421  1.00  0.00     0.014 A 
ATOM     34  C   UNL A   1      35.510  34.596  28.924  1.00  0.00     0.014 A 
ATOM     35  C   UNL A   1      35.112  32.855  31.072  1.00  0.00     0.010 A 
ATOM     36  C   UNL A   1      36.603  33.983  29.534  1.00  0.00     0.010 A 
ATOM     37  C   UNL A   1      36.415  33.113  30.619  1.00  0.00    -0.014 A 
BRANCH  37  38
ATOM     38  C   UNL A   1      37.592  32.491  31.277  1.00  0.00     0.031 A 
ATOM     39  C   UNL A   1      38.326  31.364  30.605  1.00  0.00     0.074 A 
ATOM     40  C   UNL A   1      37.971  32.912  32.499  1.00  0.00     0.049 A 
ATOM     41  N   UNL A   1      39.329  30.648  31.048  1.00  0.00    -0.248 NA
ATOM     42  C   UNL A   1      37.855  30.975  29.267  1.00  0.00     0.031 C 
ATOM     43  C   UNL A   1      37.322  33.976  33.266  1.00  0.00     0.029 A 
ATOM     44  N   UNL A   1      38.989  32.487  33.316  1.00  0.00    -0.354 N 
ATOM     45  C   UNL A   1      39.604  29.724  30.048  1.00  0.00     0.074 A 
ATOM     46  C   UNL A   1      38.629  29.934  28.999  1.00  0.00     0.031 C 
ATOM     47  C   UNL A   1      37.966  34.132  34.433  1.00  0.00     0.029 A 
ATOM     48  C   UNL A   1      39.049  33.156  34.514  1.00  0.00     0.049 A 
ATOM     49  H   UNL A   1      39.617  31.772  33.066  1.00  0.00     0.167 HD
ATOM     50  C   UNL A   1      40.594  28.802  29.998  1.00  0.00     0.037 A 
ATOM     51  C   UNL A   1      39.878  32.994  35.562  1.00  0.00     0.037 A 
ATOM     52  C   UNL A   1      41.573  28.606  31.036  1.00  0.00     0.049 A 
ATOM     53  C   UNL A   1      40.956  31.945  35.489  1.00  0.00     0.074 A 
ATOM     54  C   UNL A   1      42.634  27.717  31.067  1.00  0.00     0.029 A 
ATOM     55  N   UNL A   1      41.609  29.313  32.229  1.00  0.00    -0.354 N 
ATOM     56  N   UNL A   1      41.236  31.111  34.519  1.00  0.00    -0.248 NA
ATOM     57  C   UNL A   1      41.836  31.821  36.660  1.00  0.00     0.031 C 
ATOM     58  C   UNL A   1      43.290  27.862  32.294  1.00  0.00     0.029 A 
ATOM     59  C   UNL A   1      42.666  28.871  33.008  1.00  0.00     0.049 A 
ATOM     60  H   UNL A   1      40.977  30.023  32.484  1.00  0.00     0.167 HD
ATOM     61  C   UNL A   1      42.340  30.387  34.945  1.00  0.00     0.074 A 
ATOM     62  C   UNL A   1      42.689  30.888  36.258  1.00  0.00     0.031 C 
ATOM     63  C   UNL A   1      43.007  29.394  34.306  1.00  0.00     0.037 A 
BRANCH  50  64
ATOM     64  C   UNL A   1      40.676  27.938  28.773  1.00  0.00     0.064 A 
ATOM     65  C   UNL A   1      39.942  26.746  28.669  1.00  0.00     0.173 A 
ATOM     66  C   UNL A   1      41.464  28.321  27.677  1.00  0.00     0.173 A 
ATOM     67  F   UNL A   1      39.183  26.329  29.694  1.00  0.00    -0.203 F 
ATOM     68  C   UNL A   1      40.014  25.957  27.524  1.00  0.00     0.198 A 
ATOM     69  C   UNL A   1      41.511  27.544  26.522  1.00  0.00     0.198 A 
ATOM     70  F   UNL A   1      42.180  29.453  27.722  1.00  0.00    -0.203 F 
ATOM     71  F   UNL A   1      39.340  24.800  27.466  1.00  0.00    -0.200 F 
ATOM     72  C   UNL A   1      40.791  26.360  26.449  1.00  0.00     0.200 A 
ATOM     73  F   UNL A   1      42.253  27.941  25.479  1.00  0.00    -0.200 F 
ATOM     74  F   UNL A   1      40.854  25.604  25.345  1.00  0.00    -0.200 F 
ENDBRANCH  50  64
BRANCH  51  75
ATOM     75  C   UNL A   1      39.738  33.856  36.764  1.00  0.00     0.064 A 
ATOM     76  C   UNL A   1      38.915  33.472  37.832  1.00  0.00     0.173 A 
ATOM     77  C   UNL A   1      40.407  35.084  36.865  1.00  0.00     0.173 A 
ATOM     78  F   UNL A   1      38.238  32.316  37.773  1.00  0.00    -0.203 F 
ATOM     79  C   UNL A   1      38.746  34.296  38.944  1.00  0.00     0.198 A 
ATOM     80  C   UNL A   1      40.260  35.894  37.988  1.00  0.00     0.198 A 
ATOM     81  F   UNL A   1      41.210  35.496  35.872  1.00  0.00    -0.203 F 
ATOM     82  F   UNL A   1      37.914  33.928  39.927  1.00  0.00    -0.200 F 
ATOM     83  C   UNL A   1      39.422  35.504  39.022  1.00  0.00     0.200 A 
ATOM     84  F   UNL A   1      40.926  37.055  38.067  1.00  0.00    -0.200 F 
ATOM     85  F   UNL A   1      39.260  36.297  40.090  1.00  0.00    -0.200 F 
ENDBRANCH  51  75
BRANCH  63  86
ATOM     86  C   UNL A   1      44.204  28.814  35.001  1.00  0.00     0.064 A 
ATOM     87  C   UNL A   1      45.484  29.363  34.843  1.00  0.00     0.173 A 
ATOM     88  C   UNL A   1      44.060  27.717  35.864  1.00  0.00     0.173 A 
ATOM     89  F   UNL A   1      45.676  30.403  34.018  1.00  0.00    -0.203 F 
ATOM     90  C   UNL A   1      46.582  28.819  35.505  1.00  0.00     0.198 A 
ATOM     91  C   UNL A   1      45.154  27.193  36.545  1.00  0.00     0.198 A 
ATOM     92  F   UNL A   1      42.854  27.159  36.053  1.00  0.00    -0.203 F 
ATOM     93  F   UNL A   1      47.805  29.330  35.304  1.00  0.00    -0.200 F 
ATOM     94  C   UNL A   1      46.416  27.739  36.360  1.00  0.00     0.200 A 
ATOM     95  F   UNL A   1      44.989  26.157  37.380  1.00  0.00    -0.200 F 
ATOM     96  F   UNL A   1      47.473  27.221  37.000  1.00  0.00    -0.200 F 
ENDBRANCH  63  86
ENDBRANCH  37  38
ENDBRANCH  29  32
ENDBRANCH  27  28
ENDBRANCH  26  27
ENDBRANCH  25  26
ENDBRANCH   1  25
TORSDOF 18
ENDMDL
