MODEL 1
REMARK VINA RESULT:     -12.8      0.000      0.000
REMARK SMILES O=C1C[C@H](C(=O)NCCCCCCNC(=O)c2ccc(-c3c4nc(c(-c5c(F)c(F)c(F)c(F)c5F)c5ccc([nH]5)c(-c5c(F)c(F)c(F)c(F)c5F)c5nc(c(-c6c(F)c(F)c(F)c(F)c6F)c6ccc3[nH]6)C=C5)C=C4)cc2)c2c(nc(Nc3ccc(Oc4ccccc4)cc3)[nH]c2=O)N1
REMARK SMILES IDX 9 1 8 2 7 3 5 4 6 5 4 7 1 8 2 9 3 10 101 11 81 12 80 14
REMARK SMILES IDX 82 15 99 16 83 17 98 18 100 19 84 21 85 23 86 24 97 25 87 26
REMARK SMILES IDX 96 27 88 28 89 29 90 30 91 31 95 32 92 33 94 34 93 35 10 36
REMARK SMILES IDX 11 37 12 38 13 39 14 40 15 41 16 43 17 44 18 45 79 46 19 47
REMARK SMILES IDX 78 48 20 49 21 50 22 51 72 52 23 53 77 54 71 55 73 56 24 57
REMARK SMILES IDX 76 58 70 59 69 60 25 62 57 63 37 64 56 65 38 66 41 67 55 68
REMARK SMILES IDX 74 69 39 70 40 71 54 73 75 74 42 75 26 76 27 77 35 78 28 79
REMARK SMILES IDX 29 80 33 81 36 82 30 83 31 84 34 85 32 86 58 87 59 88 67 89
REMARK SMILES IDX 60 90 61 91 65 92 68 93 62 94 63 95 66 96 64 97 43 98 44 99
REMARK SMILES IDX 52 100 45 101 46 102 50 103 53 104 47 105 48 106 51 107
REMARK SMILES IDX 49 108
REMARK H PARENT 7 6 101 13 98 20 84 22 14 42 73 61 41 72
REMARK Flexibility Score: inf
ROOT
ATOM      1  C   UNL A   1      35.242  21.530  26.103  1.00  0.00     0.021 C 
ENDROOT
BRANCH   1   2
ATOM      2  C   UNL A   1      34.760  22.898  25.626  1.00  0.00     0.116 C 
BRANCH   2   3
ATOM      3  N   UNL A   1      33.374  22.840  25.202  1.00  0.00    -0.356 N 
ATOM      4  C   UNL A   1      32.647  23.664  24.399  1.00  0.00     0.228 C 
ATOM      5  O   UNL A   1      31.430  23.474  24.343  1.00  0.00    -0.274 OA
ATOM      6  H   UNL A   1      32.873  22.071  25.556  1.00  0.00     0.163 HD
BRANCH   4   7
ATOM      7  C   UNL A   1      33.288  24.823  23.635  1.00  0.00     0.127 C 
ATOM      8  O   UNL A   1      33.009  25.683  20.032  1.00  0.00    -0.275 OA
ATOM      9  C   UNL A   1      32.904  25.736  21.256  1.00  0.00     0.226 C 
ATOM     10  C   UNL A   1      33.223  24.544  22.128  1.00  0.00     0.119 C 
ATOM     11  N   UNL A   1      32.427  26.856  21.866  1.00  0.00    -0.310 N 
ATOM     12  C   UNL A   1      32.306  27.062  23.201  1.00  0.00     0.146 A 
ATOM     13  H   UNL A   1      32.141  27.590  21.276  1.00  0.00     0.171 HD
ATOM     14  C   UNL A   1      32.722  26.139  24.068  1.00  0.00     0.073 A 
ATOM     15  N   UNL A   1      31.756  28.258  23.526  1.00  0.00    -0.196 NA
ATOM     16  C   UNL A   1      32.605  26.492  25.494  1.00  0.00     0.258 A 
ATOM     17  C   UNL A   1      31.637  28.574  24.779  1.00  0.00     0.209 A 
ATOM     18  N   UNL A   1      32.051  27.712  25.757  1.00  0.00    -0.292 N 
ATOM     19  O   UNL A   1      32.979  25.755  26.396  1.00  0.00    -0.269 OA
ATOM     20  H   UNL A   1      31.945  27.986  26.697  1.00  0.00     0.173 HD
BRANCH  17  21
ATOM     21  N   UNL A   1      31.131  29.775  25.205  1.00  0.00    -0.326 N 
ATOM     22  H   UNL A   1      30.206  30.011  24.961  1.00  0.00     0.170 HD
BRANCH  21  23
ATOM     23  C   UNL A   1      31.876  30.685  25.977  1.00  0.00     0.041 A 
ATOM     24  C   UNL A   1      31.376  31.966  26.225  1.00  0.00     0.030 A 
ATOM     25  C   UNL A   1      33.042  30.278  26.637  1.00  0.00     0.030 A 
ATOM     26  C   UNL A   1      32.011  32.807  27.145  1.00  0.00     0.049 A 
ATOM     27  C   UNL A   1      33.689  31.122  27.540  1.00  0.00     0.049 A 
ATOM     28  C   UNL A   1      33.163  32.386  27.812  1.00  0.00     0.127 A 
BRANCH  28  29
ATOM     29  O   UNL A   1      33.666  33.274  28.741  1.00  0.00    -0.457 OA
BRANCH  29  30
ATOM     30  C   UNL A   1      34.960  33.086  29.157  1.00  0.00     0.127 A 
ATOM     31  C   UNL A   1      35.207  32.665  30.464  1.00  0.00     0.047 A 
ATOM     32  C   UNL A   1      36.010  33.349  28.282  1.00  0.00     0.047 A 
ATOM     33  C   UNL A   1      36.522  32.450  30.880  1.00  0.00     0.004 A 
ATOM     34  C   UNL A   1      37.320  33.144  28.708  1.00  0.00     0.004 A 
ATOM     35  C   UNL A   1      37.577  32.681  29.999  1.00  0.00     0.000 A 
ENDBRANCH  29  30
ENDBRANCH  28  29
ENDBRANCH  21  23
ENDBRANCH  17  21
ENDBRANCH   4   7
ENDBRANCH   2   3
ENDBRANCH   1   2
BRANCH   1  36
ATOM     36  C   UNL A   1      35.847  20.653  25.000  1.00  0.00     0.002 C 
BRANCH  36  37
ATOM     37  C   UNL A   1      37.321  20.930  24.684  1.00  0.00     0.002 C 
BRANCH  37  38
ATOM     38  C   UNL A   1      38.278  19.778  25.000  1.00  0.00     0.021 C 
BRANCH  38  39
ATOM     39  C   UNL A   1      39.406  20.139  25.960  1.00  0.00     0.116 C 
BRANCH  39  40
ATOM     40  N   UNL A   1      40.444  19.122  25.989  1.00  0.00    -0.352 N 
ATOM     41  C   UNL A   1      41.801  19.289  26.103  1.00  0.00     0.251 C 
ATOM     42  H   UNL A   1      40.133  18.191  25.917  1.00  0.00     0.163 HD
ATOM     43  O   UNL A   1      42.571  18.350  25.929  1.00  0.00    -0.269 OA
BRANCH  41  44
ATOM     44  C   UNL A   1      42.331  20.628  26.419  1.00  0.00     0.039 A 
ATOM     45  C   UNL A   1      42.815  21.425  25.380  1.00  0.00     0.014 A 
ATOM     46  C   UNL A   1      42.322  21.098  27.736  1.00  0.00     0.014 A 
ATOM     47  C   UNL A   1      43.247  22.722  25.658  1.00  0.00     0.010 A 
ATOM     48  C   UNL A   1      42.698  22.411  28.002  1.00  0.00     0.010 A 
ATOM     49  C   UNL A   1      43.169  23.230  26.965  1.00  0.00    -0.014 A 
BRANCH  49  50
ATOM     50  C   UNL A   1      43.613  24.612  27.265  1.00  0.00     0.031 A 
ATOM     51  C   UNL A   1      42.595  25.656  27.619  1.00  0.00     0.074 A 
ATOM     52  C   UNL A   1      44.923  24.918  27.229  1.00  0.00     0.049 A 
ATOM     53  N   UNL A   1      42.777  26.912  27.938  1.00  0.00    -0.248 NA
ATOM     54  C   UNL A   1      41.184  25.235  27.617  1.00  0.00     0.031 C 
ATOM     55  C   UNL A   1      45.995  23.973  26.918  1.00  0.00     0.029 A 
ATOM     56  N   UNL A   1      45.581  26.097  27.478  1.00  0.00    -0.354 N 
ATOM     57  C   UNL A   1      41.511  27.421  28.192  1.00  0.00     0.074 A 
ATOM     58  C   UNL A   1      40.562  26.363  27.925  1.00  0.00     0.031 C 
ATOM     59  C   UNL A   1      47.178  24.592  27.055  1.00  0.00     0.029 A 
ATOM     60  C   UNL A   1      46.951  25.991  27.410  1.00  0.00     0.049 A 
ATOM     61  H   UNL A   1      45.117  26.939  27.686  1.00  0.00     0.167 HD
ATOM     62  C   UNL A   1      41.176  28.651  28.645  1.00  0.00     0.037 A 
ATOM     63  C   UNL A   1      47.906  26.920  27.616  1.00  0.00     0.037 A 
ATOM     64  C   UNL A   1      42.125  29.695  28.922  1.00  0.00     0.049 A 
ATOM     65  C   UNL A   1      47.481  28.325  27.968  1.00  0.00     0.074 A 
ATOM     66  C   UNL A   1      41.888  30.966  29.412  1.00  0.00     0.029 A 
ATOM     67  N   UNL A   1      43.494  29.585  28.730  1.00  0.00    -0.354 N 
ATOM     68  N   UNL A   1      46.287  28.781  28.258  1.00  0.00    -0.248 NA
ATOM     69  C   UNL A   1      48.537  29.347  28.010  1.00  0.00     0.031 C 
ATOM     70  C   UNL A   1      43.110  31.641  29.476  1.00  0.00     0.029 A 
ATOM     71  C   UNL A   1      44.113  30.777  29.065  1.00  0.00     0.049 A 
ATOM     72  H   UNL A   1      43.957  28.779  28.404  1.00  0.00     0.167 HD
ATOM     73  C   UNL A   1      46.457  30.121  28.579  1.00  0.00     0.074 A 
ATOM     74  C   UNL A   1      47.869  30.409  28.437  1.00  0.00     0.031 C 
ATOM     75  C   UNL A   1      45.527  31.030  28.965  1.00  0.00     0.037 A 
BRANCH  62  76
ATOM     76  C   UNL A   1      39.726  28.928  28.898  1.00  0.00     0.064 A 
ATOM     77  C   UNL A   1      38.873  29.333  27.861  1.00  0.00     0.173 A 
ATOM     78  C   UNL A   1      39.168  28.724  30.169  1.00  0.00     0.173 A 
ATOM     79  F   UNL A   1      39.363  29.554  26.632  1.00  0.00    -0.203 F 
ATOM     80  C   UNL A   1      37.515  29.533  28.089  1.00  0.00     0.198 A 
ATOM     81  C   UNL A   1      37.804  28.901  30.387  1.00  0.00     0.198 A 
ATOM     82  F   UNL A   1      39.942  28.333  31.193  1.00  0.00    -0.203 F 
ATOM     83  F   UNL A   1      36.724  29.947  27.089  1.00  0.00    -0.200 F 
ATOM     84  C   UNL A   1      36.980  29.308  29.348  1.00  0.00     0.200 A 
ATOM     85  F   UNL A   1      37.287  28.673  31.601  1.00  0.00    -0.200 F 
ATOM     86  F   UNL A   1      35.669  29.485  29.562  1.00  0.00    -0.200 F 
ENDBRANCH  62  76
BRANCH  63  87
ATOM     87  C   UNL A   1      49.351  26.557  27.544  1.00  0.00     0.064 A 
ATOM     88  C   UNL A   1      49.988  26.384  26.306  1.00  0.00     0.173 A 
ATOM     89  C   UNL A   1      50.128  26.366  28.695  1.00  0.00     0.173 A 
ATOM     90  F   UNL A   1      49.292  26.538  25.169  1.00  0.00    -0.203 F 
ATOM     91  C   UNL A   1      51.330  26.015  26.224  1.00  0.00     0.198 A 
ATOM     92  C   UNL A   1      51.482  26.040  28.612  1.00  0.00     0.198 A 
ATOM     93  F   UNL A   1      49.575  26.511  29.908  1.00  0.00    -0.203 F 
ATOM     94  F   UNL A   1      51.893  25.806  25.026  1.00  0.00    -0.200 F 
ATOM     95  C   UNL A   1      52.078  25.850  27.377  1.00  0.00     0.200 A 
ATOM     96  F   UNL A   1      52.208  25.906  29.730  1.00  0.00    -0.200 F 
ATOM     97  F   UNL A   1      53.369  25.502  27.302  1.00  0.00    -0.200 F 
ENDBRANCH  63  87
BRANCH  75  98
ATOM     98  C   UNL A   1      46.004  32.402  29.337  1.00  0.00     0.064 A 
ATOM     99  C   UNL A   1      46.048  33.446  28.402  1.00  0.00     0.173 A 
ATOM    100  C   UNL A   1      46.337  32.696  30.669  1.00  0.00     0.173 A 
ATOM    101  F   UNL A   1      45.752  33.211  27.115  1.00  0.00    -0.203 F 
ATOM    102  C   UNL A   1      46.419  34.731  28.785  1.00  0.00     0.198 A 
ATOM    103  C   UNL A   1      46.679  33.988  31.053  1.00  0.00     0.198 A 
ATOM    104  F   UNL A   1      46.301  31.734  31.603  1.00  0.00    -0.203 F 
ATOM    105  F   UNL A   1      46.485  35.708  27.869  1.00  0.00    -0.200 F 
ATOM    106  C   UNL A   1      46.723  35.004  30.112  1.00  0.00     0.200 A 
ATOM    107  F   UNL A   1      46.955  34.254  32.338  1.00  0.00    -0.200 F 
ATOM    108  F   UNL A   1      47.060  36.247  30.480  1.00  0.00    -0.200 F 
ENDBRANCH  75  98
ENDBRANCH  49  50
ENDBRANCH  41  44
ENDBRANCH  39  40
ENDBRANCH  38  39
ENDBRANCH  37  38
ENDBRANCH  36  37
ENDBRANCH   1  36
TORSDOF 17
ENDMDL
MODEL 2
REMARK VINA RESULT:     -12.8      4.386     10.361
REMARK SMILES O=C1C[C@H](C(=O)NCCCCCCNC(=O)c2ccc(-c3c4nc(c(-c5c(F)c(F)c(F)c(F)c5F)c5ccc([nH]5)c(-c5c(F)c(F)c(F)c(F)c5F)c5nc(c(-c6c(F)c(F)c(F)c(F)c6F)c6ccc3[nH]6)C=C5)C=C4)cc2)c2c(nc(Nc3ccc(Oc4ccccc4)cc3)[nH]c2=O)N1
REMARK SMILES IDX 9 1 8 2 7 3 5 4 6 5 4 7 1 8 2 9 3 10 101 11 81 12 80 14
REMARK SMILES IDX 82 15 99 16 83 17 98 18 100 19 84 21 85 23 86 24 97 25 87 26
REMARK SMILES IDX 96 27 88 28 89 29 90 30 91 31 95 32 92 33 94 34 93 35 10 36
REMARK SMILES IDX 11 37 12 38 13 39 14 40 15 41 16 43 17 44 18 45 79 46 19 47
REMARK SMILES IDX 78 48 20 49 21 50 22 51 72 52 23 53 77 54 71 55 73 56 24 57
REMARK SMILES IDX 76 58 70 59 69 60 25 62 57 63 37 64 56 65 38 66 41 67 55 68
REMARK SMILES IDX 74 69 39 70 40 71 54 73 75 74 42 75 26 76 27 77 35 78 28 79
REMARK SMILES IDX 29 80 33 81 36 82 30 83 31 84 34 85 32 86 58 87 59 88 67 89
REMARK SMILES IDX 60 90 61 91 65 92 68 93 62 94 63 95 66 96 64 97 43 98 44 99
REMARK SMILES IDX 52 100 45 101 46 102 50 103 53 104 47 105 48 106 51 107
REMARK SMILES IDX 49 108
REMARK H PARENT 7 6 101 13 98 20 84 22 14 42 73 61 41 72
REMARK Flexibility Score: inf
ROOT
ATOM      1  C   UNL A   1      31.412  28.768  25.304  1.00  0.00     0.021 C 
ENDROOT
BRANCH   1   2
ATOM      2  C   UNL A   1      32.181  28.177  24.125  1.00  0.00     0.116 C 
BRANCH   2   3
ATOM      3  N   UNL A   1      31.431  27.102  23.505  1.00  0.00    -0.356 N 
ATOM      4  C   UNL A   1      31.329  25.781  23.820  1.00  0.00     0.228 C 
ATOM      5  O   UNL A   1      30.752  25.047  23.014  1.00  0.00    -0.274 OA
ATOM      6  H   UNL A   1      30.903  27.374  22.720  1.00  0.00     0.163 HD
BRANCH   4   7
ATOM      7  C   UNL A   1      31.951  25.202  25.090  1.00  0.00     0.127 C 
ATOM      8  O   UNL A   1      30.423  22.956  27.624  1.00  0.00    -0.275 OA
ATOM      9  C   UNL A   1      31.145  23.378  26.723  1.00  0.00     0.226 C 
ATOM     10  C   UNL A   1      30.844  24.677  26.013  1.00  0.00     0.119 C 
ATOM     11  N   UNL A   1      32.208  22.650  26.285  1.00  0.00    -0.310 N 
ATOM     12  C   UNL A   1      33.106  23.017  25.336  1.00  0.00     0.146 A 
ATOM     13  H   UNL A   1      32.337  21.766  26.698  1.00  0.00     0.171 HD
ATOM     14  C   UNL A   1      33.033  24.221  24.768  1.00  0.00     0.073 A 
ATOM     15  N   UNL A   1      34.039  22.072  25.065  1.00  0.00    -0.196 NA
ATOM     16  C   UNL A   1      34.097  24.542  23.799  1.00  0.00     0.258 A 
ATOM     17  C   UNL A   1      34.973  22.340  24.206  1.00  0.00     0.209 A 
ATOM     18  N   UNL A   1      35.011  23.553  23.575  1.00  0.00    -0.292 N 
ATOM     19  O   UNL A   1      34.174  25.621  23.228  1.00  0.00    -0.269 OA
ATOM     20  H   UNL A   1      35.734  23.721  22.929  1.00  0.00     0.173 HD
BRANCH  17  21
ATOM     21  N   UNL A   1      35.982  21.464  23.897  1.00  0.00    -0.326 N 
ATOM     22  H   UNL A   1      35.934  20.971  23.046  1.00  0.00     0.170 HD
BRANCH  21  23
ATOM     23  C   UNL A   1      37.083  21.243  24.743  1.00  0.00     0.041 A 
ATOM     24  C   UNL A   1      37.607  19.955  24.887  1.00  0.00     0.030 A 
ATOM     25  C   UNL A   1      37.768  22.316  25.325  1.00  0.00     0.030 A 
ATOM     26  C   UNL A   1      38.812  19.753  25.568  1.00  0.00     0.049 A 
ATOM     27  C   UNL A   1      38.960  22.117  26.022  1.00  0.00     0.049 A 
ATOM     28  C   UNL A   1      39.497  20.833  26.130  1.00  0.00     0.127 A 
BRANCH  28  29
ATOM     29  O   UNL A   1      40.706  20.523  26.722  1.00  0.00    -0.457 OA
BRANCH  29  30
ATOM     30  C   UNL A   1      41.566  21.560  26.977  1.00  0.00     0.127 A 
ATOM     31  C   UNL A   1      41.550  22.172  28.232  1.00  0.00     0.047 A 
ATOM     32  C   UNL A   1      42.419  22.011  25.974  1.00  0.00     0.047 A 
ATOM     33  C   UNL A   1      42.443  23.211  28.500  1.00  0.00     0.004 A 
ATOM     34  C   UNL A   1      43.298  23.058  26.246  1.00  0.00     0.004 A 
ATOM     35  C   UNL A   1      43.322  23.647  27.510  1.00  0.00     0.000 A 
ENDBRANCH  29  30
ENDBRANCH  28  29
ENDBRANCH  21  23
ENDBRANCH  17  21
ENDBRANCH   4   7
ENDBRANCH   2   3
ENDBRANCH   1   2
BRANCH   1  36
ATOM     36  C   UNL A   1      31.437  30.300  25.371  1.00  0.00     0.002 C 
BRANCH  36  37
ATOM     37  C   UNL A   1      31.726  30.886  26.758  1.00  0.00     0.002 C 
BRANCH  37  38
ATOM     38  C   UNL A   1      31.513  32.397  26.878  1.00  0.00     0.021 C 
BRANCH  38  39
ATOM     39  C   UNL A   1      32.773  33.187  27.217  1.00  0.00     0.116 C 
BRANCH  39  40
ATOM     40  N   UNL A   1      32.464  34.481  27.805  1.00  0.00    -0.352 N 
ATOM     41  C   UNL A   1      33.012  35.068  28.916  1.00  0.00     0.251 C 
ATOM     42  H   UNL A   1      31.770  35.005  27.343  1.00  0.00     0.163 HD
ATOM     43  O   UNL A   1      32.525  36.084  29.401  1.00  0.00    -0.269 OA
BRANCH  41  44
ATOM     44  C   UNL A   1      34.193  34.445  29.542  1.00  0.00     0.039 A 
ATOM     45  C   UNL A   1      34.015  33.637  30.666  1.00  0.00     0.014 A 
ATOM     46  C   UNL A   1      35.467  34.643  28.998  1.00  0.00     0.014 A 
ATOM     47  C   UNL A   1      35.116  32.983  31.219  1.00  0.00     0.010 A 
ATOM     48  C   UNL A   1      36.552  33.944  29.515  1.00  0.00     0.010 A 
ATOM     49  C   UNL A   1      36.386  33.113  30.633  1.00  0.00    -0.014 A 
BRANCH  49  50
ATOM     50  C   UNL A   1      37.557  32.409  31.207  1.00  0.00     0.031 A 
ATOM     51  C   UNL A   1      38.077  32.812  32.555  1.00  0.00     0.074 A 
ATOM     52  C   UNL A   1      38.137  31.406  30.520  1.00  0.00     0.049 A 
ATOM     53  N   UNL A   1      39.070  32.307  33.241  1.00  0.00    -0.248 NA
ATOM     54  C   UNL A   1      37.390  33.930  33.224  1.00  0.00     0.031 C 
ATOM     55  C   UNL A   1      37.696  30.921  29.213  1.00  0.00     0.029 A 
ATOM     56  N   UNL A   1      39.202  30.599  30.833  1.00  0.00    -0.354 N 
ATOM     57  C   UNL A   1      39.113  33.031  34.424  1.00  0.00     0.074 A 
ATOM     58  C   UNL A   1      38.094  34.053  34.339  1.00  0.00     0.031 C 
ATOM     59  C   UNL A   1      38.443  29.862  28.864  1.00  0.00     0.029 A 
ATOM     60  C   UNL A   1      39.452  29.625  29.894  1.00  0.00     0.049 A 
ATOM     61  H   UNL A   1      39.737  30.705  31.652  1.00  0.00     0.167 HD
ATOM     62  C   UNL A   1      39.907  32.833  35.502  1.00  0.00     0.037 A 
ATOM     63  C   UNL A   1      40.387  28.653  29.877  1.00  0.00     0.037 A 
ATOM     64  C   UNL A   1      40.909  31.806  35.587  1.00  0.00     0.049 A 
ATOM     65  C   UNL A   1      41.357  28.565  31.030  1.00  0.00     0.074 A 
ATOM     66  C   UNL A   1      41.745  31.505  36.647  1.00  0.00     0.029 A 
ATOM     67  N   UNL A   1      41.209  30.913  34.569  1.00  0.00    -0.354 N 
ATOM     68  N   UNL A   1      41.354  29.219  32.166  1.00  0.00    -0.248 NA
ATOM     69  C   UNL A   1      42.468  27.612  30.891  1.00  0.00     0.031 C 
ATOM     70  C   UNL A   1      42.582  30.457  36.255  1.00  0.00     0.029 A 
ATOM     71  C   UNL A   1      42.240  30.078  34.966  1.00  0.00     0.049 A 
ATOM     72  H   UNL A   1      40.757  30.878  33.695  1.00  0.00     0.167 HD
ATOM     73  C   UNL A   1      42.417  28.711  32.901  1.00  0.00     0.074 A 
ATOM     74  C   UNL A   1      43.051  27.703  32.078  1.00  0.00     0.031 C 
ATOM     75  C   UNL A   1      42.826  29.045  34.150  1.00  0.00     0.037 A 
BRANCH  62  76
ATOM     76  C   UNL A   1      39.706  33.725  36.688  1.00  0.00     0.064 A 
ATOM     77  C   UNL A   1      40.299  34.995  36.749  1.00  0.00     0.173 A 
ATOM     78  C   UNL A   1      38.863  33.341  37.741  1.00  0.00     0.173 A 
ATOM     79  F   UNL A   1      41.124  35.402  35.772  1.00  0.00    -0.203 F 
ATOM     80  C   UNL A   1      40.063  35.844  37.826  1.00  0.00     0.198 A 
ATOM     81  C   UNL A   1      38.609  34.202  38.805  1.00  0.00     0.198 A 
ATOM     82  F   UNL A   1      38.269  32.138  37.727  1.00  0.00    -0.203 F 
ATOM     83  F   UNL A   1      40.663  37.041  37.877  1.00  0.00    -0.200 F 
ATOM     84  C   UNL A   1      39.212  35.451  38.847  1.00  0.00     0.200 A 
ATOM     85  F   UNL A   1      37.778  33.826  39.785  1.00  0.00    -0.200 F 
ATOM     86  F   UNL A   1      38.972  36.276  39.876  1.00  0.00    -0.200 F 
ENDBRANCH  62  76
BRANCH  63  87
ATOM     87  C   UNL A   1      40.432  27.659  28.766  1.00  0.00     0.064 A 
ATOM     88  C   UNL A   1      39.672  26.480  28.824  1.00  0.00     0.173 A 
ATOM     89  C   UNL A   1      41.232  27.848  27.630  1.00  0.00     0.173 A 
ATOM     90  F   UNL A   1      38.898  26.236  29.893  1.00  0.00    -0.203 F 
ATOM     91  C   UNL A   1      39.728  25.528  27.807  1.00  0.00     0.198 A 
ATOM     92  C   UNL A   1      41.254  26.916  26.593  1.00  0.00     0.198 A 
ATOM     93  F   UNL A   1      41.986  28.952  27.519  1.00  0.00    -0.203 F 
ATOM     94  F   UNL A   1      39.031  24.389  27.919  1.00  0.00    -0.200 F 
ATOM     95  C   UNL A   1      40.513  25.749  26.688  1.00  0.00     0.200 A 
ATOM     96  F   UNL A   1      41.995  27.146  25.501  1.00  0.00    -0.200 F 
ATOM     97  F   UNL A   1      40.565  24.839  25.707  1.00  0.00    -0.200 F 
ENDBRANCH  63  87
BRANCH  75  98
ATOM     98  C   UNL A   1      43.964  28.270  34.743  1.00  0.00     0.064 A 
ATOM     99  C   UNL A   1      43.763  27.037  35.381  1.00  0.00     0.173 A 
ATOM    100  C   UNL A   1      45.283  28.726  34.592  1.00  0.00     0.173 A 
ATOM    101  F   UNL A   1      42.520  26.565  35.561  1.00  0.00    -0.203 F 
ATOM    102  C   UNL A   1      44.841  26.296  35.856  1.00  0.00     0.198 A 
ATOM    103  C   UNL A   1      46.359  27.968  35.042  1.00  0.00     0.198 A 
ATOM    104  F   UNL A   1      45.528  29.894  33.980  1.00  0.00    -0.203 F 
ATOM    105  F   UNL A   1      44.625  25.135  36.490  1.00  0.00    -0.200 F 
ATOM    106  C   UNL A   1      46.139  26.756  35.676  1.00  0.00     0.200 A 
ATOM    107  F   UNL A   1      47.612  28.406  34.852  1.00  0.00    -0.200 F 
ATOM    108  F   UNL A   1      47.175  26.030  36.115  1.00  0.00    -0.200 F 
ENDBRANCH  75  98
ENDBRANCH  49  50
ENDBRANCH  41  44
ENDBRANCH  39  40
ENDBRANCH  38  39
ENDBRANCH  37  38
ENDBRANCH  36  37
ENDBRANCH   1  36
TORSDOF 17
ENDMDL
MODEL 3
REMARK VINA RESULT:     -12.4      0.984      7.117
REMARK SMILES O=C1C[C@H](C(=O)NCCCCCCNC(=O)c2ccc(-c3c4nc(c(-c5c(F)c(F)c(F)c(F)c5F)c5ccc([nH]5)c(-c5c(F)c(F)c(F)c(F)c5F)c5nc(c(-c6c(F)c(F)c(F)c(F)c6F)c6ccc3[nH]6)C=C5)C=C4)cc2)c2c(nc(Nc3ccc(Oc4ccccc4)cc3)[nH]c2=O)N1
REMARK SMILES IDX 9 1 8 2 7 3 5 4 6 5 4 7 1 8 2 9 3 10 101 11 81 12 80 14
REMARK SMILES IDX 82 15 99 16 83 17 98 18 100 19 84 21 85 23 86 24 97 25 87 26
REMARK SMILES IDX 96 27 88 28 89 29 90 30 91 31 95 32 92 33 94 34 93 35 10 36
REMARK SMILES IDX 11 37 12 38 13 39 14 40 15 41 16 43 17 44 18 45 79 46 19 47
REMARK SMILES IDX 78 48 20 49 21 50 22 51 72 52 23 53 77 54 71 55 73 56 24 57
REMARK SMILES IDX 76 58 70 59 69 60 25 62 57 63 37 64 56 65 38 66 41 67 55 68
REMARK SMILES IDX 74 69 39 70 40 71 54 73 75 74 42 75 26 76 27 77 35 78 28 79
REMARK SMILES IDX 29 80 33 81 36 82 30 83 31 84 34 85 32 86 58 87 59 88 67 89
REMARK SMILES IDX 60 90 61 91 65 92 68 93 62 94 63 95 66 96 64 97 43 98 44 99
REMARK SMILES IDX 52 100 45 101 46 102 50 103 53 104 47 105 48 106 51 107
REMARK SMILES IDX 49 108
REMARK H PARENT 7 6 101 13 98 20 84 22 14 42 73 61 41 72
REMARK Flexibility Score: inf
ROOT
ATOM      1  C   UNL A   1      34.887  21.293  26.006  1.00  0.00     0.021 C 
ENDROOT
BRANCH   1   2
ATOM      2  C   UNL A   1      34.476  22.706  25.602  1.00  0.00     0.116 C 
BRANCH   2   3
ATOM      3  N   UNL A   1      33.103  22.733  25.137  1.00  0.00    -0.356 N 
ATOM      4  C   UNL A   1      32.441  23.622  24.345  1.00  0.00     0.228 C 
ATOM      5  O   UNL A   1      31.218  23.495  24.247  1.00  0.00    -0.274 OA
ATOM      6  H   UNL A   1      32.554  21.978  25.447  1.00  0.00     0.163 HD
BRANCH   4   7
ATOM      7  C   UNL A   1      33.161  24.774  23.644  1.00  0.00     0.127 C 
ATOM      8  O   UNL A   1      33.004  25.802  20.078  1.00  0.00    -0.275 OA
ATOM      9  C   UNL A   1      32.877  25.808  21.301  1.00  0.00     0.226 C 
ATOM     10  C   UNL A   1      33.112  24.564  22.126  1.00  0.00     0.119 C 
ATOM     11  N   UNL A   1      32.451  26.926  21.950  1.00  0.00    -0.310 N 
ATOM     12  C   UNL A   1      32.314  27.081  23.291  1.00  0.00     0.146 A 
ATOM     13  H   UNL A   1      32.218  27.699  21.389  1.00  0.00     0.171 HD
ATOM     14  C   UNL A   1      32.661  26.100  24.124  1.00  0.00     0.073 A 
ATOM     15  N   UNL A   1      31.824  28.291  23.659  1.00  0.00    -0.196 NA
ATOM     16  C   UNL A   1      32.533  26.398  25.562  1.00  0.00     0.258 A 
ATOM     17  C   UNL A   1      31.697  28.559  24.922  1.00  0.00     0.209 A 
ATOM     18  N   UNL A   1      32.043  27.635  25.868  1.00  0.00    -0.292 N 
ATOM     19  O   UNL A   1      32.848  25.604  26.437  1.00  0.00    -0.269 OA
ATOM     20  H   UNL A   1      31.933  27.873  26.817  1.00  0.00     0.173 HD
BRANCH  17  21
ATOM     21  N   UNL A   1      31.250  29.768  25.390  1.00  0.00    -0.326 N 
ATOM     22  H   UNL A   1      30.366  30.090  25.098  1.00  0.00     0.170 HD
BRANCH  21  23
ATOM     23  C   UNL A   1      32.000  30.567  26.272  1.00  0.00     0.041 A 
ATOM     24  C   UNL A   1      33.273  30.157  26.677  1.00  0.00     0.030 A 
ATOM     25  C   UNL A   1      31.559  31.847  26.630  1.00  0.00     0.030 A 
ATOM     26  C   UNL A   1      34.102  31.027  27.394  1.00  0.00     0.049 A 
ATOM     27  C   UNL A   1      32.376  32.711  27.361  1.00  0.00     0.049 A 
ATOM     28  C   UNL A   1      33.661  32.309  27.731  1.00  0.00     0.127 A 
BRANCH  28  29
ATOM     29  O   UNL A   1      34.586  33.100  28.382  1.00  0.00    -0.457 OA
BRANCH  29  30
ATOM     30  C   UNL A   1      34.116  34.212  29.033  1.00  0.00     0.127 A 
ATOM     31  C   UNL A   1      33.840  35.370  28.304  1.00  0.00     0.047 A 
ATOM     32  C   UNL A   1      33.952  34.184  30.416  1.00  0.00     0.047 A 
ATOM     33  C   UNL A   1      33.339  36.494  28.963  1.00  0.00     0.004 A 
ATOM     34  C   UNL A   1      33.464  35.314  31.068  1.00  0.00     0.004 A 
ATOM     35  C   UNL A   1      33.143  36.462  30.343  1.00  0.00     0.000 A 
ENDBRANCH  29  30
ENDBRANCH  28  29
ENDBRANCH  21  23
ENDBRANCH  17  21
ENDBRANCH   4   7
ENDBRANCH   2   3
ENDBRANCH   1   2
BRANCH   1  36
ATOM     36  C   UNL A   1      35.705  20.544  24.946  1.00  0.00     0.002 C 
BRANCH  36  37
ATOM     37  C   UNL A   1      37.174  20.965  24.841  1.00  0.00     0.002 C 
BRANCH  37  38
ATOM     38  C   UNL A   1      38.187  19.844  25.078  1.00  0.00     0.021 C 
BRANCH  38  39
ATOM     39  C   UNL A   1      39.337  20.217  26.009  1.00  0.00     0.116 C 
BRANCH  39  40
ATOM     40  N   UNL A   1      40.412  19.239  25.967  1.00  0.00    -0.352 N 
ATOM     41  C   UNL A   1      41.765  19.453  26.042  1.00  0.00     0.251 C 
ATOM     42  H   UNL A   1      40.132  18.300  25.872  1.00  0.00     0.163 HD
ATOM     43  O   UNL A   1      42.562  18.551  25.810  1.00  0.00    -0.269 OA
BRANCH  41  44
ATOM     44  C   UNL A   1      42.256  20.799  26.388  1.00  0.00     0.039 A 
ATOM     45  C   UNL A   1      42.591  21.681  25.359  1.00  0.00     0.014 A 
ATOM     46  C   UNL A   1      42.356  21.191  27.728  1.00  0.00     0.014 A 
ATOM     47  C   UNL A   1      42.983  22.982  25.675  1.00  0.00     0.010 A 
ATOM     48  C   UNL A   1      42.691  22.505  28.037  1.00  0.00     0.010 A 
ATOM     49  C   UNL A   1      43.013  23.409  27.013  1.00  0.00    -0.014 A 
BRANCH  49  50
ATOM     50  C   UNL A   1      43.414  24.794  27.354  1.00  0.00     0.031 A 
ATOM     51  C   UNL A   1      44.834  25.228  27.140  1.00  0.00     0.074 A 
ATOM     52  C   UNL A   1      42.500  25.655  27.841  1.00  0.00     0.049 A 
ATOM     53  N   UNL A   1      45.380  26.399  27.350  1.00  0.00    -0.248 NA
ATOM     54  C   UNL A   1      45.766  24.214  26.620  1.00  0.00     0.031 C 
ATOM     55  C   UNL A   1      41.090  25.341  28.066  1.00  0.00     0.029 A 
ATOM     56  N   UNL A   1      42.611  26.972  28.212  1.00  0.00    -0.354 N 
ATOM     57  C   UNL A   1      46.708  26.265  26.970  1.00  0.00     0.074 A 
ATOM     58  C   UNL A   1      46.907  24.887  26.581  1.00  0.00     0.031 C 
ATOM     59  C   UNL A   1      40.454  26.450  28.476  1.00  0.00     0.029 A 
ATOM     60  C   UNL A   1      41.419  27.541  28.597  1.00  0.00     0.049 A 
ATOM     61  H   UNL A   1      43.463  27.465  28.203  1.00  0.00     0.167 HD
ATOM     62  C   UNL A   1      47.664  27.220  26.914  1.00  0.00     0.037 A 
ATOM     63  C   UNL A   1      41.144  28.799  28.995  1.00  0.00     0.037 A 
ATOM     64  C   UNL A   1      47.458  28.593  27.289  1.00  0.00     0.049 A 
ATOM     65  C   UNL A   1      42.275  29.795  29.068  1.00  0.00     0.074 A 
ATOM     66  C   UNL A   1      48.356  29.643  27.240  1.00  0.00     0.029 A 
ATOM     67  N   UNL A   1      46.266  29.103  27.782  1.00  0.00    -0.354 N 
ATOM     68  N   UNL A   1      43.514  29.674  28.656  1.00  0.00    -0.248 NA
ATOM     69  C   UNL A   1      41.972  31.100  29.674  1.00  0.00     0.031 C 
ATOM     70  C   UNL A   1      47.721  30.780  27.745  1.00  0.00     0.029 A 
ATOM     71  C   UNL A   1      46.415  30.449  28.070  1.00  0.00     0.049 A 
ATOM     72  H   UNL A   1      45.438  28.585  27.909  1.00  0.00     0.167 HD
ATOM     73  C   UNL A   1      44.117  30.902  28.891  1.00  0.00     0.074 A 
ATOM     74  C   UNL A   1      43.112  31.753  29.493  1.00  0.00     0.031 C 
ATOM     75  C   UNL A   1      45.388  31.293  28.624  1.00  0.00     0.037 A 
BRANCH  62  76
ATOM     76  C   UNL A   1      49.016  26.823  26.403  1.00  0.00     0.064 A 
ATOM     77  C   UNL A   1      49.961  26.219  27.245  1.00  0.00     0.173 A 
ATOM     78  C   UNL A   1      49.346  26.981  25.049  1.00  0.00     0.173 A 
ATOM     79  F   UNL A   1      49.696  26.058  28.550  1.00  0.00    -0.203 F 
ATOM     80  C   UNL A   1      51.193  25.799  26.753  1.00  0.00     0.198 A 
ATOM     81  C   UNL A   1      50.569  26.537  24.555  1.00  0.00     0.198 A 
ATOM     82  F   UNL A   1      48.474  27.550  24.203  1.00  0.00    -0.203 F 
ATOM     83  F   UNL A   1      52.091  25.251  27.582  1.00  0.00    -0.200 F 
ATOM     84  C   UNL A   1      51.492  25.949  25.408  1.00  0.00     0.200 A 
ATOM     85  F   UNL A   1      50.853  26.673  23.253  1.00  0.00    -0.200 F 
ATOM     86  F   UNL A   1      52.672  25.528  24.931  1.00  0.00    -0.200 F 
ENDBRANCH  62  76
BRANCH  63  87
ATOM     87  C   UNL A   1      39.746  29.210  29.311  1.00  0.00     0.064 A 
ATOM     88  C   UNL A   1      39.267  29.175  30.630  1.00  0.00     0.173 A 
ATOM     89  C   UNL A   1      38.853  29.637  28.318  1.00  0.00     0.173 A 
ATOM     90  F   UNL A   1      40.069  28.761  31.622  1.00  0.00    -0.203 F 
ATOM     91  C   UNL A   1      37.953  29.528  30.936  1.00  0.00     0.198 A 
ATOM     92  C   UNL A   1      37.552  30.033  28.631  1.00  0.00     0.198 A 
ATOM     93  F   UNL A   1      39.249  29.687  27.038  1.00  0.00    -0.203 F 
ATOM     94  F   UNL A   1      37.512  29.432  32.198  1.00  0.00    -0.200 F 
ATOM     95  C   UNL A   1      37.098  29.963  29.938  1.00  0.00     0.200 A 
ATOM     96  F   UNL A   1      36.737  30.477  27.665  1.00  0.00    -0.200 F 
ATOM     97  F   UNL A   1      35.837  30.309  30.229  1.00  0.00    -0.200 F 
ENDBRANCH  63  87
BRANCH  75  98
ATOM     98  C   UNL A   1      45.754  32.720  28.905  1.00  0.00     0.064 A 
ATOM     99  C   UNL A   1      46.361  33.101  30.110  1.00  0.00     0.173 A 
ATOM    100  C   UNL A   1      45.573  33.703  27.918  1.00  0.00     0.173 A 
ATOM    101  F   UNL A   1      46.543  32.201  31.088  1.00  0.00    -0.203 F 
ATOM    102  C   UNL A   1      46.764  34.416  30.320  1.00  0.00     0.198 A 
ATOM    103  C   UNL A   1      46.004  35.009  28.122  1.00  0.00     0.198 A 
ATOM    104  F   UNL A   1      45.006  33.385  26.745  1.00  0.00    -0.203 F 
ATOM    105  F   UNL A   1      47.315  34.766  31.491  1.00  0.00    -0.200 F 
ATOM    106  C   UNL A   1      46.596  35.366  29.323  1.00  0.00     0.200 A 
ATOM    107  F   UNL A   1      45.857  35.921  27.150  1.00  0.00    -0.200 F 
ATOM    108  F   UNL A   1      47.005  36.627  29.521  1.00  0.00    -0.200 F 
ENDBRANCH  75  98
ENDBRANCH  49  50
ENDBRANCH  41  44
ENDBRANCH  39  40
ENDBRANCH  38  39
ENDBRANCH  37  38
ENDBRANCH  36  37
ENDBRANCH   1  36
TORSDOF 17
ENDMDL
