MODEL 1
REMARK VINA RESULT:     -12.7      0.000      0.000
REMARK SMILES O=C(NCCCCCCNC(=O)[C@H]1C=C[C@H](NC(=O)[C@]23C[C@H]4C[C@H](C[C@H](C4)C2)C3)C1)c1ccc(-c2c3nc(c(-c4c(F)c(F)c(F)c(F)c4F)c4ccc([nH]4)c(-c4c(F)c(F)c(F)c(F)c4F)c4nc(c(-c5c(F)c(F)c(F)c(F)c5F)c5ccc2[nH]5)C=C4)C=C3)cc1
REMARK SMILES IDX 6 1 5 2 4 3 3 4 1 5 2 6 31 8 32 9 93 10 33 11 92 12 34 13
REMARK SMILES IDX 35 14 36 15 86 16 37 17 91 18 85 19 87 20 38 21 90 22 84 23
REMARK SMILES IDX 83 24 39 26 71 27 51 28 70 29 52 30 55 31 69 32 88 33 53 34
REMARK SMILES IDX 54 35 68 37 89 38 56 39 40 40 41 41 49 42 42 43 43 44 47 45
REMARK SMILES IDX 50 46 44 47 45 48 48 49 46 50 72 51 73 52 81 53 74 54 75 55
REMARK SMILES IDX 79 56 82 57 76 58 77 59 80 60 78 61 57 62 58 63 66 64 59 65
REMARK SMILES IDX 60 66 64 67 67 68 61 69 62 70 65 71 63 72 7 73 8 74 9 75
REMARK SMILES IDX 10 76 11 77 12 79 13 80 14 81 30 82 15 83 16 84 17 85 18 86
REMARK SMILES IDX 19 88 20 89 21 90 28 91 29 92 22 93 26 94 24 95 23 96 27 97
REMARK SMILES IDX 25 98
REMARK H PARENT 3 7 87 25 55 36 10 78 17 87
REMARK Flexibility Score: inf
ROOT
ATOM      1  C   UNL A   1      37.063  20.493  24.984  1.00  0.00     0.002 C 
ENDROOT
BRANCH   1   2
ATOM      2  C   UNL A   1      38.415  19.792  24.834  1.00  0.00     0.021 C 
BRANCH   2   3
ATOM      3  C   UNL A   1      39.336  19.969  26.032  1.00  0.00     0.116 C 
BRANCH   3   4
ATOM      4  N   UNL A   1      40.449  19.028  26.001  1.00  0.00    -0.352 N 
ATOM      5  O   UNL A   1      42.591  18.376  25.734  1.00  0.00    -0.269 OA
ATOM      6  C   UNL A   1      41.804  19.260  26.030  1.00  0.00     0.251 C 
ATOM      7  H   UNL A   1      40.190  18.079  25.951  1.00  0.00     0.163 HD
BRANCH   6   8
ATOM      8  C   UNL A   1      42.299  20.597  26.416  1.00  0.00     0.039 A 
ATOM      9  C   UNL A   1      42.372  20.954  27.762  1.00  0.00     0.014 A 
ATOM     10  C   UNL A   1      42.696  21.499  25.425  1.00  0.00     0.014 A 
ATOM     11  C   UNL A   1      42.669  22.263  28.111  1.00  0.00     0.010 A 
ATOM     12  C   UNL A   1      43.103  22.786  25.787  1.00  0.00     0.010 A 
ATOM     13  C   UNL A   1      43.052  23.191  27.130  1.00  0.00    -0.014 A 
BRANCH  13  14
ATOM     14  C   UNL A   1      43.427  24.565  27.553  1.00  0.00     0.031 A 
ATOM     15  C   UNL A   1      44.860  25.017  27.546  1.00  0.00     0.074 A 
ATOM     16  C   UNL A   1      42.446  25.422  27.898  1.00  0.00     0.049 A 
ATOM     17  N   UNL A   1      45.355  26.195  27.835  1.00  0.00    -0.248 NA
ATOM     18  C   UNL A   1      45.875  24.018  27.175  1.00  0.00     0.031 C 
ATOM     19  C   UNL A   1      41.020  25.091  27.951  1.00  0.00     0.029 A 
ATOM     20  N   UNL A   1      42.491  26.748  28.242  1.00  0.00    -0.354 N 
ATOM     21  C   UNL A   1      46.732  26.073  27.706  1.00  0.00     0.074 A 
ATOM     22  C   UNL A   1      47.001  24.699  27.341  1.00  0.00     0.031 C 
ATOM     23  C   UNL A   1      40.322  26.196  28.244  1.00  0.00     0.029 A 
ATOM     24  C   UNL A   1      41.252  27.294  28.473  1.00  0.00     0.049 A 
ATOM     25  H   UNL A   1      43.329  27.259  28.316  1.00  0.00     0.167 HD
ATOM     26  C   UNL A   1      47.682  27.026  27.870  1.00  0.00     0.037 A 
ATOM     27  C   UNL A   1      40.903  28.540  28.843  1.00  0.00     0.037 A 
ATOM     28  C   UNL A   1      47.403  28.396  28.219  1.00  0.00     0.049 A 
ATOM     29  C   UNL A   1      41.982  29.566  29.042  1.00  0.00     0.074 A 
ATOM     30  C   UNL A   1      48.291  29.447  28.369  1.00  0.00     0.029 A 
ATOM     31  N   UNL A   1      46.138  28.905  28.482  1.00  0.00    -0.354 N 
ATOM     32  N   UNL A   1      43.277  29.450  28.874  1.00  0.00    -0.248 NA
ATOM     33  C   UNL A   1      41.549  30.897  29.480  1.00  0.00     0.031 C 
ATOM     34  C   UNL A   1      47.573  30.574  28.782  1.00  0.00     0.029 A 
ATOM     35  C   UNL A   1      46.227  30.247  28.819  1.00  0.00     0.049 A 
ATOM     36  H   UNL A   1      45.301  28.389  28.434  1.00  0.00     0.167 HD
ATOM     37  C   UNL A   1      43.810  30.700  29.153  1.00  0.00     0.074 A 
ATOM     38  C   UNL A   1      42.695  31.562  29.484  1.00  0.00     0.031 C 
ATOM     39  C   UNL A   1      45.107  31.097  29.138  1.00  0.00     0.037 A 
BRANCH  26  40
ATOM     40  C   UNL A   1      49.121  26.617  27.705  1.00  0.00     0.064 A 
ATOM     41  C   UNL A   1      49.938  26.310  28.802  1.00  0.00     0.173 A 
ATOM     42  C   UNL A   1      49.676  26.490  26.421  1.00  0.00     0.173 A 
ATOM     43  F   UNL A   1      49.463  26.424  30.052  1.00  0.00    -0.203 F 
ATOM     44  C   UNL A   1      51.264  25.921  28.624  1.00  0.00     0.198 A 
ATOM     45  C   UNL A   1      50.992  26.069  26.245  1.00  0.00     0.198 A 
ATOM     46  F   UNL A   1      48.939  26.763  25.335  1.00  0.00    -0.203 F 
ATOM     47  F   UNL A   1      52.041  25.684  29.691  1.00  0.00    -0.200 F 
ATOM     48  C   UNL A   1      51.788  25.794  27.347  1.00  0.00     0.200 A 
ATOM     49  F   UNL A   1      51.490  25.931  25.008  1.00  0.00    -0.200 F 
ATOM     50  F   UNL A   1      53.061  25.412  27.176  1.00  0.00    -0.200 F 
ENDBRANCH  26  40
BRANCH  27  51
ATOM     51  C   UNL A   1      39.470  28.881  29.043  1.00  0.00     0.064 A 
ATOM     52  C   UNL A   1      38.864  28.741  30.299  1.00  0.00     0.173 A 
ATOM     53  C   UNL A   1      38.678  29.349  27.985  1.00  0.00     0.173 A 
ATOM     54  F   UNL A   1      39.576  28.282  31.339  1.00  0.00    -0.203 F 
ATOM     55  C   UNL A   1      37.515  29.035  30.483  1.00  0.00     0.198 A 
ATOM     56  C   UNL A   1      37.339  29.676  28.178  1.00  0.00     0.198 A 
ATOM     57  F   UNL A   1      39.212  29.509  26.765  1.00  0.00    -0.203 F 
ATOM     58  F   UNL A   1      36.948  28.843  31.681  1.00  0.00    -0.200 F 
ATOM     59  C   UNL A   1      36.755  29.508  29.424  1.00  0.00     0.200 A 
ATOM     60  F   UNL A   1      36.615  30.153  27.157  1.00  0.00    -0.200 F 
ATOM     61  F   UNL A   1      35.458  29.795  29.602  1.00  0.00    -0.200 F 
ENDBRANCH  27  51
BRANCH  39  62
ATOM     62  C   UNL A   1      45.381  32.544  29.432  1.00  0.00     0.064 A 
ATOM     63  C   UNL A   1      45.373  33.523  28.427  1.00  0.00     0.173 A 
ATOM     64  C   UNL A   1      45.644  32.959  30.747  1.00  0.00     0.173 A 
ATOM     65  F   UNL A   1      45.142  33.179  27.150  1.00  0.00    -0.203 F 
ATOM     66  C   UNL A   1      45.659  34.854  28.720  1.00  0.00     0.198 A 
ATOM     67  C   UNL A   1      45.892  34.296  31.043  1.00  0.00     0.198 A 
ATOM     68  F   UNL A   1      45.657  32.066  31.749  1.00  0.00    -0.203 F 
ATOM     69  F   UNL A   1      45.712  35.759  27.733  1.00  0.00    -0.200 F 
ATOM     70  C   UNL A   1      45.912  35.240  30.028  1.00  0.00     0.200 A 
ATOM     71  F   UNL A   1      46.119  34.669  32.310  1.00  0.00    -0.200 F 
ATOM     72  F   UNL A   1      46.184  36.522  30.309  1.00  0.00    -0.200 F 
ENDBRANCH  39  62
ENDBRANCH  13  14
ENDBRANCH   6   8
ENDBRANCH   3   4
ENDBRANCH   2   3
ENDBRANCH   1   2
BRANCH   1  73
ATOM     73  C   UNL A   1      36.966  21.865  24.305  1.00  0.00     0.002 C 
BRANCH  73  74
ATOM     74  C   UNL A   1      37.380  23.047  25.184  1.00  0.00     0.021 C 
BRANCH  74  75
ATOM     75  C   UNL A   1      36.197  23.721  25.903  1.00  0.00     0.116 C 
BRANCH  75  76
ATOM     76  N   UNL A   1      35.395  22.797  26.710  1.00  0.00    -0.356 N 
ATOM     77  C   UNL A   1      34.059  22.485  26.769  1.00  0.00     0.227 C 
ATOM     78  H   UNL A   1      35.936  22.284  27.352  1.00  0.00     0.163 HD
ATOM     79  O   UNL A   1      33.760  21.483  27.430  1.00  0.00    -0.274 OA
BRANCH  77  80
ATOM     80  C   UNL A   1      32.936  23.316  26.106  1.00  0.00     0.103 C 
ATOM     81  C   UNL A   1      32.028  22.422  25.366  1.00  0.00    -0.016 C 
ATOM     82  C   UNL A   1      31.948  23.996  27.082  1.00  0.00     0.047 C 
ATOM     83  C   UNL A   1      30.770  22.486  25.814  1.00  0.00    -0.006 C 
ATOM     84  C   UNL A   1      30.538  23.767  26.479  1.00  0.00     0.106 C 
BRANCH  84  85
ATOM     85  N   UNL A   1      30.142  24.806  25.494  1.00  0.00    -0.349 N 
ATOM     86  C   UNL A   1      30.805  25.765  24.761  1.00  0.00     0.226 C 
ATOM     87  H   UNL A   1      29.172  24.810  25.323  1.00  0.00     0.164 HD
ATOM     88  O   UNL A   1      30.539  25.739  23.549  1.00  0.00    -0.274 OA
BRANCH  86  89
ATOM     89  C   UNL A   1      31.587  27.013  25.332  1.00  0.00     0.050 C 
ATOM     90  C   UNL A   1      33.127  26.853  25.132  1.00  0.00     0.020 C 
ATOM     91  C   UNL A   1      31.417  27.310  26.818  1.00  0.00     0.020 C 
ATOM     92  C   UNL A   1      31.164  28.271  24.528  1.00  0.00     0.020 C 
ATOM     93  C   UNL A   1      33.897  28.102  25.640  1.00  0.00    -0.010 C 
ATOM     94  C   UNL A   1      32.133  28.549  27.331  1.00  0.00    -0.010 C 
ATOM     95  C   UNL A   1      31.906  29.531  25.032  1.00  0.00    -0.010 C 
ATOM     96  C   UNL A   1      33.424  29.345  24.866  1.00  0.00     0.007 C 
ATOM     97  C   UNL A   1      33.623  28.332  27.134  1.00  0.00     0.007 C 
ATOM     98  C   UNL A   1      31.611  29.750  26.525  1.00  0.00     0.007 C 
ENDBRANCH  86  89
ENDBRANCH  84  85
ENDBRANCH  77  80
ENDBRANCH  75  76
ENDBRANCH  74  75
ENDBRANCH  73  74
ENDBRANCH   1  73
TORSDOF 15
ENDMDL
MODEL 2
REMARK VINA RESULT:     -12.7      0.120      2.067
REMARK SMILES O=C(NCCCCCCNC(=O)[C@H]1C=C[C@H](NC(=O)[C@]23C[C@H]4C[C@H](C[C@H](C4)C2)C3)C1)c1ccc(-c2c3nc(c(-c4c(F)c(F)c(F)c(F)c4F)c4ccc([nH]4)c(-c4c(F)c(F)c(F)c(F)c4F)c4nc(c(-c5c(F)c(F)c(F)c(F)c5F)c5ccc2[nH]5)C=C4)C=C3)cc1
REMARK SMILES IDX 6 1 5 2 4 3 3 4 1 5 2 6 31 8 32 9 93 10 33 11 92 12 34 13
REMARK SMILES IDX 35 14 36 15 86 16 37 17 91 18 85 19 87 20 38 21 90 22 84 23
REMARK SMILES IDX 83 24 39 26 71 27 51 28 70 29 52 30 55 31 69 32 88 33 53 34
REMARK SMILES IDX 54 35 68 37 89 38 56 39 40 40 41 41 49 42 42 43 43 44 47 45
REMARK SMILES IDX 50 46 44 47 45 48 48 49 46 50 72 51 73 52 81 53 74 54 75 55
REMARK SMILES IDX 79 56 82 57 76 58 77 59 80 60 78 61 57 62 58 63 66 64 59 65
REMARK SMILES IDX 60 66 64 67 67 68 61 69 62 70 65 71 63 72 7 73 8 74 9 75
REMARK SMILES IDX 10 76 11 77 12 79 13 80 14 81 30 82 15 83 16 84 17 85 18 86
REMARK SMILES IDX 19 88 20 89 21 90 28 91 29 92 22 93 26 94 24 95 23 96 27 97
REMARK SMILES IDX 25 98
REMARK H PARENT 3 7 87 25 55 36 10 78 17 87
REMARK Flexibility Score: inf
ROOT
ATOM      1  C   UNL A   1      36.849  20.436  24.987  1.00  0.00     0.002 C 
ENDROOT
BRANCH   1   2
ATOM      2  C   UNL A   1      38.182  19.702  24.830  1.00  0.00     0.021 C 
BRANCH   2   3
ATOM      3  C   UNL A   1      39.224  20.091  25.870  1.00  0.00     0.116 C 
BRANCH   3   4
ATOM      4  N   UNL A   1      40.305  19.115  25.941  1.00  0.00    -0.352 N 
ATOM      5  O   UNL A   1      42.438  18.389  25.843  1.00  0.00    -0.269 OA
ATOM      6  C   UNL A   1      41.661  19.305  26.060  1.00  0.00     0.251 C 
ATOM      7  H   UNL A   1      40.019  18.173  25.895  1.00  0.00     0.163 HD
BRANCH   6   8
ATOM      8  C   UNL A   1      42.172  20.636  26.447  1.00  0.00     0.039 A 
ATOM      9  C   UNL A   1      42.282  20.978  27.795  1.00  0.00     0.014 A 
ATOM     10  C   UNL A   1      42.546  21.548  25.456  1.00  0.00     0.014 A 
ATOM     11  C   UNL A   1      42.593  22.281  28.150  1.00  0.00     0.010 A 
ATOM     12  C   UNL A   1      42.967  22.829  25.822  1.00  0.00     0.010 A 
ATOM     13  C   UNL A   1      42.954  23.219  27.170  1.00  0.00    -0.014 A 
BRANCH  13  14
ATOM     14  C   UNL A   1      43.345  24.587  27.598  1.00  0.00     0.031 A 
ATOM     15  C   UNL A   1      44.783  25.021  27.592  1.00  0.00     0.074 A 
ATOM     16  C   UNL A   1      42.375  25.454  27.946  1.00  0.00     0.049 A 
ATOM     17  N   UNL A   1      45.293  26.193  27.885  1.00  0.00    -0.248 NA
ATOM     18  C   UNL A   1      45.786  24.012  27.218  1.00  0.00     0.031 C 
ATOM     19  C   UNL A   1      40.945  25.141  27.998  1.00  0.00     0.029 A 
ATOM     20  N   UNL A   1      42.436  26.779  28.295  1.00  0.00    -0.354 N 
ATOM     21  C   UNL A   1      46.668  26.055  27.756  1.00  0.00     0.074 A 
ATOM     22  C   UNL A   1      46.920  24.679  27.386  1.00  0.00     0.031 C 
ATOM     23  C   UNL A   1      40.260  26.253  28.296  1.00  0.00     0.029 A 
ATOM     24  C   UNL A   1      41.204  27.339  28.529  1.00  0.00     0.049 A 
ATOM     25  H   UNL A   1      43.280  27.279  28.370  1.00  0.00     0.167 HD
ATOM     26  C   UNL A   1      47.630  26.996  27.923  1.00  0.00     0.037 A 
ATOM     27  C   UNL A   1      40.870  28.587  28.903  1.00  0.00     0.037 A 
ATOM     28  C   UNL A   1      47.368  28.368  28.277  1.00  0.00     0.049 A 
ATOM     29  C   UNL A   1      41.961  29.599  29.105  1.00  0.00     0.074 A 
ATOM     30  C   UNL A   1      48.268  29.407  28.431  1.00  0.00     0.029 A 
ATOM     31  N   UNL A   1      46.109  28.891  28.542  1.00  0.00    -0.354 N 
ATOM     32  N   UNL A   1      43.254  29.469  28.936  1.00  0.00    -0.248 NA
ATOM     33  C   UNL A   1      41.544  30.934  29.548  1.00  0.00     0.031 C 
ATOM     34  C   UNL A   1      47.563  30.541  28.848  1.00  0.00     0.029 A 
ATOM     35  C   UNL A   1      46.214  30.230  28.884  1.00  0.00     0.049 A 
ATOM     36  H   UNL A   1      45.266  28.385  28.492  1.00  0.00     0.167 HD
ATOM     37  C   UNL A   1      43.803  30.711  29.221  1.00  0.00     0.074 A 
ATOM     38  C   UNL A   1      42.698  31.586  29.555  1.00  0.00     0.031 C 
ATOM     39  C   UNL A   1      45.104  31.093  29.206  1.00  0.00     0.037 A 
BRANCH  26  40
ATOM     40  C   UNL A   1      49.063  26.569  27.756  1.00  0.00     0.064 A 
ATOM     41  C   UNL A   1      49.661  26.449  26.493  1.00  0.00     0.173 A 
ATOM     42  C   UNL A   1      49.862  26.317  28.883  1.00  0.00     0.173 A 
ATOM     43  F   UNL A   1      48.942  26.667  25.381  1.00  0.00    -0.203 F 
ATOM     44  C   UNL A   1      50.994  26.063  26.363  1.00  0.00     0.198 A 
ATOM     45  C   UNL A   1      51.203  25.965  28.751  1.00  0.00     0.198 A 
ATOM     46  F   UNL A   1      49.346  26.424  30.116  1.00  0.00    -0.203 F 
ATOM     47  F   UNL A   1      51.528  25.904  25.144  1.00  0.00    -0.200 F 
ATOM     48  C   UNL A   1      51.765  25.829  27.491  1.00  0.00     0.200 A 
ATOM     49  F   UNL A   1      51.950  25.755  29.844  1.00  0.00    -0.200 F 
ATOM     50  F   UNL A   1      53.050  25.467  27.365  1.00  0.00    -0.200 F 
ENDBRANCH  26  40
BRANCH  27  51
ATOM     51  C   UNL A   1      39.441  28.945  29.104  1.00  0.00     0.064 A 
ATOM     52  C   UNL A   1      38.651  29.389  28.035  1.00  0.00     0.173 A 
ATOM     53  C   UNL A   1      38.838  28.852  30.367  1.00  0.00     0.173 A 
ATOM     54  F   UNL A   1      39.186  29.509  26.811  1.00  0.00    -0.203 F 
ATOM     55  C   UNL A   1      37.319  29.750  28.227  1.00  0.00     0.198 A 
ATOM     56  C   UNL A   1      37.498  29.179  30.550  1.00  0.00     0.198 A 
ATOM     57  F   UNL A   1      39.548  28.424  31.422  1.00  0.00    -0.203 F 
ATOM     58  F   UNL A   1      36.601  30.220  27.199  1.00  0.00    -0.200 F 
ATOM     59  C   UNL A   1      36.742  29.639  29.483  1.00  0.00     0.200 A 
ATOM     60  F   UNL A   1      36.939  29.050  31.761  1.00  0.00    -0.200 F 
ATOM     61  F   UNL A   1      35.459  29.980  29.666  1.00  0.00    -0.200 F 
ENDBRANCH  27  51
BRANCH  39  62
ATOM     62  C   UNL A   1      45.395  32.535  29.506  1.00  0.00     0.064 A 
ATOM     63  C   UNL A   1      45.644  32.990  30.810  1.00  0.00     0.173 A 
ATOM     64  C   UNL A   1      45.437  33.477  28.465  1.00  0.00     0.173 A 
ATOM     65  F   UNL A   1      45.601  32.134  31.843  1.00  0.00    -0.203 F 
ATOM     66  C   UNL A   1      45.882  34.338  31.065  1.00  0.00     0.198 A 
ATOM     67  C   UNL A   1      45.714  34.817  28.720  1.00  0.00     0.198 A 
ATOM     68  F   UNL A   1      45.214  33.096  27.198  1.00  0.00    -0.203 F 
ATOM     69  F   UNL A   1      46.049  34.759  32.327  1.00  0.00    -0.200 F 
ATOM     70  C   UNL A   1      45.923  35.248  30.021  1.00  0.00     0.200 A 
ATOM     71  F   UNL A   1      45.769  35.691  27.706  1.00  0.00    -0.200 F 
ATOM     72  F   UNL A   1      46.155  36.545  30.268  1.00  0.00    -0.200 F 
ENDBRANCH  39  62
ENDBRANCH  13  14
ENDBRANCH   6   8
ENDBRANCH   3   4
ENDBRANCH   2   3
ENDBRANCH   1   2
BRANCH   1  73
ATOM     73  C   UNL A   1      36.781  21.808  24.305  1.00  0.00     0.002 C 
BRANCH  73  74
ATOM     74  C   UNL A   1      37.338  22.967  25.135  1.00  0.00     0.021 C 
BRANCH  74  75
ATOM     75  C   UNL A   1      36.267  23.695  25.968  1.00  0.00     0.116 C 
BRANCH  75  76
ATOM     76  N   UNL A   1      35.452  22.798  26.792  1.00  0.00    -0.356 N 
ATOM     77  C   UNL A   1      34.114  22.490  26.841  1.00  0.00     0.227 C 
ATOM     78  H   UNL A   1      35.982  22.306  27.459  1.00  0.00     0.163 HD
ATOM     79  O   UNL A   1      33.804  21.510  27.529  1.00  0.00    -0.274 OA
BRANCH  77  80
ATOM     80  C   UNL A   1      33.003  23.300  26.135  1.00  0.00     0.103 C 
ATOM     81  C   UNL A   1      32.067  22.380  25.464  1.00  0.00    -0.016 C 
ATOM     82  C   UNL A   1      32.041  24.066  27.072  1.00  0.00     0.047 C 
ATOM     83  C   UNL A   1      30.816  22.502  25.919  1.00  0.00    -0.006 C 
ATOM     84  C   UNL A   1      30.620  23.830  26.499  1.00  0.00     0.106 C 
BRANCH  84  85
ATOM     85  N   UNL A   1      30.236  24.810  25.450  1.00  0.00    -0.349 N 
ATOM     86  C   UNL A   1      30.899  25.762  24.709  1.00  0.00     0.226 C 
ATOM     87  H   UNL A   1      29.276  24.768  25.231  1.00  0.00     0.164 HD
ATOM     88  O   UNL A   1      30.697  25.674  23.487  1.00  0.00    -0.274 OA
BRANCH  86  89
ATOM     89  C   UNL A   1      31.603  27.063  25.262  1.00  0.00     0.050 C 
ATOM     90  C   UNL A   1      31.258  27.295  26.767  1.00  0.00     0.020 C 
ATOM     91  C   UNL A   1      31.253  28.380  24.577  1.00  0.00     0.020 C 
ATOM     92  C   UNL A   1      33.140  26.863  25.186  1.00  0.00     0.020 C 
ATOM     93  C   UNL A   1      31.992  28.540  27.332  1.00  0.00    -0.010 C 
ATOM     94  C   UNL A   1      31.987  29.608  25.089  1.00  0.00    -0.010 C 
ATOM     95  C   UNL A   1      33.891  28.102  25.726  1.00  0.00    -0.010 C 
ATOM     96  C   UNL A   1      33.513  28.343  27.198  1.00  0.00     0.007 C 
ATOM     97  C   UNL A   1      31.599  29.800  26.545  1.00  0.00     0.007 C 
ATOM     98  C   UNL A   1      33.494  29.349  24.920  1.00  0.00     0.007 C 
ENDBRANCH  86  89
ENDBRANCH  84  85
ENDBRANCH  77  80
ENDBRANCH  75  76
ENDBRANCH  74  75
ENDBRANCH  73  74
ENDBRANCH   1  73
TORSDOF 15
ENDMDL
MODEL 3
REMARK VINA RESULT:     -12.4      6.060     11.206
REMARK SMILES O=C(NCCCCCCNC(=O)[C@H]1C=C[C@H](NC(=O)[C@]23C[C@H]4C[C@H](C[C@H](C4)C2)C3)C1)c1ccc(-c2c3nc(c(-c4c(F)c(F)c(F)c(F)c4F)c4ccc([nH]4)c(-c4c(F)c(F)c(F)c(F)c4F)c4nc(c(-c5c(F)c(F)c(F)c(F)c5F)c5ccc2[nH]5)C=C4)C=C3)cc1
REMARK SMILES IDX 6 1 5 2 4 3 3 4 1 5 2 6 31 8 32 9 93 10 33 11 92 12 34 13
REMARK SMILES IDX 35 14 36 15 86 16 37 17 91 18 85 19 87 20 38 21 90 22 84 23
REMARK SMILES IDX 83 24 39 26 71 27 51 28 70 29 52 30 55 31 69 32 88 33 53 34
REMARK SMILES IDX 54 35 68 37 89 38 56 39 40 40 41 41 49 42 42 43 43 44 47 45
REMARK SMILES IDX 50 46 44 47 45 48 48 49 46 50 72 51 73 52 81 53 74 54 75 55
REMARK SMILES IDX 79 56 82 57 76 58 77 59 80 60 78 61 57 62 58 63 66 64 59 65
REMARK SMILES IDX 60 66 64 67 67 68 61 69 62 70 65 71 63 72 7 73 8 74 9 75
REMARK SMILES IDX 10 76 11 77 12 79 13 80 14 81 30 82 15 83 16 84 17 85 18 86
REMARK SMILES IDX 19 88 20 89 21 90 28 91 29 92 22 93 26 94 24 95 23 96 27 97
REMARK SMILES IDX 25 98
REMARK H PARENT 3 7 87 25 55 36 10 78 17 87
REMARK Flexibility Score: inf
ROOT
ATOM      1  C   UNL A   1      34.580  34.742  28.379  1.00  0.00     0.002 C 
ENDROOT
BRANCH   1   2
ATOM      2  C   UNL A   1      33.214  35.223  28.871  1.00  0.00     0.021 C 
BRANCH   2   3
ATOM      3  C   UNL A   1      33.278  36.464  29.750  1.00  0.00     0.116 C 
BRANCH   3   4
ATOM      4  N   UNL A   1      32.435  36.332  30.932  1.00  0.00    -0.352 N 
ATOM      5  O   UNL A   1      31.641  35.349  32.800  1.00  0.00    -0.269 OA
ATOM      6  C   UNL A   1      32.574  35.518  32.030  1.00  0.00     0.251 C 
ATOM      7  H   UNL A   1      31.642  36.917  30.945  1.00  0.00     0.163 HD
BRANCH   6   8
ATOM      8  C   UNL A   1      33.864  34.839  32.267  1.00  0.00     0.039 A 
ATOM      9  C   UNL A   1      33.895  33.471  32.541  1.00  0.00     0.014 A 
ATOM     10  C   UNL A   1      35.051  35.574  32.212  1.00  0.00     0.014 A 
ATOM     11  C   UNL A   1      35.083  32.876  32.934  1.00  0.00     0.010 A 
ATOM     12  C   UNL A   1      36.265  34.944  32.500  1.00  0.00     0.010 A 
ATOM     13  C   UNL A   1      36.286  33.600  32.905  1.00  0.00    -0.014 A 
BRANCH  13  14
ATOM     14  C   UNL A   1      37.548  32.906  33.269  1.00  0.00     0.031 A 
ATOM     15  C   UNL A   1      38.232  33.173  34.579  1.00  0.00     0.074 A 
ATOM     16  C   UNL A   1      38.046  31.989  32.417  1.00  0.00     0.049 A 
ATOM     17  N   UNL A   1      39.310  32.618  35.076  1.00  0.00    -0.248 NA
ATOM     18  C   UNL A   1      37.638  34.203  35.447  1.00  0.00     0.031 C 
ATOM     19  C   UNL A   1      37.472  31.653  31.112  1.00  0.00     0.029 A 
ATOM     20  N   UNL A   1      39.126  31.152  32.528  1.00  0.00    -0.354 N 
ATOM     21  C   UNL A   1      39.537  33.244  36.294  1.00  0.00     0.074 A 
ATOM     22  C   UNL A   1      38.501  34.243  36.452  1.00  0.00     0.031 C 
ATOM     23  C   UNL A   1      38.165  30.642  30.572  1.00  0.00     0.029 A 
ATOM     24  C   UNL A   1      39.275  30.307  31.455  1.00  0.00     0.049 A 
ATOM     25  H   UNL A   1      39.735  31.155  33.302  1.00  0.00     0.167 HD
ATOM     26  C   UNL A   1      40.515  33.000  37.200  1.00  0.00     0.037 A 
ATOM     27  C   UNL A   1      40.212  29.375  31.203  1.00  0.00     0.037 A 
ATOM     28  C   UNL A   1      41.532  31.992  37.039  1.00  0.00     0.049 A 
ATOM     29  C   UNL A   1      41.297  29.146  32.215  1.00  0.00     0.074 A 
ATOM     30  C   UNL A   1      42.543  31.638  37.916  1.00  0.00     0.029 A 
ATOM     31  N   UNL A   1      41.675  31.180  35.921  1.00  0.00    -0.354 N 
ATOM     32  N   UNL A   1      41.475  29.713  33.383  1.00  0.00    -0.248 NA
ATOM     33  C   UNL A   1      42.313  28.143  31.872  1.00  0.00     0.031 C 
ATOM     34  C   UNL A   1      43.332  30.658  37.305  1.00  0.00     0.029 A 
ATOM     35  C   UNL A   1      42.772  30.347  36.076  1.00  0.00     0.049 A 
ATOM     36  H   UNL A   1      41.082  31.193  35.136  1.00  0.00     0.167 HD
ATOM     37  C   UNL A   1      42.601  29.115  33.929  1.00  0.00     0.074 A 
ATOM     38  C   UNL A   1      43.054  28.129  32.970  1.00  0.00     0.031 C 
ATOM     39  C   UNL A   1      43.206  29.362  35.118  1.00  0.00     0.037 A 
BRANCH  26  40
ATOM     40  C   UNL A   1      40.555  33.856  38.436  1.00  0.00     0.064 A 
ATOM     41  C   UNL A   1      39.817  33.538  39.586  1.00  0.00     0.173 A 
ATOM     42  C   UNL A   1      41.380  34.992  38.483  1.00  0.00     0.173 A 
ATOM     43  F   UNL A   1      39.005  32.470  39.594  1.00  0.00    -0.203 F 
ATOM     44  C   UNL A   1      39.879  34.340  40.723  1.00  0.00     0.198 A 
ATOM     45  C   UNL A   1      41.465  35.772  39.633  1.00  0.00     0.198 A 
ATOM     46  F   UNL A   1      42.114  35.340  37.416  1.00  0.00    -0.203 F 
ATOM     47  F   UNL A   1      39.124  34.045  41.791  1.00  0.00    -0.200 F 
ATOM     48  C   UNL A   1      40.708  35.451  40.749  1.00  0.00     0.200 A 
ATOM     49  F   UNL A   1      42.280  36.836  39.660  1.00  0.00    -0.200 F 
ATOM     50  F   UNL A   1      40.773  36.217  41.847  1.00  0.00    -0.200 F 
ENDBRANCH  26  40
BRANCH  27  51
ATOM     51  C   UNL A   1      40.156  28.590  29.942  1.00  0.00     0.064 A 
ATOM     52  C   UNL A   1      39.491  27.358  29.888  1.00  0.00     0.173 A 
ATOM     53  C   UNL A   1      40.768  29.053  28.768  1.00  0.00     0.173 A 
ATOM     54  F   UNL A   1      38.903  26.865  30.988  1.00  0.00    -0.203 F 
ATOM     55  C   UNL A   1      39.460  26.608  28.714  1.00  0.00     0.198 A 
ATOM     56  C   UNL A   1      40.706  28.320  27.586  1.00  0.00     0.198 A 
ATOM     57  F   UNL A   1      41.410  30.231  28.764  1.00  0.00    -0.203 F 
ATOM     58  F   UNL A   1      38.862  25.410  28.703  1.00  0.00    -0.200 F 
ATOM     59  C   UNL A   1      40.063  27.092  27.563  1.00  0.00     0.200 A 
ATOM     60  F   UNL A   1      41.272  28.802  26.471  1.00  0.00    -0.200 F 
ATOM     61  F   UNL A   1      40.028  26.374  26.432  1.00  0.00    -0.200 F 
ENDBRANCH  27  51
BRANCH  39  62
ATOM     62  C   UNL A   1      44.390  28.507  35.471  1.00  0.00     0.064 A 
ATOM     63  C   UNL A   1      44.253  27.297  36.167  1.00  0.00     0.173 A 
ATOM     64  C   UNL A   1      45.683  28.903  35.094  1.00  0.00     0.173 A 
ATOM     65  F   UNL A   1      43.041  26.879  36.565  1.00  0.00    -0.203 F 
ATOM     66  C   UNL A   1      45.369  26.537  36.509  1.00  0.00     0.198 A 
ATOM     67  C   UNL A   1      46.792  28.122  35.404  1.00  0.00     0.198 A 
ATOM     68  F   UNL A   1      45.871  30.048  34.421  1.00  0.00    -0.203 F 
ATOM     69  F   UNL A   1      45.219  25.419  37.233  1.00  0.00    -0.200 F 
ATOM     70  C   UNL A   1      46.636  26.946  36.122  1.00  0.00     0.200 A 
ATOM     71  F   UNL A   1      48.014  28.512  35.014  1.00  0.00    -0.200 F 
ATOM     72  F   UNL A   1      47.709  26.212  36.449  1.00  0.00    -0.200 F 
ENDBRANCH  39  62
ENDBRANCH  13  14
ENDBRANCH   6   8
ENDBRANCH   3   4
ENDBRANCH   2   3
ENDBRANCH   1   2
BRANCH   1  73
ATOM     73  C   UNL A   1      35.061  33.421  28.992  1.00  0.00     0.002 C 
BRANCH  73  74
ATOM     74  C   UNL A   1      35.739  32.465  28.007  1.00  0.00     0.021 C 
BRANCH  74  75
ATOM     75  C   UNL A   1      35.070  31.080  27.938  1.00  0.00     0.116 C 
BRANCH  75  76
ATOM     76  N   UNL A   1      33.654  31.128  27.564  1.00  0.00    -0.356 N 
ATOM     77  C   UNL A   1      32.837  30.338  26.793  1.00  0.00     0.227 C 
ATOM     78  H   UNL A   1      33.183  31.899  27.953  1.00  0.00     0.163 HD
ATOM     79  O   UNL A   1      31.623  30.562  26.876  1.00  0.00    -0.274 OA
BRANCH  77  80
ATOM     80  C   UNL A   1      33.339  29.240  25.827  1.00  0.00     0.103 C 
ATOM     81  C   UNL A   1      33.390  27.946  26.529  1.00  0.00    -0.016 C 
ATOM     82  C   UNL A   1      32.389  28.902  24.655  1.00  0.00     0.047 C 
ATOM     83  C   UNL A   1      32.607  27.024  25.960  1.00  0.00    -0.006 C 
ATOM     84  C   UNL A   1      32.383  27.355  24.553  1.00  0.00     0.106 C 
BRANCH  84  85
ATOM     85  N   UNL A   1      33.478  26.814  23.706  1.00  0.00    -0.349 N 
ATOM     86  C   UNL A   1      33.823  25.571  23.226  1.00  0.00     0.226 C 
ATOM     87  H   UNL A   1      34.108  27.514  23.418  1.00  0.00     0.164 HD
ATOM     88  O   UNL A   1      34.026  25.546  22.002  1.00  0.00    -0.274 OA
BRANCH  86  89
ATOM     89  C   UNL A   1      34.256  24.317  24.085  1.00  0.00     0.050 C 
ATOM     90  C   UNL A   1      35.121  23.328  23.242  1.00  0.00     0.020 C 
ATOM     91  C   UNL A   1      33.136  23.459  24.663  1.00  0.00     0.020 C 
ATOM     92  C   UNL A   1      35.153  24.806  25.254  1.00  0.00     0.020 C 
ATOM     93  C   UNL A   1      35.597  22.122  24.097  1.00  0.00    -0.010 C 
ATOM     94  C   UNL A   1      33.577  22.293  25.533  1.00  0.00    -0.010 C 
ATOM     95  C   UNL A   1      35.622  23.621  26.129  1.00  0.00    -0.010 C 
ATOM     96  C   UNL A   1      36.440  22.633  25.279  1.00  0.00     0.007 C 
ATOM     97  C   UNL A   1      34.392  21.354  24.662  1.00  0.00     0.007 C 
ATOM     98  C   UNL A   1      34.404  22.872  26.694  1.00  0.00     0.007 C 
ENDBRANCH  86  89
ENDBRANCH  84  85
ENDBRANCH  77  80
ENDBRANCH  75  76
ENDBRANCH  74  75
ENDBRANCH  73  74
ENDBRANCH   1  73
TORSDOF 15
ENDMDL
