MODEL 1
REMARK VINA RESULT:     -12.9      0.000      0.000
REMARK SMILES CCc1cccc(C)c1Nc1ccccc1CC(=O)NCCCCCCNC(=O)c1ccc(-c2c3nc(c(-c4c(F)c(F)c(F)c(F)c4F)c4ccc([nH]4)c(-c4c(F)c(F)c(F)c(F)c4F)c4nc(c(-c5c(F)c(F)c(F)c(F)c5F)c5ccc2[nH]5)C=C4)C=C3)cc1
REMARK SMILES IDX 22 1 21 2 20 3 18 4 19 5 17 7 16 8 11 9 12 10 13 11 15 12
REMARK SMILES IDX 14 13 10 14 9 16 3 17 4 18 5 19 7 20 6 21 8 22 2 23 1 24
REMARK SMILES IDX 23 25 24 26 25 27 26 28 27 29 28 30 29 32 30 33 31 34 92 35
REMARK SMILES IDX 32 36 91 37 33 38 34 39 35 40 85 41 36 42 90 43 84 44 86 45
REMARK SMILES IDX 37 46 89 47 83 48 82 49 38 51 70 52 50 53 69 54 51 55 54 56
REMARK SMILES IDX 68 57 87 58 52 59 53 60 67 62 88 63 55 64 39 65 40 66 48 67
REMARK SMILES IDX 41 68 42 69 46 70 49 71 43 72 44 73 47 74 45 75 71 76 72 77
REMARK SMILES IDX 80 78 73 79 74 80 78 81 81 82 75 83 76 84 79 85 77 86 56 87
REMARK SMILES IDX 57 88 65 89 58 90 59 91 63 92 66 93 60 94 61 95 64 96 62 97
REMARK H PARENT 20 6 10 15 27 31 86 50 54 61
REMARK Flexibility Score: inf
ROOT
ATOM      1  C   UNL A   1      32.851  26.663  24.658  1.00  0.00     0.021 C 
ENDROOT
BRANCH   1   2
ATOM      2  C   UNL A   1      32.792  25.148  24.860  1.00  0.00     0.116 C 
BRANCH   2   3
ATOM      3  N   UNL A   1      33.395  24.390  23.782  1.00  0.00    -0.356 N 
ATOM      4  C   UNL A   1      33.254  23.085  23.413  1.00  0.00     0.224 C 
ATOM      5  O   UNL A   1      33.663  22.771  22.290  1.00  0.00    -0.275 OA
ATOM      6  H   UNL A   1      34.015  24.907  23.219  1.00  0.00     0.163 HD
BRANCH   4   7
ATOM      7  C   UNL A   1      32.505  22.086  24.267  1.00  0.00     0.137 C 
BRANCH   7   8
ATOM      8  C   UNL A   1      32.775  20.616  24.021  1.00  0.00    -0.015 A 
ATOM      9  C   UNL A   1      33.697  19.856  24.773  1.00  0.00     0.042 A 
ATOM     10  C   UNL A   1      33.949  18.525  24.397  1.00  0.00     0.026 A 
ATOM     11  C   UNL A   1      33.273  17.930  23.332  1.00  0.00     0.002 A 
ATOM     12  C   UNL A   1      32.124  20.004  22.929  1.00  0.00     0.006 A 
ATOM     13  C   UNL A   1      32.358  18.671  22.597  1.00  0.00     0.000 A 
BRANCH   9  14
ATOM     14  N   UNL A   1      34.489  20.397  25.806  1.00  0.00    -0.355 N 
ATOM     15  H   UNL A   1      34.331  20.000  26.693  1.00  0.00     0.167 HD
BRANCH  14  16
ATOM     16  C   UNL A   1      35.472  21.415  25.784  1.00  0.00     0.045 A 
ATOM     17  C   UNL A   1      36.719  21.166  25.162  1.00  0.00    -0.024 A 
ATOM     18  C   UNL A   1      37.530  22.263  24.801  1.00  0.00     0.006 A 
ATOM     19  C   UNL A   1      37.198  23.558  25.172  1.00  0.00     0.001 A 
ATOM     20  C   UNL A   1      35.286  22.683  26.381  1.00  0.00    -0.027 A 
ATOM     21  C   UNL A   1      36.114  23.757  26.012  1.00  0.00     0.005 A 
ATOM     22  C   UNL A   1      34.270  22.931  27.456  1.00  0.00     0.046 C 
BRANCH  17  23
ATOM     23  C   UNL A   1      37.302  19.796  24.853  1.00  0.00     0.034 C 
ATOM     24  C   UNL A   1      38.726  19.497  25.316  1.00  0.00     0.009 C 
ENDBRANCH  17  23
ENDBRANCH  14  16
ENDBRANCH   9  14
ENDBRANCH   7   8
ENDBRANCH   4   7
ENDBRANCH   2   3
ENDBRANCH   1   2
BRANCH   1  25
ATOM     25  C   UNL A   1      33.740  27.432  25.648  1.00  0.00     0.002 C 
BRANCH  25  26
ATOM     26  C   UNL A   1      33.023  28.220  26.753  1.00  0.00     0.002 C 
BRANCH  26  27
ATOM     27  C   UNL A   1      33.917  29.041  27.683  1.00  0.00     0.021 C 
BRANCH  27  28
ATOM     28  C   UNL A   1      34.237  30.443  27.175  1.00  0.00     0.116 C 
BRANCH  28  29
ATOM     29  N   UNL A   1      34.866  31.319  28.153  1.00  0.00    -0.352 N 
ATOM     30  C   UNL A   1      35.944  31.083  28.993  1.00  0.00     0.251 C 
ATOM     31  H   UNL A   1      34.467  32.215  28.229  1.00  0.00     0.163 HD
ATOM     32  O   UNL A   1      36.258  31.915  29.825  1.00  0.00    -0.269 OA
BRANCH  30  33
ATOM     33  C   UNL A   1      36.805  29.886  28.785  1.00  0.00     0.039 A 
ATOM     34  C   UNL A   1      37.048  29.055  29.888  1.00  0.00     0.014 A 
ATOM     35  C   UNL A   1      37.509  29.682  27.604  1.00  0.00     0.014 A 
ATOM     36  C   UNL A   1      38.158  28.211  29.886  1.00  0.00     0.010 A 
ATOM     37  C   UNL A   1      38.668  28.935  27.636  1.00  0.00     0.010 A 
ATOM     38  C   UNL A   1      39.030  28.256  28.803  1.00  0.00    -0.014 A 
BRANCH  38  39
ATOM     39  C   UNL A   1      40.381  27.710  28.814  1.00  0.00     0.031 A 
ATOM     40  C   UNL A   1      40.616  26.285  28.509  1.00  0.00     0.074 A 
ATOM     41  C   UNL A   1      41.425  28.558  28.945  1.00  0.00     0.049 A 
ATOM     42  N   UNL A   1      41.727  25.665  28.720  1.00  0.00    -0.248 NA
ATOM     43  C   UNL A   1      39.576  25.424  27.964  1.00  0.00     0.031 C 
ATOM     44  C   UNL A   1      42.832  28.289  28.656  1.00  0.00     0.029 A 
ATOM     45  N   UNL A   1      41.437  29.812  29.580  1.00  0.00    -0.354 N 
ATOM     46  C   UNL A   1      41.650  24.430  28.118  1.00  0.00     0.074 A 
ATOM     47  C   UNL A   1      40.268  24.309  27.714  1.00  0.00     0.031 C 
ATOM     48  C   UNL A   1      43.587  29.140  29.367  1.00  0.00     0.029 A 
ATOM     49  C   UNL A   1      42.693  29.879  30.238  1.00  0.00     0.049 A 
ATOM     50  H   UNL A   1      40.729  30.494  29.571  1.00  0.00     0.167 HD
ATOM     51  C   UNL A   1      42.801  23.712  27.948  1.00  0.00     0.037 A 
ATOM     52  C   UNL A   1      42.756  29.891  31.602  1.00  0.00     0.037 A 
ATOM     53  C   UNL A   1      43.921  24.341  28.655  1.00  0.00     0.049 A 
ATOM     54  C   UNL A   1      43.458  28.697  32.216  1.00  0.00     0.074 A 
ATOM     55  C   UNL A   1      44.989  25.142  28.285  1.00  0.00     0.029 A 
ATOM     56  N   UNL A   1      43.863  24.403  30.035  1.00  0.00    -0.354 N 
ATOM     57  N   UNL A   1      43.912  27.681  31.536  1.00  0.00    -0.248 NA
ATOM     58  C   UNL A   1      43.621  28.513  33.660  1.00  0.00     0.031 C 
ATOM     59  C   UNL A   1      45.546  25.714  29.468  1.00  0.00     0.029 A 
ATOM     60  C   UNL A   1      44.818  25.255  30.550  1.00  0.00     0.049 A 
ATOM     61  H   UNL A   1      43.218  23.900  30.584  1.00  0.00     0.167 HD
ATOM     62  C   UNL A   1      44.363  26.722  32.399  1.00  0.00     0.074 A 
ATOM     63  C   UNL A   1      44.171  27.288  33.720  1.00  0.00     0.031 C 
ATOM     64  C   UNL A   1      44.826  25.512  31.979  1.00  0.00     0.037 A 
BRANCH  51  65
ATOM     65  C   UNL A   1      42.979  22.549  26.991  1.00  0.00     0.064 A 
ATOM     66  C   UNL A   1      42.265  21.345  27.188  1.00  0.00     0.173 A 
ATOM     67  C   UNL A   1      43.868  22.517  25.901  1.00  0.00     0.173 A 
ATOM     68  F   UNL A   1      41.307  21.241  28.120  1.00  0.00    -0.203 F 
ATOM     69  C   UNL A   1      42.505  20.189  26.436  1.00  0.00     0.198 A 
ATOM     70  C   UNL A   1      44.146  21.351  25.179  1.00  0.00     0.198 A 
ATOM     71  F   UNL A   1      44.453  23.624  25.436  1.00  0.00    -0.203 F 
ATOM     72  F   UNL A   1      41.798  19.078  26.681  1.00  0.00    -0.200 F 
ATOM     73  C   UNL A   1      43.472  20.182  25.455  1.00  0.00     0.200 A 
ATOM     74  F   UNL A   1      45.072  21.377  24.209  1.00  0.00    -0.200 F 
ATOM     75  F   UNL A   1      43.733  19.067  24.759  1.00  0.00    -0.200 F 
ENDBRANCH  51  65
BRANCH  52  76
ATOM     76  C   UNL A   1      41.616  30.631  32.208  1.00  0.00     0.064 A 
ATOM     77  C   UNL A   1      41.638  32.039  32.153  1.00  0.00     0.173 A 
ATOM     78  C   UNL A   1      40.385  30.011  32.447  1.00  0.00     0.173 A 
ATOM     79  F   UNL A   1      42.795  32.682  31.926  1.00  0.00    -0.203 F 
ATOM     80  C   UNL A   1      40.463  32.783  32.194  1.00  0.00     0.198 A 
ATOM     81  C   UNL A   1      39.211  30.763  32.510  1.00  0.00     0.198 A 
ATOM     82  F   UNL A   1      40.297  28.673  32.495  1.00  0.00    -0.203 F 
ATOM     83  F   UNL A   1      40.504  34.110  32.006  1.00  0.00    -0.200 F 
ATOM     84  C   UNL A   1      39.246  32.140  32.342  1.00  0.00     0.200 A 
ATOM     85  F   UNL A   1      38.030  30.139  32.634  1.00  0.00    -0.200 F 
ATOM     86  F   UNL A   1      38.105  32.841  32.282  1.00  0.00    -0.200 F 
ENDBRANCH  52  76
BRANCH  64  87
ATOM     87  C   UNL A   1      45.338  24.464  32.913  1.00  0.00     0.064 A 
ATOM     88  C   UNL A   1      44.541  23.386  33.324  1.00  0.00     0.173 A 
ATOM     89  C   UNL A   1      46.596  24.594  33.535  1.00  0.00     0.173 A 
ATOM     90  F   UNL A   1      43.320  23.203  32.798  1.00  0.00    -0.203 F 
ATOM     91  C   UNL A   1      44.979  22.489  34.298  1.00  0.00     0.198 A 
ATOM     92  C   UNL A   1      47.010  23.725  34.540  1.00  0.00     0.198 A 
ATOM     93  F   UNL A   1      47.455  25.558  33.168  1.00  0.00    -0.203 F 
ATOM     94  F   UNL A   1      44.203  21.451  34.644  1.00  0.00    -0.200 F 
ATOM     95  C   UNL A   1      46.204  22.669  34.920  1.00  0.00     0.200 A 
ATOM     96  F   UNL A   1      48.194  23.918  35.140  1.00  0.00    -0.200 F 
ATOM     97  F   UNL A   1      46.608  21.824  35.877  1.00  0.00    -0.200 F 
ENDBRANCH  64  87
ENDBRANCH  38  39
ENDBRANCH  30  33
ENDBRANCH  28  29
ENDBRANCH  27  28
ENDBRANCH  26  27
ENDBRANCH  25  26
ENDBRANCH   1  25
TORSDOF 17
ENDMDL
MODEL 2
REMARK VINA RESULT:     -12.8      1.054      2.556
REMARK SMILES CCc1cccc(C)c1Nc1ccccc1CC(=O)NCCCCCCNC(=O)c1ccc(-c2c3nc(c(-c4c(F)c(F)c(F)c(F)c4F)c4ccc([nH]4)c(-c4c(F)c(F)c(F)c(F)c4F)c4nc(c(-c5c(F)c(F)c(F)c(F)c5F)c5ccc2[nH]5)C=C4)C=C3)cc1
REMARK SMILES IDX 22 1 21 2 20 3 18 4 19 5 17 7 16 8 11 9 12 10 13 11 15 12
REMARK SMILES IDX 14 13 10 14 9 16 3 17 4 18 5 19 7 20 6 21 8 22 2 23 1 24
REMARK SMILES IDX 23 25 24 26 25 27 26 28 27 29 28 30 29 32 30 33 31 34 92 35
REMARK SMILES IDX 32 36 91 37 33 38 34 39 35 40 85 41 36 42 90 43 84 44 86 45
REMARK SMILES IDX 37 46 89 47 83 48 82 49 38 51 70 52 50 53 69 54 51 55 54 56
REMARK SMILES IDX 68 57 87 58 52 59 53 60 67 62 88 63 55 64 39 65 40 66 48 67
REMARK SMILES IDX 41 68 42 69 46 70 49 71 43 72 44 73 47 74 45 75 71 76 72 77
REMARK SMILES IDX 80 78 73 79 74 80 78 81 81 82 75 83 76 84 79 85 77 86 56 87
REMARK SMILES IDX 57 88 65 89 58 90 59 91 63 92 66 93 60 94 61 95 64 96 62 97
REMARK H PARENT 20 6 10 15 27 31 86 50 54 61
REMARK Flexibility Score: inf
ROOT
ATOM      1  C   UNL A   1      32.828  27.075  25.430  1.00  0.00     0.021 C 
ENDROOT
BRANCH   1   2
ATOM      2  C   UNL A   1      33.533  25.743  25.694  1.00  0.00     0.116 C 
BRANCH   2   3
ATOM      3  N   UNL A   1      32.627  24.629  25.885  1.00  0.00    -0.356 N 
ATOM      4  C   UNL A   1      32.759  23.476  26.601  1.00  0.00     0.224 C 
ATOM      5  O   UNL A   1      31.729  22.831  26.824  1.00  0.00    -0.275 OA
ATOM      6  H   UNL A   1      31.766  24.720  25.417  1.00  0.00     0.163 HD
BRANCH   4   7
ATOM      7  C   UNL A   1      34.076  23.065  27.223  1.00  0.00     0.137 C 
BRANCH   7   8
ATOM      8  C   UNL A   1      35.127  22.477  26.306  1.00  0.00    -0.015 A 
ATOM      9  C   UNL A   1      34.941  21.289  25.566  1.00  0.00     0.042 A 
ATOM     10  C   UNL A   1      36.017  20.774  24.823  1.00  0.00     0.026 A 
ATOM     11  C   UNL A   1      37.243  21.437  24.763  1.00  0.00     0.002 A 
ATOM     12  C   UNL A   1      36.384  23.116  26.255  1.00  0.00     0.006 A 
ATOM     13  C   UNL A   1      37.426  22.611  25.480  1.00  0.00     0.000 A 
BRANCH   9  14
ATOM     14  N   UNL A   1      33.770  20.506  25.636  1.00  0.00    -0.355 N 
ATOM     15  H   UNL A   1      33.367  20.455  26.533  1.00  0.00     0.167 HD
BRANCH  14  16
ATOM     16  C   UNL A   1      33.076  19.783  24.636  1.00  0.00     0.045 A 
ATOM     17  C   UNL A   1      32.549  20.472  23.517  1.00  0.00    -0.024 A 
ATOM     18  C   UNL A   1      32.211  19.735  22.363  1.00  0.00     0.006 A 
ATOM     19  C   UNL A   1      32.249  18.348  22.356  1.00  0.00     0.001 A 
ATOM     20  C   UNL A   1      32.854  18.390  24.704  1.00  0.00    -0.027 A 
ATOM     21  C   UNL A   1      32.508  17.680  23.541  1.00  0.00     0.005 A 
ATOM     22  C   UNL A   1      32.908  17.622  25.991  1.00  0.00     0.046 C 
BRANCH  17  23
ATOM     23  C   UNL A   1      32.281  21.967  23.437  1.00  0.00     0.034 C 
ATOM     24  C   UNL A   1      33.033  22.781  22.387  1.00  0.00     0.009 C 
ENDBRANCH  17  23
ENDBRANCH  14  16
ENDBRANCH   9  14
ENDBRANCH   7   8
ENDBRANCH   4   7
ENDBRANCH   2   3
ENDBRANCH   1   2
BRANCH   1  25
ATOM     25  C   UNL A   1      31.809  27.510  26.495  1.00  0.00     0.002 C 
BRANCH  25  26
ATOM     26  C   UNL A   1      32.331  28.401  27.630  1.00  0.00     0.002 C 
BRANCH  26  27
ATOM     27  C   UNL A   1      32.600  29.862  27.271  1.00  0.00     0.021 C 
BRANCH  27  28
ATOM     28  C   UNL A   1      34.078  30.231  27.189  1.00  0.00     0.116 C 
BRANCH  28  29
ATOM     29  N   UNL A   1      34.543  31.125  28.239  1.00  0.00    -0.352 N 
ATOM     30  C   UNL A   1      35.566  30.957  29.161  1.00  0.00     0.251 C 
ATOM     31  H   UNL A   1      34.060  31.980  28.304  1.00  0.00     0.163 HD
ATOM     32  O   UNL A   1      35.733  31.785  30.038  1.00  0.00    -0.269 OA
BRANCH  30  33
ATOM     33  C   UNL A   1      36.544  29.847  28.997  1.00  0.00     0.039 A 
ATOM     34  C   UNL A   1      36.858  29.078  30.127  1.00  0.00     0.014 A 
ATOM     35  C   UNL A   1      37.278  29.680  27.827  1.00  0.00     0.014 A 
ATOM     36  C   UNL A   1      38.047  28.350  30.158  1.00  0.00     0.010 A 
ATOM     37  C   UNL A   1      38.505  29.055  27.891  1.00  0.00     0.010 A 
ATOM     38  C   UNL A   1      38.921  28.450  29.081  1.00  0.00    -0.014 A 
BRANCH  38  39
ATOM     39  C   UNL A   1      40.321  28.044  29.119  1.00  0.00     0.031 A 
ATOM     40  C   UNL A   1      40.731  26.722  28.607  1.00  0.00     0.074 A 
ATOM     41  C   UNL A   1      41.254  28.954  29.474  1.00  0.00     0.049 A 
ATOM     42  N   UNL A   1      41.886  26.186  28.808  1.00  0.00    -0.248 NA
ATOM     43  C   UNL A   1      39.831  25.870  27.842  1.00  0.00     0.031 C 
ATOM     44  C   UNL A   1      42.698  28.877  29.267  1.00  0.00     0.029 A 
ATOM     45  N   UNL A   1      41.085  30.076  30.304  1.00  0.00    -0.354 N 
ATOM     46  C   UNL A   1      41.987  25.070  28.009  1.00  0.00     0.074 A 
ATOM     47  C   UNL A   1      40.657  24.887  27.474  1.00  0.00     0.031 C 
ATOM     48  C   UNL A   1      43.304  29.662  30.169  1.00  0.00     0.029 A 
ATOM     49  C   UNL A   1      42.277  30.152  31.069  1.00  0.00     0.049 A 
ATOM     50  H   UNL A   1      40.308  30.679  30.346  1.00  0.00     0.167 HD
ATOM     51  C   UNL A   1      43.219  24.506  27.824  1.00  0.00     0.037 A 
ATOM     52  C   UNL A   1      42.245  29.937  32.418  1.00  0.00     0.037 A 
ATOM     53  C   UNL A   1      44.212  25.112  28.717  1.00  0.00     0.049 A 
ATOM     54  C   UNL A   1      43.031  28.729  32.887  1.00  0.00     0.074 A 
ATOM     55  C   UNL A   1      45.208  26.064  28.575  1.00  0.00     0.029 A 
ATOM     56  N   UNL A   1      44.053  24.930  30.078  1.00  0.00    -0.354 N 
ATOM     57  N   UNL A   1      43.639  27.893  32.092  1.00  0.00    -0.248 NA
ATOM     58  C   UNL A   1      43.115  28.318  34.290  1.00  0.00     0.031 C 
ATOM     59  C   UNL A   1      45.617  26.476  29.879  1.00  0.00     0.029 A 
ATOM     60  C   UNL A   1      44.872  25.770  30.805  1.00  0.00     0.049 A 
ATOM     61  H   UNL A   1      43.432  24.282  30.480  1.00  0.00     0.167 HD
ATOM     62  C   UNL A   1      44.133  26.849  32.823  1.00  0.00     0.074 A 
ATOM     63  C   UNL A   1      43.790  27.159  34.196  1.00  0.00     0.031 C 
ATOM     64  C   UNL A   1      44.754  25.779  32.252  1.00  0.00     0.037 A 
BRANCH  51  65
ATOM     65  C   UNL A   1      43.588  23.547  26.708  1.00  0.00     0.064 A 
ATOM     66  C   UNL A   1      43.139  22.207  26.740  1.00  0.00     0.173 A 
ATOM     67  C   UNL A   1      44.421  23.848  25.615  1.00  0.00     0.173 A 
ATOM     68  F   UNL A   1      42.260  21.782  27.658  1.00  0.00    -0.203 F 
ATOM     69  C   UNL A   1      43.576  21.239  25.828  1.00  0.00     0.198 A 
ATOM     70  C   UNL A   1      44.899  22.873  24.732  1.00  0.00     0.198 A 
ATOM     71  F   UNL A   1      44.752  25.104  25.306  1.00  0.00    -0.203 F 
ATOM     72  F   UNL A   1      43.117  19.984  25.920  1.00  0.00    -0.200 F 
ATOM     73  C   UNL A   1      44.485  21.565  24.845  1.00  0.00     0.200 A 
ATOM     74  F   UNL A   1      45.760  23.221  23.764  1.00  0.00    -0.200 F 
ATOM     75  F   UNL A   1      44.936  20.633  23.995  1.00  0.00    -0.200 F 
ENDBRANCH  51  65
BRANCH  52  76
ATOM     76  C   UNL A   1      40.993  30.448  33.036  1.00  0.00     0.064 A 
ATOM     77  C   UNL A   1      40.816  31.844  33.113  1.00  0.00     0.173 A 
ATOM     78  C   UNL A   1      39.856  29.643  33.159  1.00  0.00     0.173 A 
ATOM     79  F   UNL A   1      41.877  32.660  33.002  1.00  0.00    -0.203 F 
ATOM     80  C   UNL A   1      39.546  32.410  33.168  1.00  0.00     0.198 A 
ATOM     81  C   UNL A   1      38.585  30.216  33.236  1.00  0.00     0.198 A 
ATOM     82  F   UNL A   1      39.957  28.308  33.077  1.00  0.00    -0.203 F 
ATOM     83  F   UNL A   1      39.404  33.742  33.108  1.00  0.00    -0.200 F 
ATOM     84  C   UNL A   1      38.429  31.593  33.200  1.00  0.00     0.200 A 
ATOM     85  F   UNL A   1      37.501  29.425  33.247  1.00  0.00    -0.200 F 
ATOM     86  F   UNL A   1      37.202  32.132  33.152  1.00  0.00    -0.200 F 
ENDBRANCH  52  76
BRANCH  64  87
ATOM     87  C   UNL A   1      45.313  24.641  33.044  1.00  0.00     0.064 A 
ATOM     88  C   UNL A   1      44.539  23.520  33.374  1.00  0.00     0.173 A 
ATOM     89  C   UNL A   1      46.599  24.714  33.615  1.00  0.00     0.173 A 
ATOM     90  F   UNL A   1      43.295  23.384  32.890  1.00  0.00    -0.203 F 
ATOM     91  C   UNL A   1      45.026  22.527  34.225  1.00  0.00     0.198 A 
ATOM     92  C   UNL A   1      47.064  23.746  34.501  1.00  0.00     0.198 A 
ATOM     93  F   UNL A   1      47.437  25.718  33.312  1.00  0.00    -0.203 F 
ATOM     94  F   UNL A   1      44.271  21.452  34.495  1.00  0.00    -0.200 F 
ATOM     95  C   UNL A   1      46.279  22.650  34.803  1.00  0.00     0.200 A 
ATOM     96  F   UNL A   1      48.274  23.883  35.061  1.00  0.00    -0.200 F 
ATOM     97  F   UNL A   1      46.731  21.711  35.645  1.00  0.00    -0.200 F 
ENDBRANCH  64  87
ENDBRANCH  38  39
ENDBRANCH  30  33
ENDBRANCH  28  29
ENDBRANCH  27  28
ENDBRANCH  26  27
ENDBRANCH  25  26
ENDBRANCH   1  25
TORSDOF 17
ENDMDL
MODEL 3
REMARK VINA RESULT:     -12.6      1.088      1.995
REMARK SMILES CCc1cccc(C)c1Nc1ccccc1CC(=O)NCCCCCCNC(=O)c1ccc(-c2c3nc(c(-c4c(F)c(F)c(F)c(F)c4F)c4ccc([nH]4)c(-c4c(F)c(F)c(F)c(F)c4F)c4nc(c(-c5c(F)c(F)c(F)c(F)c5F)c5ccc2[nH]5)C=C4)C=C3)cc1
REMARK SMILES IDX 22 1 21 2 20 3 18 4 19 5 17 7 16 8 11 9 12 10 13 11 15 12
REMARK SMILES IDX 14 13 10 14 9 16 3 17 4 18 5 19 7 20 6 21 8 22 2 23 1 24
REMARK SMILES IDX 23 25 24 26 25 27 26 28 27 29 28 30 29 32 30 33 31 34 92 35
REMARK SMILES IDX 32 36 91 37 33 38 34 39 35 40 85 41 36 42 90 43 84 44 86 45
REMARK SMILES IDX 37 46 89 47 83 48 82 49 38 51 70 52 50 53 69 54 51 55 54 56
REMARK SMILES IDX 68 57 87 58 52 59 53 60 67 62 88 63 55 64 39 65 40 66 48 67
REMARK SMILES IDX 41 68 42 69 46 70 49 71 43 72 44 73 47 74 45 75 71 76 72 77
REMARK SMILES IDX 80 78 73 79 74 80 78 81 81 82 75 83 76 84 79 85 77 86 56 87
REMARK SMILES IDX 57 88 65 89 58 90 59 91 63 92 66 93 60 94 61 95 64 96 62 97
REMARK H PARENT 20 6 10 15 27 31 86 50 54 61
REMARK Flexibility Score: inf
ROOT
ATOM      1  C   UNL A   1      31.614  28.605  24.862  1.00  0.00     0.021 C 
ENDROOT
BRANCH   1   2
ATOM      2  C   UNL A   1      33.020  28.421  24.289  1.00  0.00     0.116 C 
BRANCH   2   3
ATOM      3  N   UNL A   1      33.104  27.410  23.255  1.00  0.00    -0.356 N 
ATOM      4  C   UNL A   1      33.523  26.114  23.297  1.00  0.00     0.224 C 
ATOM      5  O   UNL A   1      33.224  25.394  22.338  1.00  0.00    -0.275 OA
ATOM      6  H   UNL A   1      32.806  27.713  22.366  1.00  0.00     0.163 HD
BRANCH   4   7
ATOM      7  C   UNL A   1      34.199  25.529  24.518  1.00  0.00     0.137 C 
BRANCH   7   8
ATOM      8  C   UNL A   1      33.392  24.573  25.371  1.00  0.00    -0.015 A 
ATOM      9  C   UNL A   1      33.611  23.178  25.401  1.00  0.00     0.042 A 
ATOM     10  C   UNL A   1      32.739  22.369  26.149  1.00  0.00     0.026 A 
ATOM     11  C   UNL A   1      31.698  22.918  26.898  1.00  0.00     0.002 A 
ATOM     12  C   UNL A   1      32.316  25.105  26.112  1.00  0.00     0.006 A 
ATOM     13  C   UNL A   1      31.487  24.290  26.879  1.00  0.00     0.000 A 
BRANCH   9  14
ATOM     14  N   UNL A   1      34.579  22.528  24.608  1.00  0.00    -0.355 N 
ATOM     15  H   UNL A   1      34.454  22.639  23.638  1.00  0.00     0.167 HD
BRANCH  14  16
ATOM     16  C   UNL A   1      35.700  21.744  24.972  1.00  0.00     0.045 A 
ATOM     17  C   UNL A   1      35.594  20.332  24.965  1.00  0.00    -0.024 A 
ATOM     18  C   UNL A   1      36.777  19.562  24.946  1.00  0.00     0.006 A 
ATOM     19  C   UNL A   1      38.025  20.154  25.079  1.00  0.00     0.001 A 
ATOM     20  C   UNL A   1      36.935  22.300  25.374  1.00  0.00    -0.027 A 
ATOM     21  C   UNL A   1      38.097  21.509  25.356  1.00  0.00     0.005 A 
ATOM     22  C   UNL A   1      37.063  23.703  25.889  1.00  0.00     0.046 C 
BRANCH  17  23
ATOM     23  C   UNL A   1      34.299  19.536  24.999  1.00  0.00     0.034 C 
ATOM     24  C   UNL A   1      34.255  18.197  24.265  1.00  0.00     0.009 C 
ENDBRANCH  17  23
ENDBRANCH  14  16
ENDBRANCH   9  14
ENDBRANCH   7   8
ENDBRANCH   4   7
ENDBRANCH   2   3
ENDBRANCH   1   2
BRANCH   1  25
ATOM     25  C   UNL A   1      31.492  28.454  26.387  1.00  0.00     0.002 C 
BRANCH  25  26
ATOM     26  C   UNL A   1      32.629  29.043  27.234  1.00  0.00     0.002 C 
BRANCH  26  27
ATOM     27  C   UNL A   1      32.718  30.569  27.274  1.00  0.00     0.021 C 
BRANCH  27  28
ATOM     28  C   UNL A   1      34.140  31.119  27.239  1.00  0.00     0.116 C 
BRANCH  28  29
ATOM     29  N   UNL A   1      34.564  31.796  28.456  1.00  0.00    -0.352 N 
ATOM     30  C   UNL A   1      35.466  31.392  29.429  1.00  0.00     0.251 C 
ATOM     31  H   UNL A   1      34.147  32.674  28.613  1.00  0.00     0.163 HD
ATOM     32  O   UNL A   1      35.608  32.058  30.439  1.00  0.00    -0.269 OA
BRANCH  30  33
ATOM     33  C   UNL A   1      36.363  30.230  29.179  1.00  0.00     0.039 A 
ATOM     34  C   UNL A   1      36.653  29.383  30.258  1.00  0.00     0.014 A 
ATOM     35  C   UNL A   1      37.054  30.078  27.981  1.00  0.00     0.014 A 
ATOM     36  C   UNL A   1      37.791  28.578  30.217  1.00  0.00     0.010 A 
ATOM     37  C   UNL A   1      38.237  29.372  27.977  1.00  0.00     0.010 A 
ATOM     38  C   UNL A   1      38.642  28.678  29.121  1.00  0.00    -0.014 A 
BRANCH  38  39
ATOM     39  C   UNL A   1      40.012  28.179  29.097  1.00  0.00     0.031 A 
ATOM     40  C   UNL A   1      40.288  26.763  28.782  1.00  0.00     0.074 A 
ATOM     41  C   UNL A   1      41.028  29.062  29.205  1.00  0.00     0.049 A 
ATOM     42  N   UNL A   1      41.424  26.182  28.963  1.00  0.00    -0.248 NA
ATOM     43  C   UNL A   1      39.265  25.869  28.260  1.00  0.00     0.031 C 
ATOM     44  C   UNL A   1      42.436  28.842  28.880  1.00  0.00     0.029 A 
ATOM     45  N   UNL A   1      41.014  30.314  29.843  1.00  0.00    -0.354 N 
ATOM     46  C   UNL A   1      41.375  24.946  28.359  1.00  0.00     0.074 A 
ATOM     47  C   UNL A   1      39.988  24.779  27.990  1.00  0.00     0.031 C 
ATOM     48  C   UNL A   1      43.179  29.717  29.575  1.00  0.00     0.029 A 
ATOM     49  C   UNL A   1      42.282  30.423  30.470  1.00  0.00     0.049 A 
ATOM     50  H   UNL A   1      40.282  30.972  29.854  1.00  0.00     0.167 HD
ATOM     51  C   UNL A   1      42.545  24.268  28.159  1.00  0.00     0.037 A 
ATOM     52  C   UNL A   1      42.378  30.434  31.833  1.00  0.00     0.037 A 
ATOM     53  C   UNL A   1      43.660  24.935  28.840  1.00  0.00     0.049 A 
ATOM     54  C   UNL A   1      43.136  29.264  32.425  1.00  0.00     0.074 A 
ATOM     55  C   UNL A   1      44.691  25.773  28.446  1.00  0.00     0.029 A 
ATOM     56  N   UNL A   1      43.634  24.991  30.221  1.00  0.00    -0.354 N 
ATOM     57  N   UNL A   1      43.607  28.266  31.731  1.00  0.00    -0.248 NA
ATOM     58  C   UNL A   1      43.341  29.082  33.864  1.00  0.00     0.031 C 
ATOM     59  C   UNL A   1      45.257  26.361  29.617  1.00  0.00     0.029 A 
ATOM     60  C   UNL A   1      44.572  25.874  30.715  1.00  0.00     0.049 A 
ATOM     61  H   UNL A   1      43.021  24.465  30.784  1.00  0.00     0.167 HD
ATOM     62  C   UNL A   1      44.113  27.320  32.580  1.00  0.00     0.074 A 
ATOM     63  C   UNL A   1      43.934  27.876  33.906  1.00  0.00     0.031 C 
ATOM     64  C   UNL A   1      44.607  26.128  32.144  1.00  0.00     0.037 A 
BRANCH  51  65
ATOM     65  C   UNL A   1      42.739  23.115  27.194  1.00  0.00     0.064 A 
ATOM     66  C   UNL A   1      42.089  21.879  27.416  1.00  0.00     0.173 A 
ATOM     67  C   UNL A   1      43.587  23.124  26.070  1.00  0.00     0.173 A 
ATOM     68  F   UNL A   1      41.173  21.732  28.383  1.00  0.00    -0.203 F 
ATOM     69  C   UNL A   1      42.352  20.736  26.653  1.00  0.00     0.198 A 
ATOM     70  C   UNL A   1      43.890  21.971  25.337  1.00  0.00     0.198 A 
ATOM     71  F   UNL A   1      44.102  24.255  25.586  1.00  0.00    -0.203 F 
ATOM     72  F   UNL A   1      41.706  19.593  26.924  1.00  0.00    -0.200 F 
ATOM     73  C   UNL A   1      43.281  20.773  25.636  1.00  0.00     0.200 A 
ATOM     74  F   UNL A   1      44.775  22.038  24.332  1.00  0.00    -0.200 F 
ATOM     75  F   UNL A   1      43.565  19.670  24.930  1.00  0.00    -0.200 F 
ENDBRANCH  51  65
BRANCH  52  76
ATOM     76  C   UNL A   1      41.229  31.133  32.469  1.00  0.00     0.064 A 
ATOM     77  C   UNL A   1      41.199  32.540  32.413  1.00  0.00     0.173 A 
ATOM     78  C   UNL A   1      40.028  30.469  32.741  1.00  0.00     0.173 A 
ATOM     79  F   UNL A   1      42.325  33.225  32.156  1.00  0.00    -0.203 F 
ATOM     80  C   UNL A   1      39.998  33.241  32.485  1.00  0.00     0.198 A 
ATOM     81  C   UNL A   1      38.830  31.178  32.835  1.00  0.00     0.198 A 
ATOM     82  F   UNL A   1      39.990  29.129  32.791  1.00  0.00    -0.203 F 
ATOM     83  F   UNL A   1      39.986  34.569  32.297  1.00  0.00    -0.200 F 
ATOM     84  C   UNL A   1      38.810  32.555  32.667  1.00  0.00     0.200 A 
ATOM     85  F   UNL A   1      37.676  30.512  32.991  1.00  0.00    -0.200 F 
ATOM     86  F   UNL A   1      37.643  33.214  32.637  1.00  0.00    -0.200 F 
ENDBRANCH  52  76
BRANCH  64  87
ATOM     87  C   UNL A   1      45.177  25.096  33.062  1.00  0.00     0.064 A 
ATOM     88  C   UNL A   1      44.364  24.323  33.902  1.00  0.00     0.173 A 
ATOM     89  C   UNL A   1      46.570  24.958  33.227  1.00  0.00     0.173 A 
ATOM     90  F   UNL A   1      43.027  24.410  33.826  1.00  0.00    -0.203 F 
ATOM     91  C   UNL A   1      44.913  23.459  34.851  1.00  0.00     0.198 A 
ATOM     92  C   UNL A   1      47.114  24.132  34.206  1.00  0.00     0.198 A 
ATOM     93  F   UNL A   1      47.431  25.611  32.431  1.00  0.00    -0.203 F 
ATOM     94  F   UNL A   1      44.105  22.711  35.616  1.00  0.00    -0.200 F 
ATOM     95  C   UNL A   1      46.286  23.378  35.016  1.00  0.00     0.200 A 
ATOM     96  F   UNL A   1      48.445  24.071  34.361  1.00  0.00    -0.200 F 
ATOM     97  F   UNL A   1      46.809  22.572  35.948  1.00  0.00    -0.200 F 
ENDBRANCH  64  87
ENDBRANCH  38  39
ENDBRANCH  30  33
ENDBRANCH  28  29
ENDBRANCH  27  28
ENDBRANCH  26  27
ENDBRANCH  25  26
ENDBRANCH   1  25
TORSDOF 17
ENDMDL
