MODEL 1
REMARK VINA RESULT:      -8.7      0.000      0.000
REMARK SMILES CC(C)OCCS(=O)(=O)Nc1ccc(O)c(C(=O)NCCCCCCNC(=O)c2ccc(-c3c4nc(c(-c5c(F)c(F)c(F)c(F)c5F)c5ccc([nH]5)c(-c5c(F)c(F)c(F)c(F)c5F)c5nc(c(-c6c(F)c(F)c(F)c(F)c6F)c6ccc3[nH]6)C=C5)C=C4)cc2)c1
REMARK SMILES IDX 20 1 19 2 17 3 18 4 16 6 11 7 12 8 92 9 13 10 14 11 10 12
REMARK SMILES IDX 7 14 8 15 9 16 6 17 5 18 4 19 2 20 1 21 3 22 15 23 21 25
REMARK SMILES IDX 22 26 23 27 24 28 25 29 26 30 27 31 28 33 29 34 30 35 91 36
REMARK SMILES IDX 31 37 90 38 32 39 33 40 34 41 84 42 35 43 89 44 83 45 85 46
REMARK SMILES IDX 36 47 88 48 82 49 81 50 37 52 69 53 49 54 68 55 50 56 53 57
REMARK SMILES IDX 67 58 86 59 51 60 52 61 66 63 87 64 54 65 38 66 39 67 47 68
REMARK SMILES IDX 40 69 41 70 45 71 48 72 42 73 43 74 46 75 44 76 70 77 71 78
REMARK SMILES IDX 79 79 72 80 73 81 77 82 80 83 74 84 75 85 78 86 76 87 55 88
REMARK SMILES IDX 56 89 64 90 57 91 58 92 62 93 65 94 59 95 60 96 63 97 61 98
REMARK H PARENT 19 5 10 13 15 24 26 32 85 51 53 62
REMARK Flexibility Score: inf
ROOT
ATOM      1  C   UNL A   1      38.275  33.311  33.048  1.00  0.00     0.116 C 
ENDROOT
BRANCH   1   2
ATOM      2  N   UNL A   1      37.986  32.784  34.365  1.00  0.00    -0.352 N 
ATOM      3  C   UNL A   1      38.086  31.512  34.862  1.00  0.00     0.255 C 
ATOM      4  O   UNL A   1      37.703  31.311  36.016  1.00  0.00    -0.269 OA
ATOM      5  H   UNL A   1      37.662  33.453  35.011  1.00  0.00     0.163 HD
BRANCH   3   6
ATOM      6  C   UNL A   1      38.706  30.386  34.116  1.00  0.00     0.083 A 
ATOM      7  C   UNL A   1      40.730  29.055  33.841  1.00  0.00     0.050 A 
ATOM      8  C   UNL A   1      40.021  28.244  32.973  1.00  0.00     0.030 A 
ATOM      9  C   UNL A   1      40.060  30.117  34.436  1.00  0.00     0.044 A 
ATOM     10  C   UNL A   1      38.705  28.481  32.628  1.00  0.00     0.049 A 
ATOM     11  C   UNL A   1      38.037  29.533  33.226  1.00  0.00     0.128 A 
BRANCH   7  12
ATOM     12  N   UNL A   1      41.972  28.596  34.347  1.00  0.00    -0.283 N 
ATOM     13  H   UNL A   1      42.769  28.748  33.791  1.00  0.00     0.180 HD
BRANCH  12  14
ATOM     14  S   UNL A   1      42.198  27.823  35.803  1.00  0.00     0.235 S 
ATOM     15  O   UNL A   1      41.153  26.829  35.868  1.00  0.00    -0.207 OA
ATOM     16  O   UNL A   1      42.259  28.867  36.814  1.00  0.00    -0.207 OA
BRANCH  14  17
ATOM     17  C   UNL A   1      43.787  26.977  35.847  1.00  0.00     0.188 C 
BRANCH  17  18
ATOM     18  C   UNL A   1      43.746  25.454  35.717  1.00  0.00     0.178 C 
BRANCH  18  19
ATOM     19  O   UNL A   1      44.897  24.964  35.031  1.00  0.00    -0.378 OA
BRANCH  19  20
ATOM     20  C   UNL A   1      44.757  23.923  34.059  1.00  0.00     0.112 C 
ATOM     21  C   UNL A   1      43.863  22.820  34.592  1.00  0.00     0.038 C 
ATOM     22  C   UNL A   1      44.360  24.376  32.658  1.00  0.00     0.038 C 
ENDBRANCH  19  20
ENDBRANCH  18  19
ENDBRANCH  17  18
ENDBRANCH  14  17
ENDBRANCH  12  14
ENDBRANCH   7  12
BRANCH  11  23
ATOM     23  O   UNL A   1      36.706  29.614  32.958  1.00  0.00    -0.507 OA
ATOM     24  H   UNL A   1      36.222  28.840  32.750  1.00  0.00     0.293 HD
ENDBRANCH  11  23
ENDBRANCH   3   6
ENDBRANCH   1   2
BRANCH   1  25
ATOM     25  C   UNL A   1      36.969  33.583  32.294  1.00  0.00     0.021 C 
BRANCH  25  26
ATOM     26  C   UNL A   1      36.659  32.563  31.202  1.00  0.00     0.002 C 
BRANCH  26  27
ATOM     27  C   UNL A   1      36.329  33.182  29.843  1.00  0.00     0.002 C 
BRANCH  27  28
ATOM     28  C   UNL A   1      34.852  33.104  29.449  1.00  0.00     0.021 C 
BRANCH  28  29
ATOM     29  C   UNL A   1      34.617  32.749  27.984  1.00  0.00     0.116 C 
BRANCH  29  30
ATOM     30  N   UNL A   1      33.860  31.514  27.859  1.00  0.00    -0.352 N 
ATOM     31  C   UNL A   1      34.322  30.232  27.723  1.00  0.00     0.251 C 
ATOM     32  H   UNL A   1      32.881  31.613  27.874  1.00  0.00     0.163 HD
ATOM     33  O   UNL A   1      33.583  29.341  27.318  1.00  0.00    -0.269 OA
BRANCH  31  34
ATOM     34  C   UNL A   1      35.719  29.924  28.083  1.00  0.00     0.039 A 
ATOM     35  C   UNL A   1      36.727  30.117  27.136  1.00  0.00     0.014 A 
ATOM     36  C   UNL A   1      36.021  29.404  29.347  1.00  0.00     0.014 A 
ATOM     37  C   UNL A   1      38.048  29.817  27.468  1.00  0.00     0.010 A 
ATOM     38  C   UNL A   1      37.344  29.170  29.698  1.00  0.00     0.010 A 
ATOM     39  C   UNL A   1      38.366  29.356  28.756  1.00  0.00    -0.014 A 
BRANCH  39  40
ATOM     40  C   UNL A   1      39.763  29.035  29.130  1.00  0.00     0.031 A 
ATOM     41  C   UNL A   1      40.578  30.028  29.906  1.00  0.00     0.074 A 
ATOM     42  C   UNL A   1      40.316  27.886  28.701  1.00  0.00     0.049 A 
ATOM     43  N   UNL A   1      41.833  29.966  30.271  1.00  0.00    -0.248 NA
ATOM     44  C   UNL A   1      39.903  31.277  30.292  1.00  0.00     0.031 C 
ATOM     45  C   UNL A   1      39.640  26.878  27.883  1.00  0.00     0.029 A 
ATOM     46  N   UNL A   1      41.578  27.382  28.878  1.00  0.00    -0.354 N 
ATOM     47  C   UNL A   1      42.101  31.172  30.906  1.00  0.00     0.074 A 
ATOM     48  C   UNL A   1      40.896  31.967  30.830  1.00  0.00     0.031 C 
ATOM     49  C   UNL A   1      40.492  25.871  27.637  1.00  0.00     0.029 A 
ATOM     50  C   UNL A   1      41.779  26.175  28.256  1.00  0.00     0.049 A 
ATOM     51  H   UNL A   1      42.274  27.841  29.402  1.00  0.00     0.167 HD
ATOM     52  C   UNL A   1      43.245  31.568  31.513  1.00  0.00     0.037 A 
ATOM     53  C   UNL A   1      42.880  25.405  28.191  1.00  0.00     0.037 A 
ATOM     54  C   UNL A   1      44.426  30.753  31.614  1.00  0.00     0.049 A 
ATOM     55  C   UNL A   1      44.124  25.843  28.910  1.00  0.00     0.074 A 
ATOM     56  C   UNL A   1      45.604  31.016  32.291  1.00  0.00     0.029 A 
ATOM     57  N   UNL A   1      44.580  29.512  31.013  1.00  0.00    -0.354 N 
ATOM     58  N   UNL A   1      44.341  26.944  29.587  1.00  0.00    -0.248 NA
ATOM     59  C   UNL A   1      45.271  24.927  28.868  1.00  0.00     0.031 C 
ATOM     60  C   UNL A   1      46.487  29.955  32.059  1.00  0.00     0.029 A 
ATOM     61  C   UNL A   1      45.843  29.008  31.279  1.00  0.00     0.049 A 
ATOM     62  H   UNL A   1      43.892  29.055  30.476  1.00  0.00     0.167 HD
ATOM     63  C   UNL A   1      45.640  26.849  30.067  1.00  0.00     0.074 A 
ATOM     64  C   UNL A   1      46.156  25.572  29.616  1.00  0.00     0.031 C 
ATOM     65  C   UNL A   1      46.341  27.737  30.814  1.00  0.00     0.037 A 
BRANCH  52  66
ATOM     66  C   UNL A   1      43.269  32.947  32.108  1.00  0.00     0.064 A 
ATOM     67  C   UNL A   1      43.618  34.075  31.348  1.00  0.00     0.173 A 
ATOM     68  C   UNL A   1      42.937  33.144  33.456  1.00  0.00     0.173 A 
ATOM     69  F   UNL A   1      43.956  33.941  30.057  1.00  0.00    -0.203 F 
ATOM     70  C   UNL A   1      43.672  35.341  31.927  1.00  0.00     0.198 A 
ATOM     71  C   UNL A   1      42.961  34.415  34.024  1.00  0.00     0.198 A 
ATOM     72  F   UNL A   1      42.591  32.102  34.228  1.00  0.00    -0.203 F 
ATOM     73  F   UNL A   1      44.070  36.392  31.198  1.00  0.00    -0.200 F 
ATOM     74  C   UNL A   1      43.340  35.511  33.262  1.00  0.00     0.200 A 
ATOM     75  F   UNL A   1      42.628  34.580  35.311  1.00  0.00    -0.200 F 
ATOM     76  F   UNL A   1      43.396  36.729  33.818  1.00  0.00    -0.200 F 
ENDBRANCH  52  66
BRANCH  53  77
ATOM     77  C   UNL A   1      42.828  24.126  27.439  1.00  0.00     0.064 A 
ATOM     78  C   UNL A   1      43.138  24.081  26.072  1.00  0.00     0.173 A 
ATOM     79  C   UNL A   1      42.515  22.918  28.079  1.00  0.00     0.173 A 
ATOM     80  F   UNL A   1      43.428  25.213  25.415  1.00  0.00    -0.203 F 
ATOM     81  C   UNL A   1      43.129  22.876  25.373  1.00  0.00     0.198 A 
ATOM     82  C   UNL A   1      42.531  21.711  27.384  1.00  0.00     0.198 A 
ATOM     83  F   UNL A   1      42.223  22.908  29.387  1.00  0.00    -0.203 F 
ATOM     84  F   UNL A   1      43.404  22.864  24.061  1.00  0.00    -0.200 F 
ATOM     85  C   UNL A   1      42.833  21.691  26.031  1.00  0.00     0.200 A 
ATOM     86  F   UNL A   1      42.262  20.566  28.027  1.00  0.00    -0.200 F 
ATOM     87  F   UNL A   1      42.841  20.531  25.361  1.00  0.00    -0.200 F 
ENDBRANCH  53  77
BRANCH  65  88
ATOM     88  C   UNL A   1      47.739  27.354  31.201  1.00  0.00     0.064 A 
ATOM     89  C   UNL A   1      48.002  26.618  32.365  1.00  0.00     0.173 A 
ATOM     90  C   UNL A   1      48.823  27.693  30.375  1.00  0.00     0.173 A 
ATOM     91  F   UNL A   1      47.001  26.284  33.194  1.00  0.00    -0.203 F 
ATOM     92  C   UNL A   1      49.303  26.253  32.700  1.00  0.00     0.198 A 
ATOM     93  C   UNL A   1      50.118  27.301  30.700  1.00  0.00     0.198 A 
ATOM     94  F   UNL A   1      48.622  28.391  29.248  1.00  0.00    -0.203 F 
ATOM     95  F   UNL A   1      49.536  25.587  33.840  1.00  0.00    -0.200 F 
ATOM     96  C   UNL A   1      50.358  26.588  31.864  1.00  0.00     0.200 A 
ATOM     97  F   UNL A   1      51.135  27.613  29.885  1.00  0.00    -0.200 F 
ATOM     98  F   UNL A   1      51.608  26.227  32.186  1.00  0.00    -0.200 F 
ENDBRANCH  65  88
ENDBRANCH  39  40
ENDBRANCH  31  34
ENDBRANCH  29  30
ENDBRANCH  28  29
ENDBRANCH  27  28
ENDBRANCH  26  27
ENDBRANCH  25  26
ENDBRANCH   1  25
TORSDOF 20
ENDMDL
MODEL 2
REMARK VINA RESULT:      -8.7      4.907      8.526
REMARK SMILES CC(C)OCCS(=O)(=O)Nc1ccc(O)c(C(=O)NCCCCCCNC(=O)c2ccc(-c3c4nc(c(-c5c(F)c(F)c(F)c(F)c5F)c5ccc([nH]5)c(-c5c(F)c(F)c(F)c(F)c5F)c5nc(c(-c6c(F)c(F)c(F)c(F)c6F)c6ccc3[nH]6)C=C5)C=C4)cc2)c1
REMARK SMILES IDX 20 1 19 2 17 3 18 4 16 6 11 7 12 8 92 9 13 10 14 11 10 12
REMARK SMILES IDX 7 14 8 15 9 16 6 17 5 18 4 19 2 20 1 21 3 22 15 23 21 25
REMARK SMILES IDX 22 26 23 27 24 28 25 29 26 30 27 31 28 33 29 34 30 35 91 36
REMARK SMILES IDX 31 37 90 38 32 39 33 40 34 41 84 42 35 43 89 44 83 45 85 46
REMARK SMILES IDX 36 47 88 48 82 49 81 50 37 52 69 53 49 54 68 55 50 56 53 57
REMARK SMILES IDX 67 58 86 59 51 60 52 61 66 63 87 64 54 65 38 66 39 67 47 68
REMARK SMILES IDX 40 69 41 70 45 71 48 72 42 73 43 74 46 75 44 76 70 77 71 78
REMARK SMILES IDX 79 79 72 80 73 81 77 82 80 83 74 84 75 85 78 86 76 87 55 88
REMARK SMILES IDX 56 89 64 90 57 91 58 92 62 93 65 94 59 95 60 96 63 97 61 98
REMARK H PARENT 19 5 10 13 15 24 26 32 85 51 53 62
REMARK Flexibility Score: inf
ROOT
ATOM      1  C   UNL A   1      34.395  30.053  27.638  1.00  0.00     0.116 C 
ENDROOT
BRANCH   1   2
ATOM      2  N   UNL A   1      33.331  29.113  27.922  1.00  0.00    -0.352 N 
ATOM      3  C   UNL A   1      32.523  28.393  27.081  1.00  0.00     0.255 C 
ATOM      4  O   UNL A   1      31.633  27.705  27.584  1.00  0.00    -0.269 OA
ATOM      5  H   UNL A   1      33.159  28.966  28.881  1.00  0.00     0.163 HD
BRANCH   3   6
ATOM      6  C   UNL A   1      32.719  28.334  25.608  1.00  0.00     0.083 A 
ATOM      7  C   UNL A   1      33.503  26.954  23.759  1.00  0.00     0.050 A 
ATOM      8  C   UNL A   1      33.038  27.931  22.897  1.00  0.00     0.030 A 
ATOM      9  C   UNL A   1      33.319  27.146  25.122  1.00  0.00     0.044 A 
ATOM     10  C   UNL A   1      32.460  29.105  23.333  1.00  0.00     0.049 A 
ATOM     11  C   UNL A   1      32.269  29.293  24.689  1.00  0.00     0.128 A 
BRANCH   7  12
ATOM     12  N   UNL A   1      33.831  25.677  23.235  1.00  0.00    -0.283 N 
ATOM     13  H   UNL A   1      34.692  25.287  23.507  1.00  0.00     0.180 HD
BRANCH  12  14
ATOM     14  S   UNL A   1      32.883  24.782  22.203  1.00  0.00     0.235 S 
ATOM     15  O   UNL A   1      33.277  25.195  20.876  1.00  0.00    -0.207 OA
ATOM     16  O   UNL A   1      31.508  24.980  22.636  1.00  0.00    -0.207 OA
BRANCH  14  17
ATOM     17  C   UNL A   1      33.223  23.022  22.372  1.00  0.00     0.188 C 
BRANCH  17  18
ATOM     18  C   UNL A   1      32.256  22.229  23.251  1.00  0.00     0.178 C 
BRANCH  18  19
ATOM     19  O   UNL A   1      32.390  20.826  23.028  1.00  0.00    -0.378 OA
BRANCH  19  20
ATOM     20  C   UNL A   1      32.524  19.938  24.143  1.00  0.00     0.112 C 
ATOM     21  C   UNL A   1      32.528  18.496  23.670  1.00  0.00     0.038 C 
ATOM     22  C   UNL A   1      33.670  20.246  25.099  1.00  0.00     0.038 C 
ENDBRANCH  19  20
ENDBRANCH  18  19
ENDBRANCH  17  18
ENDBRANCH  14  17
ENDBRANCH  12  14
ENDBRANCH   7  12
BRANCH  11  23
ATOM     23  O   UNL A   1      31.558  30.398  25.038  1.00  0.00    -0.507 OA
ATOM     24  H   UNL A   1      31.124  30.433  25.867  1.00  0.00     0.293 HD
ENDBRANCH  11  23
ENDBRANCH   3   6
ENDBRANCH   1   2
BRANCH   1  25
ATOM     25  C   UNL A   1      33.848  31.484  27.660  1.00  0.00     0.021 C 
BRANCH  25  26
ATOM     26  C   UNL A   1      34.357  32.325  28.828  1.00  0.00     0.002 C 
BRANCH  26  27
ATOM     27  C   UNL A   1      34.430  33.824  28.535  1.00  0.00     0.002 C 
BRANCH  27  28
ATOM     28  C   UNL A   1      33.131  34.589  28.804  1.00  0.00     0.021 C 
BRANCH  28  29
ATOM     29  C   UNL A   1      33.343  36.027  29.269  1.00  0.00     0.116 C 
BRANCH  29  30
ATOM     30  N   UNL A   1      32.549  36.317  30.452  1.00  0.00    -0.352 N 
ATOM     31  C   UNL A   1      32.602  35.733  31.689  1.00  0.00     0.251 C 
ATOM     32  H   UNL A   1      31.882  37.034  30.349  1.00  0.00     0.163 HD
ATOM     33  O   UNL A   1      31.675  35.860  32.481  1.00  0.00    -0.269 OA
BRANCH  31  34
ATOM     34  C   UNL A   1      33.796  34.954  32.070  1.00  0.00     0.039 A 
ATOM     35  C   UNL A   1      33.653  33.609  32.414  1.00  0.00     0.014 A 
ATOM     36  C   UNL A   1      35.050  35.573  32.126  1.00  0.00     0.014 A 
ATOM     37  C   UNL A   1      34.776  32.871  32.786  1.00  0.00     0.010 A 
ATOM     38  C   UNL A   1      36.177  34.821  32.431  1.00  0.00     0.010 A 
ATOM     39  C   UNL A   1      36.047  33.469  32.782  1.00  0.00    -0.014 A 
BRANCH  39  40
ATOM     40  C   UNL A   1      37.255  32.703  33.171  1.00  0.00     0.031 A 
ATOM     41  C   UNL A   1      37.969  33.028  34.451  1.00  0.00     0.074 A 
ATOM     42  C   UNL A   1      37.748  31.775  32.331  1.00  0.00     0.049 A 
ATOM     43  N   UNL A   1      39.075  32.523  34.934  1.00  0.00    -0.248 NA
ATOM     44  C   UNL A   1      37.381  34.090  35.282  1.00  0.00     0.031 C 
ATOM     45  C   UNL A   1      37.177  31.425  31.030  1.00  0.00     0.029 A 
ATOM     46  N   UNL A   1      38.852  30.971  32.439  1.00  0.00    -0.354 N 
ATOM     47  C   UNL A   1      39.326  33.220  36.108  1.00  0.00     0.074 A 
ATOM     48  C   UNL A   1      38.287  34.218  36.239  1.00  0.00     0.031 C 
ATOM     49  C   UNL A   1      37.930  30.469  30.465  1.00  0.00     0.029 A 
ATOM     50  C   UNL A   1      39.049  30.160  31.350  1.00  0.00     0.049 A 
ATOM     51  H   UNL A   1      39.448  30.974  33.224  1.00  0.00     0.167 HD
ATOM     52  C   UNL A   1      40.322  33.029  37.005  1.00  0.00     0.037 A 
ATOM     53  C   UNL A   1      40.025  29.270  31.094  1.00  0.00     0.037 A 
ATOM     54  C   UNL A   1      41.329  32.008  36.883  1.00  0.00     0.049 A 
ATOM     55  C   UNL A   1      41.096  29.042  32.123  1.00  0.00     0.074 A 
ATOM     56  C   UNL A   1      42.323  31.662  37.781  1.00  0.00     0.029 A 
ATOM     57  N   UNL A   1      41.470  31.169  35.787  1.00  0.00    -0.354 N 
ATOM     58  N   UNL A   1      41.274  29.641  33.275  1.00  0.00    -0.248 NA
ATOM     59  C   UNL A   1      42.092  28.006  31.824  1.00  0.00     0.031 C 
ATOM     60  C   UNL A   1      43.096  30.646  37.206  1.00  0.00     0.029 A 
ATOM     61  C   UNL A   1      42.553  30.324  35.973  1.00  0.00     0.049 A 
ATOM     62  H   UNL A   1      40.886  31.172  34.994  1.00  0.00     0.167 HD
ATOM     63  C   UNL A   1      42.389  29.047  33.848  1.00  0.00     0.074 A 
ATOM     64  C   UNL A   1      42.837  28.025  32.922  1.00  0.00     0.031 C 
ATOM     65  C   UNL A   1      42.988  29.320  35.034  1.00  0.00     0.037 A 
BRANCH  52  66
ATOM     66  C   UNL A   1      40.371  33.949  38.191  1.00  0.00     0.064 A 
ATOM     67  C   UNL A   1      41.145  35.121  38.188  1.00  0.00     0.173 A 
ATOM     68  C   UNL A   1      39.630  33.658  39.346  1.00  0.00     0.173 A 
ATOM     69  F   UNL A   1      41.882  35.440  37.114  1.00  0.00    -0.203 F 
ATOM     70  C   UNL A   1      41.208  35.942  39.312  1.00  0.00     0.198 A 
ATOM     71  C   UNL A   1      39.670  34.498  40.456  1.00  0.00     0.198 A 
ATOM     72  F   UNL A   1      38.868  32.554  39.401  1.00  0.00    -0.203 F 
ATOM     73  F   UNL A   1      42.005  37.018  39.308  1.00  0.00    -0.200 F 
ATOM     74  C   UNL A   1      40.468  35.632  40.443  1.00  0.00     0.200 A 
ATOM     75  F   UNL A   1      38.944  34.204  41.543  1.00  0.00    -0.200 F 
ATOM     76  F   UNL A   1      40.531  36.422  41.523  1.00  0.00    -0.200 F 
ENDBRANCH  52  66
BRANCH  53  77
ATOM     77  C   UNL A   1      40.003  28.513  29.817  1.00  0.00     0.064 A 
ATOM     78  C   UNL A   1      40.617  29.024  28.665  1.00  0.00     0.173 A 
ATOM     79  C   UNL A   1      39.409  27.245  29.735  1.00  0.00     0.173 A 
ATOM     80  F   UNL A   1      41.184  30.239  28.694  1.00  0.00    -0.203 F 
ATOM     81  C   UNL A   1      40.632  28.298  27.477  1.00  0.00     0.198 A 
ATOM     82  C   UNL A   1      39.446  26.510  28.552  1.00  0.00     0.198 A 
ATOM     83  F   UNL A   1      38.819  26.709  30.812  1.00  0.00    -0.203 F 
ATOM     84  F   UNL A   1      41.203  28.820  26.383  1.00  0.00    -0.200 F 
ATOM     85  C   UNL A   1      40.053  27.038  27.423  1.00  0.00     0.200 A 
ATOM     86  F   UNL A   1      38.902  25.286  28.509  1.00  0.00    -0.200 F 
ATOM     87  F   UNL A   1      40.082  26.334  26.284  1.00  0.00    -0.200 F 
ENDBRANCH  53  77
BRANCH  65  88
ATOM     88  C   UNL A   1      44.185  28.495  35.402  1.00  0.00     0.064 A 
ATOM     89  C   UNL A   1      44.056  27.286  36.101  1.00  0.00     0.173 A 
ATOM     90  C   UNL A   1      45.473  28.898  35.016  1.00  0.00     0.173 A 
ATOM     91  F   UNL A   1      42.848  26.865  36.506  1.00  0.00    -0.203 F 
ATOM     92  C   UNL A   1      45.175  26.521  36.419  1.00  0.00     0.198 A 
ATOM     93  C   UNL A   1      46.585  28.117  35.311  1.00  0.00     0.198 A 
ATOM     94  F   UNL A   1      45.648  30.044  34.340  1.00  0.00    -0.203 F 
ATOM     95  F   UNL A   1      45.033  25.391  37.126  1.00  0.00    -0.200 F 
ATOM     96  C   UNL A   1      46.437  26.933  36.017  1.00  0.00     0.200 A 
ATOM     97  F   UNL A   1      47.803  28.509  34.910  1.00  0.00    -0.200 F 
ATOM     98  F   UNL A   1      47.512  26.191  36.317  1.00  0.00    -0.200 F 
ENDBRANCH  65  88
ENDBRANCH  39  40
ENDBRANCH  31  34
ENDBRANCH  29  30
ENDBRANCH  28  29
ENDBRANCH  27  28
ENDBRANCH  26  27
ENDBRANCH  25  26
ENDBRANCH   1  25
TORSDOF 20
ENDMDL
MODEL 3
REMARK VINA RESULT:      -8.5      0.513      7.386
REMARK SMILES CC(C)OCCS(=O)(=O)Nc1ccc(O)c(C(=O)NCCCCCCNC(=O)c2ccc(-c3c4nc(c(-c5c(F)c(F)c(F)c(F)c5F)c5ccc([nH]5)c(-c5c(F)c(F)c(F)c(F)c5F)c5nc(c(-c6c(F)c(F)c(F)c(F)c6F)c6ccc3[nH]6)C=C5)C=C4)cc2)c1
REMARK SMILES IDX 20 1 19 2 17 3 18 4 16 6 11 7 12 8 92 9 13 10 14 11 10 12
REMARK SMILES IDX 7 14 8 15 9 16 6 17 5 18 4 19 2 20 1 21 3 22 15 23 21 25
REMARK SMILES IDX 22 26 23 27 24 28 25 29 26 30 27 31 28 33 29 34 30 35 91 36
REMARK SMILES IDX 31 37 90 38 32 39 33 40 34 41 84 42 35 43 89 44 83 45 85 46
REMARK SMILES IDX 36 47 88 48 82 49 81 50 37 52 69 53 49 54 68 55 50 56 53 57
REMARK SMILES IDX 67 58 86 59 51 60 52 61 66 63 87 64 54 65 38 66 39 67 47 68
REMARK SMILES IDX 40 69 41 70 45 71 48 72 42 73 43 74 46 75 44 76 70 77 71 78
REMARK SMILES IDX 79 79 72 80 73 81 77 82 80 83 74 84 75 85 78 86 76 87 55 88
REMARK SMILES IDX 56 89 64 90 57 91 58 92 62 93 65 94 59 95 60 96 63 97 61 98
REMARK H PARENT 19 5 10 13 15 24 26 32 85 51 53 62
REMARK Flexibility Score: inf
ROOT
ATOM      1  C   UNL A   1      38.257  33.283  33.030  1.00  0.00     0.116 C 
ENDROOT
BRANCH   1   2
ATOM      2  N   UNL A   1      38.028  32.758  34.359  1.00  0.00    -0.352 N 
ATOM      3  C   UNL A   1      38.123  31.482  34.847  1.00  0.00     0.255 C 
ATOM      4  O   UNL A   1      37.801  31.286  36.020  1.00  0.00    -0.269 OA
ATOM      5  H   UNL A   1      37.757  33.433  35.024  1.00  0.00     0.163 HD
BRANCH   3   6
ATOM      6  C   UNL A   1      38.674  30.344  34.064  1.00  0.00     0.083 A 
ATOM      7  C   UNL A   1      40.635  28.944  33.697  1.00  0.00     0.050 A 
ATOM      8  C   UNL A   1      39.864  28.171  32.847  1.00  0.00     0.030 A 
ATOM      9  C   UNL A   1      40.028  30.022  34.329  1.00  0.00     0.044 A 
ATOM     10  C   UNL A   1      38.546  28.460  32.556  1.00  0.00     0.049 A 
ATOM     11  C   UNL A   1      37.940  29.527  33.190  1.00  0.00     0.128 A 
BRANCH   7  12
ATOM     12  N   UNL A   1      41.878  28.434  34.149  1.00  0.00    -0.283 N 
ATOM     13  H   UNL A   1      42.662  28.583  33.574  1.00  0.00     0.180 HD
BRANCH  12  14
ATOM     14  S   UNL A   1      42.124  27.606  35.571  1.00  0.00     0.235 S 
ATOM     15  O   UNL A   1      41.160  26.530  35.553  1.00  0.00    -0.207 OA
ATOM     16  O   UNL A   1      42.072  28.598  36.635  1.00  0.00    -0.207 OA
BRANCH  14  17
ATOM     17  C   UNL A   1      43.774  26.887  35.625  1.00  0.00     0.188 C 
BRANCH  17  18
ATOM     18  C   UNL A   1      43.862  25.380  35.382  1.00  0.00     0.178 C 
BRANCH  18  19
ATOM     19  O   UNL A   1      45.058  25.040  34.682  1.00  0.00    -0.378 OA
BRANCH  19  20
ATOM     20  C   UNL A   1      45.021  24.051  33.648  1.00  0.00     0.112 C 
ATOM     21  C   UNL A   1      44.279  22.817  34.125  1.00  0.00     0.038 C 
ATOM     22  C   UNL A   1      44.539  24.537  32.286  1.00  0.00     0.038 C 
ENDBRANCH  19  20
ENDBRANCH  18  19
ENDBRANCH  17  18
ENDBRANCH  14  17
ENDBRANCH  12  14
ENDBRANCH   7  12
BRANCH  11  23
ATOM     23  O   UNL A   1      36.604  29.661  32.975  1.00  0.00    -0.507 OA
ATOM     24  H   UNL A   1      36.084  28.907  32.776  1.00  0.00     0.293 HD
ENDBRANCH  11  23
ENDBRANCH   3   6
ENDBRANCH   1   2
BRANCH   1  25
ATOM     25  C   UNL A   1      36.919  33.504  32.316  1.00  0.00     0.021 C 
BRANCH  25  26
ATOM     26  C   UNL A   1      36.604  32.457  31.251  1.00  0.00     0.002 C 
BRANCH  26  27
ATOM     27  C   UNL A   1      36.223  33.044  29.891  1.00  0.00     0.002 C 
BRANCH  27  28
ATOM     28  C   UNL A   1      34.755  32.850  29.502  1.00  0.00     0.021 C 
BRANCH  28  29
ATOM     29  C   UNL A   1      34.543  32.504  28.031  1.00  0.00     0.116 C 
BRANCH  29  30
ATOM     30  N   UNL A   1      33.875  31.221  27.886  1.00  0.00    -0.352 N 
ATOM     31  C   UNL A   1      34.426  29.978  27.724  1.00  0.00     0.251 C 
ATOM     32  H   UNL A   1      32.891  31.249  27.907  1.00  0.00     0.163 HD
ATOM     33  O   UNL A   1      33.751  29.044  27.305  1.00  0.00    -0.269 OA
BRANCH  31  34
ATOM     34  C   UNL A   1      35.844  29.764  28.072  1.00  0.00     0.039 A 
ATOM     35  C   UNL A   1      36.168  29.235  29.322  1.00  0.00     0.014 A 
ATOM     36  C   UNL A   1      36.851  30.129  27.171  1.00  0.00     0.014 A 
ATOM     37  C   UNL A   1      37.508  29.041  29.660  1.00  0.00     0.010 A 
ATOM     38  C   UNL A   1      38.181  29.872  27.482  1.00  0.00     0.010 A 
ATOM     39  C   UNL A   1      38.521  29.345  28.736  1.00  0.00    -0.014 A 
BRANCH  39  40
ATOM     40  C   UNL A   1      39.949  29.143  29.073  1.00  0.00     0.031 A 
ATOM     41  C   UNL A   1      40.662  27.906  28.607  1.00  0.00     0.074 A 
ATOM     42  C   UNL A   1      40.575  30.034  29.863  1.00  0.00     0.049 A 
ATOM     43  N   UNL A   1      41.886  27.513  28.852  1.00  0.00    -0.248 NA
ATOM     44  C   UNL A   1      39.883  26.967  27.786  1.00  0.00     0.031 C 
ATOM     45  C   UNL A   1      39.962  31.235  30.431  1.00  0.00     0.029 A 
ATOM     46  N   UNL A   1      41.860  30.056  30.341  1.00  0.00    -0.354 N 
ATOM     47  C   UNL A   1      42.014  26.275  28.237  1.00  0.00     0.074 A 
ATOM     48  C   UNL A   1      40.729  25.957  27.653  1.00  0.00     0.031 C 
ATOM     49  C   UNL A   1      40.874  31.883  31.172  1.00  0.00     0.029 A 
ATOM     50  C   UNL A   1      42.124  31.129  31.153  1.00  0.00     0.049 A 
ATOM     51  H   UNL A   1      42.529  29.368  30.121  1.00  0.00     0.167 HD
ATOM     52  C   UNL A   1      43.110  25.485  28.152  1.00  0.00     0.037 A 
ATOM     53  C   UNL A   1      43.249  31.464  31.812  1.00  0.00     0.037 A 
ATOM     54  C   UNL A   1      44.393  25.829  28.706  1.00  0.00     0.049 A 
ATOM     55  C   UNL A   1      44.468  30.597  31.667  1.00  0.00     0.074 A 
ATOM     56  C   UNL A   1      45.594  25.150  28.594  1.00  0.00     0.029 A 
ATOM     57  N   UNL A   1      44.640  26.951  29.484  1.00  0.00    -0.354 N 
ATOM     58  N   UNL A   1      44.607  29.473  31.007  1.00  0.00    -0.248 NA
ATOM     59  C   UNL A   1      45.688  31.051  32.346  1.00  0.00     0.031 C 
ATOM     60  C   UNL A   1      46.555  25.837  29.344  1.00  0.00     0.029 A 
ATOM     61  C   UNL A   1      45.967  26.970  29.883  1.00  0.00     0.049 A 
ATOM     62  H   UNL A   1      43.970  27.635  29.718  1.00  0.00     0.167 HD
ATOM     63  C   UNL A   1      45.930  29.092  31.174  1.00  0.00     0.074 A 
ATOM     64  C   UNL A   1      46.558  30.116  31.986  1.00  0.00     0.031 C 
ATOM     65  C   UNL A   1      46.570  27.995  30.699  1.00  0.00     0.037 A 
BRANCH  52  66
ATOM     66  C   UNL A   1      42.963  24.172  27.439  1.00  0.00     0.064 A 
ATOM     67  C   UNL A   1      42.550  23.008  28.108  1.00  0.00     0.173 A 
ATOM     68  C   UNL A   1      43.236  24.074  26.067  1.00  0.00     0.173 A 
ATOM     69  F   UNL A   1      42.287  23.043  29.423  1.00  0.00    -0.203 F 
ATOM     70  C   UNL A   1      42.456  21.790  27.438  1.00  0.00     0.198 A 
ATOM     71  C   UNL A   1      43.110  22.863  25.393  1.00  0.00     0.198 A 
ATOM     72  F   UNL A   1      43.629  25.157  25.376  1.00  0.00    -0.203 F 
ATOM     73  F   UNL A   1      42.123  20.682  28.112  1.00  0.00    -0.200 F 
ATOM     74  C   UNL A   1      42.732  21.719  26.081  1.00  0.00     0.200 A 
ATOM     75  F   UNL A   1      43.365  22.798  24.079  1.00  0.00    -0.200 F 
ATOM     76  F   UNL A   1      42.644  20.547  25.439  1.00  0.00    -0.200 F 
ENDBRANCH  52  66
BRANCH  53  77
ATOM     77  C   UNL A   1      43.268  32.697  32.638  1.00  0.00     0.064 A 
ATOM     78  C   UNL A   1      43.114  32.635  34.030  1.00  0.00     0.173 A 
ATOM     79  C   UNL A   1      43.488  33.956  32.059  1.00  0.00     0.173 A 
ATOM     80  F   UNL A   1      42.886  31.455  34.625  1.00  0.00    -0.203 F 
ATOM     81  C   UNL A   1      43.171  33.786  34.811  1.00  0.00     0.198 A 
ATOM     82  C   UNL A   1      43.570  35.104  32.845  1.00  0.00     0.198 A 
ATOM     83  F   UNL A   1      43.652  34.065  30.733  1.00  0.00    -0.203 F 
ATOM     84  F   UNL A   1      42.995  33.703  36.137  1.00  0.00    -0.200 F 
ATOM     85  C   UNL A   1      43.407  35.019  34.219  1.00  0.00     0.200 A 
ATOM     86  F   UNL A   1      43.815  36.289  32.271  1.00  0.00    -0.200 F 
ATOM     87  F   UNL A   1      43.478  36.124  34.974  1.00  0.00    -0.200 F 
ENDBRANCH  53  77
BRANCH  65  88
ATOM     88  C   UNL A   1      48.025  27.851  31.034  1.00  0.00     0.064 A 
ATOM     89  C   UNL A   1      49.022  28.440  30.243  1.00  0.00     0.173 A 
ATOM     90  C   UNL A   1      48.424  27.149  32.182  1.00  0.00     0.173 A 
ATOM     91  F   UNL A   1      48.691  29.108  29.127  1.00  0.00    -0.203 F 
ATOM     92  C   UNL A   1      50.367  28.314  30.578  1.00  0.00     0.198 A 
ATOM     93  C   UNL A   1      49.768  27.050  32.528  1.00  0.00     0.198 A 
ATOM     94  F   UNL A   1      47.507  26.573  32.974  1.00  0.00    -0.203 F 
ATOM     95  F   UNL A   1      51.305  28.849  29.784  1.00  0.00    -0.200 F 
ATOM     96  C   UNL A   1      50.738  27.626  31.724  1.00  0.00     0.200 A 
ATOM     97  F   UNL A   1      50.124  26.396  33.643  1.00  0.00    -0.200 F 
ATOM     98  F   UNL A   1      52.034  27.514  32.048  1.00  0.00    -0.200 F 
ENDBRANCH  65  88
ENDBRANCH  39  40
ENDBRANCH  31  34
ENDBRANCH  29  30
ENDBRANCH  28  29
ENDBRANCH  27  28
ENDBRANCH  26  27
ENDBRANCH  25  26
ENDBRANCH   1  25
TORSDOF 20
ENDMDL
