MODEL 1
REMARK VINA RESULT:     -12.0      0.000      0.000
REMARK SMILES Cc1cc(C)c2c(c1)C=C(C(=O)NCCCCCCNC(=O)c1ccc(-c3c4nc(c(-c5c(F)c(F)c(F)c(F)c5F)c5ccc([nH]5)c(-c5c(F)c(F)c(F)c(F)c5F)c5nc(c(-c6c(F)c(F)c(F)c(F)c6F)c6ccc3[nH]6)C=C5)C=C4)cc1)[C@@H](C(F)(F)F)O2
REMARK SMILES IDX 17 1 16 2 15 3 14 4 13 5 11 6 12 7 10 9 1 10 2 11 3 12 8 13
REMARK SMILES IDX 4 14 7 15 5 16 6 17 9 18 91 19 86 20 87 21 88 22 89 23 90 24
REMARK SMILES IDX 18 25 19 26 20 27 21 28 22 30 23 31 24 32 85 33 25 34 84 35
REMARK SMILES IDX 26 36 27 37 28 38 78 39 29 40 83 41 77 42 79 43 30 44 82 45
REMARK SMILES IDX 76 46 75 47 31 49 63 50 43 51 62 52 44 53 47 54 61 55 80 56
REMARK SMILES IDX 45 57 46 58 60 60 81 61 48 62 32 63 33 64 41 65 34 66 35 67
REMARK SMILES IDX 39 68 42 69 36 70 37 71 40 72 38 73 64 74 65 75 73 76 66 77
REMARK SMILES IDX 67 78 71 79 74 80 68 81 69 82 72 83 70 84 49 85 50 86 58 87
REMARK SMILES IDX 51 88 52 89 56 90 59 91 53 92 54 93 57 94 55 95
REMARK H PARENT 13 8 20 29 79 48 47 59
REMARK Flexibility Score: inf
ROOT
ATOM      1  C   UNL A   1      35.422  22.200  23.998  1.00  0.00     0.002 C 
ENDROOT
BRANCH   1   2
ATOM      2  C   UNL A   1      34.285  21.933  24.993  1.00  0.00     0.002 C 
BRANCH   2   3
ATOM      3  C   UNL A   1      32.988  21.394  24.383  1.00  0.00     0.021 C 
BRANCH   3   4
ATOM      4  C   UNL A   1      31.889  22.442  24.236  1.00  0.00     0.116 C 
BRANCH   4   5
ATOM      5  N   UNL A   1      31.170  22.648  25.479  1.00  0.00    -0.352 N 
ATOM      6  C   UNL A   1      30.733  23.700  26.209  1.00  0.00     0.251 C 
ATOM      7  O   UNL A   1      30.118  23.400  27.237  1.00  0.00    -0.270 OA
ATOM      8  H   UNL A   1      30.937  21.793  25.906  1.00  0.00     0.163 HD
BRANCH   6   9
ATOM      9  C   UNL A   1      30.941  25.140  25.867  1.00  0.00     0.067 C 
ATOM     10  C   UNL A   1      28.675  29.474  22.081  1.00  0.00     0.044 C 
ATOM     11  C   UNL A   1      29.539  28.918  23.174  1.00  0.00    -0.050 A 
ATOM     12  C   UNL A   1      30.431  29.744  23.872  1.00  0.00     0.010 A 
ATOM     13  C   UNL A   1      29.434  27.567  23.530  1.00  0.00     0.015 A 
ATOM     14  C   UNL A   1      31.220  29.231  24.908  1.00  0.00    -0.008 A 
ATOM     15  C   UNL A   1      30.215  27.041  24.562  1.00  0.00     0.018 A 
ATOM     16  C   UNL A   1      32.169  30.125  25.657  1.00  0.00     0.048 C 
ATOM     17  C   UNL A   1      31.107  27.874  25.240  1.00  0.00     0.130 A 
ATOM     18  C   UNL A   1      30.078  25.649  24.970  1.00  0.00     0.025 C 
ATOM     19  O   UNL A   1      31.865  27.431  26.284  1.00  0.00    -0.475 OA
ATOM     20  C   UNL A   1      32.041  25.998  26.424  1.00  0.00     0.314 C 
BRANCH  20  21
ATOM     21  C   UNL A   1      33.431  25.615  25.889  1.00  0.00     0.429 C 
ATOM     22  F   UNL A   1      33.360  25.303  24.569  1.00  0.00    -0.167 F 
ATOM     23  F   UNL A   1      34.326  26.626  25.987  1.00  0.00    -0.167 F 
ATOM     24  F   UNL A   1      33.963  24.551  26.529  1.00  0.00    -0.167 F 
ENDBRANCH  20  21
ENDBRANCH   6   9
ENDBRANCH   4   5
ENDBRANCH   3   4
ENDBRANCH   2   3
ENDBRANCH   1   2
BRANCH   1  25
ATOM     25  C   UNL A   1      36.187  23.511  24.204  1.00  0.00     0.021 C 
BRANCH  25  26
ATOM     26  C   UNL A   1      36.802  23.677  25.589  1.00  0.00     0.116 C 
BRANCH  26  27
ATOM     27  N   UNL A   1      37.830  22.684  25.851  1.00  0.00    -0.352 N 
ATOM     28  C   UNL A   1      39.095  22.859  26.348  1.00  0.00     0.251 C 
ATOM     29  H   UNL A   1      37.582  21.755  25.643  1.00  0.00     0.163 HD
ATOM     30  O   UNL A   1      39.907  21.938  26.322  1.00  0.00    -0.269 OA
BRANCH  28  31
ATOM     31  C   UNL A   1      39.487  24.168  26.903  1.00  0.00     0.039 A 
ATOM     32  C   UNL A   1      39.220  24.438  28.246  1.00  0.00     0.014 A 
ATOM     33  C   UNL A   1      40.106  25.129  26.097  1.00  0.00     0.014 A 
ATOM     34  C   UNL A   1      39.615  25.658  28.796  1.00  0.00     0.010 A 
ATOM     35  C   UNL A   1      40.560  26.317  26.662  1.00  0.00     0.010 A 
ATOM     36  C   UNL A   1      40.306  26.598  28.012  1.00  0.00    -0.014 A 
BRANCH  36  37
ATOM     37  C   UNL A   1      40.734  27.895  28.589  1.00  0.00     0.031 A 
ATOM     38  C   UNL A   1      42.186  28.140  28.884  1.00  0.00     0.074 A 
ATOM     39  C   UNL A   1      39.816  28.840  28.864  1.00  0.00     0.049 A 
ATOM     40  N   UNL A   1      42.760  29.205  29.381  1.00  0.00    -0.248 NA
ATOM     41  C   UNL A   1      43.117  27.034  28.602  1.00  0.00     0.031 C 
ATOM     42  C   UNL A   1      38.373  28.699  28.660  1.00  0.00     0.029 A 
ATOM     43  N   UNL A   1      39.958  30.107  29.371  1.00  0.00    -0.354 N 
ATOM     44  C   UNL A   1      44.111  28.898  29.469  1.00  0.00     0.074 A 
ATOM     45  C   UNL A   1      44.266  27.527  29.038  1.00  0.00     0.031 C 
ATOM     46  C   UNL A   1      37.768  29.849  29.001  1.00  0.00     0.029 A 
ATOM     47  C   UNL A   1      38.775  30.796  29.471  1.00  0.00     0.049 A 
ATOM     48  H   UNL A   1      40.827  30.486  29.636  1.00  0.00     0.167 HD
ATOM     49  C   UNL A   1      45.135  29.701  29.842  1.00  0.00     0.037 A 
ATOM     50  C   UNL A   1      38.533  32.054  29.888  1.00  0.00     0.037 A 
ATOM     51  C   UNL A   1      44.980  31.073  30.242  1.00  0.00     0.049 A 
ATOM     52  C   UNL A   1      39.687  32.918  30.321  1.00  0.00     0.074 A 
ATOM     53  C   UNL A   1      45.961  31.986  30.581  1.00  0.00     0.029 A 
ATOM     54  N   UNL A   1      43.763  31.728  30.353  1.00  0.00    -0.354 N 
ATOM     55  N   UNL A   1      40.966  32.639  30.336  1.00  0.00    -0.248 NA
ATOM     56  C   UNL A   1      39.362  34.271  30.796  1.00  0.00     0.031 C 
ATOM     57  C   UNL A   1      45.336  33.185  30.936  1.00  0.00     0.029 A 
ATOM     58  C   UNL A   1      43.967  33.029  30.780  1.00  0.00     0.049 A 
ATOM     59  H   UNL A   1      42.885  31.329  30.157  1.00  0.00     0.167 HD
ATOM     60  C   UNL A   1      41.602  33.782  30.803  1.00  0.00     0.074 A 
ATOM     61  C   UNL A   1      40.567  34.765  31.046  1.00  0.00     0.031 C 
ATOM     62  C   UNL A   1      42.923  33.994  31.014  1.00  0.00     0.037 A 
BRANCH  49  63
ATOM     63  C   UNL A   1      46.518  29.123  29.810  1.00  0.00     0.064 A 
ATOM     64  C   UNL A   1      47.309  29.194  28.654  1.00  0.00     0.173 A 
ATOM     65  C   UNL A   1      47.077  28.539  30.955  1.00  0.00     0.173 A 
ATOM     66  F   UNL A   1      46.815  29.733  27.529  1.00  0.00    -0.203 F 
ATOM     67  C   UNL A   1      48.605  28.683  28.639  1.00  0.00     0.198 A 
ATOM     68  C   UNL A   1      48.382  28.053  30.945  1.00  0.00     0.198 A 
ATOM     69  F   UNL A   1      46.363  28.450  32.087  1.00  0.00    -0.203 F 
ATOM     70  F   UNL A   1      49.328  28.728  27.512  1.00  0.00    -0.200 F 
ATOM     71  C   UNL A   1      49.142  28.121  29.787  1.00  0.00     0.200 A 
ATOM     72  F   UNL A   1      48.905  27.518  32.058  1.00  0.00    -0.200 F 
ATOM     73  F   UNL A   1      50.392  27.639  29.776  1.00  0.00    -0.200 F 
ENDBRANCH  49  63
BRANCH  50  74
ATOM     74  C   UNL A   1      37.146  32.583  29.869  1.00  0.00     0.064 A 
ATOM     75  C   UNL A   1      36.287  32.376  30.956  1.00  0.00     0.173 A 
ATOM     76  C   UNL A   1      36.656  33.320  28.781  1.00  0.00     0.173 A 
ATOM     77  F   UNL A   1      36.705  31.660  32.011  1.00  0.00    -0.203 F 
ATOM     78  C   UNL A   1      34.988  32.878  30.954  1.00  0.00     0.198 A 
ATOM     79  C   UNL A   1      35.365  33.842  28.789  1.00  0.00     0.198 A 
ATOM     80  F   UNL A   1      37.440  33.550  27.717  1.00  0.00    -0.203 F 
ATOM     81  F   UNL A   1      34.177  32.639  31.994  1.00  0.00    -0.200 F 
ATOM     82  C   UNL A   1      34.530  33.617  29.874  1.00  0.00     0.200 A 
ATOM     83  F   UNL A   1      34.929  34.566  27.749  1.00  0.00    -0.200 F 
ATOM     84  F   UNL A   1      33.283  34.108  29.875  1.00  0.00    -0.200 F 
ENDBRANCH  50  74
BRANCH  62  85
ATOM     85  C   UNL A   1      43.338  35.338  31.533  1.00  0.00     0.064 A 
ATOM     86  C   UNL A   1      43.705  36.369  30.659  1.00  0.00     0.173 A 
ATOM     87  C   UNL A   1      43.274  35.624  32.905  1.00  0.00     0.173 A 
ATOM     88  F   UNL A   1      43.792  36.138  29.340  1.00  0.00    -0.203 F 
ATOM     89  C   UNL A   1      43.996  37.643  31.141  1.00  0.00     0.198 A 
ATOM     90  C   UNL A   1      43.541  36.904  33.380  1.00  0.00     0.198 A 
ATOM     91  F   UNL A   1      42.919  34.670  33.778  1.00  0.00    -0.203 F 
ATOM     92  F   UNL A   1      44.364  38.611  30.290  1.00  0.00    -0.200 F 
ATOM     93  C   UNL A   1      43.902  37.911  32.498  1.00  0.00     0.200 A 
ATOM     94  F   UNL A   1      43.436  37.166  34.690  1.00  0.00    -0.200 F 
ATOM     95  F   UNL A   1      44.160  39.144  32.958  1.00  0.00    -0.200 F 
ENDBRANCH  62  85
ENDBRANCH  36  37
ENDBRANCH  28  31
ENDBRANCH  26  27
ENDBRANCH  25  26
ENDBRANCH   1  25
TORSDOF 14
ENDMDL
MODEL 2
REMARK VINA RESULT:     -12.0      1.389      2.158
REMARK SMILES Cc1cc(C)c2c(c1)C=C(C(=O)NCCCCCCNC(=O)c1ccc(-c3c4nc(c(-c5c(F)c(F)c(F)c(F)c5F)c5ccc([nH]5)c(-c5c(F)c(F)c(F)c(F)c5F)c5nc(c(-c6c(F)c(F)c(F)c(F)c6F)c6ccc3[nH]6)C=C5)C=C4)cc1)[C@@H](C(F)(F)F)O2
REMARK SMILES IDX 17 1 16 2 15 3 14 4 13 5 11 6 12 7 10 9 1 10 2 11 3 12 8 13
REMARK SMILES IDX 4 14 7 15 5 16 6 17 9 18 91 19 86 20 87 21 88 22 89 23 90 24
REMARK SMILES IDX 18 25 19 26 20 27 21 28 22 30 23 31 24 32 85 33 25 34 84 35
REMARK SMILES IDX 26 36 27 37 28 38 78 39 29 40 83 41 77 42 79 43 30 44 82 45
REMARK SMILES IDX 76 46 75 47 31 49 63 50 43 51 62 52 44 53 47 54 61 55 80 56
REMARK SMILES IDX 45 57 46 58 60 60 81 61 48 62 32 63 33 64 41 65 34 66 35 67
REMARK SMILES IDX 39 68 42 69 36 70 37 71 40 72 38 73 64 74 65 75 73 76 66 77
REMARK SMILES IDX 67 78 71 79 74 80 68 81 69 82 72 83 70 84 49 85 50 86 58 87
REMARK SMILES IDX 51 88 52 89 56 90 59 91 53 92 54 93 57 94 55 95
REMARK H PARENT 13 8 20 29 79 48 47 59
REMARK Flexibility Score: inf
ROOT
ATOM      1  C   UNL A   1      34.794  22.657  24.382  1.00  0.00     0.002 C 
ENDROOT
BRANCH   1   2
ATOM      2  C   UNL A   1      34.679  21.162  24.707  1.00  0.00     0.002 C 
BRANCH   2   3
ATOM      3  C   UNL A   1      33.449  20.758  25.525  1.00  0.00     0.021 C 
BRANCH   3   4
ATOM      4  C   UNL A   1      32.131  21.290  24.969  1.00  0.00     0.116 C 
BRANCH   4   5
ATOM      5  N   UNL A   1      31.367  21.998  25.978  1.00  0.00    -0.352 N 
ATOM      6  C   UNL A   1      31.151  23.285  26.335  1.00  0.00     0.251 C 
ATOM      7  O   UNL A   1      30.374  23.438  27.284  1.00  0.00    -0.270 OA
ATOM      8  H   UNL A   1      30.874  21.376  26.559  1.00  0.00     0.163 HD
BRANCH   6   9
ATOM      9  C   UNL A   1      31.765  24.482  25.685  1.00  0.00     0.067 C 
ATOM     10  C   UNL A   1      34.227  29.947  27.211  1.00  0.00     0.044 C 
ATOM     11  C   UNL A   1      33.817  28.831  26.297  1.00  0.00    -0.050 A 
ATOM     12  C   UNL A   1      34.078  28.899  24.921  1.00  0.00     0.010 A 
ATOM     13  C   UNL A   1      33.198  27.689  26.822  1.00  0.00     0.015 A 
ATOM     14  C   UNL A   1      33.717  27.847  24.071  1.00  0.00    -0.008 A 
ATOM     15  C   UNL A   1      32.833  26.630  25.985  1.00  0.00     0.018 A 
ATOM     16  C   UNL A   1      34.006  27.925  22.598  1.00  0.00     0.048 C 
ATOM     17  C   UNL A   1      33.089  26.719  24.616  1.00  0.00     0.130 A 
ATOM     18  C   UNL A   1      32.233  25.419  26.530  1.00  0.00     0.025 C 
ATOM     19  O   UNL A   1      32.795  25.702  23.755  1.00  0.00    -0.475 OA
ATOM     20  C   UNL A   1      31.850  24.697  24.201  1.00  0.00     0.314 C 
BRANCH  20  21
ATOM     21  C   UNL A   1      30.482  24.984  23.557  1.00  0.00     0.429 C 
ATOM     22  F   UNL A   1      29.625  25.498  24.476  1.00  0.00    -0.167 F 
ATOM     23  F   UNL A   1      30.555  25.896  22.560  1.00  0.00    -0.167 F 
ATOM     24  F   UNL A   1      29.906  23.877  23.040  1.00  0.00    -0.167 F 
ENDBRANCH  20  21
ENDBRANCH   6   9
ENDBRANCH   4   5
ENDBRANCH   3   4
ENDBRANCH   2   3
ENDBRANCH   1   2
BRANCH   1  25
ATOM     25  C   UNL A   1      35.372  23.533  25.497  1.00  0.00     0.021 C 
BRANCH  25  26
ATOM     26  C   UNL A   1      36.836  23.916  25.311  1.00  0.00     0.116 C 
BRANCH  26  27
ATOM     27  N   UNL A   1      37.734  22.836  25.680  1.00  0.00    -0.352 N 
ATOM     28  C   UNL A   1      38.950  22.897  26.309  1.00  0.00     0.251 C 
ATOM     29  H   UNL A   1      37.424  21.931  25.445  1.00  0.00     0.163 HD
ATOM     30  O   UNL A   1      39.671  21.905  26.368  1.00  0.00    -0.269 OA
BRANCH  28  31
ATOM     31  C   UNL A   1      39.400  24.170  26.905  1.00  0.00     0.039 A 
ATOM     32  C   UNL A   1      40.079  25.087  26.101  1.00  0.00     0.014 A 
ATOM     33  C   UNL A   1      39.163  24.449  28.254  1.00  0.00     0.014 A 
ATOM     34  C   UNL A   1      40.482  26.309  26.640  1.00  0.00     0.010 A 
ATOM     35  C   UNL A   1      39.504  25.694  28.772  1.00  0.00     0.010 A 
ATOM     36  C   UNL A   1      40.179  26.630  27.975  1.00  0.00    -0.014 A 
BRANCH  36  37
ATOM     37  C   UNL A   1      40.599  27.928  28.554  1.00  0.00     0.031 A 
ATOM     38  C   UNL A   1      42.046  28.175  28.869  1.00  0.00     0.074 A 
ATOM     39  C   UNL A   1      39.675  28.874  28.811  1.00  0.00     0.049 A 
ATOM     40  N   UNL A   1      42.612  29.242  29.370  1.00  0.00    -0.248 NA
ATOM     41  C   UNL A   1      42.981  27.069  28.606  1.00  0.00     0.031 C 
ATOM     42  C   UNL A   1      38.237  28.732  28.585  1.00  0.00     0.029 A 
ATOM     43  N   UNL A   1      39.810  30.143  29.314  1.00  0.00    -0.354 N 
ATOM     44  C   UNL A   1      43.961  28.936  29.481  1.00  0.00     0.074 A 
ATOM     45  C   UNL A   1      44.123  27.564  29.057  1.00  0.00     0.031 C 
ATOM     46  C   UNL A   1      37.626  29.883  28.912  1.00  0.00     0.029 A 
ATOM     47  C   UNL A   1      38.625  30.833  29.394  1.00  0.00     0.049 A 
ATOM     48  H   UNL A   1      40.674  30.524  29.591  1.00  0.00     0.167 HD
ATOM     49  C   UNL A   1      44.979  29.741  29.865  1.00  0.00     0.037 A 
ATOM     50  C   UNL A   1      38.376  32.092  29.801  1.00  0.00     0.037 A 
ATOM     51  C   UNL A   1      44.818  31.115  30.258  1.00  0.00     0.049 A 
ATOM     52  C   UNL A   1      39.523  32.958  30.249  1.00  0.00     0.074 A 
ATOM     53  C   UNL A   1      45.793  32.030  30.608  1.00  0.00     0.029 A 
ATOM     54  N   UNL A   1      43.599  31.770  30.347  1.00  0.00    -0.354 N 
ATOM     55  N   UNL A   1      40.803  32.680  30.284  1.00  0.00    -0.248 NA
ATOM     56  C   UNL A   1      39.191  34.313  30.712  1.00  0.00     0.031 C 
ATOM     57  C   UNL A   1      45.162  33.230  30.948  1.00  0.00     0.029 A 
ATOM     58  C   UNL A   1      43.796  33.073  30.772  1.00  0.00     0.049 A 
ATOM     59  H   UNL A   1      42.724  31.370  30.140  1.00  0.00     0.167 HD
ATOM     60  C   UNL A   1      41.430  33.825  30.756  1.00  0.00     0.074 A 
ATOM     61  C   UNL A   1      40.392  34.809  30.979  1.00  0.00     0.031 C 
ATOM     62  C   UNL A   1      42.748  34.038  30.987  1.00  0.00     0.037 A 
BRANCH  49  63
ATOM     63  C   UNL A   1      46.363  29.164  29.857  1.00  0.00     0.064 A 
ATOM     64  C   UNL A   1      47.173  29.234  28.714  1.00  0.00     0.173 A 
ATOM     65  C   UNL A   1      46.903  28.581  31.012  1.00  0.00     0.173 A 
ATOM     66  F   UNL A   1      46.697  29.771  27.580  1.00  0.00    -0.203 F 
ATOM     67  C   UNL A   1      48.468  28.723  28.721  1.00  0.00     0.198 A 
ATOM     68  C   UNL A   1      48.208  28.096  31.024  1.00  0.00     0.198 A 
ATOM     69  F   UNL A   1      46.170  28.494  32.132  1.00  0.00    -0.203 F 
ATOM     70  F   UNL A   1      49.210  28.767  27.606  1.00  0.00    -0.200 F 
ATOM     71  C   UNL A   1      48.987  28.162  29.878  1.00  0.00     0.200 A 
ATOM     72  F   UNL A   1      48.713  27.563  32.146  1.00  0.00    -0.200 F 
ATOM     73  F   UNL A   1      50.237  27.681  29.888  1.00  0.00    -0.200 F 
ENDBRANCH  49  63
BRANCH  50  74
ATOM     74  C   UNL A   1      36.990  32.621  29.759  1.00  0.00     0.064 A 
ATOM     75  C   UNL A   1      36.132  32.467  30.857  1.00  0.00     0.173 A 
ATOM     76  C   UNL A   1      36.499  33.305  28.638  1.00  0.00     0.173 A 
ATOM     77  F   UNL A   1      36.552  31.802  31.944  1.00  0.00    -0.203 F 
ATOM     78  C   UNL A   1      34.833  32.969  30.832  1.00  0.00     0.198 A 
ATOM     79  C   UNL A   1      35.208  33.827  28.622  1.00  0.00     0.198 A 
ATOM     80  F   UNL A   1      37.281  33.482  27.563  1.00  0.00    -0.203 F 
ATOM     81  F   UNL A   1      34.024  32.781  31.884  1.00  0.00    -0.200 F 
ATOM     82  C   UNL A   1      34.374  33.655  29.718  1.00  0.00     0.200 A 
ATOM     83  F   UNL A   1      34.771  34.501  27.550  1.00  0.00    -0.200 F 
ATOM     84  F   UNL A   1      33.127  34.147  29.698  1.00  0.00    -0.200 F 
ENDBRANCH  50  74
BRANCH  62  85
ATOM     85  C   UNL A   1      43.155  35.385  31.506  1.00  0.00     0.064 A 
ATOM     86  C   UNL A   1      43.164  35.658  32.880  1.00  0.00     0.173 A 
ATOM     87  C   UNL A   1      43.630  36.373  30.631  1.00  0.00     0.173 A 
ATOM     88  F   UNL A   1      42.706  34.748  33.753  1.00  0.00    -0.203 F 
ATOM     89  C   UNL A   1      43.633  36.878  33.361  1.00  0.00     0.198 A 
ATOM     90  C   UNL A   1      44.122  37.580  31.118  1.00  0.00     0.198 A 
ATOM     91  F   UNL A   1      43.648  36.152  29.308  1.00  0.00    -0.203 F 
ATOM     92  F   UNL A   1      43.615  37.127  34.678  1.00  0.00    -0.200 F 
ATOM     93  C   UNL A   1      44.122  37.831  32.482  1.00  0.00     0.200 A 
ATOM     94  F   UNL A   1      44.608  38.495  30.268  1.00  0.00    -0.200 F 
ATOM     95  F   UNL A   1      44.596  38.995  32.948  1.00  0.00    -0.200 F 
ENDBRANCH  62  85
ENDBRANCH  36  37
ENDBRANCH  28  31
ENDBRANCH  26  27
ENDBRANCH  25  26
ENDBRANCH   1  25
TORSDOF 14
ENDMDL
MODEL 3
REMARK VINA RESULT:     -11.9      2.040      3.224
REMARK SMILES Cc1cc(C)c2c(c1)C=C(C(=O)NCCCCCCNC(=O)c1ccc(-c3c4nc(c(-c5c(F)c(F)c(F)c(F)c5F)c5ccc([nH]5)c(-c5c(F)c(F)c(F)c(F)c5F)c5nc(c(-c6c(F)c(F)c(F)c(F)c6F)c6ccc3[nH]6)C=C5)C=C4)cc1)[C@@H](C(F)(F)F)O2
REMARK SMILES IDX 17 1 16 2 15 3 14 4 13 5 11 6 12 7 10 9 1 10 2 11 3 12 8 13
REMARK SMILES IDX 4 14 7 15 5 16 6 17 9 18 91 19 86 20 87 21 88 22 89 23 90 24
REMARK SMILES IDX 18 25 19 26 20 27 21 28 22 30 23 31 24 32 85 33 25 34 84 35
REMARK SMILES IDX 26 36 27 37 28 38 78 39 29 40 83 41 77 42 79 43 30 44 82 45
REMARK SMILES IDX 76 46 75 47 31 49 63 50 43 51 62 52 44 53 47 54 61 55 80 56
REMARK SMILES IDX 45 57 46 58 60 60 81 61 48 62 32 63 33 64 41 65 34 66 35 67
REMARK SMILES IDX 39 68 42 69 36 70 37 71 40 72 38 73 64 74 65 75 73 76 66 77
REMARK SMILES IDX 67 78 71 79 74 80 68 81 69 82 72 83 70 84 49 85 50 86 58 87
REMARK SMILES IDX 51 88 52 89 56 90 59 91 53 92 54 93 57 94 55 95
REMARK H PARENT 13 8 20 29 79 48 47 59
REMARK Flexibility Score: inf
ROOT
ATOM      1  C   UNL A   1      34.850  22.414  23.804  1.00  0.00     0.002 C 
ENDROOT
BRANCH   1   2
ATOM      2  C   UNL A   1      34.160  21.340  24.656  1.00  0.00     0.002 C 
BRANCH   2   3
ATOM      3  C   UNL A   1      32.698  21.055  24.300  1.00  0.00     0.021 C 
BRANCH   3   4
ATOM      4  C   UNL A   1      31.820  22.301  24.234  1.00  0.00     0.116 C 
BRANCH   4   5
ATOM      5  N   UNL A   1      31.129  22.542  25.486  1.00  0.00    -0.352 N 
ATOM      6  C   UNL A   1      30.728  23.615  26.207  1.00  0.00     0.251 C 
ATOM      7  O   UNL A   1      30.126  23.344  27.251  1.00  0.00    -0.270 OA
ATOM      8  H   UNL A   1      30.887  21.699  25.931  1.00  0.00     0.163 HD
BRANCH   6   9
ATOM      9  C   UNL A   1      30.959  25.044  25.838  1.00  0.00     0.067 C 
ATOM     10  C   UNL A   1      28.651  29.389  22.090  1.00  0.00     0.044 C 
ATOM     11  C   UNL A   1      29.546  28.824  23.153  1.00  0.00    -0.050 A 
ATOM     12  C   UNL A   1      30.486  29.635  23.804  1.00  0.00     0.010 A 
ATOM     13  C   UNL A   1      29.420  27.481  23.531  1.00  0.00     0.015 A 
ATOM     14  C   UNL A   1      31.304  29.115  24.814  1.00  0.00    -0.008 A 
ATOM     15  C   UNL A   1      30.230  26.947  24.538  1.00  0.00     0.018 A 
ATOM     16  C   UNL A   1      32.305  29.992  25.510  1.00  0.00     0.048 C 
ATOM     17  C   UNL A   1      31.169  27.765  25.168  1.00  0.00     0.130 A 
ATOM     18  C   UNL A   1      30.073  25.565  24.970  1.00  0.00     0.025 C 
ATOM     19  O   UNL A   1      31.958  27.315  26.186  1.00  0.00    -0.475 OA
ATOM     20  C   UNL A   1      32.102  25.879  26.338  1.00  0.00     0.314 C 
BRANCH  20  21
ATOM     21  C   UNL A   1      33.459  25.454  25.751  1.00  0.00     0.429 C 
ATOM     22  F   UNL A   1      33.338  25.186  24.425  1.00  0.00    -0.167 F 
ATOM     23  F   UNL A   1      34.400  26.421  25.854  1.00  0.00    -0.167 F 
ATOM     24  F   UNL A   1      33.961  24.348  26.343  1.00  0.00    -0.167 F 
ENDBRANCH  20  21
ENDBRANCH   6   9
ENDBRANCH   4   5
ENDBRANCH   3   4
ENDBRANCH   2   3
ENDBRANCH   1   2
BRANCH   1  25
ATOM     25  C   UNL A   1      36.318  22.686  24.144  1.00  0.00     0.021 C 
BRANCH  25  26
ATOM     26  C   UNL A   1      36.671  22.514  25.617  1.00  0.00     0.116 C 
BRANCH  26  27
ATOM     27  N   UNL A   1      37.622  21.437  25.828  1.00  0.00    -0.352 N 
ATOM     28  C   UNL A   1      38.950  21.506  26.158  1.00  0.00     0.251 C 
ATOM     29  H   UNL A   1      37.260  20.528  25.719  1.00  0.00     0.163 HD
ATOM     30  O   UNL A   1      39.658  20.504  26.103  1.00  0.00    -0.269 OA
BRANCH  28  31
ATOM     31  C   UNL A   1      39.535  22.798  26.565  1.00  0.00     0.039 A 
ATOM     32  C   UNL A   1      40.443  22.822  27.625  1.00  0.00     0.014 A 
ATOM     33  C   UNL A   1      39.178  23.981  25.910  1.00  0.00     0.014 A 
ATOM     34  C   UNL A   1      41.030  24.031  28.001  1.00  0.00     0.010 A 
ATOM     35  C   UNL A   1      39.815  25.173  26.241  1.00  0.00     0.010 A 
ATOM     36  C   UNL A   1      40.736  25.212  27.298  1.00  0.00    -0.014 A 
BRANCH  36  37
ATOM     37  C   UNL A   1      41.360  26.498  27.687  1.00  0.00     0.031 A 
ATOM     38  C   UNL A   1      42.784  26.786  27.304  1.00  0.00     0.074 A 
ATOM     39  C   UNL A   1      40.653  27.396  28.398  1.00  0.00     0.049 A 
ATOM     40  N   UNL A   1      43.505  27.850  27.543  1.00  0.00    -0.248 NA
ATOM     41  C   UNL A   1      43.501  25.728  26.572  1.00  0.00     0.031 C 
ATOM     42  C   UNL A   1      39.278  27.210  28.863  1.00  0.00     0.029 A 
ATOM     43  N   UNL A   1      40.991  28.646  28.852  1.00  0.00    -0.354 N 
ATOM     44  C   UNL A   1      44.753  27.591  26.993  1.00  0.00     0.074 A 
ATOM     45  C   UNL A   1      44.715  26.246  26.466  1.00  0.00     0.031 C 
ATOM     46  C   UNL A   1      38.877  28.321  29.502  1.00  0.00     0.029 A 
ATOM     47  C   UNL A   1      39.973  29.286  29.514  1.00  0.00     0.049 A 
ATOM     48  H   UNL A   1      41.880  29.047  28.715  1.00  0.00     0.167 HD
ATOM     49  C   UNL A   1      45.822  28.416  26.903  1.00  0.00     0.037 A 
ATOM     50  C   UNL A   1      39.928  30.516  30.062  1.00  0.00     0.037 A 
ATOM     51  C   UNL A   1      45.845  29.764  27.403  1.00  0.00     0.049 A 
ATOM     52  C   UNL A   1      41.140  31.404  29.971  1.00  0.00     0.074 A 
ATOM     53  C   UNL A   1      46.860  30.699  27.309  1.00  0.00     0.029 A 
ATOM     54  N   UNL A   1      44.802  30.368  28.088  1.00  0.00    -0.354 N 
ATOM     55  N   UNL A   1      42.290  31.173  29.389  1.00  0.00    -0.248 NA
ATOM     56  C   UNL A   1      41.046  32.723  30.613  1.00  0.00     0.031 C 
ATOM     57  C   UNL A   1      46.446  31.858  27.972  1.00  0.00     0.029 A 
ATOM     58  C   UNL A   1      45.159  31.657  28.445  1.00  0.00     0.049 A 
ATOM     59  H   UNL A   1      43.937  29.944  28.290  1.00  0.00     0.167 HD
ATOM     60  C   UNL A   1      43.051  32.319  29.578  1.00  0.00     0.074 A 
ATOM     61  C   UNL A   1      42.225  33.252  30.316  1.00  0.00     0.031 C 
ATOM     62  C   UNL A   1      44.321  32.571  29.179  1.00  0.00     0.037 A 
BRANCH  49  63
ATOM     63  C   UNL A   1      47.048  27.893  26.217  1.00  0.00     0.064 A 
ATOM     64  C   UNL A   1      48.133  27.390  26.949  1.00  0.00     0.173 A 
ATOM     65  C   UNL A   1      47.120  27.848  24.817  1.00  0.00     0.173 A 
ATOM     66  F   UNL A   1      48.116  27.423  28.290  1.00  0.00    -0.203 F 
ATOM     67  C   UNL A   1      49.256  26.877  26.305  1.00  0.00     0.198 A 
ATOM     68  C   UNL A   1      48.234  27.310  24.176  1.00  0.00     0.198 A 
ATOM     69  F   UNL A   1      46.108  28.313  24.071  1.00  0.00    -0.203 F 
ATOM     70  F   UNL A   1      50.297  26.437  27.026  1.00  0.00    -0.200 F 
ATOM     71  C   UNL A   1      49.302  26.831  24.920  1.00  0.00     0.200 A 
ATOM     72  F   UNL A   1      48.274  27.255  22.837  1.00  0.00    -0.200 F 
ATOM     73  F   UNL A   1      50.379  26.328  24.301  1.00  0.00    -0.200 F 
ENDBRANCH  49  63
BRANCH  50  74
ATOM     74  C   UNL A   1      38.676  30.993  30.702  1.00  0.00     0.064 A 
ATOM     75  C   UNL A   1      37.639  31.531  29.930  1.00  0.00     0.173 A 
ATOM     76  C   UNL A   1      38.481  30.905  32.088  1.00  0.00     0.173 A 
ATOM     77  F   UNL A   1      37.788  31.654  28.602  1.00  0.00    -0.203 F 
ATOM     78  C   UNL A   1      36.456  31.971  30.518  1.00  0.00     0.198 A 
ATOM     79  C   UNL A   1      37.288  31.323  32.674  1.00  0.00     0.198 A 
ATOM     80  F   UNL A   1      39.442  30.393  32.871  1.00  0.00    -0.203 F 
ATOM     81  F   UNL A   1      35.492  32.510  29.760  1.00  0.00    -0.200 F 
ATOM     82  C   UNL A   1      36.278  31.861  31.890  1.00  0.00     0.200 A 
ATOM     83  F   UNL A   1      37.115  31.203  33.997  1.00  0.00    -0.200 F 
ATOM     84  F   UNL A   1      35.136  32.275  32.455  1.00  0.00    -0.200 F 
ENDBRANCH  50  74
BRANCH  62  85
ATOM     85  C   UNL A   1      44.906  33.908  29.524  1.00  0.00     0.064 A 
ATOM     86  C   UNL A   1      45.655  34.089  30.694  1.00  0.00     0.173 A 
ATOM     87  C   UNL A   1      44.799  34.985  28.632  1.00  0.00     0.173 A 
ATOM     88  F   UNL A   1      45.774  33.091  31.582  1.00  0.00    -0.203 F 
ATOM     89  C   UNL A   1      46.276  35.307  30.961  1.00  0.00     0.198 A 
ATOM     90  C   UNL A   1      45.442  36.192  28.891  1.00  0.00     0.198 A 
ATOM     91  F   UNL A   1      44.098  34.855  27.496  1.00  0.00    -0.203 F 
ATOM     92  F   UNL A   1      46.972  35.467  32.095  1.00  0.00    -0.200 F 
ATOM     93  C   UNL A   1      46.179  36.352  30.055  1.00  0.00     0.200 A 
ATOM     94  F   UNL A   1      45.359  37.196  28.007  1.00  0.00    -0.200 F 
ATOM     95  F   UNL A   1      46.797  37.515  30.302  1.00  0.00    -0.200 F 
ENDBRANCH  62  85
ENDBRANCH  36  37
ENDBRANCH  28  31
ENDBRANCH  26  27
ENDBRANCH  25  26
ENDBRANCH   1  25
TORSDOF 14
ENDMDL
