MODEL 1
REMARK VINA RESULT:     -11.4      0.000      0.000
REMARK SMILES C[C@@H](OC[C@@H]1CCCCO1)c1ccc(C(=O)NCCCCCCNC(=O)c2ccc(-c3c4nc(c(-c5c(F)c(F)c(F)c(F)c5F)c5ccc([nH]5)c(-c5c(F)c(F)c(F)c(F)c5F)c5nc(c(-c6c(F)c(F)c(F)c(F)c6F)c6ccc3[nH]6)C=C5)C=C4)cc2)o1
REMARK SMILES IDX 19 1 18 2 17 3 15 4 16 5 14 7 11 8 12 9 90 10 13 11 2 12
REMARK SMILES IDX 1 13 3 14 4 15 5 16 6 17 10 18 7 19 9 20 8 21 20 22 21 23
REMARK SMILES IDX 22 24 23 25 24 26 25 27 26 29 27 30 28 31 89 32 29 33 88 34
REMARK SMILES IDX 30 35 31 36 32 37 82 38 33 39 87 40 81 41 83 42 34 43 86 44
REMARK SMILES IDX 80 45 79 46 35 48 67 49 47 50 66 51 48 52 51 53 65 54 84 55
REMARK SMILES IDX 49 56 50 57 64 59 85 60 52 61 36 62 37 63 45 64 38 65 39 66
REMARK SMILES IDX 43 67 46 68 40 69 41 70 44 71 42 72 68 73 69 74 77 75 70 76
REMARK SMILES IDX 71 77 75 78 78 79 72 80 73 81 76 82 74 83 53 84 54 85 62 86
REMARK SMILES IDX 55 87 56 88 60 89 63 90 57 91 58 92 61 93 59 94
REMARK H PARENT 17 6 24 28 83 47 51 58
REMARK Flexibility Score: inf
ROOT
ATOM      1  C   UNL A   1      33.437  29.312  25.913  1.00  0.00     0.021 C 
ENDROOT
BRANCH   1   2
ATOM      2  C   UNL A   1      32.643  29.332  24.605  1.00  0.00     0.116 C 
BRANCH   2   3
ATOM      3  N   UNL A   1      33.513  29.182  23.456  1.00  0.00    -0.349 N 
ATOM      4  C   UNL A   1      33.656  28.152  22.553  1.00  0.00     0.286 C 
ATOM      5  O   UNL A   1      34.416  28.381  21.607  1.00  0.00    -0.266 OA
ATOM      6  H   UNL A   1      34.106  29.952  23.292  1.00  0.00     0.163 HD
BRANCH   4   7
ATOM      7  C   UNL A   1      32.948  26.891  22.715  1.00  0.00     0.191 A 
ATOM      8  C   UNL A   1      32.846  24.663  22.692  1.00  0.00     0.133 A 
ATOM      9  C   UNL A   1      31.588  25.115  23.031  1.00  0.00     0.049 A 
ATOM     10  O   UNL A   1      33.674  25.739  22.524  1.00  0.00    -0.453 OA
ATOM     11  C   UNL A   1      31.660  26.530  23.070  1.00  0.00     0.056 A 
BRANCH   8  12
ATOM     12  C   UNL A   1      33.439  23.287  22.535  1.00  0.00     0.181 C 
ATOM     13  C   UNL A   1      34.788  23.174  23.240  1.00  0.00     0.047 C 
BRANCH  12  14
ATOM     14  O   UNL A   1      32.493  22.368  23.081  1.00  0.00    -0.368 OA
BRANCH  14  15
ATOM     15  C   UNL A   1      32.995  21.343  23.925  1.00  0.00     0.193 C 
BRANCH  15  16
ATOM     16  C   UNL A   1      32.402  21.260  25.354  1.00  0.00     0.144 C 
ATOM     17  C   UNL A   1      31.834  22.532  25.986  1.00  0.00     0.034 C 
ATOM     18  O   UNL A   1      33.345  20.656  26.265  1.00  0.00    -0.376 OA
ATOM     19  C   UNL A   1      32.930  23.512  26.369  1.00  0.00     0.005 C 
ATOM     20  C   UNL A   1      34.427  21.517  26.638  1.00  0.00     0.160 C 
ATOM     21  C   UNL A   1      33.942  22.817  27.266  1.00  0.00     0.029 C 
ENDBRANCH  15  16
ENDBRANCH  14  15
ENDBRANCH  12  14
ENDBRANCH   8  12
ENDBRANCH   4   7
ENDBRANCH   2   3
ENDBRANCH   1   2
BRANCH   1  22
ATOM     22  C   UNL A   1      32.753  30.063  27.065  1.00  0.00     0.002 C 
BRANCH  22  23
ATOM     23  C   UNL A   1      31.408  30.718  26.717  1.00  0.00     0.002 C 
BRANCH  23  24
ATOM     24  C   UNL A   1      31.418  32.247  26.643  1.00  0.00     0.021 C 
BRANCH  24  25
ATOM     25  C   UNL A   1      32.674  32.905  27.208  1.00  0.00     0.116 C 
BRANCH  25  26
ATOM     26  N   UNL A   1      32.433  34.281  27.617  1.00  0.00    -0.352 N 
ATOM     27  C   UNL A   1      33.006  34.999  28.635  1.00  0.00     0.251 C 
ATOM     28  H   UNL A   1      31.761  34.767  27.086  1.00  0.00     0.163 HD
ATOM     29  O   UNL A   1      32.543  36.087  28.966  1.00  0.00    -0.269 OA
BRANCH  27  30
ATOM     30  C   UNL A   1      34.179  34.455  29.352  1.00  0.00     0.039 A 
ATOM     31  C   UNL A   1      33.978  33.735  30.534  1.00  0.00     0.014 A 
ATOM     32  C   UNL A   1      35.473  34.671  28.871  1.00  0.00     0.014 A 
ATOM     33  C   UNL A   1      35.072  33.176  31.198  1.00  0.00     0.010 A 
ATOM     34  C   UNL A   1      36.556  34.063  29.500  1.00  0.00     0.010 A 
ATOM     35  C   UNL A   1      36.367  33.310  30.669  1.00  0.00    -0.014 A 
BRANCH  35  36
ATOM     36  C   UNL A   1      37.537  32.672  31.322  1.00  0.00     0.031 A 
ATOM     37  C   UNL A   1      38.251  31.536  30.648  1.00  0.00     0.074 A 
ATOM     38  C   UNL A   1      37.906  33.065  32.556  1.00  0.00     0.049 A 
ATOM     39  N   UNL A   1      39.231  30.790  31.093  1.00  0.00    -0.248 NA
ATOM     40  C   UNL A   1      37.782  31.170  29.302  1.00  0.00     0.031 C 
ATOM     41  C   UNL A   1      37.263  34.126  33.334  1.00  0.00     0.029 A 
ATOM     42  N   UNL A   1      38.904  32.608  33.381  1.00  0.00    -0.354 N 
ATOM     43  C   UNL A   1      39.481  29.859  30.094  1.00  0.00     0.074 A 
ATOM     44  C   UNL A   1      38.522  30.102  29.039  1.00  0.00     0.031 C 
ATOM     45  C   UNL A   1      37.891  34.248  34.514  1.00  0.00     0.029 A 
ATOM     46  C   UNL A   1      38.957  33.253  34.592  1.00  0.00     0.049 A 
ATOM     47  H   UNL A   1      39.523  31.885  33.128  1.00  0.00     0.167 HD
ATOM     48  C   UNL A   1      40.438  28.902  30.054  1.00  0.00     0.037 A 
ATOM     49  C   UNL A   1      39.770  33.059  35.648  1.00  0.00     0.037 A 
ATOM     50  C   UNL A   1      41.411  28.684  31.093  1.00  0.00     0.049 A 
ATOM     51  C   UNL A   1      40.832  31.996  35.573  1.00  0.00     0.074 A 
ATOM     52  C   UNL A   1      42.459  27.781  31.119  1.00  0.00     0.029 A 
ATOM     53  N   UNL A   1      41.454  29.382  32.290  1.00  0.00    -0.354 N 
ATOM     54  N   UNL A   1      41.099  31.163  34.598  1.00  0.00    -0.248 NA
ATOM     55  C   UNL A   1      41.708  31.851  36.743  1.00  0.00     0.031 C 
ATOM     56  C   UNL A   1      43.114  27.906  32.348  1.00  0.00     0.029 A 
ATOM     57  C   UNL A   1      42.502  28.918  33.070  1.00  0.00     0.049 A 
ATOM     58  H   UNL A   1      40.832  30.101  32.549  1.00  0.00     0.167 HD
ATOM     59  C   UNL A   1      42.192  30.418  35.021  1.00  0.00     0.074 A 
ATOM     60  C   UNL A   1      42.542  30.903  36.339  1.00  0.00     0.031 C 
ATOM     61  C   UNL A   1      42.846  29.423  34.374  1.00  0.00     0.037 A 
BRANCH  48  62
ATOM     62  C   UNL A   1      40.483  28.017  28.843  1.00  0.00     0.064 A 
ATOM     63  C   UNL A   1      41.252  28.351  27.717  1.00  0.00     0.173 A 
ATOM     64  C   UNL A   1      39.778  26.803  28.819  1.00  0.00     0.173 A 
ATOM     65  F   UNL A   1      41.935  29.505  27.685  1.00  0.00    -0.203 F 
ATOM     66  C   UNL A   1      41.289  27.518  26.602  1.00  0.00     0.198 A 
ATOM     67  C   UNL A   1      39.842  25.960  27.715  1.00  0.00     0.198 A 
ATOM     68  F   UNL A   1      39.034  26.434  29.872  1.00  0.00    -0.203 F 
ATOM     69  F   UNL A   1      41.991  27.882  25.519  1.00  0.00    -0.200 F 
ATOM     70  C   UNL A   1      40.590  26.321  26.604  1.00  0.00     0.200 A 
ATOM     71  F   UNL A   1      39.174  24.797  27.722  1.00  0.00    -0.200 F 
ATOM     72  F   UNL A   1      40.631  25.517  25.532  1.00  0.00    -0.200 F 
ENDBRANCH  48  62
BRANCH  49  73
ATOM     73  C   UNL A   1      39.630  33.914  36.855  1.00  0.00     0.064 A 
ATOM     74  C   UNL A   1      40.282  35.153  36.934  1.00  0.00     0.173 A 
ATOM     75  C   UNL A   1      38.844  33.517  37.945  1.00  0.00     0.173 A 
ATOM     76  F   UNL A   1      41.062  35.565  35.924  1.00  0.00    -0.203 F 
ATOM     77  C   UNL A   1      40.166  35.955  38.068  1.00  0.00     0.198 A 
ATOM     78  C   UNL A   1      38.707  34.332  39.067  1.00  0.00     0.198 A 
ATOM     79  F   UNL A   1      38.196  32.344  37.915  1.00  0.00    -0.203 F 
ATOM     80  F   UNL A   1      40.831  37.116  38.135  1.00  0.00    -0.200 F 
ATOM     81  C   UNL A   1      39.374  35.546  39.131  1.00  0.00     0.200 A 
ATOM     82  F   UNL A   1      37.931  33.940  40.086  1.00  0.00    -0.200 F 
ATOM     83  F   UNL A   1      39.258  36.320  40.219  1.00  0.00    -0.200 F 
ENDBRANCH  49  73
BRANCH  61  84
ATOM     84  C   UNL A   1      44.034  28.819  35.062  1.00  0.00     0.064 A 
ATOM     85  C   UNL A   1      45.323  29.348  34.902  1.00  0.00     0.173 A 
ATOM     86  C   UNL A   1      43.871  27.730  35.931  1.00  0.00     0.173 A 
ATOM     87  F   UNL A   1      45.531  30.379  34.070  1.00  0.00    -0.203 F 
ATOM     88  C   UNL A   1      46.410  28.794  35.575  1.00  0.00     0.198 A 
ATOM     89  C   UNL A   1      44.955  27.197  36.622  1.00  0.00     0.198 A 
ATOM     90  F   UNL A   1      42.656  27.193  36.121  1.00  0.00    -0.203 F 
ATOM     91  F   UNL A   1      47.639  29.290  35.379  1.00  0.00    -0.200 F 
ATOM     92  C   UNL A   1      46.223  27.726  36.439  1.00  0.00     0.200 A 
ATOM     93  F   UNL A   1      44.771  26.172  37.467  1.00  0.00    -0.200 F 
ATOM     94  F   UNL A   1      47.269  27.203  37.093  1.00  0.00    -0.200 F 
ENDBRANCH  61  84
ENDBRANCH  35  36
ENDBRANCH  27  30
ENDBRANCH  25  26
ENDBRANCH  24  25
ENDBRANCH  23  24
ENDBRANCH  22  23
ENDBRANCH   1  22
TORSDOF 17
ENDMDL
MODEL 2
REMARK VINA RESULT:     -11.3      1.086      2.161
REMARK SMILES C[C@@H](OC[C@@H]1CCCCO1)c1ccc(C(=O)NCCCCCCNC(=O)c2ccc(-c3c4nc(c(-c5c(F)c(F)c(F)c(F)c5F)c5ccc([nH]5)c(-c5c(F)c(F)c(F)c(F)c5F)c5nc(c(-c6c(F)c(F)c(F)c(F)c6F)c6ccc3[nH]6)C=C5)C=C4)cc2)o1
REMARK SMILES IDX 19 1 18 2 17 3 15 4 16 5 14 7 11 8 12 9 90 10 13 11 2 12
REMARK SMILES IDX 1 13 3 14 4 15 5 16 6 17 10 18 7 19 9 20 8 21 20 22 21 23
REMARK SMILES IDX 22 24 23 25 24 26 25 27 26 29 27 30 28 31 89 32 29 33 88 34
REMARK SMILES IDX 30 35 31 36 32 37 82 38 33 39 87 40 81 41 83 42 34 43 86 44
REMARK SMILES IDX 80 45 79 46 35 48 67 49 47 50 66 51 48 52 51 53 65 54 84 55
REMARK SMILES IDX 49 56 50 57 64 59 85 60 52 61 36 62 37 63 45 64 38 65 39 66
REMARK SMILES IDX 43 67 46 68 40 69 41 70 44 71 42 72 68 73 69 74 77 75 70 76
REMARK SMILES IDX 71 77 75 78 78 79 72 80 73 81 76 82 74 83 53 84 54 85 62 86
REMARK SMILES IDX 55 87 56 88 60 89 63 90 57 91 58 92 61 93 59 94
REMARK H PARENT 17 6 24 28 83 47 51 58
REMARK Flexibility Score: inf
ROOT
ATOM      1  C   UNL A   1      33.095  29.030  25.344  1.00  0.00     0.021 C 
ENDROOT
BRANCH   1   2
ATOM      2  C   UNL A   1      33.356  28.212  26.611  1.00  0.00     0.116 C 
BRANCH   2   3
ATOM      3  N   UNL A   1      32.312  27.231  26.830  1.00  0.00    -0.349 N 
ATOM      4  C   UNL A   1      32.071  26.013  26.235  1.00  0.00     0.286 C 
ATOM      5  O   UNL A   1      31.151  25.355  26.731  1.00  0.00    -0.266 OA
ATOM      6  H   UNL A   1      31.662  27.478  27.528  1.00  0.00     0.163 HD
BRANCH   4   7
ATOM      7  C   UNL A   1      32.859  25.547  25.103  1.00  0.00     0.191 A 
ATOM      8  C   UNL A   1      34.592  24.461  24.213  1.00  0.00     0.133 A 
ATOM      9  C   UNL A   1      33.866  24.982  23.162  1.00  0.00     0.049 A 
ATOM     10  O   UNL A   1      33.968  24.785  25.386  1.00  0.00    -0.453 OA
ATOM     11  C   UNL A   1      32.752  25.649  23.727  1.00  0.00     0.056 A 
BRANCH   8  12
ATOM     12  C   UNL A   1      35.837  23.616  24.287  1.00  0.00     0.181 C 
ATOM     13  C   UNL A   1      36.519  23.741  25.647  1.00  0.00     0.047 C 
BRANCH  12  14
ATOM     14  O   UNL A   1      35.434  22.270  24.034  1.00  0.00    -0.368 OA
BRANCH  14  15
ATOM     15  C   UNL A   1      35.439  21.372  25.134  1.00  0.00     0.193 C 
BRANCH  15  16
ATOM     16  C   UNL A   1      34.194  20.465  25.301  1.00  0.00     0.144 C 
ATOM     17  C   UNL A   1      33.168  20.414  24.168  1.00  0.00     0.034 C 
ATOM     18  O   UNL A   1      33.516  20.750  26.544  1.00  0.00    -0.376 OA
ATOM     19  C   UNL A   1      32.366  21.700  24.071  1.00  0.00     0.005 C 
ATOM     20  C   UNL A   1      32.769  21.972  26.533  1.00  0.00     0.160 C 
ATOM     21  C   UNL A   1      31.731  22.005  25.419  1.00  0.00     0.029 C 
ENDBRANCH  15  16
ENDBRANCH  14  15
ENDBRANCH  12  14
ENDBRANCH   8  12
ENDBRANCH   4   7
ENDBRANCH   2   3
ENDBRANCH   1   2
BRANCH   1  22
ATOM     22  C   UNL A   1      31.868  29.950  25.443  1.00  0.00     0.002 C 
BRANCH  22  23
ATOM     23  C   UNL A   1      31.652  30.614  26.810  1.00  0.00     0.002 C 
BRANCH  23  24
ATOM     24  C   UNL A   1      31.505  32.138  26.787  1.00  0.00     0.021 C 
BRANCH  24  25
ATOM     25  C   UNL A   1      32.775  32.907  27.140  1.00  0.00     0.116 C 
BRANCH  25  26
ATOM     26  N   UNL A   1      32.488  34.263  27.585  1.00  0.00    -0.352 N 
ATOM     27  C   UNL A   1      33.010  34.958  28.645  1.00  0.00     0.251 C 
ATOM     28  H   UNL A   1      31.823  34.751  27.048  1.00  0.00     0.163 HD
ATOM     29  O   UNL A   1      32.510  36.024  28.996  1.00  0.00    -0.269 OA
BRANCH  27  30
ATOM     30  C   UNL A   1      34.172  34.419  29.383  1.00  0.00     0.039 A 
ATOM     31  C   UNL A   1      33.953  33.707  30.567  1.00  0.00     0.014 A 
ATOM     32  C   UNL A   1      35.473  34.628  28.919  1.00  0.00     0.014 A 
ATOM     33  C   UNL A   1      35.036  33.152  31.251  1.00  0.00     0.010 A 
ATOM     34  C   UNL A   1      36.546  34.023  29.567  1.00  0.00     0.010 A 
ATOM     35  C   UNL A   1      36.338  33.280  30.739  1.00  0.00    -0.014 A 
BRANCH  35  36
ATOM     36  C   UNL A   1      37.498  32.644  31.414  1.00  0.00     0.031 A 
ATOM     37  C   UNL A   1      38.209  31.491  30.766  1.00  0.00     0.074 A 
ATOM     38  C   UNL A   1      37.860  33.058  32.644  1.00  0.00     0.049 A 
ATOM     39  N   UNL A   1      39.179  30.746  31.234  1.00  0.00    -0.248 NA
ATOM     40  C   UNL A   1      37.748  31.104  29.423  1.00  0.00     0.031 C 
ATOM     41  C   UNL A   1      37.219  34.137  33.396  1.00  0.00     0.029 A 
ATOM     42  N   UNL A   1      38.848  32.607  33.485  1.00  0.00    -0.354 N 
ATOM     43  C   UNL A   1      39.430  29.795  30.254  1.00  0.00     0.074 A 
ATOM     44  C   UNL A   1      38.482  30.026  29.187  1.00  0.00     0.031 C 
ATOM     45  C   UNL A   1      37.838  34.276  34.579  1.00  0.00     0.029 A 
ATOM     46  C   UNL A   1      38.895  33.274  34.684  1.00  0.00     0.049 A 
ATOM     47  H   UNL A   1      39.463  31.875  33.250  1.00  0.00     0.167 HD
ATOM     48  C   UNL A   1      40.380  28.830  30.239  1.00  0.00     0.037 A 
ATOM     49  C   UNL A   1      39.699  33.094  35.750  1.00  0.00     0.037 A 
ATOM     50  C   UNL A   1      41.343  28.623  31.290  1.00  0.00     0.049 A 
ATOM     51  C   UNL A   1      40.752  32.022  35.704  1.00  0.00     0.074 A 
ATOM     52  C   UNL A   1      42.382  27.713  31.341  1.00  0.00     0.029 A 
ATOM     53  N   UNL A   1      41.381  29.343  32.475  1.00  0.00    -0.354 N 
ATOM     54  N   UNL A   1      41.021  31.169  34.746  1.00  0.00    -0.248 NA
ATOM     55  C   UNL A   1      41.618  31.891  36.884  1.00  0.00     0.031 C 
ATOM     56  C   UNL A   1      43.029  27.855  32.573  1.00  0.00     0.029 A 
ATOM     57  C   UNL A   1      42.418  28.885  33.272  1.00  0.00     0.049 A 
ATOM     58  H   UNL A   1      40.763  30.071  32.715  1.00  0.00     0.167 HD
ATOM     59  C   UNL A   1      42.104  30.423  35.192  1.00  0.00     0.074 A 
ATOM     60  C   UNL A   1      42.447  30.930  36.504  1.00  0.00     0.031 C 
ATOM     61  C   UNL A   1      42.756  29.411  34.569  1.00  0.00     0.037 A 
BRANCH  48  62
ATOM     62  C   UNL A   1      40.428  27.922  29.045  1.00  0.00     0.064 A 
ATOM     63  C   UNL A   1      39.658  26.751  28.980  1.00  0.00     0.173 A 
ATOM     64  C   UNL A   1      41.226  28.245  27.936  1.00  0.00     0.173 A 
ATOM     65  F   UNL A   1      38.887  26.392  30.018  1.00  0.00    -0.203 F 
ATOM     66  C   UNL A   1      39.709  25.921  27.863  1.00  0.00     0.198 A 
ATOM     67  C   UNL A   1      41.251  27.427  26.810  1.00  0.00     0.198 A 
ATOM     68  F   UNL A   1      41.977  29.356  27.943  1.00  0.00    -0.203 F 
ATOM     69  F   UNL A   1      39.002  24.782  27.845  1.00  0.00    -0.200 F 
ATOM     70  C   UNL A   1      40.499  26.263  26.777  1.00  0.00     0.200 A 
ATOM     71  F   UNL A   1      42.007  27.765  25.756  1.00  0.00    -0.200 F 
ATOM     72  F   UNL A   1      40.542  25.466  25.701  1.00  0.00    -0.200 F 
ENDBRANCH  48  62
BRANCH  49  73
ATOM     73  C   UNL A   1      39.556  33.972  36.940  1.00  0.00     0.064 A 
ATOM     74  C   UNL A   1      38.789  33.566  38.041  1.00  0.00     0.173 A 
ATOM     75  C   UNL A   1      40.181  35.225  37.004  1.00  0.00     0.173 A 
ATOM     76  F   UNL A   1      38.155  32.385  38.017  1.00  0.00    -0.203 F 
ATOM     77  C   UNL A   1      38.639  34.390  39.156  1.00  0.00     0.198 A 
ATOM     78  C   UNL A   1      40.053  36.035  38.130  1.00  0.00     0.198 A 
ATOM     79  F   UNL A   1      40.930  35.656  35.979  1.00  0.00    -0.203 F 
ATOM     80  F   UNL A   1      37.869  33.994  40.178  1.00  0.00    -0.200 F 
ATOM     81  C   UNL A   1      39.276  35.621  39.202  1.00  0.00     0.200 A 
ATOM     82  F   UNL A   1      40.680  37.219  38.176  1.00  0.00    -0.200 F 
ATOM     83  F   UNL A   1      39.137  36.410  40.276  1.00  0.00    -0.200 F 
ENDBRANCH  49  73
BRANCH  61  84
ATOM     84  C   UNL A   1      43.933  28.811  35.277  1.00  0.00     0.064 A 
ATOM     85  C   UNL A   1      45.234  29.300  35.086  1.00  0.00     0.173 A 
ATOM     86  C   UNL A   1      43.749  27.768  36.199  1.00  0.00     0.173 A 
ATOM     87  F   UNL A   1      45.461  30.284  34.205  1.00  0.00    -0.203 F 
ATOM     88  C   UNL A   1      46.311  28.751  35.778  1.00  0.00     0.198 A 
ATOM     89  C   UNL A   1      44.824  27.241  36.907  1.00  0.00     0.198 A 
ATOM     90  F   UNL A   1      42.523  27.272  36.421  1.00  0.00    -0.203 F 
ATOM     91  F   UNL A   1      47.551  29.206  35.551  1.00  0.00    -0.200 F 
ATOM     92  C   UNL A   1      46.105  27.729  36.693  1.00  0.00     0.200 A 
ATOM     93  F   UNL A   1      44.622  26.263  37.801  1.00  0.00    -0.200 F 
ATOM     94  F   UNL A   1      47.141  27.211  37.364  1.00  0.00    -0.200 F 
ENDBRANCH  61  84
ENDBRANCH  35  36
ENDBRANCH  27  30
ENDBRANCH  25  26
ENDBRANCH  24  25
ENDBRANCH  23  24
ENDBRANCH  22  23
ENDBRANCH   1  22
TORSDOF 17
ENDMDL
MODEL 3
REMARK VINA RESULT:     -11.3      5.405     10.981
REMARK SMILES C[C@@H](OC[C@@H]1CCCCO1)c1ccc(C(=O)NCCCCCCNC(=O)c2ccc(-c3c4nc(c(-c5c(F)c(F)c(F)c(F)c5F)c5ccc([nH]5)c(-c5c(F)c(F)c(F)c(F)c5F)c5nc(c(-c6c(F)c(F)c(F)c(F)c6F)c6ccc3[nH]6)C=C5)C=C4)cc2)o1
REMARK SMILES IDX 19 1 18 2 17 3 15 4 16 5 14 7 11 8 12 9 90 10 13 11 2 12
REMARK SMILES IDX 1 13 3 14 4 15 5 16 6 17 10 18 7 19 9 20 8 21 20 22 21 23
REMARK SMILES IDX 22 24 23 25 24 26 25 27 26 29 27 30 28 31 89 32 29 33 88 34
REMARK SMILES IDX 30 35 31 36 32 37 82 38 33 39 87 40 81 41 83 42 34 43 86 44
REMARK SMILES IDX 80 45 79 46 35 48 67 49 47 50 66 51 48 52 51 53 65 54 84 55
REMARK SMILES IDX 49 56 50 57 64 59 85 60 52 61 36 62 37 63 45 64 38 65 39 66
REMARK SMILES IDX 43 67 46 68 40 69 41 70 44 71 42 72 68 73 69 74 77 75 70 76
REMARK SMILES IDX 71 77 75 78 78 79 72 80 73 81 76 82 74 83 53 84 54 85 62 86
REMARK SMILES IDX 55 87 56 88 60 89 63 90 57 91 58 92 61 93 59 94
REMARK H PARENT 17 6 24 28 83 47 51 58
REMARK Flexibility Score: inf
ROOT
ATOM      1  C   UNL A   1      36.186  23.187  24.182  1.00  0.00     0.021 C 
ENDROOT
BRANCH   1   2
ATOM      2  C   UNL A   1      35.285  23.961  25.147  1.00  0.00     0.116 C 
BRANCH   2   3
ATOM      3  N   UNL A   1      33.996  23.318  25.299  1.00  0.00    -0.349 N 
ATOM      4  C   UNL A   1      32.828  23.445  24.580  1.00  0.00     0.286 C 
ATOM      5  O   UNL A   1      31.925  22.663  24.895  1.00  0.00    -0.266 OA
ATOM      6  H   UNL A   1      33.946  22.678  26.045  1.00  0.00     0.163 HD
BRANCH   4   7
ATOM      7  C   UNL A   1      32.686  24.434  23.522  1.00  0.00     0.191 A 
ATOM      8  C   UNL A   1      31.679  26.182  22.570  1.00  0.00     0.133 A 
ATOM      9  C   UNL A   1      32.717  25.819  21.737  1.00  0.00     0.049 A 
ATOM     10  O   UNL A   1      31.677  25.357  23.661  1.00  0.00    -0.453 OA
ATOM     11  C   UNL A   1      33.372  24.725  22.355  1.00  0.00     0.056 A 
BRANCH   8  12
ATOM     12  C   UNL A   1      30.652  27.282  22.516  1.00  0.00     0.181 C 
ATOM     13  C   UNL A   1      29.574  27.096  23.581  1.00  0.00     0.047 C 
BRANCH  12  14
ATOM     14  O   UNL A   1      31.356  28.510  22.704  1.00  0.00    -0.368 OA
BRANCH  14  15
ATOM     15  C   UNL A   1      31.421  29.027  24.025  1.00  0.00     0.193 C 
BRANCH  15  16
ATOM     16  C   UNL A   1      32.832  29.323  24.592  1.00  0.00     0.144 C 
ATOM     17  C   UNL A   1      33.782  28.151  24.839  1.00  0.00     0.034 C 
ATOM     18  O   UNL A   1      32.744  30.126  25.789  1.00  0.00    -0.376 OA
ATOM     19  C   UNL A   1      33.349  27.312  26.030  1.00  0.00     0.005 C 
ATOM     20  C   UNL A   1      32.304  29.402  26.944  1.00  0.00     0.160 C 
ATOM     21  C   UNL A   1      33.194  28.206  27.251  1.00  0.00     0.029 C 
ENDBRANCH  15  16
ENDBRANCH  14  15
ENDBRANCH  12  14
ENDBRANCH   8  12
ENDBRANCH   4   7
ENDBRANCH   2   3
ENDBRANCH   1   2
BRANCH   1  22
ATOM     22  C   UNL A   1      37.140  22.205  24.878  1.00  0.00     0.002 C 
BRANCH  22  23
ATOM     23  C   UNL A   1      36.711  20.731  24.840  1.00  0.00     0.002 C 
BRANCH  23  24
ATOM     24  C   UNL A   1      37.841  19.710  25.001  1.00  0.00     0.021 C 
BRANCH  24  25
ATOM     25  C   UNL A   1      39.065  20.227  25.751  1.00  0.00     0.116 C 
BRANCH  25  26
ATOM     26  N   UNL A   1      40.081  19.197  25.914  1.00  0.00    -0.352 N 
ATOM     27  C   UNL A   1      41.430  19.331  26.121  1.00  0.00     0.251 C 
ATOM     28  H   UNL A   1      39.752  18.270  25.870  1.00  0.00     0.163 HD
ATOM     29  O   UNL A   1      42.171  18.355  26.039  1.00  0.00    -0.269 OA
BRANCH  27  30
ATOM     30  C   UNL A   1      42.001  20.659  26.430  1.00  0.00     0.039 A 
ATOM     31  C   UNL A   1      42.338  21.514  25.376  1.00  0.00     0.014 A 
ATOM     32  C   UNL A   1      42.221  21.053  27.753  1.00  0.00     0.014 A 
ATOM     33  C   UNL A   1      42.836  22.790  25.652  1.00  0.00     0.010 A 
ATOM     34  C   UNL A   1      42.659  22.345  28.027  1.00  0.00     0.010 A 
ATOM     35  C   UNL A   1      42.971  23.225  26.980  1.00  0.00    -0.014 A 
BRANCH  35  36
ATOM     36  C   UNL A   1      43.438  24.599  27.298  1.00  0.00     0.031 A 
ATOM     37  C   UNL A   1      42.472  25.621  27.826  1.00  0.00     0.074 A 
ATOM     38  C   UNL A   1      44.713  24.944  27.037  1.00  0.00     0.049 A 
ATOM     39  N   UNL A   1      42.663  26.891  28.075  1.00  0.00    -0.248 NA
ATOM     40  C   UNL A   1      41.099  25.158  28.081  1.00  0.00     0.031 C 
ATOM     41  C   UNL A   1      45.734  24.055  26.481  1.00  0.00     0.029 A 
ATOM     42  N   UNL A   1      45.365  26.143  27.191  1.00  0.00    -0.354 N 
ATOM     43  C   UNL A   1      41.435  27.382  28.496  1.00  0.00     0.074 A 
ATOM     44  C   UNL A   1      40.494  26.287  28.426  1.00  0.00     0.031 C 
ATOM     45  C   UNL A   1      46.886  24.732  26.355  1.00  0.00     0.029 A 
ATOM     46  C   UNL A   1      46.677  26.111  26.787  1.00  0.00     0.049 A 
ATOM     47  H   UNL A   1      44.933  26.949  27.556  1.00  0.00     0.167 HD
ATOM     48  C   UNL A   1      41.126  28.630  28.923  1.00  0.00     0.037 A 
ATOM     49  C   UNL A   1      47.605  27.087  26.763  1.00  0.00     0.037 A 
ATOM     50  C   UNL A   1      42.073  29.710  29.022  1.00  0.00     0.049 A 
ATOM     51  C   UNL A   1      47.239  28.462  27.252  1.00  0.00     0.074 A 
ATOM     52  C   UNL A   1      41.873  30.993  29.499  1.00  0.00     0.029 A 
ATOM     53  N   UNL A   1      43.403  29.630  28.636  1.00  0.00    -0.354 N 
ATOM     54  N   UNL A   1      46.091  28.898  27.707  1.00  0.00    -0.248 NA
ATOM     55  C   UNL A   1      48.301  29.478  27.230  1.00  0.00     0.031 C 
ATOM     56  C   UNL A   1      43.072  31.701  29.368  1.00  0.00     0.029 A 
ATOM     57  C   UNL A   1      44.031  30.847  28.850  1.00  0.00     0.049 A 
ATOM     58  H   UNL A   1      43.837  28.827  28.264  1.00  0.00     0.167 HD
ATOM     59  C   UNL A   1      46.298  30.227  28.055  1.00  0.00     0.074 A 
ATOM     60  C   UNL A   1      47.685  30.522  27.765  1.00  0.00     0.031 C 
ATOM     61  C   UNL A   1      45.417  31.119  28.569  1.00  0.00     0.037 A 
BRANCH  48  62
ATOM     62  C   UNL A   1      39.703  28.896  29.320  1.00  0.00     0.064 A 
ATOM     63  C   UNL A   1      39.258  28.697  30.635  1.00  0.00     0.173 A 
ATOM     64  C   UNL A   1      38.781  29.387  28.382  1.00  0.00     0.173 A 
ATOM     65  F   UNL A   1      40.098  28.218  31.566  1.00  0.00    -0.203 F 
ATOM     66  C   UNL A   1      37.937  28.953  30.991  1.00  0.00     0.198 A 
ATOM     67  C   UNL A   1      37.469  29.669  28.749  1.00  0.00     0.198 A 
ATOM     68  F   UNL A   1      39.157  29.601  27.112  1.00  0.00    -0.203 F 
ATOM     69  F   UNL A   1      37.523  28.709  32.243  1.00  0.00    -0.200 F 
ATOM     70  C   UNL A   1      37.046  29.445  30.051  1.00  0.00     0.200 A 
ATOM     71  F   UNL A   1      36.611  30.155  27.841  1.00  0.00    -0.200 F 
ATOM     72  F   UNL A   1      35.775  29.695  30.396  1.00  0.00    -0.200 F 
ENDBRANCH  48  62
BRANCH  49  73
ATOM     73  C   UNL A   1      48.980  26.788  26.286  1.00  0.00     0.064 A 
ATOM     74  C   UNL A   1      49.335  26.999  24.946  1.00  0.00     0.173 A 
ATOM     75  C   UNL A   1      49.963  26.293  27.154  1.00  0.00     0.173 A 
ATOM     76  F   UNL A   1      48.421  27.452  24.075  1.00  0.00    -0.203 F 
ATOM     77  C   UNL A   1      50.619  26.708  24.488  1.00  0.00     0.198 A 
ATOM     78  C   UNL A   1      51.254  26.029  26.700  1.00  0.00     0.198 A 
ATOM     79  F   UNL A   1      49.675  26.080  28.445  1.00  0.00    -0.203 F 
ATOM     80  F   UNL A   1      50.920  26.881  23.194  1.00  0.00    -0.200 F 
ATOM     81  C   UNL A   1      51.579  26.229  25.367  1.00  0.00     0.200 A 
ATOM     82  F   UNL A   1      52.183  25.578  27.555  1.00  0.00    -0.200 F 
ATOM     83  F   UNL A   1      52.815  25.955  24.927  1.00  0.00    -0.200 F 
ENDBRANCH  49  73
BRANCH  61  84
ATOM     84  C   UNL A   1      45.935  32.488  28.894  1.00  0.00     0.064 A 
ATOM     85  C   UNL A   1      46.512  32.781  30.138  1.00  0.00     0.173 A 
ATOM     86  C   UNL A   1      45.900  33.505  27.927  1.00  0.00     0.173 A 
ATOM     87  F   UNL A   1      46.554  31.846  31.099  1.00  0.00    -0.203 F 
ATOM     88  C   UNL A   1      47.017  34.050  30.410  1.00  0.00     0.198 A 
ATOM     89  C   UNL A   1      46.431  34.764  28.194  1.00  0.00     0.198 A 
ATOM     90  F   UNL A   1      45.365  33.272  26.720  1.00  0.00    -0.203 F 
ATOM     91  F   UNL A   1      47.530  34.320  31.619  1.00  0.00    -0.200 F 
ATOM     92  C   UNL A   1      46.984  35.037  29.436  1.00  0.00     0.200 A 
ATOM     93  F   UNL A   1      46.409  35.713  27.247  1.00  0.00    -0.200 F 
ATOM     94  F   UNL A   1      47.481  36.253  29.696  1.00  0.00    -0.200 F 
ENDBRANCH  61  84
ENDBRANCH  35  36
ENDBRANCH  27  30
ENDBRANCH  25  26
ENDBRANCH  24  25
ENDBRANCH  23  24
ENDBRANCH  22  23
ENDBRANCH   1  22
TORSDOF 17
ENDMDL
