MODEL 1
REMARK VINA RESULT:     -12.7      0.000      0.000
REMARK SMILES O=C(NCCCCCCNC(=O)C1CCN(c2ccc(C(F)(F)F)cc2[N+](=O)[O-])CC1)c1ccc(-c2c3nc(c(-c4c(F)c(F)c(F)c(F)c4F)c4ccc([nH]4)c(-c4c(F)c(F)c(F)c(F)c4F)c4nc(c(-c5c(F)c(F)c(F)c(F)c5F)c5ccc2[nH]5)C=C4)C=C3)cc1
REMARK SMILES IDX 6 1 5 2 4 3 3 4 1 5 2 6 32 8 33 9 94 10 34 11 93 12 35 13
REMARK SMILES IDX 36 14 37 15 87 16 38 17 92 18 86 19 88 20 39 21 91 22 85 23
REMARK SMILES IDX 84 24 40 26 72 27 52 28 71 29 53 30 56 31 70 32 89 33 54 34
REMARK SMILES IDX 55 35 69 37 90 38 57 39 41 40 42 41 50 42 43 43 44 44 48 45
REMARK SMILES IDX 51 46 45 47 46 48 49 49 47 50 73 51 74 52 82 53 75 54 76 55
REMARK SMILES IDX 80 56 83 57 77 58 78 59 81 60 79 61 58 62 59 63 67 64 60 65
REMARK SMILES IDX 61 66 65 67 68 68 62 69 63 70 66 71 64 72 7 73 8 74 9 75
REMARK SMILES IDX 10 76 11 77 12 79 13 80 14 81 31 82 15 83 30 84 16 85 17 86
REMARK SMILES IDX 18 87 26 88 19 89 25 90 20 91 27 92 28 93 29 94 21 95 22 96
REMARK SMILES IDX 23 97 24 98
REMARK H PARENT 3 7 88 25 56 36 10 78
REMARK Flexibility Score: inf
ROOT
ATOM      1  C   UNL A   1      31.426  30.670  25.853  1.00  0.00     0.002 C 
ENDROOT
BRANCH   1   2
ATOM      2  C   UNL A   1      31.281  32.034  26.531  1.00  0.00     0.021 C 
BRANCH   2   3
ATOM      3  C   UNL A   1      32.563  32.567  27.155  1.00  0.00     0.116 C 
BRANCH   3   4
ATOM      4  N   UNL A   1      32.454  33.983  27.476  1.00  0.00    -0.352 N 
ATOM      5  O   UNL A   1      32.708  35.829  28.750  1.00  0.00    -0.269 OA
ATOM      6  C   UNL A   1      33.090  34.695  28.457  1.00  0.00     0.251 C 
ATOM      7  H   UNL A   1      31.837  34.500  26.909  1.00  0.00     0.163 HD
BRANCH   6   8
ATOM      8  C   UNL A   1      34.241  34.102  29.164  1.00  0.00     0.039 A 
ATOM      9  C   UNL A   1      34.033  33.199  30.210  1.00  0.00     0.014 A 
ATOM     10  C   UNL A   1      35.538  34.418  28.754  1.00  0.00     0.014 A 
ATOM     11  C   UNL A   1      35.118  32.700  30.918  1.00  0.00     0.010 A 
ATOM     12  C   UNL A   1      36.631  33.843  29.407  1.00  0.00     0.010 A 
ATOM     13  C   UNL A   1      36.428  32.985  30.500  1.00  0.00    -0.014 A 
BRANCH  13  14
ATOM     14  C   UNL A   1      37.559  32.278  31.148  1.00  0.00     0.031 A 
ATOM     15  C   UNL A   1      37.999  32.620  32.541  1.00  0.00     0.074 A 
ATOM     16  C   UNL A   1      38.178  31.304  30.453  1.00  0.00     0.049 A 
ATOM     17  N   UNL A   1      38.969  32.095  33.247  1.00  0.00    -0.248 NA
ATOM     18  C   UNL A   1      37.267  33.691  33.233  1.00  0.00     0.031 C 
ATOM     19  C   UNL A   1      37.838  30.903  29.084  1.00  0.00     0.029 A 
ATOM     20  N   UNL A   1      39.207  30.467  30.795  1.00  0.00    -0.354 N 
ATOM     21  C   UNL A   1      38.975  32.778  34.455  1.00  0.00     0.074 A 
ATOM     22  C   UNL A   1      37.926  33.773  34.381  1.00  0.00     0.031 C 
ATOM     23  C   UNL A   1      38.616  29.876  28.718  1.00  0.00     0.029 A 
ATOM     24  C   UNL A   1      39.555  29.591  29.795  1.00  0.00     0.049 A 
ATOM     25  H   UNL A   1      39.654  30.490  31.673  1.00  0.00     0.167 HD
ATOM     26  C   UNL A   1      39.782  32.581  35.525  1.00  0.00     0.037 A 
ATOM     27  C   UNL A   1      40.541  28.678  29.740  1.00  0.00     0.037 A 
ATOM     28  C   UNL A   1      40.814  31.575  35.589  1.00  0.00     0.049 A 
ATOM     29  C   UNL A   1      41.438  28.512  30.934  1.00  0.00     0.074 A 
ATOM     30  C   UNL A   1      41.651  31.266  36.647  1.00  0.00     0.029 A 
ATOM     31  N   UNL A   1      41.155  30.723  34.548  1.00  0.00    -0.354 N 
ATOM     32  N   UNL A   1      41.398  29.126  32.090  1.00  0.00    -0.248 NA
ATOM     33  C   UNL A   1      42.519  27.526  30.813  1.00  0.00     0.031 C 
ATOM     34  C   UNL A   1      42.538  30.270  36.228  1.00  0.00     0.029 A 
ATOM     35  C   UNL A   1      42.213  29.912  34.930  1.00  0.00     0.049 A 
ATOM     36  H   UNL A   1      40.712  30.697  33.670  1.00  0.00     0.167 HD
ATOM     37  C   UNL A   1      42.431  28.588  32.842  1.00  0.00     0.074 A 
ATOM     38  C   UNL A   1      43.063  27.577  32.020  1.00  0.00     0.031 C 
ATOM     39  C   UNL A   1      42.826  28.907  34.099  1.00  0.00     0.037 A 
BRANCH  26  40
ATOM     40  C   UNL A   1      39.607  33.475  36.720  1.00  0.00     0.064 A 
ATOM     41  C   UNL A   1      38.740  33.141  37.770  1.00  0.00     0.173 A 
ATOM     42  C   UNL A   1      40.387  34.633  36.855  1.00  0.00     0.173 A 
ATOM     43  F   UNL A   1      37.965  32.050  37.688  1.00  0.00    -0.203 F 
ATOM     44  C   UNL A   1      38.654  33.941  38.909  1.00  0.00     0.198 A 
ATOM     45  C   UNL A   1      40.320  35.415  38.005  1.00  0.00     0.198 A 
ATOM     46  F   UNL A   1      41.238  34.995  35.883  1.00  0.00    -0.203 F 
ATOM     47  F   UNL A   1      37.800  33.618  39.889  1.00  0.00    -0.200 F 
ATOM     48  C   UNL A   1      39.452  35.070  39.030  1.00  0.00     0.200 A 
ATOM     49  F   UNL A   1      41.102  36.496  38.128  1.00  0.00    -0.200 F 
ATOM     50  F   UNL A   1      39.384  35.825  40.136  1.00  0.00    -0.200 F 
ENDBRANCH  26  40
BRANCH  27  51
ATOM     51  C   UNL A   1      40.748  27.876  28.506  1.00  0.00     0.064 A 
ATOM     52  C   UNL A   1      41.572  28.337  27.471  1.00  0.00     0.173 A 
ATOM     53  C   UNL A   1      40.107  26.640  28.326  1.00  0.00     0.173 A 
ATOM     54  F   UNL A   1      42.193  29.520  27.586  1.00  0.00    -0.203 F 
ATOM     55  C   UNL A   1      41.720  27.611  26.291  1.00  0.00     0.198 A 
ATOM     56  C   UNL A   1      40.286  25.896  27.163  1.00  0.00     0.198 A 
ATOM     57  F   UNL A   1      39.313  26.149  29.289  1.00  0.00    -0.203 F 
ATOM     58  F   UNL A   1      42.465  28.105  25.292  1.00  0.00    -0.200 F 
ATOM     59  C   UNL A   1      41.082  26.389  26.141  1.00  0.00     0.200 A 
ATOM     60  F   UNL A   1      39.682  24.708  27.031  1.00  0.00    -0.200 F 
ATOM     61  F   UNL A   1      41.224  25.691  25.006  1.00  0.00    -0.200 F 
ENDBRANCH  27  51
BRANCH  39  62
ATOM     62  C   UNL A   1      43.975  28.127  34.669  1.00  0.00     0.064 A 
ATOM     63  C   UNL A   1      43.779  26.910  35.341  1.00  0.00     0.173 A 
ATOM     64  C   UNL A   1      45.291  28.591  34.523  1.00  0.00     0.173 A 
ATOM     65  F   UNL A   1      42.538  26.432  35.524  1.00  0.00    -0.203 F 
ATOM     66  C   UNL A   1      44.855  26.206  35.875  1.00  0.00     0.198 A 
ATOM     67  C   UNL A   1      46.367  27.866  35.027  1.00  0.00     0.198 A 
ATOM     68  F   UNL A   1      45.534  29.745  33.883  1.00  0.00    -0.203 F 
ATOM     69  F   UNL A   1      44.637  25.078  36.565  1.00  0.00    -0.200 F 
ATOM     70  C   UNL A   1      46.147  26.681  35.711  1.00  0.00     0.200 A 
ATOM     71  F   UNL A   1      47.617  28.319  34.853  1.00  0.00    -0.200 F 
ATOM     72  F   UNL A   1      47.182  25.999  36.221  1.00  0.00    -0.200 F 
ENDBRANCH  39  62
ENDBRANCH  13  14
ENDBRANCH   6   8
ENDBRANCH   3   4
ENDBRANCH   2   3
ENDBRANCH   1   2
BRANCH   1  73
ATOM     73  C   UNL A   1      32.748  29.939  26.121  1.00  0.00     0.002 C 
BRANCH  73  74
ATOM     74  C   UNL A   1      32.841  28.523  25.550  1.00  0.00     0.021 C 
BRANCH  74  75
ATOM     75  C   UNL A   1      31.492  27.830  25.407  1.00  0.00     0.116 C 
BRANCH  75  76
ATOM     76  N   UNL A   1      31.359  27.147  24.147  1.00  0.00    -0.356 N 
ATOM     77  C   UNL A   1      31.921  26.007  23.685  1.00  0.00     0.223 C 
ATOM     78  H   UNL A   1      30.753  27.588  23.509  1.00  0.00     0.163 HD
ATOM     79  O   UNL A   1      31.595  25.665  22.542  1.00  0.00    -0.275 OA
BRANCH  77  80
ATOM     80  C   UNL A   1      32.874  25.118  24.491  1.00  0.00     0.082 C 
ATOM     81  C   UNL A   1      33.947  24.431  23.650  1.00  0.00     0.035 C 
ATOM     82  C   UNL A   1      32.262  24.235  25.580  1.00  0.00     0.035 C 
ATOM     83  C   UNL A   1      33.624  23.004  23.246  1.00  0.00     0.117 C 
ATOM     84  C   UNL A   1      32.102  22.746  25.273  1.00  0.00     0.117 C 
ATOM     85  N   UNL A   1      33.150  22.235  24.395  1.00  0.00    -0.366 N 
BRANCH  85  86
ATOM     86  C   UNL A   1      33.448  20.876  24.398  1.00  0.00     0.116 A 
ATOM     87  C   UNL A   1      32.434  20.021  23.928  1.00  0.00     0.034 A 
ATOM     88  C   UNL A   1      34.657  20.263  24.782  1.00  0.00     0.293 A 
ATOM     89  C   UNL A   1      32.619  18.643  23.802  1.00  0.00     0.016 A 
ATOM     90  C   UNL A   1      34.858  18.872  24.651  1.00  0.00     0.101 A 
ATOM     91  C   UNL A   1      33.839  18.053  24.145  1.00  0.00     0.062 A 
BRANCH  88  92
ATOM     92  N   UNL A   1      35.743  21.016  25.399  1.00  0.00     0.064 N 
ATOM     93  O   UNL A   1      36.843  20.996  24.826  1.00  0.00    -0.258 OA
ATOM     94  O   UNL A   1      35.528  21.583  26.480  1.00  0.00    -0.258 OA
ENDBRANCH  88  92
BRANCH  91  95
ATOM     95  C   UNL A   1      34.029  16.567  23.963  1.00  0.00     0.416 C 
ATOM     96  F   UNL A   1      32.892  15.865  24.219  1.00  0.00    -0.166 F 
ATOM     97  F   UNL A   1      34.391  16.248  22.690  1.00  0.00    -0.166 F 
ATOM     98  F   UNL A   1      34.988  16.040  24.770  1.00  0.00    -0.166 F 
ENDBRANCH  91  95
ENDBRANCH  85  86
ENDBRANCH  77  80
ENDBRANCH  75  76
ENDBRANCH  74  75
ENDBRANCH  73  74
ENDBRANCH   1  73
TORSDOF 16
ENDMDL
MODEL 2
REMARK VINA RESULT:     -12.7      0.541      7.157
REMARK SMILES O=C(NCCCCCCNC(=O)C1CCN(c2ccc(C(F)(F)F)cc2[N+](=O)[O-])CC1)c1ccc(-c2c3nc(c(-c4c(F)c(F)c(F)c(F)c4F)c4ccc([nH]4)c(-c4c(F)c(F)c(F)c(F)c4F)c4nc(c(-c5c(F)c(F)c(F)c(F)c5F)c5ccc2[nH]5)C=C4)C=C3)cc1
REMARK SMILES IDX 6 1 5 2 4 3 3 4 1 5 2 6 32 8 33 9 94 10 34 11 93 12 35 13
REMARK SMILES IDX 36 14 37 15 87 16 38 17 92 18 86 19 88 20 39 21 91 22 85 23
REMARK SMILES IDX 84 24 40 26 72 27 52 28 71 29 53 30 56 31 70 32 89 33 54 34
REMARK SMILES IDX 55 35 69 37 90 38 57 39 41 40 42 41 50 42 43 43 44 44 48 45
REMARK SMILES IDX 51 46 45 47 46 48 49 49 47 50 73 51 74 52 82 53 75 54 76 55
REMARK SMILES IDX 80 56 83 57 77 58 78 59 81 60 79 61 58 62 59 63 67 64 60 65
REMARK SMILES IDX 61 66 65 67 68 68 62 69 63 70 66 71 64 72 7 73 8 74 9 75
REMARK SMILES IDX 10 76 11 77 12 79 13 80 14 81 31 82 15 83 30 84 16 85 17 86
REMARK SMILES IDX 18 87 26 88 19 89 25 90 20 91 27 92 28 93 29 94 21 95 22 96
REMARK SMILES IDX 23 97 24 98
REMARK H PARENT 3 7 88 25 56 36 10 78
REMARK Flexibility Score: inf
ROOT
ATOM      1  C   UNL A   1      31.451  30.696  26.218  1.00  0.00     0.002 C 
ENDROOT
BRANCH   1   2
ATOM      2  C   UNL A   1      31.387  32.194  26.523  1.00  0.00     0.021 C 
BRANCH   2   3
ATOM      3  C   UNL A   1      32.609  32.743  27.247  1.00  0.00     0.116 C 
BRANCH   3   4
ATOM      4  N   UNL A   1      32.427  34.137  27.625  1.00  0.00    -0.352 N 
ATOM      5  O   UNL A   1      32.577  35.938  28.976  1.00  0.00    -0.269 OA
ATOM      6  C   UNL A   1      33.018  34.838  28.640  1.00  0.00     0.251 C 
ATOM      7  H   UNL A   1      31.789  34.645  27.074  1.00  0.00     0.163 HD
BRANCH   6   8
ATOM      8  C   UNL A   1      34.191  34.274  29.334  1.00  0.00     0.039 A 
ATOM      9  C   UNL A   1      34.020  33.471  30.465  1.00  0.00     0.014 A 
ATOM     10  C   UNL A   1      35.471  34.516  28.829  1.00  0.00     0.014 A 
ATOM     11  C   UNL A   1      35.131  33.002  31.154  1.00  0.00     0.010 A 
ATOM     12  C   UNL A   1      36.585  33.968  29.471  1.00  0.00     0.010 A 
ATOM     13  C   UNL A   1      36.421  33.213  30.643  1.00  0.00    -0.014 A 
BRANCH  13  14
ATOM     14  C   UNL A   1      37.569  32.532  31.290  1.00  0.00     0.031 A 
ATOM     15  C   UNL A   1      38.313  31.427  30.600  1.00  0.00     0.074 A 
ATOM     16  C   UNL A   1      37.937  32.943  32.519  1.00  0.00     0.049 A 
ATOM     17  N   UNL A   1      39.337  30.733  31.031  1.00  0.00    -0.248 NA
ATOM     18  C   UNL A   1      37.851  31.043  29.258  1.00  0.00     0.031 C 
ATOM     19  C   UNL A   1      37.271  33.999  33.287  1.00  0.00     0.029 A 
ATOM     20  N   UNL A   1      38.961  32.540  33.336  1.00  0.00    -0.354 N 
ATOM     21  C   UNL A   1      39.631  29.823  30.025  1.00  0.00     0.074 A 
ATOM     22  C   UNL A   1      38.664  30.036  28.968  1.00  0.00     0.031 C 
ATOM     23  C   UNL A   1      37.923  34.186  34.441  1.00  0.00     0.029 A 
ATOM     24  C   UNL A   1      39.009  33.218  34.529  1.00  0.00     0.049 A 
ATOM     25  H   UNL A   1      39.601  31.832  33.091  1.00  0.00     0.167 HD
ATOM     26  C   UNL A   1      40.624  28.902  29.993  1.00  0.00     0.037 A 
ATOM     27  C   UNL A   1      39.819  33.059  35.591  1.00  0.00     0.037 A 
ATOM     28  C   UNL A   1      41.588  28.712  31.048  1.00  0.00     0.049 A 
ATOM     29  C   UNL A   1      40.887  32.004  35.533  1.00  0.00     0.074 A 
ATOM     30  C   UNL A   1      42.661  27.837  31.087  1.00  0.00     0.029 A 
ATOM     31  N   UNL A   1      41.590  29.399  32.253  1.00  0.00    -0.354 N 
ATOM     32  N   UNL A   1      41.189  31.188  34.554  1.00  0.00    -0.248 NA
ATOM     33  C   UNL A   1      41.724  31.848  36.727  1.00  0.00     0.031 C 
ATOM     34  C   UNL A   1      43.275  27.953  32.337  1.00  0.00     0.029 A 
ATOM     35  C   UNL A   1      42.626  28.944  33.055  1.00  0.00     0.049 A 
ATOM     36  H   UNL A   1      40.952  30.106  32.502  1.00  0.00     0.167 HD
ATOM     37  C   UNL A   1      42.264  30.436  35.004  1.00  0.00     0.074 A 
ATOM     38  C   UNL A   1      42.578  30.913  36.335  1.00  0.00     0.031 C 
ATOM     39  C   UNL A   1      42.927  29.435  34.376  1.00  0.00     0.037 A 
BRANCH  26  40
ATOM     40  C   UNL A   1      40.722  28.007  28.791  1.00  0.00     0.064 A 
ATOM     41  C   UNL A   1      39.994  26.812  28.698  1.00  0.00     0.173 A 
ATOM     42  C   UNL A   1      41.485  28.397  27.679  1.00  0.00     0.173 A 
ATOM     43  F   UNL A   1      39.256  26.387  29.735  1.00  0.00    -0.203 F 
ATOM     44  C   UNL A   1      40.033  26.037  27.540  1.00  0.00     0.198 A 
ATOM     45  C   UNL A   1      41.500  27.636  26.514  1.00  0.00     0.198 A 
ATOM     46  F   UNL A   1      42.196  29.535  27.712  1.00  0.00    -0.203 F 
ATOM     47  F   UNL A   1      39.350  24.886  27.483  1.00  0.00    -0.200 F 
ATOM     48  C   UNL A   1      40.776  26.455  26.446  1.00  0.00     0.200 A 
ATOM     49  F   UNL A   1      42.206  28.049  25.452  1.00  0.00    -0.200 F 
ATOM     50  F   UNL A   1      40.794  25.720  25.325  1.00  0.00    -0.200 F 
ENDBRANCH  26  40
BRANCH  27  51
ATOM     51  C   UNL A   1      39.633  33.898  36.804  1.00  0.00     0.064 A 
ATOM     52  C   UNL A   1      38.859  33.451  37.883  1.00  0.00     0.173 A 
ATOM     53  C   UNL A   1      40.209  35.175  36.901  1.00  0.00     0.173 A 
ATOM     54  F   UNL A   1      38.273  32.245  37.833  1.00  0.00    -0.203 F 
ATOM     55  C   UNL A   1      38.639  34.260  38.995  1.00  0.00     0.198 A 
ATOM     56  C   UNL A   1      40.021  35.967  38.030  1.00  0.00     0.198 A 
ATOM     57  F   UNL A   1      40.965  35.648  35.900  1.00  0.00    -0.203 F 
ATOM     58  F   UNL A   1      37.843  33.833  39.985  1.00  0.00    -0.200 F 
ATOM     59  C   UNL A   1      39.225  35.515  39.070  1.00  0.00     0.200 A 
ATOM     60  F   UNL A   1      40.605  37.171  38.105  1.00  0.00    -0.200 F 
ATOM     61  F   UNL A   1      39.013  36.294  40.140  1.00  0.00    -0.200 F 
ENDBRANCH  27  51
BRANCH  39  62
ATOM     62  C   UNL A   1      44.081  28.816  35.111  1.00  0.00     0.064 A 
ATOM     63  C   UNL A   1      43.912  27.693  35.935  1.00  0.00     0.173 A 
ATOM     64  C   UNL A   1      45.374  29.341  34.973  1.00  0.00     0.173 A 
ATOM     65  F   UNL A   1      42.691  27.164  36.115  1.00  0.00    -0.203 F 
ATOM     66  C   UNL A   1      44.990  27.139  36.618  1.00  0.00     0.198 A 
ATOM     67  C   UNL A   1      46.456  28.763  35.630  1.00  0.00     0.198 A 
ATOM     68  F   UNL A   1      45.591  30.411  34.193  1.00  0.00    -0.203 F 
ATOM     69  F   UNL A   1      44.795  26.104  37.447  1.00  0.00    -0.200 F 
ATOM     70  C   UNL A   1      46.262  27.670  36.460  1.00  0.00     0.200 A 
ATOM     71  F   UNL A   1      47.686  29.268  35.463  1.00  0.00    -0.200 F 
ATOM     72  F   UNL A   1      47.300  27.132  37.116  1.00  0.00    -0.200 F 
ENDBRANCH  39  62
ENDBRANCH  13  14
ENDBRANCH   6   8
ENDBRANCH   3   4
ENDBRANCH   2   3
ENDBRANCH   1   2
BRANCH   1  73
ATOM     73  C   UNL A   1      32.864  30.103  26.128  1.00  0.00     0.002 C 
BRANCH  73  74
ATOM     74  C   UNL A   1      32.946  28.583  26.285  1.00  0.00     0.021 C 
BRANCH  74  75
ATOM     75  C   UNL A   1      31.618  27.872  26.071  1.00  0.00     0.116 C 
BRANCH  75  76
ATOM     76  N   UNL A   1      31.517  27.280  24.763  1.00  0.00    -0.356 N 
ATOM     77  C   UNL A   1      32.079  26.168  24.239  1.00  0.00     0.223 C 
ATOM     78  H   UNL A   1      30.937  27.774  24.139  1.00  0.00     0.163 HD
ATOM     79  O   UNL A   1      31.787  25.912  23.065  1.00  0.00    -0.275 OA
BRANCH  77  80
ATOM     80  C   UNL A   1      32.995  25.211  25.009  1.00  0.00     0.082 C 
ATOM     81  C   UNL A   1      34.091  24.574  24.158  1.00  0.00     0.035 C 
ATOM     82  C   UNL A   1      32.337  24.257  26.008  1.00  0.00     0.035 C 
ATOM     83  C   UNL A   1      33.769  23.185  23.638  1.00  0.00     0.117 C 
ATOM     84  C   UNL A   1      32.174  22.798  25.588  1.00  0.00     0.117 C 
ATOM     85  N   UNL A   1      33.248  22.339  24.711  1.00  0.00    -0.366 N 
BRANCH  85  86
ATOM     86  C   UNL A   1      33.533  20.981  24.623  1.00  0.00     0.116 A 
ATOM     87  C   UNL A   1      32.471  20.153  24.213  1.00  0.00     0.034 A 
ATOM     88  C   UNL A   1      34.767  20.345  24.862  1.00  0.00     0.293 A 
ATOM     89  C   UNL A   1      32.632  18.781  24.007  1.00  0.00     0.016 A 
ATOM     90  C   UNL A   1      34.943  18.961  24.650  1.00  0.00     0.101 A 
ATOM     91  C   UNL A   1      33.874  18.171  24.207  1.00  0.00     0.062 A 
BRANCH  88  92
ATOM     92  N   UNL A   1      35.913  21.065  25.408  1.00  0.00     0.064 N 
ATOM     93  O   UNL A   1      35.702  21.824  26.365  1.00  0.00    -0.258 OA
ATOM     94  O   UNL A   1      37.014  20.927  24.856  1.00  0.00    -0.258 OA
ENDBRANCH  88  92
BRANCH  91  95
ATOM     95  C   UNL A   1      34.033  16.694  23.940  1.00  0.00     0.416 C 
ATOM     96  F   UNL A   1      34.982  16.125  24.730  1.00  0.00    -0.166 F 
ATOM     97  F   UNL A   1      32.883  16.003  24.174  1.00  0.00    -0.166 F 
ATOM     98  F   UNL A   1      34.388  16.410  22.658  1.00  0.00    -0.166 F 
ENDBRANCH  91  95
ENDBRANCH  85  86
ENDBRANCH  77  80
ENDBRANCH  75  76
ENDBRANCH  74  75
ENDBRANCH  73  74
ENDBRANCH   1  73
TORSDOF 16
ENDMDL
MODEL 3
REMARK VINA RESULT:     -12.7      5.743     10.392
REMARK SMILES O=C(NCCCCCCNC(=O)C1CCN(c2ccc(C(F)(F)F)cc2[N+](=O)[O-])CC1)c1ccc(-c2c3nc(c(-c4c(F)c(F)c(F)c(F)c4F)c4ccc([nH]4)c(-c4c(F)c(F)c(F)c(F)c4F)c4nc(c(-c5c(F)c(F)c(F)c(F)c5F)c5ccc2[nH]5)C=C4)C=C3)cc1
REMARK SMILES IDX 6 1 5 2 4 3 3 4 1 5 2 6 32 8 33 9 94 10 34 11 93 12 35 13
REMARK SMILES IDX 36 14 37 15 87 16 38 17 92 18 86 19 88 20 39 21 91 22 85 23
REMARK SMILES IDX 84 24 40 26 72 27 52 28 71 29 53 30 56 31 70 32 89 33 54 34
REMARK SMILES IDX 55 35 69 37 90 38 57 39 41 40 42 41 50 42 43 43 44 44 48 45
REMARK SMILES IDX 51 46 45 47 46 48 49 49 47 50 73 51 74 52 82 53 75 54 76 55
REMARK SMILES IDX 80 56 83 57 77 58 78 59 81 60 79 61 58 62 59 63 67 64 60 65
REMARK SMILES IDX 61 66 65 67 68 68 62 69 63 70 66 71 64 72 7 73 8 74 9 75
REMARK SMILES IDX 10 76 11 77 12 79 13 80 14 81 31 82 15 83 30 84 16 85 17 86
REMARK SMILES IDX 18 87 26 88 19 89 25 90 20 91 27 92 28 93 29 94 21 95 22 96
REMARK SMILES IDX 23 97 24 98
REMARK H PARENT 3 7 88 25 56 36 10 78
REMARK Flexibility Score: inf
ROOT
ATOM      1  C   UNL A   1      36.725  20.638  24.985  1.00  0.00     0.002 C 
ENDROOT
BRANCH   1   2
ATOM      2  C   UNL A   1      37.928  19.695  25.046  1.00  0.00     0.021 C 
BRANCH   2   3
ATOM      3  C   UNL A   1      39.125  20.248  25.808  1.00  0.00     0.116 C 
BRANCH   3   4
ATOM      4  N   UNL A   1      40.156  19.237  25.991  1.00  0.00    -0.352 N 
ATOM      5  O   UNL A   1      42.265  18.434  26.032  1.00  0.00    -0.269 OA
ATOM      6  C   UNL A   1      41.508  19.402  26.128  1.00  0.00     0.251 C 
ATOM      7  H   UNL A   1      39.837  18.306  26.021  1.00  0.00     0.163 HD
BRANCH   6   8
ATOM      8  C   UNL A   1      42.060  20.743  26.394  1.00  0.00     0.039 A 
ATOM      9  C   UNL A   1      42.270  21.638  25.341  1.00  0.00     0.014 A 
ATOM     10  C   UNL A   1      42.334  21.127  27.709  1.00  0.00     0.014 A 
ATOM     11  C   UNL A   1      42.855  22.872  25.589  1.00  0.00     0.010 A 
ATOM     12  C   UNL A   1      42.837  22.404  27.968  1.00  0.00     0.010 A 
ATOM     13  C   UNL A   1      43.109  23.283  26.907  1.00  0.00    -0.014 A 
BRANCH  13  14
ATOM     14  C   UNL A   1      43.546  24.679  27.153  1.00  0.00     0.031 A 
ATOM     15  C   UNL A   1      42.603  25.708  27.702  1.00  0.00     0.074 A 
ATOM     16  C   UNL A   1      44.826  24.998  26.880  1.00  0.00     0.049 A 
ATOM     17  N   UNL A   1      42.831  26.969  27.972  1.00  0.00    -0.248 NA
ATOM     18  C   UNL A   1      41.224  25.276  27.978  1.00  0.00     0.031 C 
ATOM     19  C   UNL A   1      45.823  24.075  26.328  1.00  0.00     0.029 A 
ATOM     20  N   UNL A   1      45.516  26.171  27.037  1.00  0.00    -0.354 N 
ATOM     21  C   UNL A   1      41.628  27.484  28.434  1.00  0.00     0.074 A 
ATOM     22  C   UNL A   1      40.663  26.406  28.387  1.00  0.00     0.031 C 
ATOM     23  C   UNL A   1      47.001  24.705  26.229  1.00  0.00     0.029 A 
ATOM     24  C   UNL A   1      46.829  26.091  26.641  1.00  0.00     0.049 A 
ATOM     25  H   UNL A   1      45.110  26.993  27.399  1.00  0.00     0.167 HD
ATOM     26  C   UNL A   1      41.364  28.742  28.862  1.00  0.00     0.037 A 
ATOM     27  C   UNL A   1      47.783  27.038  26.588  1.00  0.00     0.037 A 
ATOM     28  C   UNL A   1      42.341  29.802  28.916  1.00  0.00     0.049 A 
ATOM     29  C   UNL A   1      47.444  28.430  27.039  1.00  0.00     0.074 A 
ATOM     30  C   UNL A   1      42.182  31.096  29.379  1.00  0.00     0.029 A 
ATOM     31  N   UNL A   1      43.655  29.692  28.483  1.00  0.00    -0.354 N 
ATOM     32  N   UNL A   1      46.318  28.890  27.524  1.00  0.00    -0.248 NA
ATOM     33  C   UNL A   1      48.509  29.434  26.931  1.00  0.00     0.031 C 
ATOM     34  C   UNL A   1      43.380  31.786  29.172  1.00  0.00     0.029 A 
ATOM     35  C   UNL A   1      44.307  30.906  28.638  1.00  0.00     0.049 A 
ATOM     36  H   UNL A   1      44.064  28.873  28.120  1.00  0.00     0.167 HD
ATOM     37  C   UNL A   1      46.543  30.231  27.801  1.00  0.00     0.074 A 
ATOM     38  C   UNL A   1      47.922  30.502  27.455  1.00  0.00     0.031 C 
ATOM     39  C   UNL A   1      45.683  31.156  28.292  1.00  0.00     0.037 A 
BRANCH  26  40
ATOM     40  C   UNL A   1      39.963  29.065  29.294  1.00  0.00     0.064 A 
ATOM     41  C   UNL A   1      38.976  29.447  28.373  1.00  0.00     0.173 A 
ATOM     42  C   UNL A   1      39.581  28.902  30.634  1.00  0.00     0.173 A 
ATOM     43  F   UNL A   1      39.289  29.627  27.081  1.00  0.00    -0.203 F 
ATOM     44  C   UNL A   1      37.660  29.661  28.781  1.00  0.00     0.198 A 
ATOM     45  C   UNL A   1      38.261  29.089  31.034  1.00  0.00     0.198 A 
ATOM     46  F   UNL A   1      40.484  28.532  31.555  1.00  0.00    -0.203 F 
ATOM     47  F   UNL A   1      36.739  30.050  27.890  1.00  0.00    -0.200 F 
ATOM     48  C   UNL A   1      37.302  29.471  30.108  1.00  0.00     0.200 A 
ATOM     49  F   UNL A   1      37.913  28.889  32.312  1.00  0.00    -0.200 F 
ATOM     50  F   UNL A   1      36.031  29.655  30.493  1.00  0.00    -0.200 F 
ENDBRANCH  26  40
BRANCH  27  51
ATOM     51  C   UNL A   1      49.135  26.707  26.064  1.00  0.00     0.064 A 
ATOM     52  C   UNL A   1      50.112  26.136  26.890  1.00  0.00     0.173 A 
ATOM     53  C   UNL A   1      49.483  26.976  24.732  1.00  0.00     0.173 A 
ATOM     54  F   UNL A   1      49.834  25.876  28.176  1.00  0.00    -0.203 F 
ATOM     55  C   UNL A   1      51.395  25.878  26.413  1.00  0.00     0.198 A 
ATOM     56  C   UNL A   1      50.755  26.682  24.245  1.00  0.00     0.198 A 
ATOM     57  F   UNL A   1      48.583  27.516  23.897  1.00  0.00    -0.203 F 
ATOM     58  F   UNL A   1      52.329  25.389  27.240  1.00  0.00    -0.200 F 
ATOM     59  C   UNL A   1      51.714  26.146  25.090  1.00  0.00     0.200 A 
ATOM     60  F   UNL A   1      51.050  26.925  22.961  1.00  0.00    -0.200 F 
ATOM     61  F   UNL A   1      52.948  25.899  24.632  1.00  0.00    -0.200 F 
ENDBRANCH  27  51
BRANCH  39  62
ATOM     62  C   UNL A   1      46.225  32.539  28.514  1.00  0.00     0.064 A 
ATOM     63  C   UNL A   1      46.841  32.903  29.721  1.00  0.00     0.173 A 
ATOM     64  C   UNL A   1      46.146  33.503  27.499  1.00  0.00     0.173 A 
ATOM     65  F   UNL A   1      46.925  32.022  30.730  1.00  0.00    -0.203 F 
ATOM     66  C   UNL A   1      47.327  34.193  29.914  1.00  0.00     0.198 A 
ATOM     67  C   UNL A   1      46.665  34.782  27.683  1.00  0.00     0.198 A 
ATOM     68  F   UNL A   1      45.572  33.204  26.323  1.00  0.00    -0.203 F 
ATOM     69  F   UNL A   1      47.856  34.537  31.097  1.00  0.00    -0.200 F 
ATOM     70  C   UNL A   1      47.245  35.128  28.893  1.00  0.00     0.200 A 
ATOM     71  F   UNL A   1      46.599  35.679  26.690  1.00  0.00    -0.200 F 
ATOM     72  F   UNL A   1      47.718  36.368  29.080  1.00  0.00    -0.200 F 
ENDBRANCH  39  62
ENDBRANCH  13  14
ENDBRANCH   6   8
ENDBRANCH   3   4
ENDBRANCH   2   3
ENDBRANCH   1   2
BRANCH   1  73
ATOM     73  C   UNL A   1      35.351  19.955  24.997  1.00  0.00     0.002 C 
BRANCH  73  74
ATOM     74  C   UNL A   1      34.202  20.805  25.542  1.00  0.00     0.021 C 
BRANCH  74  75
ATOM     75  C   UNL A   1      32.918  20.691  24.733  1.00  0.00     0.116 C 
BRANCH  75  76
ATOM     76  N   UNL A   1      31.767  21.157  25.462  1.00  0.00    -0.356 N 
ATOM     77  C   UNL A   1      31.315  22.406  25.715  1.00  0.00     0.223 C 
ATOM     78  H   UNL A   1      31.213  20.439  25.845  1.00  0.00     0.163 HD
ATOM     79  O   UNL A   1      30.272  22.484  26.375  1.00  0.00    -0.275 OA
BRANCH  77  80
ATOM     80  C   UNL A   1      31.978  23.690  25.206  1.00  0.00     0.082 C 
ATOM     81  C   UNL A   1      31.785  24.897  26.121  1.00  0.00     0.035 C 
ATOM     82  C   UNL A   1      31.855  24.003  23.714  1.00  0.00     0.035 C 
ATOM     83  C   UNL A   1      30.647  25.821  25.726  1.00  0.00     0.117 C 
ATOM     84  C   UNL A   1      30.850  25.076  23.298  1.00  0.00     0.117 C 
ATOM     85  N   UNL A   1      30.702  26.129  24.298  1.00  0.00    -0.366 N 
BRANCH  85  86
ATOM     86  C   UNL A   1      30.234  27.381  23.915  1.00  0.00     0.116 A 
ATOM     87  C   UNL A   1      28.904  27.430  23.458  1.00  0.00     0.034 A 
ATOM     88  C   UNL A   1      30.925  28.608  23.964  1.00  0.00     0.293 A 
ATOM     89  C   UNL A   1      28.277  28.629  23.114  1.00  0.00     0.016 A 
ATOM     90  C   UNL A   1      30.299  29.827  23.627  1.00  0.00     0.101 A 
ATOM     91  C   UNL A   1      28.961  29.845  23.210  1.00  0.00     0.062 A 
BRANCH  88  92
ATOM     92  N   UNL A   1      32.342  28.683  24.301  1.00  0.00     0.064 N 
ATOM     93  O   UNL A   1      32.636  28.743  25.504  1.00  0.00    -0.258 OA
ATOM     94  O   UNL A   1      33.166  28.741  23.377  1.00  0.00    -0.258 OA
ENDBRANCH  88  92
BRANCH  91  95
ATOM     95  C   UNL A   1      28.250  31.131  22.870  1.00  0.00     0.416 C 
ATOM     96  F   UNL A   1      27.639  31.079  21.655  1.00  0.00    -0.166 F 
ATOM     97  F   UNL A   1      27.273  31.433  23.770  1.00  0.00    -0.166 F 
ATOM     98  F   UNL A   1      29.074  32.212  22.832  1.00  0.00    -0.166 F 
ENDBRANCH  91  95
ENDBRANCH  85  86
ENDBRANCH  77  80
ENDBRANCH  75  76
ENDBRANCH  74  75
ENDBRANCH  73  74
ENDBRANCH   1  73
TORSDOF 16
ENDMDL
