MODEL 1
REMARK VINA RESULT:     -14.1      0.000      0.000
REMARK SMILES O=C(NCCCCCCNC(=O)c1cc2c(Cl)c(C(F)(F)F)cnc2n1S(=O)(=O)c1ccccc1)c1ccc(-c2c3nc(c(-c4c(F)c(F)c(F)c(F)c4F)c4ccc([nH]4)c(-c4c(F)c(F)c(F)c(F)c4F)c4nc(c(-c5c(F)c(F)c(F)c(F)c5F)c5ccc2[nH]5)C=C4)C=C3)cc1
REMARK SMILES IDX 6 1 5 2 4 3 3 4 1 5 2 6 36 8 37 9 98 10 38 11 97 12 39 13
REMARK SMILES IDX 40 14 41 15 91 16 42 17 96 18 90 19 92 20 43 21 95 22 89 23
REMARK SMILES IDX 88 24 44 26 76 27 56 28 75 29 57 30 60 31 74 32 93 33 58 34
REMARK SMILES IDX 59 35 73 37 94 38 61 39 45 40 46 41 54 42 47 43 48 44 52 45
REMARK SMILES IDX 55 46 49 47 50 48 53 49 51 50 77 51 78 52 86 53 79 54 80 55
REMARK SMILES IDX 84 56 87 57 81 58 82 59 85 60 83 61 62 62 63 63 71 64 64 65
REMARK SMILES IDX 65 66 69 67 72 68 66 69 67 70 70 71 68 72 7 73 8 74 9 75
REMARK SMILES IDX 10 76 11 77 12 79 13 80 14 81 26 82 15 83 25 84 16 85 24 86
REMARK SMILES IDX 17 87 18 88 23 89 27 90 28 91 29 92 30 93 31 94 35 95 32 96
REMARK SMILES IDX 34 97 33 98 19 99 20 100 21 101 22 102
REMARK H PARENT 3 7 92 25 60 36 10 78
REMARK Flexibility Score: inf
ROOT
ATOM      1  C   UNL A   1      32.097  27.844  26.171  1.00  0.00     0.002 C 
ENDROOT
BRANCH   1   2
ATOM      2  C   UNL A   1      32.206  29.153  26.961  1.00  0.00     0.021 C 
BRANCH   2   3
ATOM      3  C   UNL A   1      33.547  29.871  26.847  1.00  0.00     0.116 C 
BRANCH   3   4
ATOM      4  N   UNL A   1      33.665  31.089  27.624  1.00  0.00    -0.352 N 
ATOM      5  O   UNL A   1      34.502  32.771  28.826  1.00  0.00    -0.269 OA
ATOM      6  C   UNL A   1      34.701  31.678  28.297  1.00  0.00     0.251 C 
ATOM      7  H   UNL A   1      32.825  31.599  27.678  1.00  0.00     0.163 HD
BRANCH   6   8
ATOM      8  C   UNL A   1      36.016  31.023  28.485  1.00  0.00     0.039 A 
ATOM      9  C   UNL A   1      36.238  29.658  28.310  1.00  0.00     0.014 A 
ATOM     10  C   UNL A   1      37.090  31.855  28.839  1.00  0.00     0.014 A 
ATOM     11  C   UNL A   1      37.477  29.111  28.610  1.00  0.00     0.010 A 
ATOM     12  C   UNL A   1      38.348  31.319  29.092  1.00  0.00     0.010 A 
ATOM     13  C   UNL A   1      38.528  29.939  29.014  1.00  0.00    -0.014 A 
BRANCH  13  14
ATOM     14  C   UNL A   1      39.835  29.311  29.185  1.00  0.00     0.031 A 
ATOM     15  C   UNL A   1      40.250  29.073  30.599  1.00  0.00     0.074 A 
ATOM     16  C   UNL A   1      40.585  28.844  28.169  1.00  0.00     0.049 A 
ATOM     17  N   UNL A   1      41.329  29.458  31.205  1.00  0.00    -0.248 NA
ATOM     18  C   UNL A   1      39.299  28.353  31.464  1.00  0.00     0.031 C 
ATOM     19  C   UNL A   1      40.210  28.709  26.762  1.00  0.00     0.029 A 
ATOM     20  N   UNL A   1      41.829  28.286  28.220  1.00  0.00    -0.354 N 
ATOM     21  C   UNL A   1      41.265  28.906  32.483  1.00  0.00     0.074 A 
ATOM     22  C   UNL A   1      39.957  28.319  32.621  1.00  0.00     0.031 C 
ATOM     23  C   UNL A   1      41.115  27.921  26.140  1.00  0.00     0.029 A 
ATOM     24  C   UNL A   1      42.185  27.602  27.070  1.00  0.00     0.049 A 
ATOM     25  H   UNL A   1      42.420  28.364  29.004  1.00  0.00     0.167 HD
ATOM     26  C   UNL A   1      42.352  28.801  33.295  1.00  0.00     0.037 A 
ATOM     27  C   UNL A   1      43.240  26.765  26.929  1.00  0.00     0.037 A 
ATOM     28  C   UNL A   1      43.405  29.702  32.931  1.00  0.00     0.049 A 
ATOM     29  C   UNL A   1      44.212  27.064  28.009  1.00  0.00     0.074 A 
ATOM     30  C   UNL A   1      43.526  31.076  32.858  1.00  0.00     0.029 A 
ATOM     31  N   UNL A   1      44.497  29.202  32.270  1.00  0.00    -0.354 N 
ATOM     32  N   UNL A   1      44.924  28.151  28.088  1.00  0.00    -0.248 NA
ATOM     33  C   UNL A   1      44.149  26.268  29.226  1.00  0.00     0.031 C 
ATOM     34  C   UNL A   1      44.404  31.316  31.761  1.00  0.00     0.029 A 
ATOM     35  C   UNL A   1      44.775  30.072  31.248  1.00  0.00     0.049 A 
ATOM     36  H   UNL A   1      44.987  28.376  32.487  1.00  0.00     0.167 HD
ATOM     37  C   UNL A   1      45.053  28.389  29.448  1.00  0.00     0.074 A 
ATOM     38  C   UNL A   1      44.670  27.139  30.092  1.00  0.00     0.031 C 
ATOM     39  C   UNL A   1      45.193  29.657  29.931  1.00  0.00     0.037 A 
BRANCH  26  40
ATOM     40  C   UNL A   1      42.556  27.650  34.239  1.00  0.00     0.064 A 
ATOM     41  C   UNL A   1      43.110  26.440  33.783  1.00  0.00     0.173 A 
ATOM     42  C   UNL A   1      41.971  27.615  35.524  1.00  0.00     0.173 A 
ATOM     43  F   UNL A   1      43.638  26.354  32.554  1.00  0.00    -0.203 F 
ATOM     44  C   UNL A   1      43.058  25.274  34.553  1.00  0.00     0.198 A 
ATOM     45  C   UNL A   1      41.967  26.465  36.309  1.00  0.00     0.198 A 
ATOM     46  F   UNL A   1      41.290  28.661  36.012  1.00  0.00    -0.203 F 
ATOM     47  F   UNL A   1      43.507  24.119  34.043  1.00  0.00    -0.200 F 
ATOM     48  C   UNL A   1      42.492  25.289  35.816  1.00  0.00     0.200 A 
ATOM     49  F   UNL A   1      41.388  26.493  37.518  1.00  0.00    -0.200 F 
ATOM     50  F   UNL A   1      42.404  24.163  36.536  1.00  0.00    -0.200 F 
ENDBRANCH  26  40
BRANCH  27  51
ATOM     51  C   UNL A   1      43.323  25.529  26.115  1.00  0.00     0.064 A 
ATOM     52  C   UNL A   1      44.440  25.278  25.302  1.00  0.00     0.173 A 
ATOM     53  C   UNL A   1      42.449  24.446  26.329  1.00  0.00     0.173 A 
ATOM     54  F   UNL A   1      45.347  26.241  25.082  1.00  0.00    -0.203 F 
ATOM     55  C   UNL A   1      44.685  24.011  24.764  1.00  0.00     0.198 A 
ATOM     56  C   UNL A   1      42.686  23.187  25.781  1.00  0.00     0.198 A 
ATOM     57  F   UNL A   1      41.399  24.559  27.157  1.00  0.00    -0.203 F 
ATOM     58  F   UNL A   1      45.800  23.790  24.055  1.00  0.00    -0.200 F 
ATOM     59  C   UNL A   1      43.813  22.964  25.013  1.00  0.00     0.200 A 
ATOM     60  F   UNL A   1      41.851  22.175  26.057  1.00  0.00    -0.200 F 
ATOM     61  F   UNL A   1      44.078  21.734  24.550  1.00  0.00    -0.200 F 
ENDBRANCH  27  51
BRANCH  39  62
ATOM     62  C   UNL A   1      45.528  30.745  28.951  1.00  0.00     0.064 A 
ATOM     63  C   UNL A   1      46.841  31.123  28.621  1.00  0.00     0.173 A 
ATOM     64  C   UNL A   1      44.484  31.325  28.218  1.00  0.00     0.173 A 
ATOM     65  F   UNL A   1      47.894  30.535  29.205  1.00  0.00    -0.203 F 
ATOM     66  C   UNL A   1      47.091  32.073  27.633  1.00  0.00     0.198 A 
ATOM     67  C   UNL A   1      44.739  32.245  27.205  1.00  0.00     0.198 A 
ATOM     68  F   UNL A   1      43.214  30.959  28.449  1.00  0.00    -0.203 F 
ATOM     69  F   UNL A   1      48.352  32.425  27.342  1.00  0.00    -0.200 F 
ATOM     70  C   UNL A   1      46.041  32.627  26.919  1.00  0.00     0.200 A 
ATOM     71  F   UNL A   1      43.725  32.740  26.482  1.00  0.00    -0.200 F 
ATOM     72  F   UNL A   1      46.283  33.506  25.937  1.00  0.00    -0.200 F 
ENDBRANCH  39  62
ENDBRANCH  13  14
ENDBRANCH   6   8
ENDBRANCH   3   4
ENDBRANCH   2   3
ENDBRANCH   1   2
BRANCH   1  73
ATOM     73  C   UNL A   1      31.320  26.700  26.836  1.00  0.00     0.002 C 
BRANCH  73  74
ATOM     74  C   UNL A   1      31.766  25.268  26.512  1.00  0.00     0.021 C 
BRANCH  74  75
ATOM     75  C   UNL A   1      30.637  24.278  26.271  1.00  0.00     0.116 C 
BRANCH  75  76
ATOM     76  N   UNL A   1      30.746  23.548  25.026  1.00  0.00    -0.351 N 
ATOM     77  C   UNL A   1      30.835  24.020  23.744  1.00  0.00     0.269 C 
ATOM     78  H   UNL A   1      30.758  22.568  25.114  1.00  0.00     0.163 HD
ATOM     79  O   UNL A   1      30.970  23.206  22.835  1.00  0.00    -0.268 OA
BRANCH  77  80
ATOM     80  C   UNL A   1      30.624  25.422  23.483  1.00  0.00     0.124 A 
ATOM     81  C   UNL A   1      29.413  26.088  23.615  1.00  0.00     0.047 A 
ATOM     82  N   UNL A   1      31.503  26.326  22.910  1.00  0.00    -0.211 N 
ATOM     83  C   UNL A   1      29.569  27.419  23.149  1.00  0.00     0.040 A 
ATOM     84  C   UNL A   1      30.885  27.536  22.705  1.00  0.00     0.156 A 
ATOM     85  C   UNL A   1      28.757  28.562  23.017  1.00  0.00     0.065 A 
ATOM     86  N   UNL A   1      31.426  28.647  22.176  1.00  0.00    -0.237 NA
ATOM     87  Cl  UNL A   1      27.141  28.377  23.544  1.00  0.00    -0.083 Cl
ATOM     88  C   UNL A   1      29.274  29.741  22.494  1.00  0.00     0.093 A 
ATOM     89  C   UNL A   1      30.600  29.713  22.097  1.00  0.00     0.128 A 
BRANCH  82  90
ATOM     90  S   UNL A   1      33.061  25.920  22.372  1.00  0.00     0.270 S 
ATOM     91  O   UNL A   1      32.862  25.160  21.162  1.00  0.00    -0.201 OA
ATOM     92  O   UNL A   1      33.776  27.188  22.360  1.00  0.00    -0.201 OA
BRANCH  90  93
ATOM     93  C   UNL A   1      33.872  24.812  23.484  1.00  0.00     0.088 A 
ATOM     94  C   UNL A   1      34.389  25.293  24.688  1.00  0.00     0.022 A 
ATOM     95  C   UNL A   1      34.125  23.493  23.078  1.00  0.00     0.022 A 
ATOM     96  C   UNL A   1      35.121  24.437  25.511  1.00  0.00     0.001 A 
ATOM     97  C   UNL A   1      34.839  22.638  23.915  1.00  0.00     0.001 A 
ATOM     98  C   UNL A   1      35.336  23.111  25.129  1.00  0.00     0.000 A 
ENDBRANCH  90  93
ENDBRANCH  82  90
BRANCH  88  99
ATOM     99  C   UNL A   1      28.472  30.989  22.351  1.00  0.00     0.419 C 
ATOM    100  F   UNL A   1      27.894  31.386  23.516  1.00  0.00    -0.166 F 
ATOM    101  F   UNL A   1      29.204  32.044  21.902  1.00  0.00    -0.166 F 
ATOM    102  F   UNL A   1      27.445  30.861  21.462  1.00  0.00    -0.166 F 
ENDBRANCH  88  99
ENDBRANCH  77  80
ENDBRANCH  75  76
ENDBRANCH  74  75
ENDBRANCH  73  74
ENDBRANCH   1  73
TORSDOF 16
ENDMDL
MODEL 2
REMARK VINA RESULT:     -14.0      3.470      8.524
REMARK SMILES O=C(NCCCCCCNC(=O)c1cc2c(Cl)c(C(F)(F)F)cnc2n1S(=O)(=O)c1ccccc1)c1ccc(-c2c3nc(c(-c4c(F)c(F)c(F)c(F)c4F)c4ccc([nH]4)c(-c4c(F)c(F)c(F)c(F)c4F)c4nc(c(-c5c(F)c(F)c(F)c(F)c5F)c5ccc2[nH]5)C=C4)C=C3)cc1
REMARK SMILES IDX 6 1 5 2 4 3 3 4 1 5 2 6 36 8 37 9 98 10 38 11 97 12 39 13
REMARK SMILES IDX 40 14 41 15 91 16 42 17 96 18 90 19 92 20 43 21 95 22 89 23
REMARK SMILES IDX 88 24 44 26 76 27 56 28 75 29 57 30 60 31 74 32 93 33 58 34
REMARK SMILES IDX 59 35 73 37 94 38 61 39 45 40 46 41 54 42 47 43 48 44 52 45
REMARK SMILES IDX 55 46 49 47 50 48 53 49 51 50 77 51 78 52 86 53 79 54 80 55
REMARK SMILES IDX 84 56 87 57 81 58 82 59 85 60 83 61 62 62 63 63 71 64 64 65
REMARK SMILES IDX 65 66 69 67 72 68 66 69 67 70 70 71 68 72 7 73 8 74 9 75
REMARK SMILES IDX 10 76 11 77 12 79 13 80 14 81 26 82 15 83 25 84 16 85 24 86
REMARK SMILES IDX 17 87 18 88 23 89 27 90 28 91 29 92 30 93 31 94 35 95 32 96
REMARK SMILES IDX 34 97 33 98 19 99 20 100 21 101 22 102
REMARK H PARENT 3 7 92 25 60 36 10 78
REMARK Flexibility Score: inf
ROOT
ATOM      1  C   UNL A   1      40.947  21.348  27.671  1.00  0.00     0.002 C 
ENDROOT
BRANCH   1   2
ATOM      2  C   UNL A   1      41.848  20.170  27.288  1.00  0.00     0.021 C 
BRANCH   2   3
ATOM      3  C   UNL A   1      41.865  19.821  25.803  1.00  0.00     0.116 C 
BRANCH   3   4
ATOM      4  N   UNL A   1      43.141  20.003  25.139  1.00  0.00    -0.352 N 
ATOM      5  O   UNL A   1      45.113  20.837  24.516  1.00  0.00    -0.269 OA
ATOM      6  C   UNL A   1      44.076  21.002  25.156  1.00  0.00     0.251 C 
ATOM      7  H   UNL A   1      43.386  19.251  24.553  1.00  0.00     0.163 HD
BRANCH   6   8
ATOM      8  C   UNL A   1      43.859  22.297  25.841  1.00  0.00     0.039 A 
ATOM      9  C   UNL A   1      44.458  22.649  27.050  1.00  0.00     0.014 A 
ATOM     10  C   UNL A   1      43.012  23.216  25.200  1.00  0.00     0.014 A 
ATOM     11  C   UNL A   1      44.115  23.839  27.675  1.00  0.00     0.010 A 
ATOM     12  C   UNL A   1      42.706  24.433  25.798  1.00  0.00     0.010 A 
ATOM     13  C   UNL A   1      43.231  24.726  27.055  1.00  0.00    -0.014 A 
BRANCH  13  14
ATOM     14  C   UNL A   1      43.021  26.014  27.709  1.00  0.00     0.031 A 
ATOM     15  C   UNL A   1      44.030  27.067  27.388  1.00  0.00     0.074 A 
ATOM     16  C   UNL A   1      41.939  26.315  28.451  1.00  0.00     0.049 A 
ATOM     17  N   UNL A   1      44.765  27.762  28.196  1.00  0.00    -0.248 NA
ATOM     18  C   UNL A   1      44.287  27.333  25.961  1.00  0.00     0.031 C 
ATOM     19  C   UNL A   1      40.716  25.530  28.618  1.00  0.00     0.029 A 
ATOM     20  N   UNL A   1      41.673  27.465  29.135  1.00  0.00    -0.354 N 
ATOM     21  C   UNL A   1      45.470  28.657  27.395  1.00  0.00     0.074 A 
ATOM     22  C   UNL A   1      45.213  28.288  26.027  1.00  0.00     0.031 C 
ATOM     23  C   UNL A   1      39.765  26.311  29.175  1.00  0.00     0.029 A 
ATOM     24  C   UNL A   1      40.347  27.600  29.511  1.00  0.00     0.049 A 
ATOM     25  H   UNL A   1      42.361  28.137  29.343  1.00  0.00     0.167 HD
ATOM     26  C   UNL A   1      46.083  29.766  27.893  1.00  0.00     0.037 A 
ATOM     27  C   UNL A   1      39.757  28.725  29.981  1.00  0.00     0.037 A 
ATOM     28  C   UNL A   1      46.338  29.674  29.299  1.00  0.00     0.049 A 
ATOM     29  C   UNL A   1      40.822  29.625  30.486  1.00  0.00     0.074 A 
ATOM     30  C   UNL A   1      47.092  28.836  30.097  1.00  0.00     0.029 A 
ATOM     31  N   UNL A   1      45.529  30.369  30.160  1.00  0.00    -0.354 N 
ATOM     32  N   UNL A   1      41.540  29.405  31.551  1.00  0.00    -0.248 NA
ATOM     33  C   UNL A   1      41.334  30.650  29.589  1.00  0.00     0.031 C 
ATOM     34  C   UNL A   1      46.363  28.725  31.318  1.00  0.00     0.029 A 
ATOM     35  C   UNL A   1      45.222  29.518  31.190  1.00  0.00     0.049 A 
ATOM     36  H   UNL A   1      45.226  31.300  30.058  1.00  0.00     0.167 HD
ATOM     37  C   UNL A   1      42.780  29.951  31.258  1.00  0.00     0.074 A 
ATOM     38  C   UNL A   1      42.556  30.808  30.101  1.00  0.00     0.031 C 
ATOM     39  C   UNL A   1      43.920  29.444  31.810  1.00  0.00     0.037 A 
BRANCH  26  40
ATOM     40  C   UNL A   1      46.170  31.060  27.133  1.00  0.00     0.064 A 
ATOM     41  C   UNL A   1      47.406  31.709  26.967  1.00  0.00     0.173 A 
ATOM     42  C   UNL A   1      45.026  31.816  26.796  1.00  0.00     0.173 A 
ATOM     43  F   UNL A   1      48.549  31.099  27.313  1.00  0.00    -0.203 F 
ATOM     44  C   UNL A   1      47.485  33.031  26.516  1.00  0.00     0.198 A 
ATOM     45  C   UNL A   1      45.111  33.113  26.298  1.00  0.00     0.198 A 
ATOM     46  F   UNL A   1      43.789  31.361  27.040  1.00  0.00    -0.203 F 
ATOM     47  F   UNL A   1      48.674  33.647  26.467  1.00  0.00    -0.200 F 
ATOM     48  C   UNL A   1      46.339  33.729  26.178  1.00  0.00     0.200 A 
ATOM     49  F   UNL A   1      43.987  33.782  26.004  1.00  0.00    -0.200 F 
ATOM     50  F   UNL A   1      46.411  35.008  25.787  1.00  0.00    -0.200 F 
ENDBRANCH  26  40
BRANCH  27  51
ATOM     51  C   UNL A   1      38.373  29.198  29.745  1.00  0.00     0.064 A 
ATOM     52  C   UNL A   1      37.555  29.592  30.817  1.00  0.00     0.173 A 
ATOM     53  C   UNL A   1      37.921  29.539  28.456  1.00  0.00     0.173 A 
ATOM     54  F   UNL A   1      37.932  29.347  32.081  1.00  0.00    -0.203 F 
ATOM     55  C   UNL A   1      36.374  30.313  30.612  1.00  0.00     0.198 A 
ATOM     56  C   UNL A   1      36.736  30.245  28.251  1.00  0.00     0.198 A 
ATOM     57  F   UNL A   1      38.668  29.284  27.372  1.00  0.00    -0.203 F 
ATOM     58  F   UNL A   1      35.659  30.735  31.663  1.00  0.00    -0.200 F 
ATOM     59  C   UNL A   1      35.972  30.647  29.329  1.00  0.00     0.200 A 
ATOM     60  F   UNL A   1      36.376  30.590  27.006  1.00  0.00    -0.200 F 
ATOM     61  F   UNL A   1      34.874  31.390  29.135  1.00  0.00    -0.200 F 
ENDBRANCH  27  51
BRANCH  39  62
ATOM     62  C   UNL A   1      43.777  28.508  32.975  1.00  0.00     0.064 A 
ATOM     63  C   UNL A   1      43.632  27.116  32.846  1.00  0.00     0.173 A 
ATOM     64  C   UNL A   1      43.938  29.024  34.268  1.00  0.00     0.173 A 
ATOM     65  F   UNL A   1      43.579  26.538  31.639  1.00  0.00    -0.203 F 
ATOM     66  C   UNL A   1      43.601  26.287  33.966  1.00  0.00     0.198 A 
ATOM     67  C   UNL A   1      43.946  28.190  35.382  1.00  0.00     0.198 A 
ATOM     68  F   UNL A   1      44.139  30.339  34.448  1.00  0.00    -0.203 F 
ATOM     69  F   UNL A   1      43.451  24.963  33.819  1.00  0.00    -0.200 F 
ATOM     70  C   UNL A   1      43.767  26.824  35.232  1.00  0.00     0.200 A 
ATOM     71  F   UNL A   1      44.158  28.706  36.601  1.00  0.00    -0.200 F 
ATOM     72  F   UNL A   1      43.786  26.022  36.307  1.00  0.00    -0.200 F 
ENDBRANCH  39  62
ENDBRANCH  13  14
ENDBRANCH   6   8
ENDBRANCH   3   4
ENDBRANCH   2   3
ENDBRANCH   1   2
BRANCH   1  73
ATOM     73  C   UNL A   1      39.943  21.822  26.610  1.00  0.00     0.002 C 
BRANCH  73  74
ATOM     74  C   UNL A   1      39.294  23.195  26.824  1.00  0.00     0.021 C 
BRANCH  74  75
ATOM     75  C   UNL A   1      37.943  23.382  26.152  1.00  0.00     0.116 C 
BRANCH  75  76
ATOM     76  N   UNL A   1      37.861  22.819  24.821  1.00  0.00    -0.351 N 
ATOM     77  C   UNL A   1      36.823  22.840  23.928  1.00  0.00     0.269 C 
ATOM     78  H   UNL A   1      38.671  22.353  24.512  1.00  0.00     0.163 HD
ATOM     79  O   UNL A   1      36.999  22.332  22.824  1.00  0.00    -0.268 OA
BRANCH  77  80
ATOM     80  C   UNL A   1      35.529  23.315  24.348  1.00  0.00     0.124 A 
ATOM     81  C   UNL A   1      35.087  24.628  24.249  1.00  0.00     0.047 A 
ATOM     82  N   UNL A   1      34.558  22.632  25.061  1.00  0.00    -0.211 N 
ATOM     83  C   UNL A   1      33.819  24.733  24.879  1.00  0.00     0.040 A 
ATOM     84  C   UNL A   1      33.518  23.470  25.385  1.00  0.00     0.156 A 
ATOM     85  C   UNL A   1      32.872  25.747  25.114  1.00  0.00     0.065 A 
ATOM     86  N   UNL A   1      32.402  23.156  26.065  1.00  0.00    -0.237 NA
ATOM     87  Cl  UNL A   1      33.284  27.292  24.506  1.00  0.00    -0.083 Cl
ATOM     88  C   UNL A   1      31.693  25.471  25.796  1.00  0.00     0.093 A 
ATOM     89  C   UNL A   1      31.526  24.170  26.239  1.00  0.00     0.128 A 
BRANCH  82  90
ATOM     90  S   UNL A   1      34.733  21.034  25.607  1.00  0.00     0.270 S 
ATOM     91  O   UNL A   1      36.120  20.705  25.387  1.00  0.00    -0.201 OA
ATOM     92  O   UNL A   1      34.163  21.051  26.947  1.00  0.00    -0.201 OA
BRANCH  90  93
ATOM     93  C   UNL A   1      33.825  19.895  24.608  1.00  0.00     0.088 A 
ATOM     94  C   UNL A   1      34.253  18.571  24.502  1.00  0.00     0.022 A 
ATOM     95  C   UNL A   1      32.773  20.368  23.810  1.00  0.00     0.022 A 
ATOM     96  C   UNL A   1      33.595  17.705  23.628  1.00  0.00     0.001 A 
ATOM     97  C   UNL A   1      32.106  19.492  22.956  1.00  0.00     0.001 A 
ATOM     98  C   UNL A   1      32.518  18.162  22.866  1.00  0.00     0.000 A 
ENDBRANCH  90  93
ENDBRANCH  82  90
BRANCH  88  99
ATOM     99  C   UNL A   1      30.643  26.496  26.056  1.00  0.00     0.419 C 
ATOM    100  F   UNL A   1      30.970  27.349  27.063  1.00  0.00    -0.166 F 
ATOM    101  F   UNL A   1      30.371  27.266  24.968  1.00  0.00    -0.166 F 
ATOM    102  F   UNL A   1      29.446  25.950  26.417  1.00  0.00    -0.166 F 
ENDBRANCH  88  99
ENDBRANCH  77  80
ENDBRANCH  75  76
ENDBRANCH  74  75
ENDBRANCH  73  74
ENDBRANCH   1  73
TORSDOF 16
ENDMDL
MODEL 3
REMARK VINA RESULT:     -13.9      3.504      4.944
REMARK SMILES O=C(NCCCCCCNC(=O)c1cc2c(Cl)c(C(F)(F)F)cnc2n1S(=O)(=O)c1ccccc1)c1ccc(-c2c3nc(c(-c4c(F)c(F)c(F)c(F)c4F)c4ccc([nH]4)c(-c4c(F)c(F)c(F)c(F)c4F)c4nc(c(-c5c(F)c(F)c(F)c(F)c5F)c5ccc2[nH]5)C=C4)C=C3)cc1
REMARK SMILES IDX 6 1 5 2 4 3 3 4 1 5 2 6 36 8 37 9 98 10 38 11 97 12 39 13
REMARK SMILES IDX 40 14 41 15 91 16 42 17 96 18 90 19 92 20 43 21 95 22 89 23
REMARK SMILES IDX 88 24 44 26 76 27 56 28 75 29 57 30 60 31 74 32 93 33 58 34
REMARK SMILES IDX 59 35 73 37 94 38 61 39 45 40 46 41 54 42 47 43 48 44 52 45
REMARK SMILES IDX 55 46 49 47 50 48 53 49 51 50 77 51 78 52 86 53 79 54 80 55
REMARK SMILES IDX 84 56 87 57 81 58 82 59 85 60 83 61 62 62 63 63 71 64 64 65
REMARK SMILES IDX 65 66 69 67 72 68 66 69 67 70 70 71 68 72 7 73 8 74 9 75
REMARK SMILES IDX 10 76 11 77 12 79 13 80 14 81 26 82 15 83 25 84 16 85 24 86
REMARK SMILES IDX 17 87 18 88 23 89 27 90 28 91 29 92 30 93 31 94 35 95 32 96
REMARK SMILES IDX 34 97 33 98 19 99 20 100 21 101 22 102
REMARK H PARENT 3 7 92 25 60 36 10 78
REMARK Flexibility Score: inf
ROOT
ATOM      1  C   UNL A   1      34.057  28.573  26.192  1.00  0.00     0.002 C 
ENDROOT
BRANCH   1   2
ATOM      2  C   UNL A   1      33.546  29.646  27.159  1.00  0.00     0.021 C 
BRANCH   2   3
ATOM      3  C   UNL A   1      34.440  30.875  27.296  1.00  0.00     0.116 C 
BRANCH   3   4
ATOM      4  N   UNL A   1      34.361  31.558  28.572  1.00  0.00    -0.352 N 
ATOM      5  O   UNL A   1      34.889  32.401  30.568  1.00  0.00    -0.269 OA
ATOM      6  C   UNL A   1      35.228  31.691  29.623  1.00  0.00     0.251 C 
ATOM      7  H   UNL A   1      33.505  32.023  28.713  1.00  0.00     0.163 HD
BRANCH   6   8
ATOM      8  C   UNL A   1      36.511  30.956  29.707  1.00  0.00     0.039 A 
ATOM      9  C   UNL A   1      37.760  31.545  29.513  1.00  0.00     0.014 A 
ATOM     10  C   UNL A   1      36.437  29.590  30.025  1.00  0.00     0.014 A 
ATOM     11  C   UNL A   1      38.904  30.762  29.504  1.00  0.00     0.010 A 
ATOM     12  C   UNL A   1      37.586  28.810  30.069  1.00  0.00     0.010 A 
ATOM     13  C   UNL A   1      38.817  29.392  29.770  1.00  0.00    -0.014 A 
BRANCH  13  14
ATOM     14  C   UNL A   1      40.075  28.658  29.874  1.00  0.00     0.031 A 
ATOM     15  C   UNL A   1      40.621  28.517  31.257  1.00  0.00     0.074 A 
ATOM     16  C   UNL A   1      40.665  28.025  28.843  1.00  0.00     0.049 A 
ATOM     17  N   UNL A   1      41.788  28.850  31.708  1.00  0.00    -0.248 NA
ATOM     18  C   UNL A   1      39.710  27.980  32.284  1.00  0.00     0.031 C 
ATOM     19  C   UNL A   1      40.128  27.794  27.503  1.00  0.00     0.029 A 
ATOM     20  N   UNL A   1      41.854  27.356  28.828  1.00  0.00    -0.354 N 
ATOM     21  C   UNL A   1      41.817  28.432  33.036  1.00  0.00     0.074 A 
ATOM     22  C   UNL A   1      40.486  27.992  33.366  1.00  0.00     0.031 C 
ATOM     23  C   UNL A   1      40.886  26.865  26.880  1.00  0.00     0.029 A 
ATOM     24  C   UNL A   1      42.020  26.533  27.726  1.00  0.00     0.049 A 
ATOM     25  H   UNL A   1      42.532  27.449  29.535  1.00  0.00     0.167 HD
ATOM     26  C   UNL A   1      42.973  28.299  33.742  1.00  0.00     0.037 A 
ATOM     27  C   UNL A   1      42.976  25.587  27.569  1.00  0.00     0.037 A 
ATOM     28  C   UNL A   1      44.055  29.054  33.181  1.00  0.00     0.049 A 
ATOM     29  C   UNL A   1      44.083  25.891  28.508  1.00  0.00     0.074 A 
ATOM     30  C   UNL A   1      44.287  30.395  32.952  1.00  0.00     0.029 A 
ATOM     31  N   UNL A   1      45.020  28.388  32.470  1.00  0.00    -0.354 N 
ATOM     32  N   UNL A   1      44.892  26.906  28.401  1.00  0.00    -0.248 NA
ATOM     33  C   UNL A   1      44.084  25.225  29.802  1.00  0.00     0.031 C 
ATOM     34  C   UNL A   1      45.057  30.443  31.753  1.00  0.00     0.029 A 
ATOM     35  C   UNL A   1      45.259  29.125  31.339  1.00  0.00     0.049 A 
ATOM     36  H   UNL A   1      45.457  27.543  32.723  1.00  0.00     0.167 HD
ATOM     37  C   UNL A   1      45.190  27.259  29.708  1.00  0.00     0.074 A 
ATOM     38  C   UNL A   1      44.772  26.120  30.515  1.00  0.00     0.031 C 
ATOM     39  C   UNL A   1      45.492  28.547  30.038  1.00  0.00     0.037 A 
BRANCH  26  40
ATOM     40  C   UNL A   1      43.179  27.229  34.777  1.00  0.00     0.064 A 
ATOM     41  C   UNL A   1      43.396  27.569  36.124  1.00  0.00     0.173 A 
ATOM     42  C   UNL A   1      43.437  25.884  34.431  1.00  0.00     0.173 A 
ATOM     43  F   UNL A   1      43.235  28.833  36.542  1.00  0.00    -0.203 F 
ATOM     44  C   UNL A   1      43.861  26.632  37.051  1.00  0.00     0.198 A 
ATOM     45  C   UNL A   1      43.849  24.940  35.368  1.00  0.00     0.198 A 
ATOM     46  F   UNL A   1      43.402  25.470  33.156  1.00  0.00    -0.203 F 
ATOM     47  F   UNL A   1      44.150  27.018  38.300  1.00  0.00    -0.200 F 
ATOM     48  C   UNL A   1      44.082  25.318  36.673  1.00  0.00     0.200 A 
ATOM     49  F   UNL A   1      44.087  23.681  34.975  1.00  0.00    -0.200 F 
ATOM     50  F   UNL A   1      44.568  24.430  37.551  1.00  0.00    -0.200 F 
ENDBRANCH  26  40
BRANCH  27  51
ATOM     51  C   UNL A   1      42.861  24.277  26.885  1.00  0.00     0.064 A 
ATOM     52  C   UNL A   1      43.407  24.084  25.606  1.00  0.00     0.173 A 
ATOM     53  C   UNL A   1      42.466  23.117  27.579  1.00  0.00     0.173 A 
ATOM     54  F   UNL A   1      43.850  25.130  24.894  1.00  0.00    -0.203 F 
ATOM     55  C   UNL A   1      43.577  22.805  25.067  1.00  0.00     0.198 A 
ATOM     56  C   UNL A   1      42.622  21.843  27.035  1.00  0.00     0.198 A 
ATOM     57  F   UNL A   1      42.012  23.186  28.839  1.00  0.00    -0.203 F 
ATOM     58  F   UNL A   1      44.169  22.655  23.875  1.00  0.00    -0.200 F 
ATOM     59  C   UNL A   1      43.194  21.685  25.787  1.00  0.00     0.200 A 
ATOM     60  F   UNL A   1      42.278  20.766  27.757  1.00  0.00    -0.200 F 
ATOM     61  F   UNL A   1      43.414  20.456  25.299  1.00  0.00    -0.200 F 
ENDBRANCH  27  51
BRANCH  39  62
ATOM     62  C   UNL A   1      45.811  29.499  28.921  1.00  0.00     0.064 A 
ATOM     63  C   UNL A   1      44.839  30.223  28.210  1.00  0.00     0.173 A 
ATOM     64  C   UNL A   1      47.156  29.795  28.661  1.00  0.00     0.173 A 
ATOM     65  F   UNL A   1      43.535  30.072  28.478  1.00  0.00    -0.203 F 
ATOM     66  C   UNL A   1      45.201  31.165  27.249  1.00  0.00     0.198 A 
ATOM     67  C   UNL A   1      47.514  30.764  27.728  1.00  0.00     0.198 A 
ATOM     68  F   UNL A   1      48.127  29.177  29.352  1.00  0.00    -0.203 F 
ATOM     69  F   UNL A   1      44.255  31.836  26.575  1.00  0.00    -0.200 F 
ATOM     70  C   UNL A   1      46.538  31.441  27.016  1.00  0.00     0.200 A 
ATOM     71  F   UNL A   1      48.807  31.065  27.542  1.00  0.00    -0.200 F 
ATOM     72  F   UNL A   1      46.886  32.381  26.125  1.00  0.00    -0.200 F 
ENDBRANCH  39  62
ENDBRANCH  13  14
ENDBRANCH   6   8
ENDBRANCH   3   4
ENDBRANCH   2   3
ENDBRANCH   1   2
BRANCH   1  73
ATOM     73  C   UNL A   1      33.408  28.533  24.801  1.00  0.00     0.002 C 
BRANCH  73  74
ATOM     74  C   UNL A   1      34.028  27.585  23.766  1.00  0.00     0.021 C 
BRANCH  74  75
ATOM     75  C   UNL A   1      33.208  26.342  23.456  1.00  0.00     0.116 C 
BRANCH  75  76
ATOM     76  N   UNL A   1      32.295  25.957  24.510  1.00  0.00    -0.351 N 
ATOM     77  C   UNL A   1      32.474  25.071  25.538  1.00  0.00     0.269 C 
ATOM     78  H   UNL A   1      31.415  26.398  24.485  1.00  0.00     0.163 HD
ATOM     79  O   UNL A   1      31.565  24.938  26.354  1.00  0.00    -0.268 OA
BRANCH  77  80
ATOM     80  C   UNL A   1      33.640  24.224  25.556  1.00  0.00     0.124 A 
ATOM     81  C   UNL A   1      34.862  24.555  26.127  1.00  0.00     0.047 A 
ATOM     82  N   UNL A   1      33.834  23.024  24.892  1.00  0.00    -0.211 N 
ATOM     83  C   UNL A   1      35.797  23.528  25.835  1.00  0.00     0.040 A 
ATOM     84  C   UNL A   1      35.128  22.588  25.053  1.00  0.00     0.156 A 
ATOM     85  C   UNL A   1      37.152  23.266  26.112  1.00  0.00     0.065 A 
ATOM     86  N   UNL A   1      35.676  21.464  24.559  1.00  0.00    -0.237 NA
ATOM     87  Cl  UNL A   1      37.952  24.453  27.049  1.00  0.00    -0.083 Cl
ATOM     88  C   UNL A   1      37.760  22.109  25.639  1.00  0.00     0.093 A 
ATOM     89  C   UNL A   1      36.973  21.263  24.878  1.00  0.00     0.128 A 
BRANCH  82  90
ATOM     90  S   UNL A   1      32.680  22.307  23.875  1.00  0.00     0.270 S 
ATOM     91  O   UNL A   1      31.407  22.814  24.325  1.00  0.00    -0.201 OA
ATOM     92  O   UNL A   1      33.171  22.578  22.532  1.00  0.00    -0.201 OA
BRANCH  90  93
ATOM     93  C   UNL A   1      32.590  20.558  24.114  1.00  0.00     0.088 A 
ATOM     94  C   UNL A   1      32.750  20.024  25.393  1.00  0.00     0.022 A 
ATOM     95  C   UNL A   1      32.514  19.716  22.995  1.00  0.00     0.022 A 
ATOM     96  C   UNL A   1      32.786  18.639  25.558  1.00  0.00     0.001 A 
ATOM     97  C   UNL A   1      32.528  18.333  23.170  1.00  0.00     0.001 A 
ATOM     98  C   UNL A   1      32.664  17.797  24.451  1.00  0.00     0.000 A 
ENDBRANCH  90  93
ENDBRANCH  82  90
BRANCH  88  99
ATOM     99  C   UNL A   1      39.184  21.766  25.918  1.00  0.00     0.419 C 
ATOM    100  F   UNL A   1      39.536  20.539  25.451  1.00  0.00    -0.166 F 
ATOM    101  F   UNL A   1      40.060  22.654  25.376  1.00  0.00    -0.166 F 
ATOM    102  F   UNL A   1      39.473  21.744  27.251  1.00  0.00    -0.166 F 
ENDBRANCH  88  99
ENDBRANCH  77  80
ENDBRANCH  75  76
ENDBRANCH  74  75
ENDBRANCH  73  74
ENDBRANCH   1  73
TORSDOF 16
ENDMDL
