MODEL 1
REMARK VINA RESULT:     -12.3      0.000      0.000
REMARK SMILES COc1cc(OC)cc(-c2cc3nc(C)c(CCC(=O)NCCCCCCNC(=O)c4ccc(-c5c6nc(c(-c7c(F)c(F)c(F)c(F)c7F)c7ccc([nH]7)c(-c7c(F)c(F)c(F)c(F)c7F)c7nc(c(-c8c(F)c(F)c(F)c(F)c8F)c8ccc5[nH]8)C=C7)C=C6)cc4)c(C)n3n2)c1
REMARK SMILES IDX 23 1 22 2 21 3 19 4 20 5 18 7 17 8 16 9 10 10 11 11 97 12
REMARK SMILES IDX 12 13 96 14 13 15 94 16 14 17 95 18 15 19 9 20 3 21 4 22
REMARK SMILES IDX 98 23 5 24 8 25 2 26 1 27 6 28 7 29 24 30 25 31 26 32 27 33
REMARK SMILES IDX 28 34 29 35 30 37 31 38 32 39 93 40 33 41 92 42 34 43 35 44
REMARK SMILES IDX 36 45 86 46 37 47 91 48 85 49 87 50 38 51 90 52 84 53 83 54
REMARK SMILES IDX 39 56 71 57 51 58 70 59 52 60 55 61 69 62 88 63 53 64 54 65
REMARK SMILES IDX 68 67 89 68 56 69 40 70 41 71 49 72 42 73 43 74 47 75 50 76
REMARK SMILES IDX 44 77 45 78 48 79 46 80 72 81 73 82 81 83 74 84 75 85 79 86
REMARK SMILES IDX 82 87 76 88 77 89 80 90 78 91 57 92 58 93 66 94 59 95 60 96
REMARK SMILES IDX 64 97 67 98 61 99 62 100 65 101 63 102
REMARK H PARENT 21 6 28 36 87 55 55 66
REMARK Flexibility Score: inf
ROOT
ATOM      1  C   UNL A   1      39.696  22.606  26.645  1.00  0.00     0.021 C 
ENDROOT
BRANCH   1   2
ATOM      2  C   UNL A   1      38.690  21.785  25.859  1.00  0.00     0.116 C 
BRANCH   2   3
ATOM      3  N   UNL A   1      37.876  22.653  25.014  1.00  0.00    -0.356 N 
ATOM      4  C   UNL A   1      36.813  22.359  24.211  1.00  0.00     0.220 C 
ATOM      5  O   UNL A   1      36.406  23.222  23.432  1.00  0.00    -0.275 OA
ATOM      6  H   UNL A   1      38.135  23.604  25.027  1.00  0.00     0.163 HD
BRANCH   4   7
ATOM      7  C   UNL A   1      36.126  21.006  24.287  1.00  0.00     0.105 C 
BRANCH   7   8
ATOM      8  C   UNL A   1      35.171  20.883  25.486  1.00  0.00     0.049 C 
BRANCH   8   9
ATOM      9  C   UNL A   1      33.933  21.739  25.345  1.00  0.00    -0.005 A 
ATOM     10  C   UNL A   1      31.674  25.566  24.631  1.00  0.00     0.095 A 
ATOM     11  C   UNL A   1      31.201  24.395  24.006  1.00  0.00     0.080 A 
ATOM     12  N   UNL A   1      32.550  25.194  25.591  1.00  0.00    -0.166 NA
ATOM     13  C   UNL A   1      31.839  23.309  24.513  1.00  0.00     0.156 A 
ATOM     14  N   UNL A   1      32.725  23.816  25.440  1.00  0.00    -0.219 N 
ATOM     15  N   UNL A   1      31.808  22.021  24.082  1.00  0.00    -0.234 NA
ATOM     16  C   UNL A   1      33.762  22.972  25.907  1.00  0.00     0.046 A 
ATOM     17  C   UNL A   1      32.811  21.271  24.432  1.00  0.00     0.045 A 
ATOM     18  C   UNL A   1      34.702  23.601  26.888  1.00  0.00     0.067 C 
ATOM     19  C   UNL A   1      32.779  19.864  23.854  1.00  0.00     0.067 C 
BRANCH  10  20
ATOM     20  C   UNL A   1      31.285  26.980  24.290  1.00  0.00     0.009 A 
ATOM     21  C   UNL A   1      29.925  28.629  23.047  1.00  0.00     0.123 A 
ATOM     22  C   UNL A   1      30.348  29.641  23.887  1.00  0.00     0.092 A 
ATOM     23  C   UNL A   1      30.380  27.317  23.257  1.00  0.00     0.057 A 
ATOM     24  C   UNL A   1      31.262  29.365  24.901  1.00  0.00     0.123 A 
ATOM     25  C   UNL A   1      31.745  28.052  25.074  1.00  0.00     0.057 A 
BRANCH  21  26
ATOM     26  O   UNL A   1      29.252  29.003  21.913  1.00  0.00    -0.497 OA
ATOM     27  C   UNL A   1      29.232  30.400  21.646  1.00  0.00     0.278 C 
ENDBRANCH  21  26
BRANCH  24  28
ATOM     28  O   UNL A   1      31.586  30.469  25.639  1.00  0.00    -0.497 OA
ATOM     29  C   UNL A   1      32.359  30.303  26.813  1.00  0.00     0.278 C 
ENDBRANCH  24  28
ENDBRANCH  10  20
ENDBRANCH   8   9
ENDBRANCH   7   8
ENDBRANCH   4   7
ENDBRANCH   2   3
ENDBRANCH   1   2
BRANCH   1  30
ATOM     30  C   UNL A   1      40.730  21.822  27.427  1.00  0.00     0.002 C 
BRANCH  30  31
ATOM     31  C   UNL A   1      40.812  20.295  27.254  1.00  0.00     0.002 C 
BRANCH  31  32
ATOM     32  C   UNL A   1      41.553  19.595  26.090  1.00  0.00     0.021 C 
BRANCH  32  33
ATOM     33  C   UNL A   1      42.976  19.005  26.232  1.00  0.00     0.116 C 
BRANCH  33  34
ATOM     34  N   UNL A   1      44.088  19.519  25.411  1.00  0.00    -0.352 N 
ATOM     35  C   UNL A   1      44.523  20.806  25.016  1.00  0.00     0.251 C 
ATOM     36  H   UNL A   1      44.661  18.801  25.057  1.00  0.00     0.163 HD
ATOM     37  O   UNL A   1      45.363  20.862  24.127  1.00  0.00    -0.269 OA
BRANCH  35  38
ATOM     38  C   UNL A   1      44.082  22.109  25.635  1.00  0.00     0.039 A 
ATOM     39  C   UNL A   1      43.194  23.020  25.035  1.00  0.00     0.014 A 
ATOM     40  C   UNL A   1      44.577  22.487  26.856  1.00  0.00     0.014 A 
ATOM     41  C   UNL A   1      42.962  24.298  25.613  1.00  0.00     0.010 A 
ATOM     42  C   UNL A   1      44.484  23.777  27.360  1.00  0.00     0.010 A 
ATOM     43  C   UNL A   1      43.696  24.715  26.735  1.00  0.00    -0.014 A 
BRANCH  43  44
ATOM     44  C   UNL A   1      43.389  25.903  27.550  1.00  0.00     0.031 A 
ATOM     45  C   UNL A   1      44.302  27.013  27.171  1.00  0.00     0.074 A 
ATOM     46  C   UNL A   1      42.245  26.200  28.217  1.00  0.00     0.049 A 
ATOM     47  N   UNL A   1      45.297  27.479  27.847  1.00  0.00    -0.248 NA
ATOM     48  C   UNL A   1      44.243  27.498  25.777  1.00  0.00     0.031 C 
ATOM     49  C   UNL A   1      41.008  25.427  28.314  1.00  0.00     0.029 A 
ATOM     50  N   UNL A   1      41.913  27.344  28.898  1.00  0.00    -0.354 N 
ATOM     51  C   UNL A   1      45.857  28.455  27.030  1.00  0.00     0.074 A 
ATOM     52  C   UNL A   1      45.370  28.202  25.705  1.00  0.00     0.031 C 
ATOM     53  C   UNL A   1      40.021  26.178  28.857  1.00  0.00     0.029 A 
ATOM     54  C   UNL A   1      40.565  27.463  29.245  1.00  0.00     0.049 A 
ATOM     55  H   UNL A   1      42.579  28.033  29.126  1.00  0.00     0.167 HD
ATOM     56  C   UNL A   1      46.406  29.580  27.561  1.00  0.00     0.037 A 
ATOM     57  C   UNL A   1      39.941  28.552  29.772  1.00  0.00     0.037 A 
ATOM     58  C   UNL A   1      46.641  29.411  28.977  1.00  0.00     0.049 A 
ATOM     59  C   UNL A   1      40.998  29.458  30.285  1.00  0.00     0.074 A 
ATOM     60  C   UNL A   1      47.345  28.497  29.740  1.00  0.00     0.029 A 
ATOM     61  N   UNL A   1      45.767  30.019  29.844  1.00  0.00    -0.354 N 
ATOM     62  N   UNL A   1      41.747  29.201  31.317  1.00  0.00    -0.248 NA
ATOM     63  C   UNL A   1      41.512  30.468  29.373  1.00  0.00     0.031 C 
ATOM     64  C   UNL A   1      46.534  28.270  30.892  1.00  0.00     0.029 A 
ATOM     65  C   UNL A   1      45.421  29.107  30.808  1.00  0.00     0.049 A 
ATOM     66  H   UNL A   1      45.443  30.947  29.784  1.00  0.00     0.167 HD
ATOM     67  C   UNL A   1      43.003  29.664  30.958  1.00  0.00     0.074 A 
ATOM     68  C   UNL A   1      42.777  30.521  29.798  1.00  0.00     0.031 C 
ATOM     69  C   UNL A   1      44.129  29.071  31.451  1.00  0.00     0.037 A 
BRANCH  56  70
ATOM     70  C   UNL A   1      46.340  30.943  26.903  1.00  0.00     0.064 A 
ATOM     71  C   UNL A   1      47.517  31.713  26.842  1.00  0.00     0.173 A 
ATOM     72  C   UNL A   1      45.150  31.639  26.585  1.00  0.00     0.173 A 
ATOM     73  F   UNL A   1      48.706  31.165  27.132  1.00  0.00    -0.203 F 
ATOM     74  C   UNL A   1      47.491  33.085  26.578  1.00  0.00     0.198 A 
ATOM     75  C   UNL A   1      45.135  32.995  26.264  1.00  0.00     0.198 A 
ATOM     76  F   UNL A   1      43.935  31.089  26.676  1.00  0.00    -0.203 F 
ATOM     77  F   UNL A   1      48.621  33.798  26.669  1.00  0.00    -0.200 F 
ATOM     78  C   UNL A   1      46.300  33.727  26.296  1.00  0.00     0.200 A 
ATOM     79  F   UNL A   1      43.964  33.597  26.009  1.00  0.00    -0.200 F 
ATOM     80  F   UNL A   1      46.263  35.051  26.108  1.00  0.00    -0.200 F 
ENDBRANCH  56  70
BRANCH  57  81
ATOM     81  C   UNL A   1      38.532  29.020  29.643  1.00  0.00     0.064 A 
ATOM     82  C   UNL A   1      37.745  29.292  30.780  1.00  0.00     0.173 A 
ATOM     83  C   UNL A   1      38.028  29.492  28.417  1.00  0.00     0.173 A 
ATOM     84  F   UNL A   1      38.163  28.915  31.998  1.00  0.00    -0.203 F 
ATOM     85  C   UNL A   1      36.555  30.027  30.699  1.00  0.00     0.198 A 
ATOM     86  C   UNL A   1      36.835  30.219  28.336  1.00  0.00     0.198 A 
ATOM     87  F   UNL A   1      38.731  29.349  27.285  1.00  0.00    -0.203 F 
ATOM     88  F   UNL A   1      35.875  30.328  31.814  1.00  0.00    -0.200 F 
ATOM     89  C   UNL A   1      36.108  30.501  29.478  1.00  0.00     0.200 A 
ATOM     90  F   UNL A   1      36.434  30.705  27.153  1.00  0.00    -0.200 F 
ATOM     91  F   UNL A   1      35.009  31.263  29.405  1.00  0.00    -0.200 F 
ENDBRANCH  57  81
BRANCH  69  92
ATOM     92  C   UNL A   1      43.969  28.134  32.617  1.00  0.00     0.064 A 
ATOM     93  C   UNL A   1      43.824  26.739  32.505  1.00  0.00     0.173 A 
ATOM     94  C   UNL A   1      44.090  28.665  33.908  1.00  0.00     0.173 A 
ATOM     95  F   UNL A   1      43.800  26.140  31.309  1.00  0.00    -0.203 F 
ATOM     96  C   UNL A   1      43.758  25.925  33.636  1.00  0.00     0.198 A 
ATOM     97  C   UNL A   1      44.064  27.846  35.033  1.00  0.00     0.198 A 
ATOM     98  F   UNL A   1      44.279  29.984  34.077  1.00  0.00    -0.203 F 
ATOM     99  F   UNL A   1      43.602  24.600  33.502  1.00  0.00    -0.200 F 
ATOM    100  C   UNL A   1      43.885  26.479  34.899  1.00  0.00     0.200 A 
ATOM    101  F   UNL A   1      44.236  28.382  36.250  1.00  0.00    -0.200 F 
ATOM    102  F   UNL A   1      43.863  25.693  35.984  1.00  0.00    -0.200 F 
ENDBRANCH  69  92
ENDBRANCH  43  44
ENDBRANCH  35  38
ENDBRANCH  33  34
ENDBRANCH  32  33
ENDBRANCH  31  32
ENDBRANCH  30  31
ENDBRANCH   1  30
TORSDOF 18
ENDMDL
MODEL 2
REMARK VINA RESULT:     -12.2      1.663      2.660
REMARK SMILES COc1cc(OC)cc(-c2cc3nc(C)c(CCC(=O)NCCCCCCNC(=O)c4ccc(-c5c6nc(c(-c7c(F)c(F)c(F)c(F)c7F)c7ccc([nH]7)c(-c7c(F)c(F)c(F)c(F)c7F)c7nc(c(-c8c(F)c(F)c(F)c(F)c8F)c8ccc5[nH]8)C=C7)C=C6)cc4)c(C)n3n2)c1
REMARK SMILES IDX 23 1 22 2 21 3 19 4 20 5 18 7 17 8 16 9 10 10 11 11 97 12
REMARK SMILES IDX 12 13 96 14 13 15 94 16 14 17 95 18 15 19 9 20 3 21 4 22
REMARK SMILES IDX 98 23 5 24 8 25 2 26 1 27 6 28 7 29 24 30 25 31 26 32 27 33
REMARK SMILES IDX 28 34 29 35 30 37 31 38 32 39 93 40 33 41 92 42 34 43 35 44
REMARK SMILES IDX 36 45 86 46 37 47 91 48 85 49 87 50 38 51 90 52 84 53 83 54
REMARK SMILES IDX 39 56 71 57 51 58 70 59 52 60 55 61 69 62 88 63 53 64 54 65
REMARK SMILES IDX 68 67 89 68 56 69 40 70 41 71 49 72 42 73 43 74 47 75 50 76
REMARK SMILES IDX 44 77 45 78 48 79 46 80 72 81 73 82 81 83 74 84 75 85 79 86
REMARK SMILES IDX 82 87 76 88 77 89 80 90 78 91 57 92 58 93 66 94 59 95 60 96
REMARK SMILES IDX 64 97 67 98 61 99 62 100 65 101 63 102
REMARK H PARENT 21 6 28 36 87 55 55 66
REMARK Flexibility Score: inf
ROOT
ATOM      1  C   UNL A   1      37.136  23.704  26.020  1.00  0.00     0.021 C 
ENDROOT
BRANCH   1   2
ATOM      2  C   UNL A   1      36.722  23.330  24.608  1.00  0.00     0.116 C 
BRANCH   2   3
ATOM      3  N   UNL A   1      36.694  21.878  24.457  1.00  0.00    -0.356 N 
ATOM      4  C   UNL A   1      36.019  20.930  25.170  1.00  0.00     0.220 C 
ATOM      5  O   UNL A   1      36.304  19.745  24.990  1.00  0.00    -0.275 OA
ATOM      6  H   UNL A   1      37.248  21.528  23.722  1.00  0.00     0.163 HD
BRANCH   4   7
ATOM      7  C   UNL A   1      34.925  21.318  26.148  1.00  0.00     0.105 C 
BRANCH   7   8
ATOM      8  C   UNL A   1      33.576  20.646  25.841  1.00  0.00     0.049 C 
BRANCH   8   9
ATOM      9  C   UNL A   1      32.568  21.595  25.234  1.00  0.00    -0.005 A 
ATOM     10  C   UNL A   1      30.838  25.630  24.244  1.00  0.00     0.095 A 
ATOM     11  C   UNL A   1      30.857  24.654  23.228  1.00  0.00     0.080 A 
ATOM     12  N   UNL A   1      31.066  25.004  25.420  1.00  0.00    -0.166 NA
ATOM     13  C   UNL A   1      31.179  23.444  23.754  1.00  0.00     0.156 A 
ATOM     14  N   UNL A   1      31.379  23.681  25.097  1.00  0.00    -0.219 N 
ATOM     15  N   UNL A   1      31.468  22.283  23.112  1.00  0.00    -0.234 NA
ATOM     16  C   UNL A   1      32.041  22.689  25.860  1.00  0.00     0.046 A 
ATOM     17  C   UNL A   1      32.159  21.410  23.781  1.00  0.00     0.045 A 
ATOM     18  C   UNL A   1      32.250  23.029  27.303  1.00  0.00     0.067 C 
ATOM     19  C   UNL A   1      32.536  20.163  22.994  1.00  0.00     0.067 C 
BRANCH  10  20
ATOM     20  C   UNL A   1      30.613  27.108  24.060  1.00  0.00     0.009 A 
ATOM     21  C   UNL A   1      31.061  29.470  24.638  1.00  0.00     0.123 A 
ATOM     22  C   UNL A   1      30.412  29.893  23.493  1.00  0.00     0.092 A 
ATOM     23  C   UNL A   1      31.167  28.096  24.907  1.00  0.00     0.057 A 
ATOM     24  C   UNL A   1      29.824  28.960  22.644  1.00  0.00     0.123 A 
ATOM     25  C   UNL A   1      29.901  27.586  22.947  1.00  0.00     0.057 A 
BRANCH  21  26
ATOM     26  O   UNL A   1      31.374  30.430  25.566  1.00  0.00    -0.497 OA
ATOM     27  C   UNL A   1      32.042  29.960  26.729  1.00  0.00     0.278 C 
ENDBRANCH  21  26
BRANCH  24  28
ATOM     28  O   UNL A   1      29.218  29.535  21.562  1.00  0.00    -0.497 OA
ATOM     29  C   UNL A   1      27.958  30.158  21.736  1.00  0.00     0.278 C 
ENDBRANCH  24  28
ENDBRANCH  10  20
ENDBRANCH   8   9
ENDBRANCH   7   8
ENDBRANCH   4   7
ENDBRANCH   2   3
ENDBRANCH   1   2
BRANCH   1  30
ATOM     30  C   UNL A   1      38.616  23.943  26.239  1.00  0.00     0.002 C 
BRANCH  30  31
ATOM     31  C   UNL A   1      39.473  22.839  26.886  1.00  0.00     0.002 C 
BRANCH  31  32
ATOM     32  C   UNL A   1      39.847  21.512  26.184  1.00  0.00     0.021 C 
BRANCH  32  33
ATOM     33  C   UNL A   1      41.274  20.914  26.220  1.00  0.00     0.116 C 
BRANCH  33  34
ATOM     34  N   UNL A   1      42.339  21.460  25.358  1.00  0.00    -0.352 N 
ATOM     35  C   UNL A   1      42.938  22.732  25.199  1.00  0.00     0.251 C 
ATOM     36  H   UNL A   1      42.722  20.783  24.756  1.00  0.00     0.163 HD
ATOM     37  O   UNL A   1      43.647  22.894  24.214  1.00  0.00    -0.269 OA
BRANCH  35  38
ATOM     38  C   UNL A   1      42.823  23.883  26.167  1.00  0.00     0.039 A 
ATOM     39  C   UNL A   1      43.329  23.877  27.479  1.00  0.00     0.014 A 
ATOM     40  C   UNL A   1      42.164  25.025  25.795  1.00  0.00     0.014 A 
ATOM     41  C   UNL A   1      43.033  24.939  28.378  1.00  0.00     0.010 A 
ATOM     42  C   UNL A   1      41.738  25.996  26.691  1.00  0.00     0.010 A 
ATOM     43  C   UNL A   1      42.143  25.959  28.004  1.00  0.00    -0.014 A 
BRANCH  43  44
ATOM     44  C   UNL A   1      41.938  27.214  28.747  1.00  0.00     0.031 A 
ATOM     45  C   UNL A   1      42.993  28.192  28.371  1.00  0.00     0.074 A 
ATOM     46  C   UNL A   1      40.805  27.675  29.336  1.00  0.00     0.049 A 
ATOM     47  N   UNL A   1      44.001  28.574  29.079  1.00  0.00    -0.248 NA
ATOM     48  C   UNL A   1      43.061  28.609  26.955  1.00  0.00     0.031 C 
ATOM     49  C   UNL A   1      39.483  27.055  29.398  1.00  0.00     0.029 A 
ATOM     50  N   UNL A   1      40.577  28.882  29.946  1.00  0.00    -0.354 N 
ATOM     51  C   UNL A   1      44.712  29.436  28.252  1.00  0.00     0.074 A 
ATOM     52  C   UNL A   1      44.266  29.175  26.914  1.00  0.00     0.031 C 
ATOM     53  C   UNL A   1      38.565  27.941  29.852  1.00  0.00     0.029 A 
ATOM     54  C   UNL A   1      39.236  29.172  30.213  1.00  0.00     0.049 A 
ATOM     55  H   UNL A   1      41.306  29.500  30.180  1.00  0.00     0.167 HD
ATOM     56  C   UNL A   1      45.362  30.516  28.763  1.00  0.00     0.037 A 
ATOM     57  C   UNL A   1      38.719  30.352  30.655  1.00  0.00     0.037 A 
ATOM     58  C   UNL A   1      45.505  30.393  30.195  1.00  0.00     0.049 A 
ATOM     59  C   UNL A   1      39.848  31.155  31.185  1.00  0.00     0.074 A 
ATOM     60  C   UNL A   1      46.057  29.444  31.036  1.00  0.00     0.029 A 
ATOM     61  N   UNL A   1      44.666  31.140  30.985  1.00  0.00    -0.354 N 
ATOM     62  N   UNL A   1      40.510  30.865  32.268  1.00  0.00    -0.248 NA
ATOM     63  C   UNL A   1      40.522  32.051  30.260  1.00  0.00     0.031 C 
ATOM     64  C   UNL A   1      45.169  29.370  32.150  1.00  0.00     0.029 A 
ATOM     65  C   UNL A   1      44.168  30.324  31.968  1.00  0.00     0.049 A 
ATOM     66  H   UNL A   1      44.457  32.095  30.866  1.00  0.00     0.167 HD
ATOM     67  C   UNL A   1      41.827  31.162  31.959  1.00  0.00     0.074 A 
ATOM     68  C   UNL A   1      41.762  31.980  30.751  1.00  0.00     0.031 C 
ATOM     69  C   UNL A   1      42.850  30.469  32.540  1.00  0.00     0.037 A 
BRANCH  56  70
ATOM     70  C   UNL A   1      45.490  31.842  28.042  1.00  0.00     0.064 A 
ATOM     71  C   UNL A   1      44.311  32.515  27.668  1.00  0.00     0.173 A 
ATOM     72  C   UNL A   1      46.678  32.345  27.461  1.00  0.00     0.173 A 
ATOM     73  F   UNL A   1      43.120  32.123  28.146  1.00  0.00    -0.203 F 
ATOM     74  C   UNL A   1      44.314  33.541  26.719  1.00  0.00     0.198 A 
ATOM     75  C   UNL A   1      46.682  33.408  26.560  1.00  0.00     0.198 A 
ATOM     76  F   UNL A   1      47.874  31.776  27.636  1.00  0.00    -0.203 F 
ATOM     77  F   UNL A   1      43.151  34.053  26.295  1.00  0.00    -0.200 F 
ATOM     78  C   UNL A   1      45.498  33.983  26.161  1.00  0.00     0.200 A 
ATOM     79  F   UNL A   1      47.844  33.808  26.022  1.00  0.00    -0.200 F 
ATOM     80  F   UNL A   1      45.497  34.919  25.205  1.00  0.00    -0.200 F 
ENDBRANCH  56  70
BRANCH  57  81
ATOM     81  C   UNL A   1      37.383  30.971  30.428  1.00  0.00     0.064 A 
ATOM     82  C   UNL A   1      36.541  31.309  31.507  1.00  0.00     0.173 A 
ATOM     83  C   UNL A   1      37.032  31.515  29.179  1.00  0.00     0.173 A 
ATOM     84  F   UNL A   1      36.817  30.869  32.743  1.00  0.00    -0.203 F 
ATOM     85  C   UNL A   1      35.446  32.169  31.350  1.00  0.00     0.198 A 
ATOM     86  C   UNL A   1      35.935  32.367  29.022  1.00  0.00     0.198 A 
ATOM     87  F   UNL A   1      37.805  31.315  28.102  1.00  0.00    -0.203 F 
ATOM     88  F   UNL A   1      34.715  32.524  32.416  1.00  0.00    -0.200 F 
ATOM     89  C   UNL A   1      35.152  32.708  30.110  1.00  0.00     0.200 A 
ATOM     90  F   UNL A   1      35.684  32.913  27.823  1.00  0.00    -0.200 F 
ATOM     91  F   UNL A   1      34.150  33.587  29.970  1.00  0.00    -0.200 F 
ENDBRANCH  57  81
BRANCH  69  92
ATOM     92  C   UNL A   1      42.523  29.617  33.735  1.00  0.00     0.064 A 
ATOM     93  C   UNL A   1      42.080  28.283  33.667  1.00  0.00     0.173 A 
ATOM     94  C   UNL A   1      42.788  30.141  35.007  1.00  0.00     0.173 A 
ATOM     95  F   UNL A   1      41.898  27.674  32.489  1.00  0.00    -0.203 F 
ATOM     96  C   UNL A   1      41.870  27.530  34.822  1.00  0.00     0.198 A 
ATOM     97  C   UNL A   1      42.616  29.374  36.156  1.00  0.00     0.198 A 
ATOM     98  F   UNL A   1      43.258  31.392  35.134  1.00  0.00    -0.203 F 
ATOM     99  F   UNL A   1      41.432  26.266  34.730  1.00  0.00    -0.200 F 
ATOM    100  C   UNL A   1      42.145  28.074  36.065  1.00  0.00     0.200 A 
ATOM    101  F   UNL A   1      42.929  29.889  37.353  1.00  0.00    -0.200 F 
ATOM    102  F   UNL A   1      41.984  27.338  37.173  1.00  0.00    -0.200 F 
ENDBRANCH  69  92
ENDBRANCH  43  44
ENDBRANCH  35  38
ENDBRANCH  33  34
ENDBRANCH  32  33
ENDBRANCH  31  32
ENDBRANCH  30  31
ENDBRANCH   1  30
TORSDOF 18
ENDMDL
MODEL 3
REMARK VINA RESULT:     -12.0      3.318      9.122
REMARK SMILES COc1cc(OC)cc(-c2cc3nc(C)c(CCC(=O)NCCCCCCNC(=O)c4ccc(-c5c6nc(c(-c7c(F)c(F)c(F)c(F)c7F)c7ccc([nH]7)c(-c7c(F)c(F)c(F)c(F)c7F)c7nc(c(-c8c(F)c(F)c(F)c(F)c8F)c8ccc5[nH]8)C=C7)C=C6)cc4)c(C)n3n2)c1
REMARK SMILES IDX 23 1 22 2 21 3 19 4 20 5 18 7 17 8 16 9 10 10 11 11 97 12
REMARK SMILES IDX 12 13 96 14 13 15 94 16 14 17 95 18 15 19 9 20 3 21 4 22
REMARK SMILES IDX 98 23 5 24 8 25 2 26 1 27 6 28 7 29 24 30 25 31 26 32 27 33
REMARK SMILES IDX 28 34 29 35 30 37 31 38 32 39 93 40 33 41 92 42 34 43 35 44
REMARK SMILES IDX 36 45 86 46 37 47 91 48 85 49 87 50 38 51 90 52 84 53 83 54
REMARK SMILES IDX 39 56 71 57 51 58 70 59 52 60 55 61 69 62 88 63 53 64 54 65
REMARK SMILES IDX 68 67 89 68 56 69 40 70 41 71 49 72 42 73 43 74 47 75 50 76
REMARK SMILES IDX 44 77 45 78 48 79 46 80 72 81 73 82 81 83 74 84 75 85 79 86
REMARK SMILES IDX 82 87 76 88 77 89 80 90 78 91 57 92 58 93 66 94 59 95 60 96
REMARK SMILES IDX 64 97 67 98 61 99 62 100 65 101 63 102
REMARK H PARENT 21 6 28 36 87 55 55 66
REMARK Flexibility Score: inf
ROOT
ATOM      1  C   UNL A   1      32.933  28.046  27.120  1.00  0.00     0.021 C 
ENDROOT
BRANCH   1   2
ATOM      2  C   UNL A   1      32.820  27.294  25.806  1.00  0.00     0.116 C 
BRANCH   2   3
ATOM      3  N   UNL A   1      33.548  27.999  24.755  1.00  0.00    -0.356 N 
ATOM      4  C   UNL A   1      33.089  28.629  23.635  1.00  0.00     0.220 C 
ATOM      5  O   UNL A   1      33.906  28.983  22.783  1.00  0.00    -0.275 OA
ATOM      6  H   UNL A   1      34.525  28.026  24.875  1.00  0.00     0.163 HD
BRANCH   4   7
ATOM      7  C   UNL A   1      31.609  28.910  23.446  1.00  0.00     0.105 C 
BRANCH   7   8
ATOM      8  C   UNL A   1      30.975  28.070  22.324  1.00  0.00     0.049 C 
BRANCH   8   9
ATOM      9  C   UNL A   1      30.950  26.591  22.636  1.00  0.00    -0.005 A 
ATOM     10  C   UNL A   1      32.741  22.635  23.820  1.00  0.00     0.095 A 
ATOM     11  C   UNL A   1      31.511  23.002  24.400  1.00  0.00     0.080 A 
ATOM     12  N   UNL A   1      32.954  23.448  22.761  1.00  0.00    -0.166 NA
ATOM     13  C   UNL A   1      31.002  24.087  23.762  1.00  0.00     0.156 A 
ATOM     14  N   UNL A   1      31.935  24.403  22.797  1.00  0.00    -0.219 N 
ATOM     15  N   UNL A   1      29.935  24.855  24.101  1.00  0.00    -0.234 NA
ATOM     16  C   UNL A   1      31.855  25.675  22.180  1.00  0.00     0.046 A 
ATOM     17  C   UNL A   1      29.911  26.059  23.611  1.00  0.00     0.045 A 
ATOM     18  C   UNL A   1      32.919  25.959  21.166  1.00  0.00     0.067 C 
ATOM     19  C   UNL A   1      28.746  26.914  24.088  1.00  0.00     0.067 C 
BRANCH  10  20
ATOM     20  C   UNL A   1      33.663  21.542  24.293  1.00  0.00     0.009 A 
ATOM     21  C   UNL A   1      34.232  19.158  24.618  1.00  0.00     0.123 A 
ATOM     22  C   UNL A   1      35.542  19.490  24.904  1.00  0.00     0.092 A 
ATOM     23  C   UNL A   1      33.312  20.172  24.305  1.00  0.00     0.057 A 
ATOM     24  C   UNL A   1      35.929  20.827  24.934  1.00  0.00     0.123 A 
ATOM     25  C   UNL A   1      34.987  21.838  24.660  1.00  0.00     0.057 A 
BRANCH  21  26
ATOM     26  O   UNL A   1      33.847  17.867  24.871  1.00  0.00    -0.497 OA
ATOM     27  C   UNL A   1      32.644  17.722  25.614  1.00  0.00     0.278 C 
ENDBRANCH  21  26
BRANCH  24  28
ATOM     28  O   UNL A   1      37.251  20.990  25.238  1.00  0.00    -0.497 OA
ATOM     29  C   UNL A   1      37.714  22.275  25.610  1.00  0.00     0.278 C 
ENDBRANCH  24  28
ENDBRANCH  10  20
ENDBRANCH   8   9
ENDBRANCH   7   8
ENDBRANCH   4   7
ENDBRANCH   2   3
ENDBRANCH   1   2
BRANCH   1  30
ATOM     30  C   UNL A   1      34.084  29.025  27.230  1.00  0.00     0.002 C 
BRANCH  30  31
ATOM     31  C   UNL A   1      33.792  30.537  27.242  1.00  0.00     0.002 C 
BRANCH  31  32
ATOM     32  C   UNL A   1      32.369  31.143  27.233  1.00  0.00     0.021 C 
BRANCH  32  33
ATOM     33  C   UNL A   1      32.038  32.505  26.578  1.00  0.00     0.116 C 
BRANCH  33  34
ATOM     34  N   UNL A   1      32.125  33.755  27.357  1.00  0.00    -0.352 N 
ATOM     35  C   UNL A   1      32.948  34.216  28.411  1.00  0.00     0.251 C 
ATOM     36  H   UNL A   1      31.457  34.421  27.079  1.00  0.00     0.163 HD
ATOM     37  O   UNL A   1      32.593  35.235  28.990  1.00  0.00    -0.269 OA
BRANCH  35  38
ATOM     38  C   UNL A   1      34.253  33.593  28.842  1.00  0.00     0.039 A 
ATOM     39  C   UNL A   1      34.440  32.878  30.039  1.00  0.00     0.014 A 
ATOM     40  C   UNL A   1      35.367  33.731  28.058  1.00  0.00     0.014 A 
ATOM     41  C   UNL A   1      35.739  32.468  30.445  1.00  0.00     0.010 A 
ATOM     42  C   UNL A   1      36.658  33.474  28.501  1.00  0.00     0.010 A 
ATOM     43  C   UNL A   1      36.871  32.861  29.712  1.00  0.00    -0.014 A 
BRANCH  43  44
ATOM     44  C   UNL A   1      38.227  32.317  29.898  1.00  0.00     0.031 A 
ATOM     45  C   UNL A   1      38.273  30.918  29.396  1.00  0.00     0.074 A 
ATOM     46  C   UNL A   1      39.395  32.990  30.057  1.00  0.00     0.049 A 
ATOM     47  N   UNL A   1      38.333  29.834  30.092  1.00  0.00    -0.248 NA
ATOM     48  C   UNL A   1      37.981  30.698  27.965  1.00  0.00     0.031 C 
ATOM     49  C   UNL A   1      39.629  34.433  30.092  1.00  0.00     0.029 A 
ATOM     50  N   UNL A   1      40.673  32.498  30.134  1.00  0.00    -0.354 N 
ATOM     51  C   UNL A   1      38.286  28.806  29.158  1.00  0.00     0.074 A 
ATOM     52  C   UNL A   1      37.775  29.382  27.948  1.00  0.00     0.031 C 
ATOM     53  C   UNL A   1      40.954  34.700  30.013  1.00  0.00     0.029 A 
ATOM     54  C   UNL A   1      41.688  33.452  30.022  1.00  0.00     0.049 A 
ATOM     55  H   UNL A   1      40.862  31.540  30.259  1.00  0.00     0.167 HD
ATOM     56  C   UNL A   1      38.978  27.652  29.354  1.00  0.00     0.037 A 
ATOM     57  C   UNL A   1      43.025  33.224  29.901  1.00  0.00     0.037 A 
ATOM     58  C   UNL A   1      39.392  27.535  30.733  1.00  0.00     0.049 A 
ATOM     59  C   UNL A   1      43.269  31.818  30.305  1.00  0.00     0.074 A 
ATOM     60  C   UNL A   1      38.731  27.551  31.948  1.00  0.00     0.029 A 
ATOM     61  N   UNL A   1      40.708  27.797  31.026  1.00  0.00    -0.354 N 
ATOM     62  N   UNL A   1      43.150  31.373  31.522  1.00  0.00    -0.248 NA
ATOM     63  C   UNL A   1      43.227  30.807  29.261  1.00  0.00     0.031 C 
ATOM     64  C   UNL A   1      39.582  28.285  32.826  1.00  0.00     0.029 A 
ATOM     65  C   UNL A   1      40.743  28.614  32.127  1.00  0.00     0.049 A 
ATOM     66  H   UNL A   1      41.489  27.458  30.533  1.00  0.00     0.167 HD
ATOM     67  C   UNL A   1      42.574  30.120  31.378  1.00  0.00     0.074 A 
ATOM     68  C   UNL A   1      42.737  29.785  29.967  1.00  0.00     0.031 C 
ATOM     69  C   UNL A   1      41.760  29.614  32.350  1.00  0.00     0.037 A 
BRANCH  56  70
ATOM     70  C   UNL A   1      39.624  26.856  28.238  1.00  0.00     0.064 A 
ATOM     71  C   UNL A   1      39.454  25.458  28.229  1.00  0.00     0.173 A 
ATOM     72  C   UNL A   1      40.614  27.346  27.353  1.00  0.00     0.173 A 
ATOM     73  F   UNL A   1      38.552  24.876  29.034  1.00  0.00    -0.203 F 
ATOM     74  C   UNL A   1      40.272  24.618  27.470  1.00  0.00     0.198 A 
ATOM     75  C   UNL A   1      41.387  26.507  26.553  1.00  0.00     0.198 A 
ATOM     76  F   UNL A   1      40.968  28.633  27.294  1.00  0.00    -0.203 F 
ATOM     77  F   UNL A   1      40.161  23.290  27.602  1.00  0.00    -0.200 F 
ATOM     78  C   UNL A   1      41.242  25.142  26.637  1.00  0.00     0.200 A 
ATOM     79  F   UNL A   1      42.332  27.040  25.764  1.00  0.00    -0.200 F 
ATOM     80  F   UNL A   1      42.069  24.338  25.958  1.00  0.00    -0.200 F 
ENDBRANCH  56  70
BRANCH  57  81
ATOM     81  C   UNL A   1      44.086  34.018  29.220  1.00  0.00     0.064 A 
ATOM     82  C   UNL A   1      44.166  34.077  27.814  1.00  0.00     0.173 A 
ATOM     83  C   UNL A   1      44.853  34.967  29.920  1.00  0.00     0.173 A 
ATOM     84  F   UNL A   1      43.440  33.237  27.060  1.00  0.00    -0.203 F 
ATOM     85  C   UNL A   1      44.930  35.050  27.155  1.00  0.00     0.198 A 
ATOM     86  C   UNL A   1      45.622  35.932  29.262  1.00  0.00     0.198 A 
ATOM     87  F   UNL A   1      44.795  35.044  31.257  1.00  0.00    -0.203 F 
ATOM     88  F   UNL A   1      44.919  35.117  25.817  1.00  0.00    -0.200 F 
ATOM     89  C   UNL A   1      45.646  35.985  27.880  1.00  0.00     0.200 A 
ATOM     90  F   UNL A   1      46.280  36.856  29.976  1.00  0.00    -0.200 F 
ATOM     91  F   UNL A   1      46.320  36.960  27.255  1.00  0.00    -0.200 F 
ENDBRANCH  57  81
BRANCH  69  92
ATOM     92  C   UNL A   1      41.767  30.298  33.690  1.00  0.00     0.064 A 
ATOM     93  C   UNL A   1      40.948  31.389  34.032  1.00  0.00     0.173 A 
ATOM     94  C   UNL A   1      42.554  29.743  34.707  1.00  0.00     0.173 A 
ATOM     95  F   UNL A   1      40.094  31.918  33.148  1.00  0.00    -0.203 F 
ATOM     96  C   UNL A   1      40.955  31.924  35.321  1.00  0.00     0.198 A 
ATOM     97  C   UNL A   1      42.529  30.252  36.002  1.00  0.00     0.198 A 
ATOM     98  F   UNL A   1      43.321  28.670  34.453  1.00  0.00    -0.203 F 
ATOM     99  F   UNL A   1      40.177  32.975  35.617  1.00  0.00    -0.200 F 
ATOM    100  C   UNL A   1      41.741  31.350  36.306  1.00  0.00     0.200 A 
ATOM    101  F   UNL A   1      43.255  29.663  36.963  1.00  0.00    -0.200 F 
ATOM    102  F   UNL A   1      41.717  31.836  37.555  1.00  0.00    -0.200 F 
ENDBRANCH  69  92
ENDBRANCH  43  44
ENDBRANCH  35  38
ENDBRANCH  33  34
ENDBRANCH  32  33
ENDBRANCH  31  32
ENDBRANCH  30  31
ENDBRANCH   1  30
TORSDOF 18
ENDMDL
