MODEL 1
REMARK VINA RESULT:     -11.7      0.000      0.000
REMARK SMILES COC(=O)c1nccc(N2CCO[C@H](CC(=O)NCCCCCCNC(=O)c3ccc(-c4c5nc(c(-c6c(F)c(F)c(F)c(F)c6F)c6ccc([nH]6)c(-c6c(F)c(F)c(F)c(F)c6F)c6nc(c(-c7c(F)c(F)c(F)c(F)c7F)c7ccc4[nH]7)C=C6)C=C5)cc3)C2)n1
REMARK SMILES IDX 20 1 19 2 18 3 16 4 17 5 15 7 14 8 10 9 11 10 91 11 12 12
REMARK SMILES IDX 13 13 9 14 5 15 6 16 92 17 7 18 8 19 3 20 4 21 2 22 1 23
REMARK SMILES IDX 21 24 22 25 23 26 24 27 25 28 26 29 27 31 28 32 29 33 90 34
REMARK SMILES IDX 30 35 89 36 31 37 32 38 33 39 83 40 34 41 88 42 82 43 84 44
REMARK SMILES IDX 35 45 87 46 81 47 80 48 36 50 68 51 48 52 67 53 49 54 52 55
REMARK SMILES IDX 66 56 85 57 50 58 51 59 65 61 86 62 53 63 37 64 38 65 46 66
REMARK SMILES IDX 39 67 40 68 44 69 47 70 41 71 42 72 45 73 43 74 69 75 70 76
REMARK SMILES IDX 78 77 71 78 72 79 76 80 79 81 73 82 74 83 77 84 75 85 54 86
REMARK SMILES IDX 55 87 63 88 56 89 57 90 61 91 64 92 58 93 59 94 62 95 60 96
REMARK H PARENT 18 6 25 30 84 49 52 60
REMARK Flexibility Score: inf
ROOT
ATOM      1  C   UNL A   1      35.334  31.214  28.059  1.00  0.00     0.021 C 
ENDROOT
BRANCH   1   2
ATOM      2  C   UNL A   1      34.624  30.199  27.161  1.00  0.00     0.116 C 
BRANCH   2   3
ATOM      3  N   UNL A   1      33.522  29.483  27.782  1.00  0.00    -0.356 N 
ATOM      4  C   UNL A   1      32.399  28.938  27.239  1.00  0.00     0.222 C 
ATOM      5  O   UNL A   1      31.789  28.078  27.876  1.00  0.00    -0.275 OA
ATOM      6  H   UNL A   1      33.600  29.374  28.758  1.00  0.00     0.163 HD
BRANCH   4   7
ATOM      7  C   UNL A   1      31.918  29.366  25.877  1.00  0.00     0.133 C 
BRANCH   7   8
ATOM      8  C   UNL A   1      32.592  28.699  24.664  1.00  0.00     0.147 C 
ATOM      9  N   UNL A   1      30.961  28.199  22.818  1.00  0.00    -0.352 N 
ATOM     10  C   UNL A   1      31.181  26.772  23.030  1.00  0.00     0.146 C 
ATOM     11  C   UNL A   1      32.098  29.024  23.226  1.00  0.00     0.150 C 
ATOM     12  C   UNL A   1      31.551  26.529  24.499  1.00  0.00     0.182 C 
ATOM     13  O   UNL A   1      32.726  27.269  24.874  1.00  0.00    -0.374 OA
BRANCH   9  14
ATOM     14  C   UNL A   1      29.702  28.763  22.726  1.00  0.00     0.133 A 
ATOM     15  C   UNL A   1      28.333  30.553  22.220  1.00  0.00     0.241 A 
ATOM     16  N   UNL A   1      27.221  29.977  22.713  1.00  0.00    -0.231 NA
ATOM     17  N   UNL A   1      29.577  30.007  22.219  1.00  0.00    -0.205 NA
ATOM     18  C   UNL A   1      27.382  28.742  23.191  1.00  0.00     0.117 A 
ATOM     19  C   UNL A   1      28.588  28.081  23.185  1.00  0.00     0.067 A 
BRANCH  15  20
ATOM     20  C   UNL A   1      28.129  31.949  21.698  1.00  0.00     0.376 C 
ATOM     21  O   UNL A   1      28.180  32.243  20.509  1.00  0.00    -0.242 OA
BRANCH  20  22
ATOM     22  O   UNL A   1      27.935  32.848  22.705  1.00  0.00    -0.463 OA
ATOM     23  C   UNL A   1      29.155  33.450  23.156  1.00  0.00     0.282 C 
ENDBRANCH  20  22
ENDBRANCH  15  20
ENDBRANCH   9  14
ENDBRANCH   7   8
ENDBRANCH   4   7
ENDBRANCH   2   3
ENDBRANCH   1   2
BRANCH   1  24
ATOM     24  C   UNL A   1      34.483  32.412  28.487  1.00  0.00     0.002 C 
BRANCH  24  25
ATOM     25  C   UNL A   1      35.140  33.776  28.312  1.00  0.00     0.002 C 
BRANCH  25  26
ATOM     26  C   UNL A   1      34.345  34.930  28.899  1.00  0.00     0.021 C 
BRANCH  26  27
ATOM     27  C   UNL A   1      33.156  34.500  29.746  1.00  0.00     0.116 C 
BRANCH  27  28
ATOM     28  N   UNL A   1      32.598  35.586  30.549  1.00  0.00    -0.352 N 
ATOM     29  C   UNL A   1      32.872  35.877  31.864  1.00  0.00     0.251 C 
ATOM     30  H   UNL A   1      31.953  36.176  30.097  1.00  0.00     0.163 HD
ATOM     31  O   UNL A   1      32.253  36.720  32.500  1.00  0.00    -0.269 OA
BRANCH  29  32
ATOM     32  C   UNL A   1      33.968  35.120  32.478  1.00  0.00     0.039 A 
ATOM     33  C   UNL A   1      33.753  33.813  32.913  1.00  0.00     0.014 A 
ATOM     34  C   UNL A   1      35.249  35.674  32.411  1.00  0.00     0.014 A 
ATOM     35  C   UNL A   1      34.854  33.026  33.238  1.00  0.00     0.010 A 
ATOM     36  C   UNL A   1      36.342  34.860  32.640  1.00  0.00     0.010 A 
ATOM     37  C   UNL A   1      36.152  33.537  33.073  1.00  0.00    -0.014 A 
BRANCH  37  38
ATOM     38  C   UNL A   1      37.352  32.743  33.412  1.00  0.00     0.031 A 
ATOM     39  C   UNL A   1      38.045  33.030  34.713  1.00  0.00     0.074 A 
ATOM     40  C   UNL A   1      37.858  31.868  32.524  1.00  0.00     0.049 A 
ATOM     41  N   UNL A   1      39.192  32.590  35.157  1.00  0.00    -0.248 NA
ATOM     42  C   UNL A   1      37.382  33.993  35.609  1.00  0.00     0.031 C 
ATOM     43  C   UNL A   1      37.294  31.571  31.207  1.00  0.00     0.029 A 
ATOM     44  N   UNL A   1      38.975  31.079  32.593  1.00  0.00    -0.354 N 
ATOM     45  C   UNL A   1      39.402  33.256  36.358  1.00  0.00     0.074 A 
ATOM     46  C   UNL A   1      38.306  34.178  36.537  1.00  0.00     0.031 C 
ATOM     47  C   UNL A   1      38.053  30.642  30.603  1.00  0.00     0.029 A 
ATOM     48  C   UNL A   1      39.172  30.304  31.476  1.00  0.00     0.049 A 
ATOM     49  H   UNL A   1      39.580  31.066  33.370  1.00  0.00     0.167 HD
ATOM     50  C   UNL A   1      40.407  33.084  37.247  1.00  0.00     0.037 A 
ATOM     51  C   UNL A   1      40.151  29.420  31.204  1.00  0.00     0.037 A 
ATOM     52  C   UNL A   1      41.452  32.113  37.078  1.00  0.00     0.049 A 
ATOM     53  C   UNL A   1      41.218  29.193  32.242  1.00  0.00     0.074 A 
ATOM     54  C   UNL A   1      42.485  31.792  37.936  1.00  0.00     0.029 A 
ATOM     55  N   UNL A   1      41.577  31.288  35.967  1.00  0.00    -0.354 N 
ATOM     56  N   UNL A   1      41.383  29.785  33.400  1.00  0.00    -0.248 NA
ATOM     57  C   UNL A   1      42.226  28.169  31.941  1.00  0.00     0.031 C 
ATOM     58  C   UNL A   1      43.252  30.789  37.333  1.00  0.00     0.029 A 
ATOM     59  C   UNL A   1      42.671  30.457  36.118  1.00  0.00     0.049 A 
ATOM     60  H   UNL A   1      40.975  31.295  35.188  1.00  0.00     0.167 HD
ATOM     61  C   UNL A   1      42.493  29.188  33.981  1.00  0.00     0.074 A 
ATOM     62  C   UNL A   1      42.953  28.176  33.050  1.00  0.00     0.031 C 
ATOM     63  C   UNL A   1      43.085  29.451  35.173  1.00  0.00     0.037 A 
BRANCH  50  64
ATOM     64  C   UNL A   1      40.399  33.951  38.473  1.00  0.00     0.064 A 
ATOM     65  C   UNL A   1      41.108  35.163  38.525  1.00  0.00     0.173 A 
ATOM     66  C   UNL A   1      39.690  33.561  39.619  1.00  0.00     0.173 A 
ATOM     67  F   UNL A   1      41.819  35.575  37.464  1.00  0.00    -0.203 F 
ATOM     68  C   UNL A   1      41.142  35.927  39.688  1.00  0.00     0.198 A 
ATOM     69  C   UNL A   1      39.698  34.346  40.769  1.00  0.00     0.198 A 
ATOM     70  F   UNL A   1      38.996  32.413  39.627  1.00  0.00    -0.203 F 
ATOM     71  F   UNL A   1      41.885  37.042  39.734  1.00  0.00    -0.200 F 
ATOM     72  C   UNL A   1      40.434  35.521  40.808  1.00  0.00     0.200 A 
ATOM     73  F   UNL A   1      39.004  33.958  41.848  1.00  0.00    -0.200 F 
ATOM     74  F   UNL A   1      40.469  36.256  41.927  1.00  0.00    -0.200 F 
ENDBRANCH  50  64
BRANCH  51  75
ATOM     75  C   UNL A   1      40.129  28.650  29.933  1.00  0.00     0.064 A 
ATOM     76  C   UNL A   1      40.737  29.161  28.776  1.00  0.00     0.173 A 
ATOM     77  C   UNL A   1      39.519  27.391  29.843  1.00  0.00     0.173 A 
ATOM     78  F   UNL A   1      41.320  30.368  28.806  1.00  0.00    -0.203 F 
ATOM     79  C   UNL A   1      40.716  28.453  27.576  1.00  0.00     0.198 A 
ATOM     80  C   UNL A   1      39.522  26.672  28.649  1.00  0.00     0.198 A 
ATOM     81  F   UNL A   1      38.932  26.851  30.921  1.00  0.00    -0.203 F 
ATOM     82  F   UNL A   1      41.270  28.985  26.477  1.00  0.00    -0.200 F 
ATOM     83  C   UNL A   1      40.114  27.206  27.514  1.00  0.00     0.200 A 
ATOM     84  F   UNL A   1      38.952  25.460  28.597  1.00  0.00    -0.200 F 
ATOM     85  F   UNL A   1      40.100  26.523  26.362  1.00  0.00    -0.200 F 
ENDBRANCH  51  75
BRANCH  63  86
ATOM     86  C   UNL A   1      44.264  28.605  35.548  1.00  0.00     0.064 A 
ATOM     87  C   UNL A   1      45.575  29.007  35.261  1.00  0.00     0.173 A 
ATOM     88  C   UNL A   1      44.076  27.404  36.248  1.00  0.00     0.173 A 
ATOM     89  F   UNL A   1      45.801  30.142  34.582  1.00  0.00    -0.203 F 
ATOM     90  C   UNL A   1      46.660  28.223  35.643  1.00  0.00     0.198 A 
ATOM     91  C   UNL A   1      45.164  26.638  36.653  1.00  0.00     0.198 A 
ATOM     92  F   UNL A   1      42.839  26.984  36.552  1.00  0.00    -0.203 F 
ATOM     93  F   UNL A   1      47.903  28.604  35.322  1.00  0.00    -0.200 F 
ATOM     94  C   UNL A   1      46.453  27.044  36.345  1.00  0.00     0.200 A 
ATOM     95  F   UNL A   1      44.965  25.507  37.343  1.00  0.00    -0.200 F 
ATOM     96  F   UNL A   1      47.499  26.296  36.719  1.00  0.00    -0.200 F 
ENDBRANCH  63  86
ENDBRANCH  37  38
ENDBRANCH  29  32
ENDBRANCH  27  28
ENDBRANCH  26  27
ENDBRANCH  25  26
ENDBRANCH  24  25
ENDBRANCH   1  24
TORSDOF 17
ENDMDL
MODEL 2
REMARK VINA RESULT:     -11.7      7.693     13.145
REMARK SMILES COC(=O)c1nccc(N2CCO[C@H](CC(=O)NCCCCCCNC(=O)c3ccc(-c4c5nc(c(-c6c(F)c(F)c(F)c(F)c6F)c6ccc([nH]6)c(-c6c(F)c(F)c(F)c(F)c6F)c6nc(c(-c7c(F)c(F)c(F)c(F)c7F)c7ccc4[nH]7)C=C6)C=C5)cc3)C2)n1
REMARK SMILES IDX 20 1 19 2 18 3 16 4 17 5 15 7 14 8 10 9 11 10 91 11 12 12
REMARK SMILES IDX 13 13 9 14 5 15 6 16 92 17 7 18 8 19 3 20 4 21 2 22 1 23
REMARK SMILES IDX 21 24 22 25 23 26 24 27 25 28 26 29 27 31 28 32 29 33 90 34
REMARK SMILES IDX 30 35 89 36 31 37 32 38 33 39 83 40 34 41 88 42 82 43 84 44
REMARK SMILES IDX 35 45 87 46 81 47 80 48 36 50 68 51 48 52 67 53 49 54 52 55
REMARK SMILES IDX 66 56 85 57 50 58 51 59 65 61 86 62 53 63 37 64 38 65 46 66
REMARK SMILES IDX 39 67 40 68 44 69 47 70 41 71 42 72 45 73 43 74 69 75 70 76
REMARK SMILES IDX 78 77 71 78 72 79 76 80 79 81 73 82 74 83 77 84 75 85 54 86
REMARK SMILES IDX 55 87 63 88 56 89 57 90 61 91 64 92 58 93 59 94 62 95 60 96
REMARK H PARENT 18 6 25 30 84 49 52 60
REMARK Flexibility Score: inf
ROOT
ATOM      1  C   UNL A   1      39.215  23.123  26.497  1.00  0.00     0.021 C 
ENDROOT
BRANCH   1   2
ATOM      2  C   UNL A   1      37.810  23.536  26.055  1.00  0.00     0.116 C 
BRANCH   2   3
ATOM      3  N   UNL A   1      37.542  23.410  24.631  1.00  0.00    -0.356 N 
ATOM      4  C   UNL A   1      36.584  22.707  23.967  1.00  0.00     0.222 C 
ATOM      5  O   UNL A   1      36.315  23.022  22.807  1.00  0.00    -0.275 OA
ATOM      6  H   UNL A   1      38.156  23.917  24.052  1.00  0.00     0.163 HD
BRANCH   4   7
ATOM      7  C   UNL A   1      35.854  21.575  24.642  1.00  0.00     0.133 C 
BRANCH   7   8
ATOM      8  C   UNL A   1      34.727  21.963  25.617  1.00  0.00     0.147 C 
ATOM      9  N   UNL A   1      32.676  20.541  25.323  1.00  0.00    -0.352 N 
ATOM     10  C   UNL A   1      31.942  21.719  24.872  1.00  0.00     0.146 C 
ATOM     11  C   UNL A   1      33.799  20.863  26.204  1.00  0.00     0.150 C 
ATOM     12  C   UNL A   1      32.916  22.697  24.203  1.00  0.00     0.182 C 
ATOM     13  O   UNL A   1      33.968  23.088  25.103  1.00  0.00    -0.374 OA
BRANCH   9  14
ATOM     14  C   UNL A   1      32.661  19.336  24.643  1.00  0.00     0.133 A 
ATOM     15  C   UNL A   1      32.885  17.038  24.621  1.00  0.00     0.241 A 
ATOM     16  N   UNL A   1      32.828  16.940  23.280  1.00  0.00    -0.231 NA
ATOM     17  N   UNL A   1      32.826  18.190  25.337  1.00  0.00    -0.205 NA
ATOM     18  C   UNL A   1      32.651  18.092  22.631  1.00  0.00     0.117 A 
ATOM     19  C   UNL A   1      32.524  19.304  23.266  1.00  0.00     0.067 A 
BRANCH  15  20
ATOM     20  C   UNL A   1      33.097  15.728  25.330  1.00  0.00     0.376 C 
ATOM     21  O   UNL A   1      32.335  15.286  26.182  1.00  0.00    -0.242 OA
BRANCH  20  22
ATOM     22  O   UNL A   1      34.259  15.124  24.950  1.00  0.00    -0.463 OA
ATOM     23  C   UNL A   1      35.423  15.871  25.322  1.00  0.00     0.282 C 
ENDBRANCH  20  22
ENDBRANCH  15  20
ENDBRANCH   9  14
ENDBRANCH   7   8
ENDBRANCH   4   7
ENDBRANCH   2   3
ENDBRANCH   1   2
BRANCH   1  24
ATOM     24  C   UNL A   1      39.630  21.702  26.105  1.00  0.00     0.002 C 
BRANCH  24  25
ATOM     25  C   UNL A   1      40.972  21.239  26.657  1.00  0.00     0.002 C 
BRANCH  25  26
ATOM     26  C   UNL A   1      41.475  19.936  26.059  1.00  0.00     0.021 C 
BRANCH  26  27
ATOM     27  C   UNL A   1      42.911  19.594  26.432  1.00  0.00     0.116 C 
BRANCH  27  28
ATOM     28  N   UNL A   1      43.639  18.919  25.360  1.00  0.00    -0.352 N 
ATOM     29  C   UNL A   1      44.475  19.490  24.432  1.00  0.00     0.251 C 
ATOM     30  H   UNL A   1      43.515  17.945  25.295  1.00  0.00     0.163 HD
ATOM     31  O   UNL A   1      44.934  18.870  23.481  1.00  0.00    -0.269 OA
BRANCH  29  32
ATOM     32  C   UNL A   1      44.807  20.903  24.645  1.00  0.00     0.039 A 
ATOM     33  C   UNL A   1      44.181  21.887  23.880  1.00  0.00     0.014 A 
ATOM     34  C   UNL A   1      45.591  21.220  25.758  1.00  0.00     0.014 A 
ATOM     35  C   UNL A   1      44.301  23.217  24.274  1.00  0.00     0.010 A 
ATOM     36  C   UNL A   1      45.625  22.529  26.199  1.00  0.00     0.010 A 
ATOM     37  C   UNL A   1      44.997  23.537  25.451  1.00  0.00    -0.014 A 
BRANCH  37  38
ATOM     38  C   UNL A   1      45.158  24.935  25.906  1.00  0.00     0.031 A 
ATOM     39  C   UNL A   1      46.522  25.556  25.812  1.00  0.00     0.074 A 
ATOM     40  C   UNL A   1      44.129  25.583  26.482  1.00  0.00     0.049 A 
ATOM     41  N   UNL A   1      46.950  26.695  26.288  1.00  0.00    -0.248 NA
ATOM     42  C   UNL A   1      47.561  24.756  25.141  1.00  0.00     0.031 C 
ATOM     43  C   UNL A   1      42.785  25.038  26.679  1.00  0.00     0.029 A 
ATOM     44  N   UNL A   1      44.062  26.839  27.025  1.00  0.00    -0.354 N 
ATOM     45  C   UNL A   1      48.311  26.721  26.012  1.00  0.00     0.074 A 
ATOM     46  C   UNL A   1      48.650  25.461  25.394  1.00  0.00     0.031 C 
ATOM     47  C   UNL A   1      42.017  25.967  27.273  1.00  0.00     0.029 A 
ATOM     48  C   UNL A   1      42.824  27.156  27.527  1.00  0.00     0.049 A 
ATOM     49  H   UNL A   1      44.828  27.457  27.051  1.00  0.00     0.167 HD
ATOM     50  C   UNL A   1      49.191  27.726  26.226  1.00  0.00     0.037 A 
ATOM     51  C   UNL A   1      42.400  28.288  28.120  1.00  0.00     0.037 A 
ATOM     52  C   UNL A   1      48.816  28.996  26.783  1.00  0.00     0.049 A 
ATOM     53  C   UNL A   1      43.380  29.420  28.281  1.00  0.00     0.074 A 
ATOM     54  C   UNL A   1      49.595  30.118  26.986  1.00  0.00     0.029 A 
ATOM     55  N   UNL A   1      47.532  29.311  27.211  1.00  0.00    -0.354 N 
ATOM     56  N   UNL A   1      44.653  29.462  27.968  1.00  0.00    -0.248 NA
ATOM     57  C   UNL A   1      42.864  30.665  28.864  1.00  0.00     0.031 C 
ATOM     58  C   UNL A   1      48.788  31.106  27.560  1.00  0.00     0.029 A 
ATOM     59  C   UNL A   1      47.497  30.613  27.676  1.00  0.00     0.049 A 
ATOM     60  H   UNL A   1      46.762  28.699  27.186  1.00  0.00     0.167 HD
ATOM     61  C   UNL A   1      45.085  30.741  28.288  1.00  0.00     0.074 A 
ATOM     62  C   UNL A   1      43.931  31.449  28.807  1.00  0.00     0.031 C 
ATOM     63  C   UNL A   1      46.322  31.285  28.170  1.00  0.00     0.037 A 
BRANCH  50  64
ATOM     64  C   UNL A   1      50.622  27.486  25.839  1.00  0.00     0.064 A 
ATOM     65  C   UNL A   1      51.574  27.041  26.771  1.00  0.00     0.173 A 
ATOM     66  C   UNL A   1      51.054  27.718  24.525  1.00  0.00     0.173 A 
ATOM     67  F   UNL A   1      51.219  26.822  28.046  1.00  0.00    -0.203 F 
ATOM     68  C   UNL A   1      52.910  26.881  26.413  1.00  0.00     0.198 A 
ATOM     69  C   UNL A   1      52.385  27.522  24.163  1.00  0.00     0.198 A 
ATOM     70  F   UNL A   1      50.188  28.144  23.593  1.00  0.00    -0.203 F 
ATOM     71  F   UNL A   1      53.811  26.525  27.340  1.00  0.00    -0.200 F 
ATOM     72  C   UNL A   1      53.313  27.116  25.109  1.00  0.00     0.200 A 
ATOM     73  F   UNL A   1      52.772  27.740  22.898  1.00  0.00    -0.200 F 
ATOM     74  F   UNL A   1      54.599  26.963  24.766  1.00  0.00    -0.200 F 
ENDBRANCH  50  64
BRANCH  51  75
ATOM     75  C   UNL A   1      40.982  28.425  28.544  1.00  0.00     0.064 A 
ATOM     76  C   UNL A   1      40.023  28.965  27.674  1.00  0.00     0.173 A 
ATOM     77  C   UNL A   1      40.548  28.011  29.811  1.00  0.00     0.173 A 
ATOM     78  F   UNL A   1      40.391  29.389  26.456  1.00  0.00    -0.203 F 
ATOM     79  C   UNL A   1      38.693  29.105  28.062  1.00  0.00     0.198 A 
ATOM     80  C   UNL A   1      39.211  28.128  30.189  1.00  0.00     0.198 A 
ATOM     81  F   UNL A   1      41.421  27.478  30.679  1.00  0.00    -0.203 F 
ATOM     82  F   UNL A   1      37.807  29.662  27.224  1.00  0.00    -0.200 F 
ATOM     83  C   UNL A   1      38.286  28.681  29.318  1.00  0.00     0.200 A 
ATOM     84  F   UNL A   1      38.819  27.703  31.399  1.00  0.00    -0.200 F 
ATOM     85  F   UNL A   1      37.005  28.811  29.688  1.00  0.00    -0.200 F 
ENDBRANCH  51  75
BRANCH  63  86
ATOM     86  C   UNL A   1      46.475  32.722  28.570  1.00  0.00     0.064 A 
ATOM     87  C   UNL A   1      46.307  33.762  27.647  1.00  0.00     0.173 A 
ATOM     88  C   UNL A   1      46.741  33.057  29.906  1.00  0.00     0.173 A 
ATOM     89  F   UNL A   1      46.064  33.487  26.356  1.00  0.00    -0.203 F 
ATOM     90  C   UNL A   1      46.423  35.091  28.043  1.00  0.00     0.198 A 
ATOM     91  C   UNL A   1      46.829  34.387  30.303  1.00  0.00     0.198 A 
ATOM     92  F   UNL A   1      46.901  32.095  30.827  1.00  0.00    -0.203 F 
ATOM     93  F   UNL A   1      46.301  36.070  27.136  1.00  0.00    -0.200 F 
ATOM     94  C   UNL A   1      46.676  35.402  29.371  1.00  0.00     0.200 A 
ATOM     95  F   UNL A   1      47.059  34.686  31.588  1.00  0.00    -0.200 F 
ATOM     96  F   UNL A   1      46.778  36.682  29.751  1.00  0.00    -0.200 F 
ENDBRANCH  63  86
ENDBRANCH  37  38
ENDBRANCH  29  32
ENDBRANCH  27  28
ENDBRANCH  26  27
ENDBRANCH  25  26
ENDBRANCH  24  25
ENDBRANCH   1  24
TORSDOF 17
ENDMDL
MODEL 3
REMARK VINA RESULT:     -11.3      2.183      4.264
REMARK SMILES COC(=O)c1nccc(N2CCO[C@H](CC(=O)NCCCCCCNC(=O)c3ccc(-c4c5nc(c(-c6c(F)c(F)c(F)c(F)c6F)c6ccc([nH]6)c(-c6c(F)c(F)c(F)c(F)c6F)c6nc(c(-c7c(F)c(F)c(F)c(F)c7F)c7ccc4[nH]7)C=C6)C=C5)cc3)C2)n1
REMARK SMILES IDX 20 1 19 2 18 3 16 4 17 5 15 7 14 8 10 9 11 10 91 11 12 12
REMARK SMILES IDX 13 13 9 14 5 15 6 16 92 17 7 18 8 19 3 20 4 21 2 22 1 23
REMARK SMILES IDX 21 24 22 25 23 26 24 27 25 28 26 29 27 31 28 32 29 33 90 34
REMARK SMILES IDX 30 35 89 36 31 37 32 38 33 39 83 40 34 41 88 42 82 43 84 44
REMARK SMILES IDX 35 45 87 46 81 47 80 48 36 50 68 51 48 52 67 53 49 54 52 55
REMARK SMILES IDX 66 56 85 57 50 58 51 59 65 61 86 62 53 63 37 64 38 65 46 66
REMARK SMILES IDX 39 67 40 68 44 69 47 70 41 71 42 72 45 73 43 74 69 75 70 76
REMARK SMILES IDX 78 77 71 78 72 79 76 80 79 81 73 82 74 83 77 84 75 85 54 86
REMARK SMILES IDX 55 87 63 88 56 89 57 90 61 91 64 92 58 93 59 94 62 95 60 96
REMARK H PARENT 18 6 25 30 84 49 52 60
REMARK Flexibility Score: inf
ROOT
ATOM      1  C   UNL A   1      34.570  30.970  28.065  1.00  0.00     0.021 C 
ENDROOT
BRANCH   1   2
ATOM      2  C   UNL A   1      33.638  30.428  26.979  1.00  0.00     0.116 C 
BRANCH   2   3
ATOM      3  N   UNL A   1      32.508  29.650  27.461  1.00  0.00    -0.356 N 
ATOM      4  C   UNL A   1      32.199  28.335  27.291  1.00  0.00     0.222 C 
ATOM      5  O   UNL A   1      31.404  27.807  28.070  1.00  0.00    -0.275 OA
ATOM      6  H   UNL A   1      31.859  30.158  28.000  1.00  0.00     0.163 HD
BRANCH   4   7
ATOM      7  C   UNL A   1      32.828  27.535  26.180  1.00  0.00     0.133 C 
BRANCH   7   8
ATOM      8  C   UNL A   1      31.874  26.948  25.124  1.00  0.00     0.147 C 
ATOM      9  N   UNL A   1      32.255  24.491  24.751  1.00  0.00    -0.352 N 
ATOM     10  C   UNL A   1      32.698  24.782  23.391  1.00  0.00     0.146 C 
ATOM     11  C   UNL A   1      31.337  25.498  25.285  1.00  0.00     0.150 C 
ATOM     12  C   UNL A   1      33.318  26.183  23.349  1.00  0.00     0.182 C 
ATOM     13  O   UNL A   1      32.383  27.185  23.785  1.00  0.00    -0.374 OA
BRANCH   9  14
ATOM     14  C   UNL A   1      32.961  23.678  25.619  1.00  0.00     0.133 A 
ATOM     15  C   UNL A   1      34.703  22.222  26.040  1.00  0.00     0.241 A 
ATOM     16  N   UNL A   1      34.275  21.901  27.275  1.00  0.00    -0.231 NA
ATOM     17  N   UNL A   1      34.085  23.074  25.181  1.00  0.00    -0.205 NA
ATOM     18  C   UNL A   1      33.169  22.530  27.676  1.00  0.00     0.117 A 
ATOM     19  C   UNL A   1      32.501  23.450  26.904  1.00  0.00     0.067 A 
BRANCH  15  20
ATOM     20  C   UNL A   1      35.944  21.492  25.605  1.00  0.00     0.376 C 
ATOM     21  O   UNL A   1      35.934  20.365  25.122  1.00  0.00    -0.242 OA
BRANCH  20  22
ATOM     22  O   UNL A   1      37.075  22.208  25.860  1.00  0.00    -0.463 OA
ATOM     23  C   UNL A   1      38.271  21.515  25.482  1.00  0.00     0.282 C 
ENDBRANCH  20  22
ENDBRANCH  15  20
ENDBRANCH   9  14
ENDBRANCH   7   8
ENDBRANCH   4   7
ENDBRANCH   2   3
ENDBRANCH   1   2
BRANCH   1  24
ATOM     24  C   UNL A   1      34.841  32.476  27.998  1.00  0.00     0.002 C 
BRANCH  24  25
ATOM     25  C   UNL A   1      34.475  33.261  29.251  1.00  0.00     0.002 C 
BRANCH  25  26
ATOM     26  C   UNL A   1      33.375  34.288  29.044  1.00  0.00     0.021 C 
BRANCH  26  27
ATOM     27  C   UNL A   1      33.698  35.666  29.604  1.00  0.00     0.116 C 
BRANCH  27  28
ATOM     28  N   UNL A   1      32.668  36.177  30.506  1.00  0.00    -0.352 N 
ATOM     29  C   UNL A   1      32.525  35.907  31.845  1.00  0.00     0.251 C 
ATOM     30  H   UNL A   1      32.001  36.782  30.109  1.00  0.00     0.163 HD
ATOM     31  O   UNL A   1      31.550  36.265  32.494  1.00  0.00    -0.269 OA
BRANCH  29  32
ATOM     32  C   UNL A   1      33.620  35.161  32.475  1.00  0.00     0.039 A 
ATOM     33  C   UNL A   1      33.427  33.837  32.865  1.00  0.00     0.014 A 
ATOM     34  C   UNL A   1      34.887  35.752  32.468  1.00  0.00     0.014 A 
ATOM     35  C   UNL A   1      34.538  33.070  33.205  1.00  0.00     0.010 A 
ATOM     36  C   UNL A   1      35.993  34.960  32.712  1.00  0.00     0.010 A 
ATOM     37  C   UNL A   1      35.825  33.621  33.099  1.00  0.00    -0.014 A 
BRANCH  37  38
ATOM     38  C   UNL A   1      37.035  32.850  33.456  1.00  0.00     0.031 A 
ATOM     39  C   UNL A   1      37.710  33.158  34.762  1.00  0.00     0.074 A 
ATOM     40  C   UNL A   1      37.565  31.976  32.581  1.00  0.00     0.049 A 
ATOM     41  N   UNL A   1      38.860  32.740  35.222  1.00  0.00    -0.248 NA
ATOM     42  C   UNL A   1      37.022  34.116  35.644  1.00  0.00     0.031 C 
ATOM     43  C   UNL A   1      37.019  31.660  31.260  1.00  0.00     0.029 A 
ATOM     44  N   UNL A   1      38.694  31.206  32.667  1.00  0.00    -0.354 N 
ATOM     45  C   UNL A   1      39.046  33.419  36.419  1.00  0.00     0.074 A 
ATOM     46  C   UNL A   1      37.933  34.324  36.580  1.00  0.00     0.031 C 
ATOM     47  C   UNL A   1      37.799  30.738  30.671  1.00  0.00     0.029 A 
ATOM     48  C   UNL A   1      38.915  30.426  31.559  1.00  0.00     0.049 A 
ATOM     49  H   UNL A   1      39.291  31.210  33.450  1.00  0.00     0.167 HD
ATOM     50  C   UNL A   1      40.044  33.270  37.320  1.00  0.00     0.037 A 
ATOM     51  C   UNL A   1      39.911  29.557  31.303  1.00  0.00     0.037 A 
ATOM     52  C   UNL A   1      41.107  32.316  37.169  1.00  0.00     0.049 A 
ATOM     53  C   UNL A   1      40.971  29.355  32.353  1.00  0.00     0.074 A 
ATOM     54  C   UNL A   1      42.137  32.019  38.040  1.00  0.00     0.029 A 
ATOM     55  N   UNL A   1      41.257  31.485  36.065  1.00  0.00    -0.354 N 
ATOM     56  N   UNL A   1      41.114  29.959  33.509  1.00  0.00    -0.248 NA
ATOM     57  C   UNL A   1      41.999  28.346  32.071  1.00  0.00     0.031 C 
ATOM     58  C   UNL A   1      42.926  31.024  37.452  1.00  0.00     0.029 A 
ATOM     59  C   UNL A   1      42.364  30.673  36.234  1.00  0.00     0.049 A 
ATOM     60  H   UNL A   1      40.663  31.475  35.281  1.00  0.00     0.167 HD
ATOM     61  C   UNL A   1      42.228  29.385  34.105  1.00  0.00     0.074 A 
ATOM     62  C   UNL A   1      42.714  28.374  33.187  1.00  0.00     0.031 C 
ATOM     63  C   UNL A   1      42.803  29.667  35.301  1.00  0.00     0.037 A 
BRANCH  50  64
ATOM     64  C   UNL A   1      40.010  34.147  38.539  1.00  0.00     0.064 A 
ATOM     65  C   UNL A   1      39.301  33.777  39.694  1.00  0.00     0.173 A 
ATOM     66  C   UNL A   1      40.678  35.380  38.550  1.00  0.00     0.173 A 
ATOM     67  F   UNL A   1      38.628  32.617  39.731  1.00  0.00    -0.203 F 
ATOM     68  C   UNL A   1      39.226  34.627  40.795  1.00  0.00     0.198 A 
ATOM     69  C   UNL A   1      40.630  36.211  39.667  1.00  0.00     0.198 A 
ATOM     70  F   UNL A   1      41.370  35.785  37.475  1.00  0.00    -0.203 F 
ATOM     71  F   UNL A   1      38.484  34.282  41.856  1.00  0.00    -0.200 F 
ATOM     72  C   UNL A   1      39.895  35.840  40.783  1.00  0.00     0.200 A 
ATOM     73  F   UNL A   1      41.286  37.380  39.658  1.00  0.00    -0.200 F 
ATOM     74  F   UNL A   1      39.821  36.658  41.841  1.00  0.00    -0.200 F 
ENDBRANCH  50  64
BRANCH  51  75
ATOM     75  C   UNL A   1      39.915  28.777  30.038  1.00  0.00     0.064 A 
ATOM     76  C   UNL A   1      40.458  29.320  28.864  1.00  0.00     0.173 A 
ATOM     77  C   UNL A   1      39.395  27.476  29.971  1.00  0.00     0.173 A 
ATOM     78  F   UNL A   1      40.954  30.566  28.872  1.00  0.00    -0.203 F 
ATOM     79  C   UNL A   1      40.460  28.603  27.670  1.00  0.00     0.198 A 
ATOM     80  C   UNL A   1      39.421  26.749  28.781  1.00  0.00     0.198 A 
ATOM     81  F   UNL A   1      38.873  26.905  31.066  1.00  0.00    -0.203 F 
ATOM     82  F   UNL A   1      40.949  29.163  26.554  1.00  0.00    -0.200 F 
ATOM     83  C   UNL A   1      39.947  27.315  27.630  1.00  0.00     0.200 A 
ATOM     84  F   UNL A   1      38.938  25.500  28.751  1.00  0.00    -0.200 F 
ATOM     85  F   UNL A   1      39.956  26.624  26.483  1.00  0.00    -0.200 F 
ENDBRANCH  51  75
BRANCH  63  86
ATOM     86  C   UNL A   1      43.992  28.843  35.695  1.00  0.00     0.064 A 
ATOM     87  C   UNL A   1      43.852  27.656  36.426  1.00  0.00     0.173 A 
ATOM     88  C   UNL A   1      45.280  29.225  35.290  1.00  0.00     0.173 A 
ATOM     89  F   UNL A   1      42.640  27.261  36.846  1.00  0.00    -0.203 F 
ATOM     90  C   UNL A   1      44.964  26.889  36.758  1.00  0.00     0.198 A 
ATOM     91  C   UNL A   1      46.386  28.440  35.599  1.00  0.00     0.198 A 
ATOM     92  F   UNL A   1      45.462  30.349  34.581  1.00  0.00    -0.203 F 
ATOM     93  F   UNL A   1      44.813  25.779  37.494  1.00  0.00    -0.200 F 
ATOM     94  C   UNL A   1      46.228  27.277  36.338  1.00  0.00     0.200 A 
ATOM     95  F   UNL A   1      47.604  28.808  35.181  1.00  0.00    -0.200 F 
ATOM     96  F   UNL A   1      47.296  26.532  36.650  1.00  0.00    -0.200 F 
ENDBRANCH  63  86
ENDBRANCH  37  38
ENDBRANCH  29  32
ENDBRANCH  27  28
ENDBRANCH  26  27
ENDBRANCH  25  26
ENDBRANCH  24  25
ENDBRANCH   1  24
TORSDOF 17
ENDMDL
