MODEL 1
REMARK VINA RESULT:     -12.0      0.000      0.000
REMARK SMILES COc1ccc(OCc2cccs2)c(C(=O)NCCCCCCNC(=O)c2ccc(-c3c4nc(c(-c5c(F)c(F)c(F)c(F)c5F)c5ccc([nH]5)c(-c5c(F)c(F)c(F)c(F)c5F)c5nc(c(-c6c(F)c(F)c(F)c(F)c6F)c6ccc3[nH]6)C=C5)C=C4)cc2)c1
REMARK SMILES IDX 20 1 19 2 18 3 17 4 15 5 16 6 14 8 3 9 4 10 90 11 5 12 6 13
REMARK SMILES IDX 2 14 1 15 7 16 8 17 9 18 10 19 13 20 11 21 12 22 21 23 22 24
REMARK SMILES IDX 23 25 24 26 25 27 26 29 27 30 28 31 89 32 29 33 88 34 30 35
REMARK SMILES IDX 31 36 32 37 82 38 33 39 87 40 81 41 83 42 34 43 86 44 80 45
REMARK SMILES IDX 79 46 35 48 67 49 47 50 66 51 48 52 51 53 65 54 84 55 49 56
REMARK SMILES IDX 50 57 64 59 85 60 52 61 36 62 37 63 45 64 38 65 39 66 43 67
REMARK SMILES IDX 46 68 40 69 41 70 44 71 42 72 68 73 69 74 77 75 70 76 71 77
REMARK SMILES IDX 75 78 78 79 72 80 73 81 76 82 74 83 53 84 54 85 62 86 55 87
REMARK SMILES IDX 56 88 60 89 63 90 57 91 58 92 61 93 59 94
REMARK H PARENT 17 7 24 28 83 47 51 58
REMARK Flexibility Score: inf
ROOT
ATOM      1  C   UNL A   1      32.981  30.132  26.478  1.00  0.00     0.002 C 
ENDROOT
BRANCH   1   2
ATOM      2  C   UNL A   1      32.891  28.717  27.043  1.00  0.00     0.021 C 
BRANCH   2   3
ATOM      3  C   UNL A   1      31.496  28.300  27.501  1.00  0.00     0.116 C 
BRANCH   3   4
ATOM      4  N   UNL A   1      31.244  26.902  27.221  1.00  0.00    -0.352 N 
ATOM      5  C   UNL A   1      30.811  26.279  26.075  1.00  0.00     0.255 C 
ATOM      6  O   UNL A   1      29.879  25.487  26.209  1.00  0.00    -0.269 OA
ATOM      7  H   UNL A   1      31.412  26.295  27.978  1.00  0.00     0.163 HD
BRANCH   5   8
ATOM      8  C   UNL A   1      31.431  26.464  24.727  1.00  0.00     0.085 A 
ATOM      9  C   UNL A   1      33.114  25.791  23.064  1.00  0.00     0.119 A 
ATOM     10  C   UNL A   1      32.999  27.022  22.445  1.00  0.00     0.050 A 
ATOM     11  C   UNL A   1      32.342  25.535  24.198  1.00  0.00     0.064 A 
ATOM     12  C   UNL A   1      32.016  27.910  22.872  1.00  0.00     0.051 A 
ATOM     13  C   UNL A   1      31.170  27.608  23.956  1.00  0.00     0.132 A 
BRANCH   9  14
ATOM     14  O   UNL A   1      34.022  24.926  22.519  1.00  0.00    -0.497 OA
ATOM     15  C   UNL A   1      33.816  23.537  22.770  1.00  0.00     0.278 C 
ENDBRANCH   9  14
BRANCH  13  16
ATOM     16  O   UNL A   1      30.132  28.490  24.002  1.00  0.00    -0.487 OA
BRANCH  16  17
ATOM     17  C   UNL A   1      29.253  28.815  22.919  1.00  0.00     0.276 C 
BRANCH  17  18
ATOM     18  C   UNL A   1      28.870  30.272  22.789  1.00  0.00     0.042 A 
ATOM     19  C   UNL A   1      28.932  31.351  23.652  1.00  0.00     0.019 A 
ATOM     20  S   UNL A   1      28.279  30.784  21.245  1.00  0.00    -0.145 S 
ATOM     21  C   UNL A   1      28.601  32.591  23.028  1.00  0.00     0.012 A 
ATOM     22  C   UNL A   1      28.206  32.419  21.724  1.00  0.00     0.065 A 
ENDBRANCH  17  18
ENDBRANCH  16  17
ENDBRANCH  13  16
ENDBRANCH   5   8
ENDBRANCH   3   4
ENDBRANCH   2   3
ENDBRANCH   1   2
BRANCH   1  23
ATOM     23  C   UNL A   1      31.639  30.787  26.135  1.00  0.00     0.002 C 
BRANCH  23  24
ATOM     24  C   UNL A   1      31.424  32.193  26.699  1.00  0.00     0.021 C 
BRANCH  24  25
ATOM     25  C   UNL A   1      32.681  32.885  27.210  1.00  0.00     0.116 C 
BRANCH  25  26
ATOM     26  N   UNL A   1      32.432  34.258  27.608  1.00  0.00    -0.352 N 
ATOM     27  C   UNL A   1      33.015  34.986  28.614  1.00  0.00     0.251 C 
ATOM     28  H   UNL A   1      31.750  34.734  27.081  1.00  0.00     0.163 HD
ATOM     29  O   UNL A   1      32.565  36.079  28.930  1.00  0.00    -0.269 OA
BRANCH  27  30
ATOM     30  C   UNL A   1      34.178  34.428  29.335  1.00  0.00     0.039 A 
ATOM     31  C   UNL A   1      33.960  33.745  30.533  1.00  0.00     0.014 A 
ATOM     32  C   UNL A   1      35.475  34.581  28.834  1.00  0.00     0.014 A 
ATOM     33  C   UNL A   1      35.039  33.173  31.206  1.00  0.00     0.010 A 
ATOM     34  C   UNL A   1      36.539  33.945  29.466  1.00  0.00     0.010 A 
ATOM     35  C   UNL A   1      36.333  33.244  30.664  1.00  0.00    -0.014 A 
BRANCH  35  36
ATOM     36  C   UNL A   1      37.484  32.598  31.342  1.00  0.00     0.031 A 
ATOM     37  C   UNL A   1      38.206  31.458  30.680  1.00  0.00     0.074 A 
ATOM     38  C   UNL A   1      37.840  33.000  32.576  1.00  0.00     0.049 A 
ATOM     39  N   UNL A   1      39.195  30.730  31.132  1.00  0.00    -0.248 NA
ATOM     40  C   UNL A   1      37.732  31.064  29.344  1.00  0.00     0.031 C 
ATOM     41  C   UNL A   1      37.183  34.061  33.340  1.00  0.00     0.029 A 
ATOM     42  N   UNL A   1      38.834  32.555  33.411  1.00  0.00    -0.354 N 
ATOM     43  C   UNL A   1      39.451  29.788  30.146  1.00  0.00     0.074 A 
ATOM     44  C   UNL A   1      38.476  29.997  29.097  1.00  0.00     0.031 C 
ATOM     45  C   UNL A   1      37.806  34.202  34.520  1.00  0.00     0.029 A 
ATOM     46  C   UNL A   1      38.880  33.216  34.613  1.00  0.00     0.049 A 
ATOM     47  H   UNL A   1      39.456  31.831  33.170  1.00  0.00     0.167 HD
ATOM     48  C   UNL A   1      40.426  28.848  30.107  1.00  0.00     0.037 A 
ATOM     49  C   UNL A   1      39.691  33.042  35.673  1.00  0.00     0.037 A 
ATOM     50  C   UNL A   1      41.407  28.661  31.143  1.00  0.00     0.049 A 
ATOM     51  C   UNL A   1      40.765  31.991  35.608  1.00  0.00     0.074 A 
ATOM     52  C   UNL A   1      42.476  27.782  31.173  1.00  0.00     0.029 A 
ATOM     53  N   UNL A   1      41.431  29.361  32.342  1.00  0.00    -0.354 N 
ATOM     54  N   UNL A   1      41.047  31.154  34.639  1.00  0.00    -0.248 NA
ATOM     55  C   UNL A   1      41.641  31.866  36.782  1.00  0.00     0.031 C 
ATOM     56  C   UNL A   1      43.115  27.914  32.410  1.00  0.00     0.029 A 
ATOM     57  C   UNL A   1      42.482  28.915  33.129  1.00  0.00     0.049 A 
ATOM     58  H   UNL A   1      40.798  30.070  32.594  1.00  0.00     0.167 HD
ATOM     59  C   UNL A   1      42.144  30.423  35.071  1.00  0.00     0.074 A 
ATOM     60  C   UNL A   1      42.487  30.925  36.387  1.00  0.00     0.031 C 
ATOM     61  C   UNL A   1      42.810  29.427  34.436  1.00  0.00     0.037 A 
BRANCH  48  62
ATOM     62  C   UNL A   1      40.474  27.949  28.903  1.00  0.00     0.064 A 
ATOM     63  C   UNL A   1      41.239  28.268  27.771  1.00  0.00     0.173 A 
ATOM     64  C   UNL A   1      39.757  26.742  28.889  1.00  0.00     0.173 A 
ATOM     65  F   UNL A   1      41.936  29.414  27.727  1.00  0.00    -0.203 F 
ATOM     66  C   UNL A   1      41.255  27.434  26.656  1.00  0.00     0.198 A 
ATOM     67  C   UNL A   1      39.802  25.894  27.786  1.00  0.00     0.198 A 
ATOM     68  F   UNL A   1      39.014  26.384  29.947  1.00  0.00    -0.203 F 
ATOM     69  F   UNL A   1      41.944  27.792  25.563  1.00  0.00    -0.200 F 
ATOM     70  C   UNL A   1      40.540  26.245  26.666  1.00  0.00     0.200 A 
ATOM     71  F   UNL A   1      39.122  24.739  27.802  1.00  0.00    -0.200 F 
ATOM     72  F   UNL A   1      40.558  25.443  25.593  1.00  0.00    -0.200 F 
ENDBRANCH  48  62
BRANCH  49  73
ATOM     73  C   UNL A   1      39.533  33.907  36.871  1.00  0.00     0.064 A 
ATOM     74  C   UNL A   1      38.796  33.472  37.981  1.00  0.00     0.173 A 
ATOM     75  C   UNL A   1      40.127  35.175  36.939  1.00  0.00     0.173 A 
ATOM     76  F   UNL A   1      38.192  32.274  37.956  1.00  0.00    -0.203 F 
ATOM     77  C   UNL A   1      38.647  34.278  39.108  1.00  0.00     0.198 A 
ATOM     78  C   UNL A   1      40.002  35.969  38.078  1.00  0.00     0.198 A 
ATOM     79  F   UNL A   1      40.850  35.634  35.907  1.00  0.00    -0.203 F 
ATOM     80  F   UNL A   1      37.907  33.852  40.140  1.00  0.00    -0.200 F 
ATOM     81  C   UNL A   1      39.257  35.522  39.158  1.00  0.00     0.200 A 
ATOM     82  F   UNL A   1      40.608  37.163  38.129  1.00  0.00    -0.200 F 
ATOM     83  F   UNL A   1      39.124  36.293  40.246  1.00  0.00    -0.200 F 
ENDBRANCH  49  73
BRANCH  61  84
ATOM     84  C   UNL A   1      43.998  28.835  35.138  1.00  0.00     0.064 A 
ATOM     85  C   UNL A   1      43.877  27.716  35.976  1.00  0.00     0.173 A 
ATOM     86  C   UNL A   1      45.280  29.368  34.935  1.00  0.00     0.173 A 
ATOM     87  F   UNL A   1      42.672  27.179  36.216  1.00  0.00    -0.203 F 
ATOM     88  C   UNL A   1      44.993  27.170  36.605  1.00  0.00     0.198 A 
ATOM     89  C   UNL A   1      46.398  28.799  35.539  1.00  0.00     0.198 A 
ATOM     90  F   UNL A   1      45.451  30.433  34.137  1.00  0.00    -0.203 F 
ATOM     91  F   UNL A   1      44.848  26.131  37.439  1.00  0.00    -0.200 F 
ATOM     92  C   UNL A   1      46.253  27.706  36.379  1.00  0.00     0.200 A 
ATOM     93  F   UNL A   1      47.615  29.309  35.308  1.00  0.00    -0.200 F 
ATOM     94  F   UNL A   1      47.326  27.172  36.977  1.00  0.00    -0.200 F 
ENDBRANCH  61  84
ENDBRANCH  35  36
ENDBRANCH  27  30
ENDBRANCH  25  26
ENDBRANCH  24  25
ENDBRANCH  23  24
ENDBRANCH   1  23
TORSDOF 17
ENDMDL
MODEL 2
REMARK VINA RESULT:     -12.0      0.892      2.099
REMARK SMILES COc1ccc(OCc2cccs2)c(C(=O)NCCCCCCNC(=O)c2ccc(-c3c4nc(c(-c5c(F)c(F)c(F)c(F)c5F)c5ccc([nH]5)c(-c5c(F)c(F)c(F)c(F)c5F)c5nc(c(-c6c(F)c(F)c(F)c(F)c6F)c6ccc3[nH]6)C=C5)C=C4)cc2)c1
REMARK SMILES IDX 20 1 19 2 18 3 17 4 15 5 16 6 14 8 3 9 4 10 90 11 5 12 6 13
REMARK SMILES IDX 2 14 1 15 7 16 8 17 9 18 10 19 13 20 11 21 12 22 21 23 22 24
REMARK SMILES IDX 23 25 24 26 25 27 26 29 27 30 28 31 89 32 29 33 88 34 30 35
REMARK SMILES IDX 31 36 32 37 82 38 33 39 87 40 81 41 83 42 34 43 86 44 80 45
REMARK SMILES IDX 79 46 35 48 67 49 47 50 66 51 48 52 51 53 65 54 84 55 49 56
REMARK SMILES IDX 50 57 64 59 85 60 52 61 36 62 37 63 45 64 38 65 39 66 43 67
REMARK SMILES IDX 46 68 40 69 41 70 44 71 42 72 68 73 69 74 77 75 70 76 71 77
REMARK SMILES IDX 75 78 78 79 72 80 73 81 76 82 74 83 53 84 54 85 62 86 55 87
REMARK SMILES IDX 56 88 60 89 63 90 57 91 58 92 61 93 59 94
REMARK H PARENT 17 7 24 28 83 47 51 58
REMARK Flexibility Score: inf
ROOT
ATOM      1  C   UNL A   1      32.265  29.848  27.189  1.00  0.00     0.002 C 
ENDROOT
BRANCH   1   2
ATOM      2  C   UNL A   1      33.785  29.916  27.301  1.00  0.00     0.021 C 
BRANCH   2   3
ATOM      3  C   UNL A   1      34.531  28.816  26.551  1.00  0.00     0.116 C 
BRANCH   3   4
ATOM      4  N   UNL A   1      34.107  28.739  25.169  1.00  0.00    -0.352 N 
ATOM      5  C   UNL A   1      33.457  27.742  24.482  1.00  0.00     0.255 C 
ATOM      6  O   UNL A   1      33.953  27.416  23.403  1.00  0.00    -0.269 OA
ATOM      7  H   UNL A   1      34.318  29.536  24.630  1.00  0.00     0.163 HD
BRANCH   5   8
ATOM      8  C   UNL A   1      32.188  27.093  24.933  1.00  0.00     0.085 A 
ATOM      9  C   UNL A   1      31.059  25.295  26.174  1.00  0.00     0.119 A 
ATOM     10  C   UNL A   1      29.910  25.500  25.433  1.00  0.00     0.050 A 
ATOM     11  C   UNL A   1      32.180  26.080  25.906  1.00  0.00     0.064 A 
ATOM     12  C   UNL A   1      29.851  26.577  24.554  1.00  0.00     0.051 A 
ATOM     13  C   UNL A   1      30.953  27.431  24.357  1.00  0.00     0.132 A 
BRANCH   9  14
ATOM     14  O   UNL A   1      31.005  24.290  27.101  1.00  0.00    -0.497 OA
ATOM     15  C   UNL A   1      32.047  23.317  27.053  1.00  0.00     0.278 C 
ENDBRANCH   9  14
BRANCH  13  16
ATOM     16  O   UNL A   1      30.568  28.548  23.678  1.00  0.00    -0.487 OA
BRANCH  16  17
ATOM     17  C   UNL A   1      29.269  28.794  23.126  1.00  0.00     0.276 C 
BRANCH  17  18
ATOM     18  C   UNL A   1      28.896  30.245  22.928  1.00  0.00     0.042 A 
ATOM     19  C   UNL A   1      28.956  31.362  23.743  1.00  0.00     0.019 A 
ATOM     20  S   UNL A   1      28.325  30.692  21.356  1.00  0.00    -0.145 S 
ATOM     21  C   UNL A   1      28.639  32.574  23.060  1.00  0.00     0.012 A 
ATOM     22  C   UNL A   1      28.257  32.347  21.761  1.00  0.00     0.065 A 
ENDBRANCH  17  18
ENDBRANCH  16  17
ENDBRANCH  13  16
ENDBRANCH   5   8
ENDBRANCH   3   4
ENDBRANCH   2   3
ENDBRANCH   1   2
BRANCH   1  23
ATOM     23  C   UNL A   1      31.633  30.859  26.227  1.00  0.00     0.002 C 
BRANCH  23  24
ATOM     24  C   UNL A   1      31.416  32.265  26.791  1.00  0.00     0.021 C 
BRANCH  24  25
ATOM     25  C   UNL A   1      32.684  32.992  27.220  1.00  0.00     0.116 C 
BRANCH  25  26
ATOM     26  N   UNL A   1      32.421  34.352  27.653  1.00  0.00    -0.352 N 
ATOM     27  C   UNL A   1      32.991  35.057  28.682  1.00  0.00     0.251 C 
ATOM     28  H   UNL A   1      31.737  34.836  27.136  1.00  0.00     0.163 HD
ATOM     29  O   UNL A   1      32.530  36.137  29.025  1.00  0.00    -0.269 OA
BRANCH  27  30
ATOM     30  C   UNL A   1      34.155  34.491  29.395  1.00  0.00     0.039 A 
ATOM     31  C   UNL A   1      33.943  33.823  30.602  1.00  0.00     0.014 A 
ATOM     32  C   UNL A   1      35.448  34.620  28.876  1.00  0.00     0.014 A 
ATOM     33  C   UNL A   1      35.022  33.242  31.268  1.00  0.00     0.010 A 
ATOM     34  C   UNL A   1      36.511  33.976  29.502  1.00  0.00     0.010 A 
ATOM     35  C   UNL A   1      36.310  33.289  30.709  1.00  0.00    -0.014 A 
BRANCH  35  36
ATOM     36  C   UNL A   1      37.459  32.634  31.379  1.00  0.00     0.031 A 
ATOM     37  C   UNL A   1      38.170  31.491  30.711  1.00  0.00     0.074 A 
ATOM     38  C   UNL A   1      37.825  33.031  32.613  1.00  0.00     0.049 A 
ATOM     39  N   UNL A   1      39.157  30.756  31.155  1.00  0.00    -0.248 NA
ATOM     40  C   UNL A   1      37.687  31.103  29.377  1.00  0.00     0.031 C 
ATOM     41  C   UNL A   1      37.179  34.095  33.382  1.00  0.00     0.029 A 
ATOM     42  N   UNL A   1      38.820  32.577  33.441  1.00  0.00    -0.354 N 
ATOM     43  C   UNL A   1      39.401  29.814  30.166  1.00  0.00     0.074 A 
ATOM     44  C   UNL A   1      38.422  30.032  29.123  1.00  0.00     0.031 C 
ATOM     45  C   UNL A   1      37.809  34.228  34.560  1.00  0.00     0.029 A 
ATOM     46  C   UNL A   1      38.877  33.235  34.645  1.00  0.00     0.049 A 
ATOM     47  H   UNL A   1      39.437  31.849  33.195  1.00  0.00     0.167 HD
ATOM     48  C   UNL A   1      40.370  28.868  30.119  1.00  0.00     0.037 A 
ATOM     49  C   UNL A   1      39.693  33.053  35.700  1.00  0.00     0.037 A 
ATOM     50  C   UNL A   1      41.355  28.671  31.151  1.00  0.00     0.049 A 
ATOM     51  C   UNL A   1      40.759  31.995  35.627  1.00  0.00     0.074 A 
ATOM     52  C   UNL A   1      42.418  27.786  31.172  1.00  0.00     0.029 A 
ATOM     53  N   UNL A   1      41.391  29.369  32.351  1.00  0.00    -0.354 N 
ATOM     54  N   UNL A   1      41.030  31.158  34.654  1.00  0.00    -0.248 NA
ATOM     55  C   UNL A   1      41.640  31.861  36.795  1.00  0.00     0.031 C 
ATOM     56  C   UNL A   1      43.064  27.910  32.406  1.00  0.00     0.029 A 
ATOM     57  C   UNL A   1      42.442  28.913  33.131  1.00  0.00     0.049 A 
ATOM     58  H   UNL A   1      40.763  30.081  32.608  1.00  0.00     0.167 HD
ATOM     59  C   UNL A   1      42.125  30.419  35.079  1.00  0.00     0.074 A 
ATOM     60  C   UNL A   1      42.478  30.915  36.393  1.00  0.00     0.031 C 
ATOM     61  C   UNL A   1      42.781  29.420  34.438  1.00  0.00     0.037 A 
BRANCH  48  62
ATOM     62  C   UNL A   1      40.406  27.971  28.914  1.00  0.00     0.064 A 
ATOM     63  C   UNL A   1      41.158  28.294  27.774  1.00  0.00     0.173 A 
ATOM     64  C   UNL A   1      39.690  26.764  28.904  1.00  0.00     0.173 A 
ATOM     65  F   UNL A   1      41.853  29.441  27.725  1.00  0.00    -0.203 F 
ATOM     66  C   UNL A   1      41.162  27.462  26.657  1.00  0.00     0.198 A 
ATOM     67  C   UNL A   1      39.724  25.918  27.799  1.00  0.00     0.198 A 
ATOM     68  F   UNL A   1      38.959  26.402  29.970  1.00  0.00    -0.203 F 
ATOM     69  F   UNL A   1      41.838  27.823  25.557  1.00  0.00    -0.200 F 
ATOM     70  C   UNL A   1      40.449  26.272  26.672  1.00  0.00     0.200 A 
ATOM     71  F   UNL A   1      39.046  24.762  27.821  1.00  0.00    -0.200 F 
ATOM     72  F   UNL A   1      40.456  25.473  25.597  1.00  0.00    -0.200 F 
ENDBRANCH  48  62
BRANCH  49  73
ATOM     73  C   UNL A   1      39.546  33.916  36.901  1.00  0.00     0.064 A 
ATOM     74  C   UNL A   1      40.155  35.176  36.961  1.00  0.00     0.173 A 
ATOM     75  C   UNL A   1      38.783  33.507  38.004  1.00  0.00     0.173 A 
ATOM     76  F   UNL A   1      40.911  35.604  35.938  1.00  0.00    -0.203 F 
ATOM     77  C   UNL A   1      40.018  35.990  38.084  1.00  0.00     0.198 A 
ATOM     78  C   UNL A   1      38.623  34.333  39.115  1.00  0.00     0.198 A 
ATOM     79  F   UNL A   1      38.173  32.312  37.993  1.00  0.00    -0.203 F 
ATOM     80  F   UNL A   1      40.641  37.175  38.129  1.00  0.00    -0.200 F 
ATOM     81  C   UNL A   1      39.246  35.571  39.156  1.00  0.00     0.200 A 
ATOM     82  F   UNL A   1      37.861  33.931  40.141  1.00  0.00    -0.200 F 
ATOM     83  F   UNL A   1      39.105  36.357  40.232  1.00  0.00    -0.200 F 
ENDBRANCH  49  73
BRANCH  61  84
ATOM     84  C   UNL A   1      43.969  28.818  35.132  1.00  0.00     0.064 A 
ATOM     85  C   UNL A   1      45.251  29.376  35.016  1.00  0.00     0.173 A 
ATOM     86  C   UNL A   1      43.813  27.695  35.958  1.00  0.00     0.173 A 
ATOM     87  F   UNL A   1      45.455  30.440  34.226  1.00  0.00    -0.203 F 
ATOM     88  C   UNL A   1      46.337  28.814  35.682  1.00  0.00     0.198 A 
ATOM     89  C   UNL A   1      44.895  27.156  36.648  1.00  0.00     0.198 A 
ATOM     90  F   UNL A   1      42.606  27.128  36.109  1.00  0.00    -0.203 F 
ATOM     91  F   UNL A   1      47.562  29.334  35.519  1.00  0.00    -0.200 F 
ATOM     92  C   UNL A   1      46.157  27.711  36.504  1.00  0.00     0.200 A 
ATOM     93  F   UNL A   1      44.716  26.100  37.453  1.00  0.00    -0.200 F 
ATOM     94  F   UNL A   1      47.203  27.179  37.151  1.00  0.00    -0.200 F 
ENDBRANCH  61  84
ENDBRANCH  35  36
ENDBRANCH  27  30
ENDBRANCH  25  26
ENDBRANCH  24  25
ENDBRANCH  23  24
ENDBRANCH   1  23
TORSDOF 17
ENDMDL
MODEL 3
REMARK VINA RESULT:     -11.8      0.562      7.291
REMARK SMILES COc1ccc(OCc2cccs2)c(C(=O)NCCCCCCNC(=O)c2ccc(-c3c4nc(c(-c5c(F)c(F)c(F)c(F)c5F)c5ccc([nH]5)c(-c5c(F)c(F)c(F)c(F)c5F)c5nc(c(-c6c(F)c(F)c(F)c(F)c6F)c6ccc3[nH]6)C=C5)C=C4)cc2)c1
REMARK SMILES IDX 20 1 19 2 18 3 17 4 15 5 16 6 14 8 3 9 4 10 90 11 5 12 6 13
REMARK SMILES IDX 2 14 1 15 7 16 8 17 9 18 10 19 13 20 11 21 12 22 21 23 22 24
REMARK SMILES IDX 23 25 24 26 25 27 26 29 27 30 28 31 89 32 29 33 88 34 30 35
REMARK SMILES IDX 31 36 32 37 82 38 33 39 87 40 81 41 83 42 34 43 86 44 80 45
REMARK SMILES IDX 79 46 35 48 67 49 47 50 66 51 48 52 51 53 65 54 84 55 49 56
REMARK SMILES IDX 50 57 64 59 85 60 52 61 36 62 37 63 45 64 38 65 39 66 43 67
REMARK SMILES IDX 46 68 40 69 41 70 44 71 42 72 68 73 69 74 77 75 70 76 71 77
REMARK SMILES IDX 75 78 78 79 72 80 73 81 76 82 74 83 53 84 54 85 62 86 55 87
REMARK SMILES IDX 56 88 60 89 63 90 57 91 58 92 61 93 59 94
REMARK H PARENT 17 7 24 28 83 47 51 58
REMARK Flexibility Score: inf
ROOT
ATOM      1  C   UNL A   1      32.987  30.086  26.350  1.00  0.00     0.002 C 
ENDROOT
BRANCH   1   2
ATOM      2  C   UNL A   1      32.945  28.673  26.926  1.00  0.00     0.021 C 
BRANCH   2   3
ATOM      3  C   UNL A   1      31.604  28.271  27.535  1.00  0.00     0.116 C 
BRANCH   3   4
ATOM      4  N   UNL A   1      31.269  26.900  27.213  1.00  0.00    -0.352 N 
ATOM      5  C   UNL A   1      30.776  26.342  26.058  1.00  0.00     0.255 C 
ATOM      6  O   UNL A   1      29.804  25.597  26.189  1.00  0.00    -0.269 OA
ATOM      7  H   UNL A   1      31.421  26.258  27.945  1.00  0.00     0.163 HD
BRANCH   5   8
ATOM      8  C   UNL A   1      31.373  26.540  24.702  1.00  0.00     0.085 A 
ATOM      9  C   UNL A   1      33.049  25.906  23.018  1.00  0.00     0.119 A 
ATOM     10  C   UNL A   1      32.897  27.133  22.400  1.00  0.00     0.050 A 
ATOM     11  C   UNL A   1      32.300  25.633  24.162  1.00  0.00     0.064 A 
ATOM     12  C   UNL A   1      31.899  27.997  22.838  1.00  0.00     0.051 A 
ATOM     13  C   UNL A   1      31.074  27.677  23.934  1.00  0.00     0.132 A 
BRANCH   9  14
ATOM     14  O   UNL A   1      33.972  25.063  22.461  1.00  0.00    -0.497 OA
ATOM     15  C   UNL A   1      34.457  24.007  23.289  1.00  0.00     0.278 C 
ENDBRANCH   9  14
BRANCH  13  16
ATOM     16  O   UNL A   1      30.016  28.533  23.993  1.00  0.00    -0.487 OA
BRANCH  16  17
ATOM     17  C   UNL A   1      29.140  28.868  22.910  1.00  0.00     0.276 C 
BRANCH  17  18
ATOM     18  C   UNL A   1      28.799  30.333  22.760  1.00  0.00     0.042 A 
ATOM     19  C   UNL A   1      28.872  31.418  23.615  1.00  0.00     0.019 A 
ATOM     20  S   UNL A   1      28.255  30.847  21.199  1.00  0.00    -0.145 S 
ATOM     21  C   UNL A   1      28.587  32.660  22.974  1.00  0.00     0.012 A 
ATOM     22  C   UNL A   1      28.215  32.488  21.663  1.00  0.00     0.065 A 
ENDBRANCH  17  18
ENDBRANCH  16  17
ENDBRANCH  13  16
ENDBRANCH   5   8
ENDBRANCH   3   4
ENDBRANCH   2   3
ENDBRANCH   1   2
BRANCH   1  23
ATOM     23  C   UNL A   1      31.621  30.742  26.124  1.00  0.00     0.002 C 
BRANCH  23  24
ATOM     24  C   UNL A   1      31.433  32.122  26.760  1.00  0.00     0.021 C 
BRANCH  24  25
ATOM     25  C   UNL A   1      32.722  32.872  27.070  1.00  0.00     0.116 C 
BRANCH  25  26
ATOM     26  N   UNL A   1      32.474  34.200  27.599  1.00  0.00    -0.352 N 
ATOM     27  C   UNL A   1      33.059  34.828  28.668  1.00  0.00     0.251 C 
ATOM     28  H   UNL A   1      31.790  34.724  27.122  1.00  0.00     0.163 HD
ATOM     29  O   UNL A   1      32.610  35.886  29.090  1.00  0.00    -0.269 OA
BRANCH  27  30
ATOM     30  C   UNL A   1      34.225  34.204  29.330  1.00  0.00     0.039 A 
ATOM     31  C   UNL A   1      34.002  33.312  30.380  1.00  0.00     0.014 A 
ATOM     32  C   UNL A   1      35.529  34.500  28.917  1.00  0.00     0.014 A 
ATOM     33  C   UNL A   1      35.086  32.679  30.988  1.00  0.00     0.010 A 
ATOM     34  C   UNL A   1      36.602  33.811  29.473  1.00  0.00     0.010 A 
ATOM     35  C   UNL A   1      36.392  32.901  30.521  1.00  0.00    -0.014 A 
BRANCH  35  36
ATOM     36  C   UNL A   1      37.550  32.198  31.123  1.00  0.00     0.031 A 
ATOM     37  C   UNL A   1      38.032  32.577  32.495  1.00  0.00     0.074 A 
ATOM     38  C   UNL A   1      38.202  31.259  30.412  1.00  0.00     0.049 A 
ATOM     39  N   UNL A   1      39.057  32.120  33.170  1.00  0.00    -0.248 NA
ATOM     40  C   UNL A   1      37.280  33.634  33.190  1.00  0.00     0.031 C 
ATOM     41  C   UNL A   1      37.859  30.841  29.053  1.00  0.00     0.029 A 
ATOM     42  N   UNL A   1      39.298  30.496  30.729  1.00  0.00    -0.354 N 
ATOM     43  C   UNL A   1      39.079  32.840  34.355  1.00  0.00     0.074 A 
ATOM     44  C   UNL A   1      38.003  33.805  34.286  1.00  0.00     0.031 C 
ATOM     45  C   UNL A   1      38.711  29.881  28.660  1.00  0.00     0.029 A 
ATOM     46  C   UNL A   1      39.683  29.643  29.724  1.00  0.00     0.049 A 
ATOM     47  H   UNL A   1      39.763  30.553  31.595  1.00  0.00     0.167 HD
ATOM     48  C   UNL A   1      39.908  32.694  35.418  1.00  0.00     0.037 A 
ATOM     49  C   UNL A   1      40.708  28.772  29.665  1.00  0.00     0.037 A 
ATOM     50  C   UNL A   1      40.962  31.717  35.490  1.00  0.00     0.049 A 
ATOM     51  C   UNL A   1      41.617  28.629  30.855  1.00  0.00     0.074 A 
ATOM     52  C   UNL A   1      41.815  31.443  36.544  1.00  0.00     0.029 A 
ATOM     53  N   UNL A   1      41.313  30.858  34.457  1.00  0.00    -0.354 N 
ATOM     54  N   UNL A   1      41.583  29.263  32.003  1.00  0.00    -0.248 NA
ATOM     55  C   UNL A   1      42.700  27.643  30.746  1.00  0.00     0.031 C 
ATOM     56  C   UNL A   1      42.716  30.455  36.131  1.00  0.00     0.029 A 
ATOM     57  C   UNL A   1      42.388  30.072  34.841  1.00  0.00     0.049 A 
ATOM     58  H   UNL A   1      40.864  30.814  33.583  1.00  0.00     0.167 HD
ATOM     59  C   UNL A   1      42.619  28.736  32.761  1.00  0.00     0.074 A 
ATOM     60  C   UNL A   1      43.256  27.719  31.948  1.00  0.00     0.031 C 
ATOM     61  C   UNL A   1      43.009  29.063  34.018  1.00  0.00     0.037 A 
BRANCH  48  62
ATOM     62  C   UNL A   1      39.706  33.619  36.586  1.00  0.00     0.064 A 
ATOM     63  C   UNL A   1      38.880  33.275  37.667  1.00  0.00     0.173 A 
ATOM     64  C   UNL A   1      40.360  34.859  36.632  1.00  0.00     0.173 A 
ATOM     65  F   UNL A   1      38.223  32.105  37.671  1.00  0.00    -0.203 F 
ATOM     66  C   UNL A   1      38.687  34.152  38.731  1.00  0.00     0.198 A 
ATOM     67  C   UNL A   1      40.192  35.720  37.713  1.00  0.00     0.198 A 
ATOM     68  F   UNL A   1      41.167  35.237  35.628  1.00  0.00    -0.203 F 
ATOM     69  F   UNL A   1      37.845  33.827  39.722  1.00  0.00    -0.200 F 
ATOM     70  C   UNL A   1      39.347  35.372  38.756  1.00  0.00     0.200 A 
ATOM     71  F   UNL A   1      40.841  36.892  37.742  1.00  0.00    -0.200 F 
ATOM     72  F   UNL A   1      39.162  36.215  39.781  1.00  0.00    -0.200 F 
ENDBRANCH  48  62
BRANCH  49  73
ATOM     73  C   UNL A   1      40.907  27.951  28.443  1.00  0.00     0.064 A 
ATOM     74  C   UNL A   1      40.307  26.691  28.316  1.00  0.00     0.173 A 
ATOM     75  C   UNL A   1      41.685  28.414  27.371  1.00  0.00     0.173 A 
ATOM     76  F   UNL A   1      39.570  26.196  29.323  1.00  0.00    -0.203 F 
ATOM     77  C   UNL A   1      40.488  25.918  27.171  1.00  0.00     0.198 A 
ATOM     78  C   UNL A   1      41.842  27.653  26.215  1.00  0.00     0.198 A 
ATOM     79  F   UNL A   1      42.273  29.617  27.440  1.00  0.00    -0.203 F 
ATOM     80  F   UNL A   1      39.933  24.701  27.093  1.00  0.00    -0.200 F 
ATOM     81  C   UNL A   1      41.249  26.403  26.119  1.00  0.00     0.200 A 
ATOM     82  F   UNL A   1      42.563  28.133  25.192  1.00  0.00    -0.200 F 
ATOM     83  F   UNL A   1      41.414  25.665  25.012  1.00  0.00    -0.200 F 
ENDBRANCH  49  73
BRANCH  61  84
ATOM     84  C   UNL A   1      44.155  28.292  34.608  1.00  0.00     0.064 A 
ATOM     85  C   UNL A   1      43.958  27.076  35.280  1.00  0.00     0.173 A 
ATOM     86  C   UNL A   1      45.471  28.755  34.460  1.00  0.00     0.173 A 
ATOM     87  F   UNL A   1      42.717  26.599  35.461  1.00  0.00    -0.203 F 
ATOM     88  C   UNL A   1      45.034  26.366  35.804  1.00  0.00     0.198 A 
ATOM     89  C   UNL A   1      46.548  28.026  34.957  1.00  0.00     0.198 A 
ATOM     90  F   UNL A   1      45.714  29.908  33.819  1.00  0.00    -0.203 F 
ATOM     91  F   UNL A   1      44.819  25.232  36.484  1.00  0.00    -0.200 F 
ATOM     92  C   UNL A   1      46.329  26.837  35.635  1.00  0.00     0.200 A 
ATOM     93  F   UNL A   1      47.798  28.475  34.779  1.00  0.00    -0.200 F 
ATOM     94  F   UNL A   1      47.364  26.146  36.132  1.00  0.00    -0.200 F 
ENDBRANCH  61  84
ENDBRANCH  35  36
ENDBRANCH  27  30
ENDBRANCH  25  26
ENDBRANCH  24  25
ENDBRANCH  23  24
ENDBRANCH   1  23
TORSDOF 17
ENDMDL
