MODEL 1
REMARK VINA RESULT:     -15.7      0.000      0.000
REMARK SMILES Cc1c(NCc2ccccn2)cccc1C(=O)N1CCOC[C@@H]1CC(=O)NCCCCCCNC(=O)c1ccc(-c2c3nc(c(-c4c(F)c(F)c(F)c(F)c4F)c4ccc([nH]4)c(-c4c(F)c(F)c(F)c(F)c4F)c4nc(c(-c5c(F)c(F)c(F)c(F)c5F)c5ccc2[nH]5)C=C4)C=C3)cc1
REMARK SMILES IDX 28 1 27 2 25 3 26 4 24 6 23 7 18 8 19 9 20 10 22 11 21 12
REMARK SMILES IDX 16 13 17 14 15 15 1 16 2 17 3 18 12 19 14 20 13 21 4 22 5 24
REMARK SMILES IDX 6 25 7 26 11 27 8 28 10 29 9 30 29 31 30 32 31 33 32 34
REMARK SMILES IDX 33 35 34 36 35 37 36 39 37 40 38 41 99 42 39 43 98 44 40 45
REMARK SMILES IDX 41 46 42 47 92 48 43 49 97 50 91 51 93 52 44 53 96 54 90 55
REMARK SMILES IDX 89 56 45 58 77 59 57 60 76 61 58 62 61 63 75 64 94 65 59 66
REMARK SMILES IDX 60 67 74 69 95 70 62 71 46 72 47 73 55 74 48 75 49 76 53 77
REMARK SMILES IDX 56 78 50 79 51 80 54 81 52 82 78 83 79 84 87 85 80 86 81 87
REMARK SMILES IDX 85 88 88 89 82 90 83 91 86 92 84 93 63 94 64 95 72 96 65 97
REMARK SMILES IDX 66 98 70 99 73 100 67 101 68 102 71 103 69 104
REMARK H PARENT 27 5 4 23 34 38 93 57 61 68
REMARK Flexibility Score: inf
ROOT
ATOM      1  C   UNL A   1      33.621  30.326  27.163  1.00  0.00     0.116 C 
ENDROOT
BRANCH   1   2
ATOM      2  N   UNL A   1      32.958  29.240  27.838  1.00  0.00    -0.356 N 
ATOM      3  C   UNL A   1      32.090  28.366  27.256  1.00  0.00     0.222 C 
ATOM      4  O   UNL A   1      31.201  27.869  27.946  1.00  0.00    -0.275 OA
ATOM      5  H   UNL A   1      33.147  29.121  28.797  1.00  0.00     0.163 HD
BRANCH   3   6
ATOM      6  C   UNL A   1      32.292  27.971  25.807  1.00  0.00     0.127 C 
BRANCH   6   7
ATOM      7  C   UNL A   1      31.180  28.259  24.786  1.00  0.00     0.120 C 
ATOM      8  N   UNL A   1      30.427  27.119  24.173  1.00  0.00    -0.331 N 
ATOM      9  C   UNL A   1      29.237  27.643  23.476  1.00  0.00     0.148 C 
ATOM     10  C   UNL A   1      29.590  28.745  22.457  1.00  0.00     0.181 C 
ATOM     11  C   UNL A   1      31.603  29.211  23.646  1.00  0.00     0.185 C 
ATOM     12  O   UNL A   1      30.430  29.763  23.015  1.00  0.00    -0.377 OA
BRANCH   8  13
ATOM     13  C   UNL A   1      30.268  25.907  24.849  1.00  0.00     0.254 C 
ATOM     14  O   UNL A   1      29.536  25.789  25.827  1.00  0.00    -0.269 OA
BRANCH  13  15
ATOM     15  C   UNL A   1      31.140  24.736  24.477  1.00  0.00     0.045 A 
ATOM     16  C   UNL A   1      30.530  23.008  26.717  1.00  0.00     0.047 C 
ATOM     17  C   UNL A   1      31.255  23.197  25.420  1.00  0.00    -0.015 A 
ATOM     18  C   UNL A   1      32.231  21.812  24.782  1.00  0.00     0.038 A 
ATOM     19  C   UNL A   1      33.106  21.950  23.213  1.00  0.00     0.026 A 
ATOM     20  C   UNL A   1      32.038  24.897  22.913  1.00  0.00     0.014 A 
ATOM     21  C   UNL A   1      33.008  23.499  22.271  1.00  0.00     0.003 A 
BRANCH  18  22
ATOM     22  N   UNL A   1      32.331  20.655  25.537  1.00  0.00    -0.379 N 
ATOM     23  H   UNL A   1      31.733  19.896  25.351  1.00  0.00     0.160 HD
BRANCH  22  24
ATOM     24  C   UNL A   1      33.315  20.558  26.598  1.00  0.00     0.169 C 
BRANCH  24  25
ATOM     25  C   UNL A   1      34.578  21.342  26.250  1.00  0.00     0.059 A 
ATOM     26  C   UNL A   1      35.846  20.623  25.133  1.00  0.00     0.026 A 
ATOM     27  N   UNL A   1      34.440  23.139  26.473  1.00  0.00    -0.259 NA
ATOM     28  C   UNL A   1      36.943  21.745  24.178  1.00  0.00     0.004 A 
ATOM     29  C   UNL A   1      35.509  24.262  25.558  1.00  0.00     0.111 A 
ATOM     30  C   UNL A   1      36.720  23.618  24.360  1.00  0.00     0.020 A 
ENDBRANCH  24  25
ENDBRANCH  22  24
ENDBRANCH  18  22
ENDBRANCH  13  15
ENDBRANCH   8  13
ENDBRANCH   6   7
ENDBRANCH   3   6
ENDBRANCH   1   2
BRANCH   1  31
ATOM     31  C   UNL A   1      34.211  31.260  28.222  1.00  0.00     0.021 C 
BRANCH  31  32
ATOM     32  C   UNL A   1      34.548  32.681  27.757  1.00  0.00     0.002 C 
BRANCH  32  33
ATOM     33  C   UNL A   1      33.345  33.856  28.044  1.00  0.00     0.002 C 
BRANCH  33  34
ATOM     34  C   UNL A   1      33.043  35.535  29.410  1.00  0.00     0.021 C 
BRANCH  34  35
ATOM     35  C   UNL A   1      32.501  35.760  31.011  1.00  0.00     0.116 C 
BRANCH  35  36
ATOM     36  N   UNL A   1      33.395  36.142  32.128  1.00  0.00    -0.352 N 
ATOM     37  C   UNL A   1      34.423  35.435  32.750  1.00  0.00     0.251 C 
ATOM     38  H   UNL A   1      33.238  37.044  32.489  1.00  0.00     0.163 HD
ATOM     39  O   UNL A   1      35.147  36.000  33.565  1.00  0.00    -0.269 OA
BRANCH  37  40
ATOM     40  C   UNL A   1      34.741  34.042  32.326  1.00  0.00     0.039 A 
ATOM     41  C   UNL A   1      35.032  33.148  33.356  1.00  0.00     0.014 A 
ATOM     42  C   UNL A   1      35.324  33.865  31.088  1.00  0.00     0.014 A 
ATOM     43  C   UNL A   1      36.223  32.439  33.285  1.00  0.00     0.010 A 
ATOM     44  C   UNL A   1      36.620  33.389  31.108  1.00  0.00     0.010 A 
ATOM     45  C   UNL A   1      37.135  32.783  32.273  1.00  0.00    -0.014 A 
BRANCH  45  46
ATOM     46  C   UNL A   1      38.786  32.534  32.286  1.00  0.00     0.031 A 
ATOM     47  C   UNL A   1      38.587  31.019  31.238  1.00  0.00     0.074 A 
ATOM     48  C   UNL A   1      40.308  33.286  33.093  1.00  0.00     0.049 A 
ATOM     49  N   UNL A   1      39.582  30.292  30.815  1.00  0.00    -0.248 NA
ATOM     50  C   UNL A   1      37.343  30.344  30.800  1.00  0.00     0.031 C 
ATOM     51  C   UNL A   1      42.020  33.085  32.927  1.00  0.00     0.029 A 
ATOM     52  N   UNL A   1      40.624  34.251  34.253  1.00  0.00    -0.354 N 
ATOM     53  C   UNL A   1      39.225  29.158  30.192  1.00  0.00     0.074 A 
ATOM     54  C   UNL A   1      37.797  29.295  30.082  1.00  0.00     0.031 C 
ATOM     55  C   UNL A   1      42.676  33.375  34.059  1.00  0.00     0.029 A 
ATOM     56  C   UNL A   1      41.683  33.716  35.021  1.00  0.00     0.049 A 
ATOM     57  H   UNL A   1      40.162  35.102  34.431  1.00  0.00     0.167 HD
ATOM     58  C   UNL A   1      40.274  28.365  29.827  1.00  0.00     0.037 A 
ATOM     59  C   UNL A   1      41.440  33.043  36.182  1.00  0.00     0.037 A 
ATOM     60  C   UNL A   1      41.470  28.614  30.695  1.00  0.00     0.049 A 
ATOM     61  C   UNL A   1      41.937  31.589  36.050  1.00  0.00     0.074 A 
ATOM     62  C   UNL A   1      42.594  29.420  30.563  1.00  0.00     0.029 A 
ATOM     63  N   UNL A   1      41.461  28.222  32.048  1.00  0.00    -0.354 N 
ATOM     64  N   UNL A   1      41.922  30.854  34.955  1.00  0.00    -0.248 NA
ATOM     65  C   UNL A   1      42.625  30.914  37.139  1.00  0.00     0.031 C 
ATOM     66  C   UNL A   1      43.193  29.594  31.851  1.00  0.00     0.029 A 
ATOM     67  C   UNL A   1      42.466  28.872  32.791  1.00  0.00     0.049 A 
ATOM     68  H   UNL A   1      40.830  27.569  32.427  1.00  0.00     0.167 HD
ATOM     69  C   UNL A   1      42.556  29.648  35.160  1.00  0.00     0.074 A 
ATOM     70  C   UNL A   1      43.020  29.775  36.541  1.00  0.00     0.031 C 
ATOM     71  C   UNL A   1      42.676  28.620  34.236  1.00  0.00     0.037 A 
BRANCH  58  72
ATOM     72  C   UNL A   1      40.317  27.641  28.495  1.00  0.00     0.064 A 
ATOM     73  C   UNL A   1      39.768  26.343  28.377  1.00  0.00     0.173 A 
ATOM     74  C   UNL A   1      41.007  28.087  27.352  1.00  0.00     0.173 A 
ATOM     75  F   UNL A   1      39.060  25.790  29.373  1.00  0.00    -0.203 F 
ATOM     76  C   UNL A   1      39.951  25.544  27.243  1.00  0.00     0.198 A 
ATOM     77  C   UNL A   1      41.203  27.283  26.222  1.00  0.00     0.198 A 
ATOM     78  F   UNL A   1      41.514  29.320  27.272  1.00  0.00    -0.203 F 
ATOM     79  F   UNL A   1      39.432  24.308  27.208  1.00  0.00    -0.200 F 
ATOM     80  C   UNL A   1      40.683  26.007  26.171  1.00  0.00     0.200 A 
ATOM     81  F   UNL A   1      41.916  27.754  25.188  1.00  0.00    -0.200 F 
ATOM     82  F   UNL A   1      40.885  25.234  25.095  1.00  0.00    -0.200 F 
ENDBRANCH  58  72
BRANCH  59  83
ATOM     83  C   UNL A   1      40.213  33.594  36.887  1.00  0.00     0.064 A 
ATOM     84  C   UNL A   1      39.066  32.753  36.955  1.00  0.00     0.173 A 
ATOM     85  C   UNL A   1      40.241  34.651  37.800  1.00  0.00     0.173 A 
ATOM     86  F   UNL A   1      38.906  31.763  36.059  1.00  0.00    -0.203 F 
ATOM     87  C   UNL A   1      38.177  32.795  38.030  1.00  0.00     0.198 A 
ATOM     88  C   UNL A   1      39.327  34.710  38.869  1.00  0.00     0.198 A 
ATOM     89  F   UNL A   1      41.220  35.566  37.744  1.00  0.00    -0.203 F 
ATOM     90  F   UNL A   1      37.233  31.848  38.156  1.00  0.00    -0.200 F 
ATOM     91  C   UNL A   1      38.336  33.748  39.015  1.00  0.00     0.200 A 
ATOM     92  F   UNL A   1      39.463  35.656  39.811  1.00  0.00    -0.200 F 
ATOM     93  F   UNL A   1      37.552  33.729  40.103  1.00  0.00    -0.200 F 
ENDBRANCH  59  83
BRANCH  71  94
ATOM     94  C   UNL A   1      43.138  27.220  34.614  1.00  0.00     0.064 A 
ATOM     95  C   UNL A   1      42.265  26.163  34.924  1.00  0.00     0.173 A 
ATOM     96  C   UNL A   1      44.508  26.862  34.539  1.00  0.00     0.173 A 
ATOM     97  F   UNL A   1      40.936  26.306  34.849  1.00  0.00    -0.203 F 
ATOM     98  C   UNL A   1      42.730  24.889  35.257  1.00  0.00     0.198 A 
ATOM     99  C   UNL A   1      44.959  25.566  34.777  1.00  0.00     0.198 A 
ATOM    100  F   UNL A   1      45.453  27.749  34.198  1.00  0.00    -0.203 F 
ATOM    101  F   UNL A   1      41.856  23.944  35.631  1.00  0.00    -0.200 F 
ATOM    102  C   UNL A   1      44.074  24.587  35.171  1.00  0.00     0.200 A 
ATOM    103  F   UNL A   1      46.255  25.272  34.603  1.00  0.00    -0.200 F 
ATOM    104  F   UNL A   1      44.510  23.348  35.435  1.00  0.00    -0.200 F 
ENDBRANCH  71  94
ENDBRANCH  45  46
ENDBRANCH  37  40
ENDBRANCH  35  36
ENDBRANCH  34  35
ENDBRANCH  33  34
ENDBRANCH  32  33
ENDBRANCH  31  32
ENDBRANCH   1  31
TORSDOF 19
ENDMDL
MODEL 2
REMARK VINA RESULT:     -15.5      1.177      2.345
REMARK SMILES Cc1c(NCc2ccccn2)cccc1C(=O)N1CCOC[C@@H]1CC(=O)NCCCCCCNC(=O)c1ccc(-c2c3nc(c(-c4c(F)c(F)c(F)c(F)c4F)c4ccc([nH]4)c(-c4c(F)c(F)c(F)c(F)c4F)c4nc(c(-c5c(F)c(F)c(F)c(F)c5F)c5ccc2[nH]5)C=C4)C=C3)cc1
REMARK SMILES IDX 28 1 27 2 25 3 26 4 24 6 23 7 18 8 19 9 20 10 22 11 21 12
REMARK SMILES IDX 16 13 17 14 15 15 1 16 2 17 3 18 12 19 14 20 13 21 4 22 5 24
REMARK SMILES IDX 6 25 7 26 11 27 8 28 10 29 9 30 29 31 30 32 31 33 32 34
REMARK SMILES IDX 33 35 34 36 35 37 36 39 37 40 38 41 99 42 39 43 98 44 40 45
REMARK SMILES IDX 41 46 42 47 92 48 43 49 97 50 91 51 93 52 44 53 96 54 90 55
REMARK SMILES IDX 89 56 45 58 77 59 57 60 76 61 58 62 61 63 75 64 94 65 59 66
REMARK SMILES IDX 60 67 74 69 95 70 62 71 46 72 47 73 55 74 48 75 49 76 53 77
REMARK SMILES IDX 56 78 50 79 51 80 54 81 52 82 78 83 79 84 87 85 80 86 81 87
REMARK SMILES IDX 85 88 88 89 82 90 83 91 86 92 84 93 63 94 64 95 72 96 65 97
REMARK SMILES IDX 66 98 70 99 73 100 67 101 68 102 71 103 69 104
REMARK H PARENT 27 5 4 23 34 38 93 57 61 68
REMARK Flexibility Score: inf
ROOT
ATOM      1  C   UNL A   1      34.492  30.974  27.590  1.00  0.00     0.116 C 
ENDROOT
BRANCH   1   2
ATOM      2  N   UNL A   1      33.569  29.877  27.724  1.00  0.00    -0.356 N 
ATOM      3  C   UNL A   1      32.485  29.661  26.927  1.00  0.00     0.222 C 
ATOM      4  O   UNL A   1      31.506  29.089  27.405  1.00  0.00    -0.275 OA
ATOM      5  H   UNL A   1      33.734  29.231  28.449  1.00  0.00     0.163 HD
BRANCH   3   6
ATOM      6  C   UNL A   1      32.545  30.055  25.465  1.00  0.00     0.127 C 
BRANCH   6   7
ATOM      7  C   UNL A   1      31.493  29.501  24.492  1.00  0.00     0.120 C 
ATOM      8  N   UNL A   1      31.929  28.927  23.180  1.00  0.00    -0.331 N 
ATOM      9  C   UNL A   1      30.800  28.200  22.569  1.00  0.00     0.148 C 
ATOM     10  C   UNL A   1      29.535  29.073  22.450  1.00  0.00     0.181 C 
ATOM     11  C   UNL A   1      30.320  30.468  24.217  1.00  0.00     0.185 C 
ATOM     12  O   UNL A   1      29.203  29.733  23.678  1.00  0.00    -0.377 OA
BRANCH   8  13
ATOM     13  C   UNL A   1      33.194  28.356  23.023  1.00  0.00     0.254 C 
ATOM     14  O   UNL A   1      34.097  28.915  22.409  1.00  0.00    -0.269 OA
BRANCH  13  15
ATOM     15  C   UNL A   1      33.426  26.939  23.479  1.00  0.00     0.045 A 
ATOM     16  C   UNL A   1      32.715  25.570  21.031  1.00  0.00     0.047 C 
ATOM     17  C   UNL A   1      33.221  25.475  22.437  1.00  0.00    -0.015 A 
ATOM     18  C   UNL A   1      33.673  23.840  23.069  1.00  0.00     0.038 A 
ATOM     19  C   UNL A   1      34.319  23.647  24.740  1.00  0.00     0.026 A 
ATOM     20  C   UNL A   1      34.047  26.754  25.170  1.00  0.00     0.014 A 
ATOM     21  C   UNL A   1      34.510  25.111  25.796  1.00  0.00     0.003 A 
BRANCH  18  22
ATOM     22  N   UNL A   1      33.477  22.729  22.265  1.00  0.00    -0.379 N 
ATOM     23  H   UNL A   1      34.131  22.511  21.563  1.00  0.00     0.160 HD
BRANCH  22  24
ATOM     24  C   UNL A   1      32.312  21.887  22.454  1.00  0.00     0.169 C 
BRANCH  24  25
ATOM     25  C   UNL A   1      31.418  22.426  23.568  1.00  0.00     0.059 A 
ATOM     26  C   UNL A   1      31.661  21.881  25.306  1.00  0.00     0.026 A 
ATOM     27  N   UNL A   1      30.600  24.002  23.189  1.00  0.00    -0.259 NA
ATOM     28  C   UNL A   1      31.127  22.983  26.676  1.00  0.00     0.004 A 
ATOM     29  C   UNL A   1      30.057  25.097  24.511  1.00  0.00     0.111 A 
ATOM     30  C   UNL A   1      30.358  24.662  26.254  1.00  0.00     0.020 A 
ENDBRANCH  24  25
ENDBRANCH  22  24
ENDBRANCH  18  22
ENDBRANCH  13  15
ENDBRANCH   8  13
ENDBRANCH   6   7
ENDBRANCH   3   6
ENDBRANCH   1   2
BRANCH   1  31
ATOM     31  C   UNL A   1      34.024  32.108  28.504  1.00  0.00     0.021 C 
BRANCH  31  32
ATOM     32  C   UNL A   1      34.341  33.532  28.032  1.00  0.00     0.002 C 
BRANCH  32  33
ATOM     33  C   UNL A   1      33.187  34.718  28.442  1.00  0.00     0.002 C 
BRANCH  33  34
ATOM     34  C   UNL A   1      32.745  35.991  30.163  1.00  0.00     0.021 C 
BRANCH  34  35
ATOM     35  C   UNL A   1      32.342  35.774  31.806  1.00  0.00     0.116 C 
BRANCH  35  36
ATOM     36  N   UNL A   1      33.311  35.950  32.912  1.00  0.00    -0.352 N 
ATOM     37  C   UNL A   1      34.427  35.194  33.269  1.00  0.00     0.251 C 
ATOM     38  H   UNL A   1      33.139  36.728  33.489  1.00  0.00     0.163 HD
ATOM     39  O   UNL A   1      35.190  35.604  34.139  1.00  0.00    -0.269 OA
BRANCH  37  40
ATOM     40  C   UNL A   1      34.781  33.966  32.502  1.00  0.00     0.039 A 
ATOM     41  C   UNL A   1      35.032  32.827  33.265  1.00  0.00     0.014 A 
ATOM     42  C   UNL A   1      35.424  34.128  31.291  1.00  0.00     0.014 A 
ATOM     43  C   UNL A   1      36.233  32.162  33.064  1.00  0.00     0.010 A 
ATOM     44  C   UNL A   1      36.723  33.662  31.245  1.00  0.00     0.010 A 
ATOM     45  C   UNL A   1      37.188  32.763  32.228  1.00  0.00    -0.014 A 
BRANCH  45  46
ATOM     46  C   UNL A   1      38.840  32.517  32.254  1.00  0.00     0.031 A 
ATOM     47  C   UNL A   1      38.653  31.009  31.192  1.00  0.00     0.074 A 
ATOM     48  C   UNL A   1      40.353  33.264  33.081  1.00  0.00     0.049 A 
ATOM     49  N   UNL A   1      39.653  30.288  30.773  1.00  0.00    -0.248 NA
ATOM     50  C   UNL A   1      37.414  30.337  30.737  1.00  0.00     0.031 C 
ATOM     51  C   UNL A   1      42.067  33.067  32.930  1.00  0.00     0.029 A 
ATOM     52  N   UNL A   1      40.657  34.220  34.252  1.00  0.00    -0.354 N 
ATOM     53  C   UNL A   1      39.302  29.158  30.137  1.00  0.00     0.074 A 
ATOM     54  C   UNL A   1      37.876  29.294  30.015  1.00  0.00     0.031 C 
ATOM     55  C   UNL A   1      42.712  33.348  34.069  1.00  0.00     0.029 A 
ATOM     56  C   UNL A   1      41.710  33.680  35.025  1.00  0.00     0.049 A 
ATOM     57  H   UNL A   1      40.192  35.069  34.433  1.00  0.00     0.167 HD
ATOM     58  C   UNL A   1      40.357  28.370  29.775  1.00  0.00     0.037 A 
ATOM     59  C   UNL A   1      41.457  32.998  36.178  1.00  0.00     0.037 A 
ATOM     60  C   UNL A   1      41.544  28.614  30.657  1.00  0.00     0.049 A 
ATOM     61  C   UNL A   1      41.957  31.545  36.040  1.00  0.00     0.074 A 
ATOM     62  C   UNL A   1      42.668  29.422  30.541  1.00  0.00     0.029 A 
ATOM     63  N   UNL A   1      41.523  28.210  32.006  1.00  0.00    -0.354 N 
ATOM     64  N   UNL A   1      41.953  30.820  34.938  1.00  0.00    -0.248 NA
ATOM     65  C   UNL A   1      42.636  30.862  37.130  1.00  0.00     0.031 C 
ATOM     66  C   UNL A   1      43.255  29.586  31.836  1.00  0.00     0.029 A 
ATOM     67  C   UNL A   1      42.520  28.856  32.763  1.00  0.00     0.049 A 
ATOM     68  H   UNL A   1      40.889  27.554  32.374  1.00  0.00     0.167 HD
ATOM     69  C   UNL A   1      42.587  29.613  35.139  1.00  0.00     0.074 A 
ATOM     70  C   UNL A   1      43.038  29.729  36.525  1.00  0.00     0.031 C 
ATOM     71  C   UNL A   1      42.717  28.592  34.209  1.00  0.00     0.037 A 
BRANCH  58  72
ATOM     72  C   UNL A   1      40.412  27.657  28.439  1.00  0.00     0.064 A 
ATOM     73  C   UNL A   1      39.891  26.347  28.312  1.00  0.00     0.173 A 
ATOM     74  C   UNL A   1      41.091  28.126  27.297  1.00  0.00     0.173 A 
ATOM     75  F   UNL A   1      39.198  25.773  29.304  1.00  0.00    -0.203 F 
ATOM     76  C   UNL A   1      40.089  25.561  27.171  1.00  0.00     0.198 A 
ATOM     77  C   UNL A   1      41.302  27.334  26.161  1.00  0.00     0.198 A 
ATOM     78  F   UNL A   1      41.571  29.370  27.226  1.00  0.00    -0.203 F 
ATOM     79  F   UNL A   1      39.598  24.314  27.128  1.00  0.00    -0.200 F 
ATOM     80  C   UNL A   1      40.810  26.047  26.101  1.00  0.00     0.200 A 
ATOM     81  F   UNL A   1      42.003  27.828  25.130  1.00  0.00    -0.200 F 
ATOM     82  F   UNL A   1      41.026  25.287  25.019  1.00  0.00    -0.200 F 
ENDBRANCH  58  72
BRANCH  59  83
ATOM     83  C   UNL A   1      40.223  33.541  36.877  1.00  0.00     0.064 A 
ATOM     84  C   UNL A   1      39.083  32.690  36.945  1.00  0.00     0.173 A 
ATOM     85  C   UNL A   1      40.238  34.604  37.783  1.00  0.00     0.173 A 
ATOM     86  F   UNL A   1      38.935  31.694  36.054  1.00  0.00    -0.203 F 
ATOM     87  C   UNL A   1      38.190  32.730  38.018  1.00  0.00     0.198 A 
ATOM     88  C   UNL A   1      39.320  34.660  38.849  1.00  0.00     0.198 A 
ATOM     89  F   UNL A   1      41.209  35.527  37.726  1.00  0.00    -0.203 F 
ATOM     90  F   UNL A   1      37.255  31.775  38.145  1.00  0.00    -0.200 F 
ATOM     91  C   UNL A   1      38.338  33.690  38.997  1.00  0.00     0.200 A 
ATOM     92  F   UNL A   1      39.444  35.613  39.787  1.00  0.00    -0.200 F 
ATOM     93  F   UNL A   1      37.550  33.669  40.083  1.00  0.00    -0.200 F 
ENDBRANCH  59  83
BRANCH  71  94
ATOM     94  C   UNL A   1      43.178  27.190  34.579  1.00  0.00     0.064 A 
ATOM     95  C   UNL A   1      44.522  26.833  34.784  1.00  0.00     0.173 A 
ATOM     96  C   UNL A   1      42.237  26.172  34.878  1.00  0.00     0.173 A 
ATOM     97  F   UNL A   1      45.504  27.740  34.722  1.00  0.00    -0.203 F 
ATOM     98  C   UNL A   1      44.902  25.535  35.132  1.00  0.00     0.198 A 
ATOM     99  C   UNL A   1      42.616  24.906  35.320  1.00  0.00     0.198 A 
ATOM    100  F   UNL A   1      40.916  26.380  34.787  1.00  0.00    -0.203 F 
ATOM    101  F   UNL A   1      46.203  25.232  35.226  1.00  0.00    -0.200 F 
ATOM    102  C   UNL A   1      43.950  24.576  35.413  1.00  0.00     0.200 A 
ATOM    103  F   UNL A   1      41.676  24.018  35.672  1.00  0.00    -0.200 F 
ATOM    104  F   UNL A   1      44.317  23.349  35.803  1.00  0.00    -0.200 F 
ENDBRANCH  71  94
ENDBRANCH  45  46
ENDBRANCH  37  40
ENDBRANCH  35  36
ENDBRANCH  34  35
ENDBRANCH  33  34
ENDBRANCH  32  33
ENDBRANCH  31  32
ENDBRANCH   1  31
TORSDOF 19
ENDMDL
MODEL 3
REMARK VINA RESULT:     -14.2      1.459      2.253
REMARK SMILES Cc1c(NCc2ccccn2)cccc1C(=O)N1CCOC[C@@H]1CC(=O)NCCCCCCNC(=O)c1ccc(-c2c3nc(c(-c4c(F)c(F)c(F)c(F)c4F)c4ccc([nH]4)c(-c4c(F)c(F)c(F)c(F)c4F)c4nc(c(-c5c(F)c(F)c(F)c(F)c5F)c5ccc2[nH]5)C=C4)C=C3)cc1
REMARK SMILES IDX 28 1 27 2 25 3 26 4 24 6 23 7 18 8 19 9 20 10 22 11 21 12
REMARK SMILES IDX 16 13 17 14 15 15 1 16 2 17 3 18 12 19 14 20 13 21 4 22 5 24
REMARK SMILES IDX 6 25 7 26 11 27 8 28 10 29 9 30 29 31 30 32 31 33 32 34
REMARK SMILES IDX 33 35 34 36 35 37 36 39 37 40 38 41 99 42 39 43 98 44 40 45
REMARK SMILES IDX 41 46 42 47 92 48 43 49 97 50 91 51 93 52 44 53 96 54 90 55
REMARK SMILES IDX 89 56 45 58 77 59 57 60 76 61 58 62 61 63 75 64 94 65 59 66
REMARK SMILES IDX 60 67 74 69 95 70 62 71 46 72 47 73 55 74 48 75 49 76 53 77
REMARK SMILES IDX 56 78 50 79 51 80 54 81 52 82 78 83 79 84 87 85 80 86 81 87
REMARK SMILES IDX 85 88 88 89 82 90 83 91 86 92 84 93 63 94 64 95 72 96 65 97
REMARK SMILES IDX 66 98 70 99 73 100 67 101 68 102 71 103 69 104
REMARK H PARENT 27 5 4 23 34 38 93 57 61 68
REMARK Flexibility Score: inf
ROOT
ATOM      1  C   UNL A   1      34.940  30.036  27.448  1.00  0.00     0.116 C 
ENDROOT
BRANCH   1   2
ATOM      2  N   UNL A   1      33.663  29.414  27.686  1.00  0.00    -0.356 N 
ATOM      3  C   UNL A   1      32.586  29.489  26.854  1.00  0.00     0.222 C 
ATOM      4  O   UNL A   1      31.458  29.426  27.342  1.00  0.00    -0.275 OA
ATOM      5  H   UNL A   1      33.560  28.894  28.515  1.00  0.00     0.163 HD
BRANCH   3   6
ATOM      6  C   UNL A   1      32.805  29.565  25.357  1.00  0.00     0.127 C 
BRANCH   6   7
ATOM      7  C   UNL A   1      31.688  29.105  24.408  1.00  0.00     0.120 C 
ATOM      8  N   UNL A   1      32.036  28.640  23.028  1.00  0.00    -0.331 N 
ATOM      9  C   UNL A   1      30.862  27.977  22.429  1.00  0.00     0.148 C 
ATOM     10  C   UNL A   1      29.604  28.868  22.461  1.00  0.00     0.181 C 
ATOM     11  C   UNL A   1      30.514  30.101  24.287  1.00  0.00     0.185 C 
ATOM     12  O   UNL A   1      29.356  29.424  23.759  1.00  0.00    -0.377 OA
BRANCH   8  13
ATOM     13  C   UNL A   1      33.281  28.073  22.746  1.00  0.00     0.254 C 
ATOM     14  O   UNL A   1      34.224  28.733  22.319  1.00  0.00    -0.269 OA
BRANCH  13  15
ATOM     15  C   UNL A   1      33.442  26.577  22.810  1.00  0.00     0.045 A 
ATOM     16  C   UNL A   1      34.239  26.341  25.582  1.00  0.00     0.047 C 
ATOM     17  C   UNL A   1      33.900  25.652  24.296  1.00  0.00    -0.015 A 
ATOM     18  C   UNL A   1      33.917  23.843  24.270  1.00  0.00     0.038 A 
ATOM     19  C   UNL A   1      33.491  22.940  22.770  1.00  0.00     0.026 A 
ATOM     20  C   UNL A   1      33.040  25.682  21.288  1.00  0.00     0.014 A 
ATOM     21  C   UNL A   1      33.048  23.863  21.271  1.00  0.00     0.003 A 
BRANCH  18  22
ATOM     22  N   UNL A   1      34.303  23.157  25.410  1.00  0.00    -0.379 N 
ATOM     23  H   UNL A   1      35.225  23.241  25.744  1.00  0.00     0.160 HD
BRANCH  22  24
ATOM     24  C   UNL A   1      33.353  22.318  26.115  1.00  0.00     0.169 C 
BRANCH  24  25
ATOM     25  C   UNL A   1      33.647  20.838  25.879  1.00  0.00     0.059 A 
ATOM     26  C   UNL A   1      32.328  19.706  25.286  1.00  0.00     0.026 A 
ATOM     27  N   UNL A   1      35.401  20.445  25.620  1.00  0.00    -0.259 NA
ATOM     28  C   UNL A   1      32.794  18.191  24.358  1.00  0.00     0.004 A 
ATOM     29  C   UNL A   1      35.887  18.962  24.723  1.00  0.00     0.111 A 
ATOM     30  C   UNL A   1      34.627  17.850  24.022  1.00  0.00     0.020 A 
ENDBRANCH  24  25
ENDBRANCH  22  24
ENDBRANCH  18  22
ENDBRANCH  13  15
ENDBRANCH   8  13
ENDBRANCH   6   7
ENDBRANCH   3   6
ENDBRANCH   1   2
BRANCH   1  31
ATOM     31  C   UNL A   1      35.106  31.185  28.445  1.00  0.00     0.021 C 
BRANCH  31  32
ATOM     32  C   UNL A   1      35.306  32.580  27.841  1.00  0.00     0.002 C 
BRANCH  32  33
ATOM     33  C   UNL A   1      34.000  33.660  28.032  1.00  0.00     0.002 C 
BRANCH  33  34
ATOM     34  C   UNL A   1      33.331  35.114  29.521  1.00  0.00     0.021 C 
BRANCH  34  35
ATOM     35  C   UNL A   1      33.071  35.145  31.206  1.00  0.00     0.116 C 
BRANCH  35  36
ATOM     36  N   UNL A   1      34.137  35.446  32.189  1.00  0.00    -0.352 N 
ATOM     37  C   UNL A   1      35.401  34.881  32.359  1.00  0.00     0.251 C 
ATOM     38  H   UNL A   1      33.917  36.162  32.828  1.00  0.00     0.163 HD
ATOM     39  O   UNL A   1      36.194  35.386  33.148  1.00  0.00    -0.269 OA
BRANCH  37  40
ATOM     40  C   UNL A   1      35.847  33.761  31.484  1.00  0.00     0.039 A 
ATOM     41  C   UNL A   1      35.953  32.515  32.103  1.00  0.00     0.014 A 
ATOM     42  C   UNL A   1      36.676  34.065  30.423  1.00  0.00     0.014 A 
ATOM     43  C   UNL A   1      37.157  31.835  31.992  1.00  0.00     0.010 A 
ATOM     44  C   UNL A   1      37.957  33.555  30.509  1.00  0.00     0.010 A 
ATOM     45  C   UNL A   1      38.243  32.508  31.410  1.00  0.00    -0.014 A 
BRANCH  45  46
ATOM     46  C   UNL A   1      39.865  32.192  31.652  1.00  0.00     0.031 A 
ATOM     47  C   UNL A   1      39.758  30.696  30.563  1.00  0.00     0.074 A 
ATOM     48  C   UNL A   1      41.285  32.872  32.678  1.00  0.00     0.049 A 
ATOM     49  N   UNL A   1      40.773  29.933  30.275  1.00  0.00    -0.248 NA
ATOM     50  C   UNL A   1      38.563  30.078  29.943  1.00  0.00     0.031 C 
ATOM     51  C   UNL A   1      42.994  32.602  32.753  1.00  0.00     0.029 A 
ATOM     52  N   UNL A   1      41.472  33.812  33.886  1.00  0.00    -0.354 N 
ATOM     53  C   UNL A   1      40.463  28.821  29.589  1.00  0.00     0.074 A 
ATOM     54  C   UNL A   1      39.072  29.017  29.281  1.00  0.00     0.031 C 
ATOM     55  C   UNL A   1      43.494  32.854  33.970  1.00  0.00     0.029 A 
ATOM     56  C   UNL A   1      42.389  33.227  34.787  1.00  0.00     0.049 A 
ATOM     57  H   UNL A   1      41.023  34.680  34.010  1.00  0.00     0.167 HD
ATOM     58  C   UNL A   1      41.522  27.988  29.364  1.00  0.00     0.037 A 
ATOM     59  C   UNL A   1      41.958  32.553  35.891  1.00  0.00     0.037 A 
ATOM     60  C   UNL A   1      42.591  28.180  30.397  1.00  0.00     0.049 A 
ATOM     61  C   UNL A   1      42.410  31.081  35.809  1.00  0.00     0.074 A 
ATOM     62  C   UNL A   1      43.753  28.940  30.437  1.00  0.00     0.029 A 
ATOM     63  N   UNL A   1      42.375  27.775  31.728  1.00  0.00    -0.354 N 
ATOM     64  N   UNL A   1      42.521  30.358  34.711  1.00  0.00    -0.248 NA
ATOM     65  C   UNL A   1      42.909  30.368  36.974  1.00  0.00     0.031 C 
ATOM     66  C   UNL A   1      44.170  29.076  31.799  1.00  0.00     0.029 A 
ATOM     67  C   UNL A   1      43.289  28.377  32.616  1.00  0.00     0.049 A 
ATOM     68  H   UNL A   1      41.671  27.145  32.005  1.00  0.00     0.167 HD
ATOM     69  C   UNL A   1      43.072  29.125  34.985  1.00  0.00     0.074 A 
ATOM     70  C   UNL A   1      43.340  29.219  36.420  1.00  0.00     0.031 C 
ATOM     71  C   UNL A   1      43.282  28.102  34.072  1.00  0.00     0.037 A 
BRANCH  58  72
ATOM     72  C   UNL A   1      41.724  27.276  28.041  1.00  0.00     0.064 A 
ATOM     73  C   UNL A   1      41.857  25.868  28.008  1.00  0.00     0.173 A 
ATOM     74  C   UNL A   1      41.951  27.911  26.805  1.00  0.00     0.173 A 
ATOM     75  F   UNL A   1      41.646  25.121  29.100  1.00  0.00    -0.203 F 
ATOM     76  C   UNL A   1      42.244  25.171  26.857  1.00  0.00     0.198 A 
ATOM     77  C   UNL A   1      42.353  27.217  25.657  1.00  0.00     0.198 A 
ATOM     78  F   UNL A   1      41.787  29.228  26.650  1.00  0.00    -0.203 F 
ATOM     79  F   UNL A   1      42.384  23.839  26.902  1.00  0.00    -0.200 F 
ATOM     80  C   UNL A   1      42.509  25.847  25.685  1.00  0.00     0.200 A 
ATOM     81  F   UNL A   1      42.602  27.892  24.526  1.00  0.00    -0.200 F 
ATOM     82  F   UNL A   1      42.908  25.186  24.590  1.00  0.00    -0.200 F 
ENDBRANCH  58  72
BRANCH  59  83
ATOM     83  C   UNL A   1      40.665  33.147  36.425  1.00  0.00     0.064 A 
ATOM     84  C   UNL A   1      39.492  32.344  36.337  1.00  0.00     0.173 A 
ATOM     85  C   UNL A   1      40.605  34.208  37.332  1.00  0.00     0.173 A 
ATOM     86  F   UNL A   1      39.422  31.355  35.429  1.00  0.00    -0.203 F 
ATOM     87  C   UNL A   1      38.468  32.421  37.283  1.00  0.00     0.198 A 
ATOM     88  C   UNL A   1      39.557  34.302  38.268  1.00  0.00     0.198 A 
ATOM     89  F   UNL A   1      41.612  35.089  37.408  1.00  0.00    -0.203 F 
ATOM     90  F   UNL A   1      37.486  31.506  37.281  1.00  0.00    -0.200 F 
ATOM     91  C   UNL A   1      38.525  33.374  38.279  1.00  0.00     0.200 A 
ATOM     92  F   UNL A   1      39.596  35.248  39.219  1.00  0.00    -0.200 F 
ATOM     93  F   UNL A   1      37.601  33.385  39.252  1.00  0.00    -0.200 F 
ENDBRANCH  59  83
BRANCH  71  94
ATOM     94  C   UNL A   1      43.629  26.680  34.490  1.00  0.00     0.064 A 
ATOM     95  C   UNL A   1      44.943  26.215  34.672  1.00  0.00     0.173 A 
ATOM     96  C   UNL A   1      42.613  25.762  34.859  1.00  0.00     0.173 A 
ATOM     97  F   UNL A   1      45.999  27.028  34.544  1.00  0.00    -0.203 F 
ATOM     98  C   UNL A   1      45.219  24.903  35.065  1.00  0.00     0.198 A 
ATOM     99  C   UNL A   1      42.894  24.487  35.344  1.00  0.00     0.198 A 
ATOM    100  F   UNL A   1      41.314  26.082  34.796  1.00  0.00    -0.203 F 
ATOM    101  F   UNL A   1      46.492  24.490  35.135  1.00  0.00    -0.200 F 
ATOM    102  C   UNL A   1      44.197  24.044  35.414  1.00  0.00     0.200 A 
ATOM    103  F   UNL A   1      41.893  23.700  35.760  1.00  0.00    -0.200 F 
ATOM    104  F   UNL A   1      44.468  22.807  35.846  1.00  0.00    -0.200 F 
ENDBRANCH  71  94
ENDBRANCH  45  46
ENDBRANCH  37  40
ENDBRANCH  35  36
ENDBRANCH  34  35
ENDBRANCH  33  34
ENDBRANCH  32  33
ENDBRANCH  31  32
ENDBRANCH   1  31
TORSDOF 19
ENDMDL
