MODEL 1
REMARK VINA RESULT:     -12.7      0.000      0.000
REMARK SMILES CSc1ccc([C@H]2[NH2+][C@@H](C(=O)NCCCCCCNC(=O)c3ccc(-c4c5nc(c(-c6c(F)c(F)c(F)c(F)c6F)c6ccc([nH]6)c(-c6c(F)c(F)c(F)c(F)c6F)c6nc(c(-c7c(F)c(F)c(F)c(F)c7F)c7ccc4[nH]7)C=C6)C=C5)cc3)C(C)(C)S2)cc1
REMARK SMILES IDX 15 1 14 2 13 3 12 4 10 5 11 6 9 8 7 9 8 10 88 11 85 14 86 15
REMARK SMILES IDX 87 16 6 17 3 18 4 19 90 20 5 21 89 22 2 23 1 24 16 25 17 26
REMARK SMILES IDX 18 27 19 28 20 29 21 31 22 32 23 33 84 34 24 35 83 36 25 37
REMARK SMILES IDX 26 38 27 39 77 40 28 41 82 42 76 43 78 44 29 45 81 46 75 47
REMARK SMILES IDX 74 48 30 50 62 51 42 52 61 53 43 54 46 55 60 56 79 57 44 58
REMARK SMILES IDX 45 59 59 61 80 62 47 63 31 64 32 65 40 66 33 67 34 68 38 69
REMARK SMILES IDX 41 70 35 71 36 72 39 73 37 74 63 75 64 76 72 77 65 78 66 79
REMARK SMILES IDX 70 80 73 81 67 82 68 83 71 84 69 85 48 86 49 87 57 88 50 89
REMARK SMILES IDX 51 90 55 91 58 92 52 93 53 94 56 95 54 96
REMARK H PARENT 12 7 8 12 8 13 19 30 78 49 46 60
REMARK Flexibility Score: inf
ROOT
ATOM      1  C   UNL A   1      32.490  29.779  26.530  1.00  0.00     0.002 C 
ENDROOT
BRANCH   1   2
ATOM      2  C   UNL A   1      31.757  28.614  27.191  1.00  0.00     0.021 C 
BRANCH   2   3
ATOM      3  C   UNL A   1      31.440  27.460  26.241  1.00  0.00     0.116 C 
BRANCH   3   4
ATOM      4  N   UNL A   1      31.456  26.190  26.936  1.00  0.00    -0.351 N 
ATOM      5  C   UNL A   1      31.665  24.911  26.513  1.00  0.00     0.279 C 
ATOM      6  O   UNL A   1      31.449  24.020  27.342  1.00  0.00    -0.268 OA
ATOM      7  H   UNL A   1      31.283  26.264  27.902  1.00  0.00     0.163 HD
BRANCH   5   8
ATOM      8  C   UNL A   1      32.128  24.543  25.087  1.00  0.00     0.289 C 
ATOM      9  C   UNL A   1      32.414  22.770  23.504  1.00  0.00     0.274 C 
ATOM     10  N   UNL A   1      31.691  23.186  24.703  1.00  0.00    -0.320 N 
ATOM     11  S   UNL A   1      33.902  23.784  23.285  1.00  0.00    -0.081 SA
ATOM     12  H   UNL A   1      31.887  22.536  25.463  1.00  0.00     0.348 HD
ATOM     13  H   UNL A   1      30.688  23.190  24.514  1.00  0.00     0.348 HD
ATOM     14  C   UNL A   1      33.611  24.828  24.760  1.00  0.00     0.077 C 
ATOM     15  C   UNL A   1      34.684  24.444  25.778  1.00  0.00     0.030 C 
ATOM     16  C   UNL A   1      33.806  26.311  24.412  1.00  0.00     0.030 C 
BRANCH   9  17
ATOM     17  C   UNL A   1      32.694  21.275  23.536  1.00  0.00     0.020 A 
ATOM     18  C   UNL A   1      33.028  18.453  23.673  1.00  0.00     0.007 A 
ATOM     19  C   UNL A   1      32.276  19.037  22.650  1.00  0.00     0.015 A 
ATOM     20  C   UNL A   1      33.630  19.294  24.613  1.00  0.00     0.015 A 
ATOM     21  C   UNL A   1      32.106  20.428  22.586  1.00  0.00     0.012 A 
ATOM     22  C   UNL A   1      33.477  20.682  24.540  1.00  0.00     0.012 A 
BRANCH  18  23
ATOM     23  S   UNL A   1      33.312  16.699  23.872  1.00  0.00    -0.130 SA
ATOM     24  C   UNL A   1      33.291  16.469  25.668  1.00  0.00     0.091 C 
ENDBRANCH  18  23
ENDBRANCH   9  17
ENDBRANCH   5   8
ENDBRANCH   3   4
ENDBRANCH   2   3
ENDBRANCH   1   2
BRANCH   1  25
ATOM     25  C   UNL A   1      31.578  30.820  25.879  1.00  0.00     0.002 C 
BRANCH  25  26
ATOM     26  C   UNL A   1      31.330  32.078  26.715  1.00  0.00     0.021 C 
BRANCH  26  27
ATOM     27  C   UNL A   1      32.592  32.722  27.277  1.00  0.00     0.116 C 
BRANCH  27  28
ATOM     28  N   UNL A   1      32.396  34.133  27.569  1.00  0.00    -0.352 N 
ATOM     29  C   UNL A   1      32.984  34.906  28.537  1.00  0.00     0.251 C 
ATOM     30  H   UNL A   1      31.750  34.599  26.990  1.00  0.00     0.163 HD
ATOM     31  O   UNL A   1      32.546  36.019  28.800  1.00  0.00    -0.269 OA
BRANCH  29  32
ATOM     32  C   UNL A   1      34.150  34.376  29.272  1.00  0.00     0.039 A 
ATOM     33  C   UNL A   1      33.948  33.740  30.498  1.00  0.00     0.014 A 
ATOM     34  C   UNL A   1      35.437  34.505  28.743  1.00  0.00     0.014 A 
ATOM     35  C   UNL A   1      35.036  33.182  31.170  1.00  0.00     0.010 A 
ATOM     36  C   UNL A   1      36.507  33.881  29.374  1.00  0.00     0.010 A 
ATOM     37  C   UNL A   1      36.319  33.221  30.598  1.00  0.00    -0.014 A 
BRANCH  37  38
ATOM     38  C   UNL A   1      37.483  32.590  31.268  1.00  0.00     0.031 A 
ATOM     39  C   UNL A   1      38.219  31.467  30.594  1.00  0.00     0.074 A 
ATOM     40  C   UNL A   1      37.835  32.986  32.505  1.00  0.00     0.049 A 
ATOM     41  N   UNL A   1      39.207  30.735  31.041  1.00  0.00    -0.248 NA
ATOM     42  C   UNL A   1      37.765  31.099  29.243  1.00  0.00     0.031 C 
ATOM     43  C   UNL A   1      37.177  34.042  33.276  1.00  0.00     0.029 A 
ATOM     44  N   UNL A   1      38.831  32.539  33.338  1.00  0.00    -0.354 N 
ATOM     45  C   UNL A   1      39.483  29.818  30.037  1.00  0.00     0.074 A 
ATOM     46  C   UNL A   1      38.518  30.042  28.983  1.00  0.00     0.031 C 
ATOM     47  C   UNL A   1      37.802  34.180  34.456  1.00  0.00     0.029 A 
ATOM     48  C   UNL A   1      38.874  33.193  34.545  1.00  0.00     0.049 A 
ATOM     49  H   UNL A   1      39.454  31.817  33.094  1.00  0.00     0.167 HD
ATOM     50  C   UNL A   1      40.470  28.892  29.985  1.00  0.00     0.037 A 
ATOM     51  C   UNL A   1      39.684  33.010  35.605  1.00  0.00     0.037 A 
ATOM     52  C   UNL A   1      41.434  28.683  31.033  1.00  0.00     0.049 A 
ATOM     53  C   UNL A   1      40.744  31.943  35.541  1.00  0.00     0.074 A 
ATOM     54  C   UNL A   1      42.498  27.798  31.064  1.00  0.00     0.029 A 
ATOM     55  N   UNL A   1      41.445  29.362  32.244  1.00  0.00    -0.354 N 
ATOM     56  N   UNL A   1      41.038  31.124  34.561  1.00  0.00    -0.248 NA
ATOM     57  C   UNL A   1      41.590  31.780  36.732  1.00  0.00     0.031 C 
ATOM     58  C   UNL A   1      43.118  27.904  32.314  1.00  0.00     0.029 A 
ATOM     59  C   UNL A   1      42.481  28.899  33.038  1.00  0.00     0.049 A 
ATOM     60  H   UNL A   1      40.810  30.069  32.499  1.00  0.00     0.167 HD
ATOM     61  C   UNL A   1      42.122  30.376  34.999  1.00  0.00     0.074 A 
ATOM     62  C   UNL A   1      42.441  30.846  36.332  1.00  0.00     0.031 C 
ATOM     63  C   UNL A   1      42.795  29.389  34.357  1.00  0.00     0.037 A 
BRANCH  50  64
ATOM     64  C   UNL A   1      40.551  28.035  28.753  1.00  0.00     0.064 A 
ATOM     65  C   UNL A   1      41.316  28.417  27.638  1.00  0.00     0.173 A 
ATOM     66  C   UNL A   1      39.874  26.809  28.691  1.00  0.00     0.173 A 
ATOM     67  F   UNL A   1      41.976  29.585  27.640  1.00  0.00    -0.203 F 
ATOM     68  C   UNL A   1      41.364  27.623  26.495  1.00  0.00     0.198 A 
ATOM     69  C   UNL A   1      39.954  26.000  27.560  1.00  0.00     0.198 A 
ATOM     70  F   UNL A   1      39.134  26.390  29.728  1.00  0.00    -0.203 F 
ATOM     71  F   UNL A   1      42.049  28.041  25.421  1.00  0.00    -0.200 F 
ATOM     72  C   UNL A   1      40.690  26.414  26.459  1.00  0.00     0.200 A 
ATOM     73  F   UNL A   1      39.314  24.823  27.532  1.00  0.00    -0.200 F 
ATOM     74  F   UNL A   1      40.741  25.648  25.360  1.00  0.00    -0.200 F 
ENDBRANCH  50  64
BRANCH  51  75
ATOM     75  C   UNL A   1      39.544  33.873  36.808  1.00  0.00     0.064 A 
ATOM     76  C   UNL A   1      38.776  33.455  37.904  1.00  0.00     0.173 A 
ATOM     77  C   UNL A   1      40.162  35.129  36.887  1.00  0.00     0.173 A 
ATOM     78  F   UNL A   1      38.148  32.270  37.869  1.00  0.00    -0.203 F 
ATOM     79  C   UNL A   1      38.612  34.270  39.022  1.00  0.00     0.198 A 
ATOM     80  C   UNL A   1      40.025  35.930  38.019  1.00  0.00     0.198 A 
ATOM     81  F   UNL A   1      40.912  35.574  35.868  1.00  0.00    -0.203 F 
ATOM     82  F   UNL A   1      37.832  33.867  40.034  1.00  0.00    -0.200 F 
ATOM     83  C   UNL A   1      39.242  35.504  39.082  1.00  0.00     0.200 A 
ATOM     84  F   UNL A   1      40.646  37.116  38.080  1.00  0.00    -0.200 F 
ATOM     85  F   UNL A   1      39.087  36.287  40.159  1.00  0.00    -0.200 F 
ENDBRANCH  51  75
BRANCH  63  86
ATOM     86  C   UNL A   1      43.976  28.784  35.061  1.00  0.00     0.064 A 
ATOM     87  C   UNL A   1      45.270  29.306  34.921  1.00  0.00     0.173 A 
ATOM     88  C   UNL A   1      43.799  27.691  35.925  1.00  0.00     0.173 A 
ATOM     89  F   UNL A   1      45.496  30.339  34.096  1.00  0.00    -0.203 F 
ATOM     90  C   UNL A   1      46.347  28.741  35.600  1.00  0.00     0.198 A 
ATOM     91  C   UNL A   1      44.871  27.153  36.629  1.00  0.00     0.198 A 
ATOM     92  F   UNL A   1      42.580  27.158  36.101  1.00  0.00    -0.203 F 
ATOM     93  F   UNL A   1      47.582  29.224  35.412  1.00  0.00    -0.200 F 
ATOM     94  C   UNL A   1      46.145  27.672  36.461  1.00  0.00     0.200 A 
ATOM     95  F   UNL A   1      44.670  26.131  37.473  1.00  0.00    -0.200 F 
ATOM     96  F   UNL A   1      47.181  27.139  37.123  1.00  0.00    -0.200 F 
ENDBRANCH  63  86
ENDBRANCH  37  38
ENDBRANCH  29  32
ENDBRANCH  27  28
ENDBRANCH  26  27
ENDBRANCH  25  26
ENDBRANCH   1  25
TORSDOF 15
ENDMDL
MODEL 2
REMARK VINA RESULT:     -12.6      0.355      2.035
REMARK SMILES CSc1ccc([C@H]2[NH2+][C@@H](C(=O)NCCCCCCNC(=O)c3ccc(-c4c5nc(c(-c6c(F)c(F)c(F)c(F)c6F)c6ccc([nH]6)c(-c6c(F)c(F)c(F)c(F)c6F)c6nc(c(-c7c(F)c(F)c(F)c(F)c7F)c7ccc4[nH]7)C=C6)C=C5)cc3)C(C)(C)S2)cc1
REMARK SMILES IDX 15 1 14 2 13 3 12 4 10 5 11 6 9 8 7 9 8 10 88 11 85 14 86 15
REMARK SMILES IDX 87 16 6 17 3 18 4 19 90 20 5 21 89 22 2 23 1 24 16 25 17 26
REMARK SMILES IDX 18 27 19 28 20 29 21 31 22 32 23 33 84 34 24 35 83 36 25 37
REMARK SMILES IDX 26 38 27 39 77 40 28 41 82 42 76 43 78 44 29 45 81 46 75 47
REMARK SMILES IDX 74 48 30 50 62 51 42 52 61 53 43 54 46 55 60 56 79 57 44 58
REMARK SMILES IDX 45 59 59 61 80 62 47 63 31 64 32 65 40 66 33 67 34 68 38 69
REMARK SMILES IDX 41 70 35 71 36 72 39 73 37 74 63 75 64 76 72 77 65 78 66 79
REMARK SMILES IDX 70 80 73 81 67 82 68 83 71 84 69 85 48 86 49 87 57 88 50 89
REMARK SMILES IDX 51 90 55 91 58 92 52 93 53 94 56 95 54 96
REMARK H PARENT 12 7 8 12 8 13 19 30 78 49 46 60
REMARK Flexibility Score: inf
ROOT
ATOM      1  C   UNL A   1      32.375  29.435  26.645  1.00  0.00     0.002 C 
ENDROOT
BRANCH   1   2
ATOM      2  C   UNL A   1      31.445  28.331  27.142  1.00  0.00     0.021 C 
BRANCH   2   3
ATOM      3  C   UNL A   1      31.379  27.113  26.223  1.00  0.00     0.116 C 
BRANCH   3   4
ATOM      4  N   UNL A   1      31.470  25.881  26.977  1.00  0.00    -0.351 N 
ATOM      5  C   UNL A   1      31.699  24.589  26.609  1.00  0.00     0.279 C 
ATOM      6  O   UNL A   1      31.552  23.735  27.491  1.00  0.00    -0.268 OA
ATOM      7  H   UNL A   1      31.341  25.999  27.946  1.00  0.00     0.163 HD
BRANCH   5   8
ATOM      8  C   UNL A   1      32.105  24.162  25.182  1.00  0.00     0.289 C 
ATOM      9  C   UNL A   1      32.319  22.327  23.659  1.00  0.00     0.274 C 
ATOM     10  N   UNL A   1      31.645  22.795  24.867  1.00  0.00    -0.320 N 
ATOM     11  S   UNL A   1      33.803  23.321  23.344  1.00  0.00    -0.081 SA
ATOM     12  H   UNL A   1      31.867  22.173  25.645  1.00  0.00     0.348 HD
ATOM     13  H   UNL A   1      30.636  22.798  24.718  1.00  0.00     0.348 HD
ATOM     14  C   UNL A   1      33.576  24.423  24.787  1.00  0.00     0.077 C 
ATOM     15  C   UNL A   1      34.685  24.072  25.777  1.00  0.00     0.030 C 
ATOM     16  C   UNL A   1      33.766  25.890  24.374  1.00  0.00     0.030 C 
BRANCH   9  17
ATOM     17  C   UNL A   1      32.591  20.833  23.739  1.00  0.00     0.020 A 
ATOM     18  C   UNL A   1      33.291  18.077  23.818  1.00  0.00     0.007 A 
ATOM     19  C   UNL A   1      33.731  18.956  24.810  1.00  0.00     0.015 A 
ATOM     20  C   UNL A   1      32.480  18.582  22.799  1.00  0.00     0.015 A 
ATOM     21  C   UNL A   1      33.391  20.317  24.767  1.00  0.00     0.012 A 
ATOM     22  C   UNL A   1      32.125  19.934  22.764  1.00  0.00     0.012 A 
BRANCH  18  23
ATOM     23  S   UNL A   1      33.661  16.328  23.751  1.00  0.00    -0.130 SA
ATOM     24  C   UNL A   1      34.902  16.109  25.052  1.00  0.00     0.091 C 
ENDBRANCH  18  23
ENDBRANCH   9  17
ENDBRANCH   5   8
ENDBRANCH   3   4
ENDBRANCH   2   3
ENDBRANCH   1   2
BRANCH   1  25
ATOM     25  C   UNL A   1      31.685  30.536  25.839  1.00  0.00     0.002 C 
BRANCH  25  26
ATOM     26  C   UNL A   1      31.404  31.827  26.613  1.00  0.00     0.021 C 
BRANCH  26  27
ATOM     27  C   UNL A   1      32.638  32.477  27.228  1.00  0.00     0.116 C 
BRANCH  27  28
ATOM     28  N   UNL A   1      32.423  33.885  27.515  1.00  0.00    -0.352 N 
ATOM     29  C   UNL A   1      33.000  34.669  28.482  1.00  0.00     0.251 C 
ATOM     30  H   UNL A   1      31.771  34.341  26.934  1.00  0.00     0.163 HD
ATOM     31  O   UNL A   1      32.547  35.777  28.741  1.00  0.00    -0.269 OA
BRANCH  29  32
ATOM     32  C   UNL A   1      34.172  34.157  29.220  1.00  0.00     0.039 A 
ATOM     33  C   UNL A   1      33.970  33.336  30.330  1.00  0.00     0.014 A 
ATOM     34  C   UNL A   1      35.466  34.486  28.806  1.00  0.00     0.014 A 
ATOM     35  C   UNL A   1      35.071  32.798  30.996  1.00  0.00     0.010 A 
ATOM     36  C   UNL A   1      36.559  33.886  29.421  1.00  0.00     0.010 A 
ATOM     37  C   UNL A   1      36.373  33.043  30.528  1.00  0.00    -0.014 A 
BRANCH  37  38
ATOM     38  C   UNL A   1      37.558  32.441  31.187  1.00  0.00     0.031 A 
ATOM     39  C   UNL A   1      38.313  31.335  30.508  1.00  0.00     0.074 A 
ATOM     40  C   UNL A   1      37.913  32.848  32.421  1.00  0.00     0.049 A 
ATOM     41  N   UNL A   1      39.322  30.627  30.947  1.00  0.00    -0.248 NA
ATOM     42  C   UNL A   1      37.855  30.953  29.163  1.00  0.00     0.031 C 
ATOM     43  C   UNL A   1      37.238  33.889  33.196  1.00  0.00     0.029 A 
ATOM     44  N   UNL A   1      38.927  32.425  33.244  1.00  0.00    -0.354 N 
ATOM     45  C   UNL A   1      39.610  29.715  29.942  1.00  0.00     0.074 A 
ATOM     46  C   UNL A   1      38.629  29.913  28.897  1.00  0.00     0.031 C 
ATOM     47  C   UNL A   1      37.871  34.044  34.369  1.00  0.00     0.029 A 
ATOM     48  C   UNL A   1      38.967  33.083  34.450  1.00  0.00     0.049 A 
ATOM     49  H   UNL A   1      39.564  31.718  32.995  1.00  0.00     0.167 HD
ATOM     50  C   UNL A   1      40.618  28.811  29.882  1.00  0.00     0.037 A 
ATOM     51  C   UNL A   1      39.791  32.921  35.502  1.00  0.00     0.037 A 
ATOM     52  C   UNL A   1      41.597  28.626  30.921  1.00  0.00     0.049 A 
ATOM     53  C   UNL A   1      40.875  31.879  35.429  1.00  0.00     0.074 A 
ATOM     54  C   UNL A   1      42.681  27.767  30.943  1.00  0.00     0.029 A 
ATOM     55  N   UNL A   1      41.603  29.308  32.130  1.00  0.00    -0.354 N 
ATOM     56  N   UNL A   1      41.178  31.065  34.448  1.00  0.00    -0.248 NA
ATOM     57  C   UNL A   1      41.736  31.738  36.613  1.00  0.00     0.031 C 
ATOM     58  C   UNL A   1      43.310  27.889  32.186  1.00  0.00     0.029 A 
ATOM     59  C   UNL A   1      42.657  28.871  32.915  1.00  0.00     0.049 A 
ATOM     60  H   UNL A   1      40.954  30.001  32.390  1.00  0.00     0.167 HD
ATOM     61  C   UNL A   1      42.284  30.342  34.877  1.00  0.00     0.074 A 
ATOM     62  C   UNL A   1      42.604  30.823  36.206  1.00  0.00     0.031 C 
ATOM     63  C   UNL A   1      42.973  29.371  34.230  1.00  0.00     0.037 A 
BRANCH  50  64
ATOM     64  C   UNL A   1      40.707  27.954  28.650  1.00  0.00     0.064 A 
ATOM     65  C   UNL A   1      40.032  26.725  28.558  1.00  0.00     0.173 A 
ATOM     66  C   UNL A   1      41.458  28.372  27.542  1.00  0.00     0.173 A 
ATOM     67  F   UNL A   1      39.308  26.272  29.592  1.00  0.00    -0.203 F 
ATOM     68  C   UNL A   1      40.141  25.932  27.419  1.00  0.00     0.198 A 
ATOM     69  C   UNL A   1      41.534  27.592  26.391  1.00  0.00     0.198 A 
ATOM     70  F   UNL A   1      42.117  29.540  27.572  1.00  0.00    -0.203 F 
ATOM     71  F   UNL A   1      39.541  24.734  27.380  1.00  0.00    -0.200 F 
ATOM     72  C   UNL A   1      40.886  26.367  26.334  1.00  0.00     0.200 A 
ATOM     73  F   UNL A   1      42.242  28.023  25.337  1.00  0.00    -0.200 F 
ATOM     74  F   UNL A   1      40.986  25.605  25.237  1.00  0.00    -0.200 F 
ENDBRANCH  50  64
BRANCH  51  75
ATOM     75  C   UNL A   1      39.642  33.783  36.705  1.00  0.00     0.064 A 
ATOM     76  C   UNL A   1      40.300  35.019  36.786  1.00  0.00     0.173 A 
ATOM     77  C   UNL A   1      38.852  33.393  37.795  1.00  0.00     0.173 A 
ATOM     78  F   UNL A   1      41.083  35.428  35.777  1.00  0.00    -0.203 F 
ATOM     79  C   UNL A   1      40.193  35.819  37.921  1.00  0.00     0.198 A 
ATOM     80  C   UNL A   1      38.719  34.208  38.917  1.00  0.00     0.198 A 
ATOM     81  F   UNL A   1      38.197  32.222  37.766  1.00  0.00    -0.203 F 
ATOM     82  F   UNL A   1      40.872  36.971  37.993  1.00  0.00    -0.200 F 
ATOM     83  C   UNL A   1      39.397  35.417  38.983  1.00  0.00     0.200 A 
ATOM     84  F   UNL A   1      37.939  33.823  39.936  1.00  0.00    -0.200 F 
ATOM     85  F   UNL A   1      39.292  36.187  40.075  1.00  0.00    -0.200 F 
ENDBRANCH  51  75
BRANCH  63  86
ATOM     86  C   UNL A   1      44.174  28.794  34.923  1.00  0.00     0.064 A 
ATOM     87  C   UNL A   1      44.085  27.655  35.736  1.00  0.00     0.173 A 
ATOM     88  C   UNL A   1      45.442  29.366  34.732  1.00  0.00     0.173 A 
ATOM     89  F   UNL A   1      42.896  27.079  35.965  1.00  0.00    -0.203 F 
ATOM     90  C   UNL A   1      45.217  27.125  36.352  1.00  0.00     0.198 A 
ATOM     91  C   UNL A   1      46.575  28.813  35.320  1.00  0.00     0.198 A 
ATOM     92  F   UNL A   1      45.584  30.453  33.957  1.00  0.00    -0.203 F 
ATOM     93  F   UNL A   1      45.101  26.067  37.165  1.00  0.00    -0.200 F 
ATOM     94  C   UNL A   1      46.461  27.698  36.135  1.00  0.00     0.200 A 
ATOM     95  F   UNL A   1      47.778  29.359  35.094  1.00  0.00    -0.200 F 
ATOM     96  F   UNL A   1      47.551  27.179  36.718  1.00  0.00    -0.200 F 
ENDBRANCH  63  86
ENDBRANCH  37  38
ENDBRANCH  29  32
ENDBRANCH  27  28
ENDBRANCH  26  27
ENDBRANCH  25  26
ENDBRANCH   1  25
TORSDOF 15
ENDMDL
MODEL 3
REMARK VINA RESULT:     -12.4      0.785      7.247
REMARK SMILES CSc1ccc([C@H]2[NH2+][C@@H](C(=O)NCCCCCCNC(=O)c3ccc(-c4c5nc(c(-c6c(F)c(F)c(F)c(F)c6F)c6ccc([nH]6)c(-c6c(F)c(F)c(F)c(F)c6F)c6nc(c(-c7c(F)c(F)c(F)c(F)c7F)c7ccc4[nH]7)C=C6)C=C5)cc3)C(C)(C)S2)cc1
REMARK SMILES IDX 15 1 14 2 13 3 12 4 10 5 11 6 9 8 7 9 8 10 88 11 85 14 86 15
REMARK SMILES IDX 87 16 6 17 3 18 4 19 90 20 5 21 89 22 2 23 1 24 16 25 17 26
REMARK SMILES IDX 18 27 19 28 20 29 21 31 22 32 23 33 84 34 24 35 83 36 25 37
REMARK SMILES IDX 26 38 27 39 77 40 28 41 82 42 76 43 78 44 29 45 81 46 75 47
REMARK SMILES IDX 74 48 30 50 62 51 42 52 61 53 43 54 46 55 60 56 79 57 44 58
REMARK SMILES IDX 45 59 59 61 80 62 47 63 31 64 32 65 40 66 33 67 34 68 38 69
REMARK SMILES IDX 41 70 35 71 36 72 39 73 37 74 63 75 64 76 72 77 65 78 66 79
REMARK SMILES IDX 70 80 73 81 67 82 68 83 71 84 69 85 48 86 49 87 57 88 50 89
REMARK SMILES IDX 51 90 55 91 58 92 52 93 53 94 56 95 54 96
REMARK H PARENT 12 7 8 12 8 13 19 30 78 49 46 60
REMARK Flexibility Score: inf
ROOT
ATOM      1  C   UNL A   1      32.440  29.572  26.321  1.00  0.00     0.002 C 
ENDROOT
BRANCH   1   2
ATOM      2  C   UNL A   1      31.786  28.364  26.988  1.00  0.00     0.021 C 
BRANCH   2   3
ATOM      3  C   UNL A   1      31.655  27.146  26.077  1.00  0.00     0.116 C 
BRANCH   3   4
ATOM      4  N   UNL A   1      31.335  25.955  26.837  1.00  0.00    -0.351 N 
ATOM      5  C   UNL A   1      31.404  24.627  26.541  1.00  0.00     0.279 C 
ATOM      6  O   UNL A   1      30.897  23.857  27.365  1.00  0.00    -0.268 OA
ATOM      7  H   UNL A   1      31.004  26.142  27.745  1.00  0.00     0.163 HD
BRANCH   5   8
ATOM      8  C   UNL A   1      32.052  24.066  25.257  1.00  0.00     0.289 C 
ATOM      9  C   UNL A   1      32.389  22.116  23.910  1.00  0.00     0.274 C 
ATOM     10  N   UNL A   1      31.530  22.726  24.921  1.00  0.00    -0.320 N 
ATOM     11  S   UNL A   1      34.000  22.948  23.870  1.00  0.00    -0.081 SA
ATOM     12  H   UNL A   1      31.521  22.144  25.758  1.00  0.00     0.348 HD
ATOM     13  H   UNL A   1      30.580  22.809  24.559  1.00  0.00     0.348 HD
ATOM     14  C   UNL A   1      33.592  24.165  25.174  1.00  0.00     0.077 C 
ATOM     15  C   UNL A   1      34.428  23.787  26.395  1.00  0.00     0.030 C 
ATOM     16  C   UNL A   1      34.013  25.577  24.738  1.00  0.00     0.030 C 
BRANCH   9  17
ATOM     17  C   UNL A   1      32.484  20.612  24.121  1.00  0.00     0.020 A 
ATOM     18  C   UNL A   1      32.868  17.823  24.532  1.00  0.00     0.007 A 
ATOM     19  C   UNL A   1      32.919  18.719  25.603  1.00  0.00     0.015 A 
ATOM     20  C   UNL A   1      32.600  18.331  23.258  1.00  0.00     0.015 A 
ATOM     21  C   UNL A   1      32.737  20.095  25.399  1.00  0.00     0.012 A 
ATOM     22  C   UNL A   1      32.399  19.700  23.055  1.00  0.00     0.012 A 
BRANCH  18  23
ATOM     23  S   UNL A   1      33.092  16.053  24.655  1.00  0.00    -0.130 SA
ATOM     24  C   UNL A   1      34.821  15.881  25.167  1.00  0.00     0.091 C 
ENDBRANCH  18  23
ENDBRANCH   9  17
ENDBRANCH   5   8
ENDBRANCH   3   4
ENDBRANCH   2   3
ENDBRANCH   1   2
BRANCH   1  25
ATOM     25  C   UNL A   1      31.460  30.556  25.680  1.00  0.00     0.002 C 
BRANCH  25  26
ATOM     26  C   UNL A   1      31.251  31.859  26.456  1.00  0.00     0.021 C 
BRANCH  26  27
ATOM     27  C   UNL A   1      32.505  32.403  27.129  1.00  0.00     0.116 C 
BRANCH  27  28
ATOM     28  N   UNL A   1      32.380  33.815  27.449  1.00  0.00    -0.352 N 
ATOM     29  C   UNL A   1      33.033  34.547  28.408  1.00  0.00     0.251 C 
ATOM     30  H   UNL A   1      31.735  34.318  26.899  1.00  0.00     0.163 HD
ATOM     31  O   UNL A   1      32.653  35.673  28.702  1.00  0.00    -0.269 OA
BRANCH  29  32
ATOM     32  C   UNL A   1      34.200  33.955  29.094  1.00  0.00     0.039 A 
ATOM     33  C   UNL A   1      33.991  32.981  30.070  1.00  0.00     0.014 A 
ATOM     34  C   UNL A   1      35.495  34.364  28.764  1.00  0.00     0.014 A 
ATOM     35  C   UNL A   1      35.088  32.373  30.680  1.00  0.00     0.010 A 
ATOM     36  C   UNL A   1      36.586  33.702  29.315  1.00  0.00     0.010 A 
ATOM     37  C   UNL A   1      36.394  32.706  30.285  1.00  0.00    -0.014 A 
BRANCH  37  38
ATOM     38  C   UNL A   1      37.577  32.037  30.881  1.00  0.00     0.031 A 
ATOM     39  C   UNL A   1      38.065  32.449  32.240  1.00  0.00     0.074 A 
ATOM     40  C   UNL A   1      38.244  31.107  30.173  1.00  0.00     0.049 A 
ATOM     41  N   UNL A   1      39.120  32.045  32.901  1.00  0.00    -0.248 NA
ATOM     42  C   UNL A   1      37.276  33.474  32.942  1.00  0.00     0.031 C 
ATOM     43  C   UNL A   1      37.887  30.647  28.830  1.00  0.00     0.029 A 
ATOM     44  N   UNL A   1      39.371  30.385  30.482  1.00  0.00    -0.354 N 
ATOM     45  C   UNL A   1      39.126  32.771  34.084  1.00  0.00     0.074 A 
ATOM     46  C   UNL A   1      38.008  33.687  34.024  1.00  0.00     0.031 C 
ATOM     47  C   UNL A   1      38.759  29.704  28.442  1.00  0.00     0.029 A 
ATOM     48  C   UNL A   1      39.763  29.524  29.487  1.00  0.00     0.049 A 
ATOM     49  H   UNL A   1      39.852  30.477  31.336  1.00  0.00     0.167 HD
ATOM     50  C   UNL A   1      39.971  32.664  35.138  1.00  0.00     0.037 A 
ATOM     51  C   UNL A   1      40.819  28.691  29.424  1.00  0.00     0.037 A 
ATOM     52  C   UNL A   1      41.075  31.742  35.195  1.00  0.00     0.049 A 
ATOM     53  C   UNL A   1      41.769  28.623  30.589  1.00  0.00     0.074 A 
ATOM     54  C   UNL A   1      41.967  31.527  36.231  1.00  0.00     0.029 A 
ATOM     55  N   UNL A   1      41.444  30.888  34.166  1.00  0.00    -0.354 N 
ATOM     56  N   UNL A   1      41.729  29.268  31.730  1.00  0.00    -0.248 NA
ATOM     57  C   UNL A   1      42.910  27.706  30.459  1.00  0.00     0.031 C 
ATOM     58  C   UNL A   1      42.908  30.582  35.807  1.00  0.00     0.029 A 
ATOM     59  C   UNL A   1      42.565  30.161  34.533  1.00  0.00     0.049 A 
ATOM     60  H   UNL A   1      40.977  30.809  33.303  1.00  0.00     0.167 HD
ATOM     61  C   UNL A   1      42.814  28.810  32.467  1.00  0.00     0.074 A 
ATOM     62  C   UNL A   1      43.487  27.824  31.646  1.00  0.00     0.031 C 
ATOM     63  C   UNL A   1      43.215  29.171  33.710  1.00  0.00     0.037 A 
BRANCH  50  64
ATOM     64  C   UNL A   1      39.731  33.571  36.312  1.00  0.00     0.064 A 
ATOM     65  C   UNL A   1      40.326  34.840  36.396  1.00  0.00     0.173 A 
ATOM     66  C   UNL A   1      38.881  33.178  37.356  1.00  0.00     0.173 A 
ATOM     67  F   UNL A   1      41.156  35.263  35.431  1.00  0.00    -0.203 F 
ATOM     68  C   UNL A   1      40.112  35.661  37.501  1.00  0.00     0.198 A 
ATOM     69  C   UNL A   1      38.640  34.017  38.441  1.00  0.00     0.198 A 
ATOM     70  F   UNL A   1      38.279  31.979  37.325  1.00  0.00    -0.203 F 
ATOM     71  F   UNL A   1      40.742  36.841  37.588  1.00  0.00    -0.200 F 
ATOM     72  C   UNL A   1      39.264  35.253  38.518  1.00  0.00     0.200 A 
ATOM     73  F   UNL A   1      37.807  33.627  39.416  1.00  0.00    -0.200 F 
ATOM     74  F   UNL A   1      39.055  36.046  39.578  1.00  0.00    -0.200 F 
ENDBRANCH  50  64
BRANCH  51  75
ATOM     75  C   UNL A   1      41.020  27.832  28.226  1.00  0.00     0.064 A 
ATOM     76  C   UNL A   1      40.463  26.546  28.165  1.00  0.00     0.173 A 
ATOM     77  C   UNL A   1      41.772  28.268  27.127  1.00  0.00     0.173 A 
ATOM     78  F   UNL A   1      39.751  26.075  29.200  1.00  0.00    -0.203 F 
ATOM     79  C   UNL A   1      40.672  25.722  27.062  1.00  0.00     0.198 A 
ATOM     80  C   UNL A   1      41.954  27.456  26.010  1.00  0.00     0.198 A 
ATOM     81  F   UNL A   1      42.322  29.492  27.132  1.00  0.00    -0.203 F 
ATOM     82  F   UNL A   1      40.171  24.480  27.052  1.00  0.00    -0.200 F 
ATOM     83  C   UNL A   1      41.412  26.179  25.982  1.00  0.00     0.200 A 
ATOM     84  F   UNL A   1      42.657  27.906  24.962  1.00  0.00    -0.200 F 
ATOM     85  F   UNL A   1      41.611  25.388  24.919  1.00  0.00    -0.200 F 
ENDBRANCH  51  75
BRANCH  63  86
ATOM     86  C   UNL A   1      44.407  28.462  34.286  1.00  0.00     0.064 A 
ATOM     87  C   UNL A   1      45.706  28.978  34.165  1.00  0.00     0.173 A 
ATOM     88  C   UNL A   1      44.239  27.272  35.011  1.00  0.00     0.173 A 
ATOM     89  F   UNL A   1      45.924  30.104  33.469  1.00  0.00    -0.203 F 
ATOM     90  C   UNL A   1      46.795  28.314  34.726  1.00  0.00     0.198 A 
ATOM     91  C   UNL A   1      45.325  26.631  35.601  1.00  0.00     0.198 A 
ATOM     92  F   UNL A   1      43.017  26.740  35.164  1.00  0.00    -0.203 F 
ATOM     93  F   UNL A   1      48.032  28.798  34.555  1.00  0.00    -0.200 F 
ATOM     94  C   UNL A   1      46.602  27.148  35.452  1.00  0.00     0.200 A 
ATOM     95  F   UNL A   1      45.133  25.514  36.316  1.00  0.00    -0.200 F 
ATOM     96  F   UNL A   1      47.650  26.518  36.002  1.00  0.00    -0.200 F 
ENDBRANCH  63  86
ENDBRANCH  37  38
ENDBRANCH  29  32
ENDBRANCH  27  28
ENDBRANCH  26  27
ENDBRANCH  25  26
ENDBRANCH   1  25
TORSDOF 15
ENDMDL
