MODEL 1
REMARK VINA RESULT:     -11.0      0.000      0.000
REMARK SMILES O=C(CCNC(=O)C1CCCCC1)NCCCCCCNC(=O)c1ccc(-c2c3nc(c(-c4c(F)c(F)c(F)c(F)c4F)c4ccc([nH]4)c(-c4c(F)c(F)c(F)c(F)c4F)c4nc(c(-c5c(F)c(F)c(F)c(F)c5F)c5ccc2[nH]5)C=C4)C=C3)cc1
REMARK SMILES IDX 17 1 16 2 15 3 14 4 1 5 2 6 3 8 4 9 5 10 6 11 7 13 8 14 9 15
REMARK SMILES IDX 13 16 10 17 12 18 11 19 18 20 19 21 20 22 21 23 22 24 23 26
REMARK SMILES IDX 24 27 25 28 86 29 26 30 85 31 27 32 28 33 29 34 79 35 30 36
REMARK SMILES IDX 84 37 78 38 80 39 31 40 83 41 77 42 76 43 32 45 64 46 44 47
REMARK SMILES IDX 63 48 45 49 48 50 62 51 81 52 46 53 47 54 61 56 82 57 49 58
REMARK SMILES IDX 33 59 34 60 42 61 35 62 36 63 40 64 43 65 37 66 38 67 41 68
REMARK SMILES IDX 39 69 65 70 66 71 74 72 67 73 68 74 72 75 75 76 69 77 70 78
REMARK SMILES IDX 73 79 71 80 50 81 51 82 59 83 52 84 53 85 57 86 60 87 54 88
REMARK SMILES IDX 55 89 58 90 56 91
REMARK H PARENT 14 7 5 12 21 25 80 44 48 55
REMARK Flexibility Score: inf
ROOT
ATOM      1  C   UNL A   1      37.604  22.164  25.550  1.00  0.00     0.002 C 
ENDROOT
BRANCH   1   2
ATOM      2  C   UNL A   1      37.292  23.522  24.909  1.00  0.00     0.021 C 
BRANCH   2   3
ATOM      3  C   UNL A   1      35.899  24.073  25.211  1.00  0.00     0.116 C 
BRANCH   3   4
ATOM      4  N   UNL A   1      35.254  23.344  26.282  1.00  0.00    -0.356 N 
ATOM      5  O   UNL A   1      33.164  24.265  26.019  1.00  0.00    -0.275 OA
ATOM      6  C   UNL A   1      33.922  23.489  26.589  1.00  0.00     0.221 C 
ATOM      7  H   UNL A   1      35.794  22.715  26.815  1.00  0.00     0.163 HD
BRANCH   6   8
ATOM      8  C   UNL A   1      33.459  22.585  27.708  1.00  0.00     0.121 C 
BRANCH   8   9
ATOM      9  C   UNL A   1      33.335  21.138  27.236  1.00  0.00     0.125 C 
BRANCH   9  10
ATOM     10  N   UNL A   1      32.689  21.049  25.934  1.00  0.00    -0.355 N 
ATOM     11  C   UNL A   1      32.721  20.067  24.990  1.00  0.00     0.223 C 
ATOM     12  H   UNL A   1      32.137  21.828  25.696  1.00  0.00     0.163 HD
ATOM     13  O   UNL A   1      32.193  20.322  23.907  1.00  0.00    -0.275 OA
BRANCH  11  14
ATOM     14  C   UNL A   1      33.341  18.703  25.306  1.00  0.00     0.078 C 
ATOM     15  C   UNL A   1      32.245  17.618  25.315  1.00  0.00     0.013 C 
ATOM     16  C   UNL A   1      34.451  18.295  24.330  1.00  0.00     0.013 C 
ATOM     17  C   UNL A   1      32.801  16.232  25.633  1.00  0.00     0.001 C 
ATOM     18  C   UNL A   1      35.024  16.923  24.676  1.00  0.00     0.001 C 
ATOM     19  C   UNL A   1      33.943  15.851  24.698  1.00  0.00     0.000 C 
ENDBRANCH  11  14
ENDBRANCH   9  10
ENDBRANCH   8   9
ENDBRANCH   6   8
ENDBRANCH   3   4
ENDBRANCH   2   3
ENDBRANCH   1   2
BRANCH   1  20
ATOM     20  C   UNL A   1      37.359  20.942  24.660  1.00  0.00     0.002 C 
BRANCH  20  21
ATOM     21  C   UNL A   1      38.262  19.738  24.940  1.00  0.00     0.021 C 
BRANCH  21  22
ATOM     22  C   UNL A   1      39.312  19.951  26.028  1.00  0.00     0.116 C 
BRANCH  22  23
ATOM     23  N   UNL A   1      40.388  18.976  25.971  1.00  0.00    -0.352 N 
ATOM     24  C   UNL A   1      41.745  19.161  26.044  1.00  0.00     0.251 C 
ATOM     25  H   UNL A   1      40.100  18.040  25.864  1.00  0.00     0.163 HD
ATOM     26  O   UNL A   1      42.506  18.216  25.830  1.00  0.00    -0.269 OA
BRANCH  24  27
ATOM     27  C   UNL A   1      42.309  20.495  26.345  1.00  0.00     0.039 A 
ATOM     28  C   UNL A   1      42.773  21.280  25.286  1.00  0.00     0.014 A 
ATOM     29  C   UNL A   1      42.398  20.973  27.656  1.00  0.00     0.014 A 
ATOM     30  C   UNL A   1      43.264  22.563  25.533  1.00  0.00     0.010 A 
ATOM     31  C   UNL A   1      42.820  22.280  27.894  1.00  0.00     0.010 A 
ATOM     32  C   UNL A   1      43.256  23.090  26.835  1.00  0.00    -0.014 A 
BRANCH  32  33
ATOM     33  C   UNL A   1      43.669  24.495  27.085  1.00  0.00     0.031 A 
ATOM     34  C   UNL A   1      42.681  25.515  27.575  1.00  0.00     0.074 A 
ATOM     35  C   UNL A   1      44.938  24.863  26.824  1.00  0.00     0.049 A 
ATOM     36  N   UNL A   1      42.868  26.780  27.858  1.00  0.00    -0.248 NA
ATOM     37  C   UNL A   1      41.292  25.062  27.748  1.00  0.00     0.031 C 
ATOM     38  C   UNL A   1      45.978  23.983  26.289  1.00  0.00     0.029 A 
ATOM     39  N   UNL A   1      45.572  26.070  26.976  1.00  0.00    -0.354 N 
ATOM     40  C   UNL A   1      41.625  27.275  28.230  1.00  0.00     0.074 A 
ATOM     41  C   UNL A   1      40.681  26.189  28.086  1.00  0.00     0.031 C 
ATOM     42  C   UNL A   1      47.128  24.666  26.195  1.00  0.00     0.029 A 
ATOM     43  C   UNL A   1      46.901  26.041  26.629  1.00  0.00     0.049 A 
ATOM     44  H   UNL A   1      45.118  26.881  27.301  1.00  0.00     0.167 HD
ATOM     45  C   UNL A   1      41.306  28.516  28.673  1.00  0.00     0.037 A 
ATOM     46  C   UNL A   1      47.833  27.012  26.663  1.00  0.00     0.037 A 
ATOM     47  C   UNL A   1      42.253  29.590  28.832  1.00  0.00     0.049 A 
ATOM     48  C   UNL A   1      47.452  28.380  27.157  1.00  0.00     0.074 A 
ATOM     49  C   UNL A   1      42.044  30.857  29.349  1.00  0.00     0.029 A 
ATOM     50  N   UNL A   1      43.590  29.526  28.464  1.00  0.00    -0.354 N 
ATOM     51  N   UNL A   1      46.295  28.811  27.595  1.00  0.00    -0.248 NA
ATOM     52  C   UNL A   1      48.514  29.396  27.166  1.00  0.00     0.031 C 
ATOM     53  C   UNL A   1      43.239  31.578  29.239  1.00  0.00     0.029 A 
ATOM     54  C   UNL A   1      44.209  30.744  28.709  1.00  0.00     0.049 A 
ATOM     55  H   UNL A   1      44.034  28.734  28.085  1.00  0.00     0.167 HD
ATOM     56  C   UNL A   1      46.492  30.137  27.953  1.00  0.00     0.074 A 
ATOM     57  C   UNL A   1      47.887  30.433  27.702  1.00  0.00     0.031 C 
ATOM     58  C   UNL A   1      45.597  31.030  28.443  1.00  0.00     0.037 A 
BRANCH  45  59
ATOM     59  C   UNL A   1      39.866  28.782  29.012  1.00  0.00     0.064 A 
ATOM     60  C   UNL A   1      39.357  28.564  30.302  1.00  0.00     0.173 A 
ATOM     61  C   UNL A   1      38.988  29.284  28.039  1.00  0.00     0.173 A 
ATOM     62  F   UNL A   1      40.151  28.076  31.268  1.00  0.00    -0.203 F 
ATOM     63  C   UNL A   1      38.017  28.804  30.596  1.00  0.00     0.198 A 
ATOM     64  C   UNL A   1      37.656  29.554  28.345  1.00  0.00     0.198 A 
ATOM     65  F   UNL A   1      39.422  29.519  26.792  1.00  0.00    -0.203 F 
ATOM     66  F   UNL A   1      37.542  28.533  31.819  1.00  0.00    -0.200 F 
ATOM     67  C   UNL A   1      37.169  29.304  29.619  1.00  0.00     0.200 A 
ATOM     68  F   UNL A   1      36.842  30.051  27.404  1.00  0.00    -0.200 F 
ATOM     69  F   UNL A   1      35.881  29.538  29.903  1.00  0.00    -0.200 F 
ENDBRANCH  45  59
BRANCH  46  70
ATOM     70  C   UNL A   1      49.230  26.709  26.256  1.00  0.00     0.064 A 
ATOM     71  C   UNL A   1      50.151  26.198  27.181  1.00  0.00     0.173 A 
ATOM     72  C   UNL A   1      49.672  26.917  24.942  1.00  0.00     0.173 A 
ATOM     73  F   UNL A   1      49.781  26.003  28.456  1.00  0.00    -0.203 F 
ATOM     74  C   UNL A   1      51.464  25.920  26.812  1.00  0.00     0.198 A 
ATOM     75  C   UNL A   1      50.978  26.611  24.566  1.00  0.00     0.198 A 
ATOM     76  F   UNL A   1      48.828  27.400  24.018  1.00  0.00    -0.203 F 
ATOM     77  F   UNL A   1      52.335  25.470  27.726  1.00  0.00    -0.200 F 
ATOM     78  C   UNL A   1      51.875  26.120  25.503  1.00  0.00     0.200 A 
ATOM     79  F   UNL A   1      51.367  26.792  23.296  1.00  0.00    -0.200 F 
ATOM     80  F   UNL A   1      53.137  25.845  25.145  1.00  0.00    -0.200 F 
ENDBRANCH  46  70
BRANCH  58  81
ATOM     81  C   UNL A   1      46.109  32.408  28.756  1.00  0.00     0.064 A 
ATOM     82  C   UNL A   1      46.079  33.437  27.803  1.00  0.00     0.173 A 
ATOM     83  C   UNL A   1      46.626  32.705  30.026  1.00  0.00     0.173 A 
ATOM     84  F   UNL A   1      45.611  33.202  26.568  1.00  0.00    -0.203 F 
ATOM     85  C   UNL A   1      46.583  34.702  28.098  1.00  0.00     0.198 A 
ATOM     86  C   UNL A   1      47.097  33.980  30.329  1.00  0.00     0.198 A 
ATOM     87  F   UNL A   1      46.671  31.760  30.978  1.00  0.00    -0.203 F 
ATOM     88  F   UNL A   1      46.602  35.651  27.152  1.00  0.00    -0.200 F 
ATOM     89  C   UNL A   1      47.086  34.974  29.362  1.00  0.00     0.200 A 
ATOM     90  F   UNL A   1      47.569  34.245  31.555  1.00  0.00    -0.200 F 
ATOM     91  F   UNL A   1      47.570  36.191  29.644  1.00  0.00    -0.200 F 
ENDBRANCH  58  81
ENDBRANCH  32  33
ENDBRANCH  24  27
ENDBRANCH  22  23
ENDBRANCH  21  22
ENDBRANCH  20  21
ENDBRANCH   1  20
TORSDOF 16
ENDMDL
MODEL 2
REMARK VINA RESULT:     -10.9      1.626      7.948
REMARK SMILES O=C(CCNC(=O)C1CCCCC1)NCCCCCCNC(=O)c1ccc(-c2c3nc(c(-c4c(F)c(F)c(F)c(F)c4F)c4ccc([nH]4)c(-c4c(F)c(F)c(F)c(F)c4F)c4nc(c(-c5c(F)c(F)c(F)c(F)c5F)c5ccc2[nH]5)C=C4)C=C3)cc1
REMARK SMILES IDX 17 1 16 2 15 3 14 4 1 5 2 6 3 8 4 9 5 10 6 11 7 13 8 14 9 15
REMARK SMILES IDX 13 16 10 17 12 18 11 19 18 20 19 21 20 22 21 23 22 24 23 26
REMARK SMILES IDX 24 27 25 28 86 29 26 30 85 31 27 32 28 33 29 34 79 35 30 36
REMARK SMILES IDX 84 37 78 38 80 39 31 40 83 41 77 42 76 43 32 45 64 46 44 47
REMARK SMILES IDX 63 48 45 49 48 50 62 51 81 52 46 53 47 54 61 56 82 57 49 58
REMARK SMILES IDX 33 59 34 60 42 61 35 62 36 63 40 64 43 65 37 66 38 67 41 68
REMARK SMILES IDX 39 69 65 70 66 71 74 72 67 73 68 74 72 75 75 76 69 77 70 78
REMARK SMILES IDX 73 79 71 80 50 81 51 82 59 83 52 84 53 85 57 86 60 87 54 88
REMARK SMILES IDX 55 89 58 90 56 91
REMARK H PARENT 14 7 5 12 21 25 80 44 48 55
REMARK Flexibility Score: inf
ROOT
ATOM      1  C   UNL A   1      41.512  21.204  26.584  1.00  0.00     0.002 C 
ENDROOT
BRANCH   1   2
ATOM      2  C   UNL A   1      40.780  22.146  27.549  1.00  0.00     0.021 C 
BRANCH   2   3
ATOM      3  C   UNL A   1      39.736  23.051  26.898  1.00  0.00     0.116 C 
BRANCH   3   4
ATOM      4  N   UNL A   1      38.967  22.348  25.894  1.00  0.00    -0.356 N 
ATOM      5  O   UNL A   1      37.040  23.585  26.110  1.00  0.00    -0.275 OA
ATOM      6  C   UNL A   1      37.675  22.688  25.568  1.00  0.00     0.221 C 
ATOM      7  H   UNL A   1      39.387  21.591  25.424  1.00  0.00     0.163 HD
BRANCH   6   8
ATOM      8  C   UNL A   1      37.093  21.848  24.453  1.00  0.00     0.121 C 
BRANCH   8   9
ATOM      9  C   UNL A   1      35.681  22.306  24.096  1.00  0.00     0.125 C 
BRANCH   9  10
ATOM     10  N   UNL A   1      34.726  21.984  25.148  1.00  0.00    -0.355 N 
ATOM     11  C   UNL A   1      33.803  20.986  25.237  1.00  0.00     0.223 C 
ATOM     12  H   UNL A   1      34.751  22.589  25.923  1.00  0.00     0.163 HD
ATOM     13  O   UNL A   1      33.019  21.039  26.185  1.00  0.00    -0.275 OA
BRANCH  11  14
ATOM     14  C   UNL A   1      33.799  19.837  24.224  1.00  0.00     0.078 C 
ATOM     15  C   UNL A   1      34.546  18.621  24.808  1.00  0.00     0.013 C 
ATOM     16  C   UNL A   1      32.391  19.408  23.793  1.00  0.00     0.013 C 
ATOM     17  C   UNL A   1      34.584  17.441  23.840  1.00  0.00     0.001 C 
ATOM     18  C   UNL A   1      32.439  18.250  22.799  1.00  0.00     0.001 C 
ATOM     19  C   UNL A   1      33.188  17.052  23.367  1.00  0.00     0.000 C 
ENDBRANCH  11  14
ENDBRANCH   9  10
ENDBRANCH   8   9
ENDBRANCH   6   8
ENDBRANCH   3   4
ENDBRANCH   2   3
ENDBRANCH   1   2
BRANCH   1  20
ATOM     20  C   UNL A   1      42.020  19.896  27.197  1.00  0.00     0.002 C 
BRANCH  20  21
ATOM     21  C   UNL A   1      42.398  18.806  26.191  1.00  0.00     0.021 C 
BRANCH  21  22
ATOM     22  C   UNL A   1      43.894  18.533  26.060  1.00  0.00     0.116 C 
BRANCH  22  23
ATOM     23  N   UNL A   1      44.355  18.572  24.681  1.00  0.00    -0.352 N 
ATOM     24  C   UNL A   1      44.691  19.647  23.899  1.00  0.00     0.251 C 
ATOM     25  H   UNL A   1      44.439  17.694  24.243  1.00  0.00     0.163 HD
ATOM     26  O   UNL A   1      44.923  19.485  22.700  1.00  0.00    -0.269 OA
BRANCH  24  27
ATOM     27  C   UNL A   1      44.748  21.009  24.473  1.00  0.00     0.039 A 
ATOM     28  C   UNL A   1      45.325  21.179  25.735  1.00  0.00     0.014 A 
ATOM     29  C   UNL A   1      44.227  22.113  23.792  1.00  0.00     0.014 A 
ATOM     30  C   UNL A   1      45.439  22.459  26.282  1.00  0.00     0.010 A 
ATOM     31  C   UNL A   1      44.406  23.397  24.305  1.00  0.00     0.010 A 
ATOM     32  C   UNL A   1      45.015  23.584  25.555  1.00  0.00    -0.014 A 
BRANCH  32  33
ATOM     33  C   UNL A   1      45.240  24.954  26.082  1.00  0.00     0.031 A 
ATOM     34  C   UNL A   1      46.602  25.586  26.039  1.00  0.00     0.074 A 
ATOM     35  C   UNL A   1      44.212  25.617  26.648  1.00  0.00     0.049 A 
ATOM     36  N   UNL A   1      46.977  26.774  26.442  1.00  0.00    -0.248 NA
ATOM     37  C   UNL A   1      47.694  24.766  25.493  1.00  0.00     0.031 C 
ATOM     38  C   UNL A   1      42.855  25.091  26.806  1.00  0.00     0.029 A 
ATOM     39  N   UNL A   1      44.145  26.875  27.191  1.00  0.00    -0.354 N 
ATOM     40  C   UNL A   1      48.344  26.841  26.208  1.00  0.00     0.074 A 
ATOM     41  C   UNL A   1      48.743  25.555  25.679  1.00  0.00     0.031 C 
ATOM     42  C   UNL A   1      42.081  26.032  27.368  1.00  0.00     0.029 A 
ATOM     43  C   UNL A   1      42.893  27.213  27.642  1.00  0.00     0.049 A 
ATOM     44  H   UNL A   1      44.921  27.478  27.253  1.00  0.00     0.167 HD
ATOM     45  C   UNL A   1      49.186  27.887  26.398  1.00  0.00     0.037 A 
ATOM     46  C   UNL A   1      42.447  28.351  28.208  1.00  0.00     0.037 A 
ATOM     47  C   UNL A   1      48.781  29.172  26.908  1.00  0.00     0.049 A 
ATOM     48  C   UNL A   1      43.401  29.496  28.408  1.00  0.00     0.074 A 
ATOM     49  C   UNL A   1      49.540  30.320  27.061  1.00  0.00     0.029 A 
ATOM     50  N   UNL A   1      47.505  29.477  27.362  1.00  0.00    -0.354 N 
ATOM     51  N   UNL A   1      44.671  29.580  28.097  1.00  0.00    -0.248 NA
ATOM     52  C   UNL A   1      42.853  30.707  29.034  1.00  0.00     0.031 C 
ATOM     53  C   UNL A   1      48.740  31.299  27.660  1.00  0.00     0.029 A 
ATOM     54  C   UNL A   1      47.465  30.783  27.828  1.00  0.00     0.049 A 
ATOM     55  H   UNL A   1      46.740  28.857  27.354  1.00  0.00     0.167 HD
ATOM     56  C   UNL A   1      45.070  30.857  28.467  1.00  0.00     0.074 A 
ATOM     57  C   UNL A   1      43.899  31.520  29.004  1.00  0.00     0.031 C 
ATOM     58  C   UNL A   1      46.296  31.429  28.372  1.00  0.00     0.037 A 
BRANCH  45  59
ATOM     59  C   UNL A   1      50.635  27.682  26.056  1.00  0.00     0.064 A 
ATOM     60  C   UNL A   1      51.122  27.877  24.754  1.00  0.00     0.173 A 
ATOM     61  C   UNL A   1      51.553  27.309  27.049  1.00  0.00     0.173 A 
ATOM     62  F   UNL A   1      50.286  28.226  23.764  1.00  0.00    -0.203 F 
ATOM     63  C   UNL A   1      52.466  27.671  24.452  1.00  0.00     0.198 A 
ATOM     64  C   UNL A   1      52.903  27.135  26.750  1.00  0.00     0.198 A 
ATOM     65  F   UNL A   1      51.145  27.117  28.312  1.00  0.00    -0.203 F 
ATOM     66  F   UNL A   1      52.896  27.807  23.190  1.00  0.00    -0.200 F 
ATOM     67  C   UNL A   1      53.356  27.306  25.451  1.00  0.00     0.200 A 
ATOM     68  F   UNL A   1      53.764  26.798  27.719  1.00  0.00    -0.200 F 
ATOM     69  F   UNL A   1      54.649  27.111  25.160  1.00  0.00    -0.200 F 
ENDBRANCH  45  59
BRANCH  46  70
ATOM     70  C   UNL A   1      41.015  28.476  28.585  1.00  0.00     0.064 A 
ATOM     71  C   UNL A   1      40.078  28.989  27.678  1.00  0.00     0.173 A 
ATOM     72  C   UNL A   1      40.552  28.083  29.849  1.00  0.00     0.173 A 
ATOM     73  F   UNL A   1      40.476  29.400  26.464  1.00  0.00    -0.203 F 
ATOM     74  C   UNL A   1      38.735  29.120  28.025  1.00  0.00     0.198 A 
ATOM     75  C   UNL A   1      39.205  28.187  30.185  1.00  0.00     0.198 A 
ATOM     76  F   UNL A   1      41.409  27.581  30.751  1.00  0.00    -0.203 F 
ATOM     77  F   UNL A   1      37.868  29.651  27.153  1.00  0.00    -0.200 F 
ATOM     78  C   UNL A   1      38.298  28.712  29.276  1.00  0.00     0.200 A 
ATOM     79  F   UNL A   1      38.784  27.777  31.390  1.00  0.00    -0.200 F 
ATOM     80  F   UNL A   1      37.006  28.829  29.608  1.00  0.00    -0.200 F 
ENDBRANCH  46  70
BRANCH  58  81
ATOM     81  C   UNL A   1      46.426  32.849  28.845  1.00  0.00     0.064 A 
ATOM     82  C   UNL A   1      46.785  33.154  30.167  1.00  0.00     0.173 A 
ATOM     83  C   UNL A   1      46.199  33.917  27.964  1.00  0.00     0.173 A 
ATOM     84  F   UNL A   1      46.996  32.170  31.054  1.00  0.00    -0.203 F 
ATOM     85  C   UNL A   1      46.873  34.475  30.599  1.00  0.00     0.198 A 
ATOM     86  C   UNL A   1      46.322  35.237  28.390  1.00  0.00     0.198 A 
ATOM     87  F   UNL A   1      45.860  33.682  26.687  1.00  0.00    -0.203 F 
ATOM     88  F   UNL A   1      47.156  34.741  31.881  1.00  0.00    -0.200 F 
ATOM     89  C   UNL A   1      46.648  35.515  29.709  1.00  0.00     0.200 A 
ATOM     90  F   UNL A   1      46.118  36.240  27.526  1.00  0.00    -0.200 F 
ATOM     91  F   UNL A   1      46.734  36.786  30.126  1.00  0.00    -0.200 F 
ENDBRANCH  58  81
ENDBRANCH  32  33
ENDBRANCH  24  27
ENDBRANCH  22  23
ENDBRANCH  21  22
ENDBRANCH  20  21
ENDBRANCH   1  20
TORSDOF 16
ENDMDL
MODEL 3
REMARK VINA RESULT:     -10.7      6.903     12.155
REMARK SMILES O=C(CCNC(=O)C1CCCCC1)NCCCCCCNC(=O)c1ccc(-c2c3nc(c(-c4c(F)c(F)c(F)c(F)c4F)c4ccc([nH]4)c(-c4c(F)c(F)c(F)c(F)c4F)c4nc(c(-c5c(F)c(F)c(F)c(F)c5F)c5ccc2[nH]5)C=C4)C=C3)cc1
REMARK SMILES IDX 17 1 16 2 15 3 14 4 1 5 2 6 3 8 4 9 5 10 6 11 7 13 8 14 9 15
REMARK SMILES IDX 13 16 10 17 12 18 11 19 18 20 19 21 20 22 21 23 22 24 23 26
REMARK SMILES IDX 24 27 25 28 86 29 26 30 85 31 27 32 28 33 29 34 79 35 30 36
REMARK SMILES IDX 84 37 78 38 80 39 31 40 83 41 77 42 76 43 32 45 64 46 44 47
REMARK SMILES IDX 63 48 45 49 48 50 62 51 81 52 46 53 47 54 61 56 82 57 49 58
REMARK SMILES IDX 33 59 34 60 42 61 35 62 36 63 40 64 43 65 37 66 38 67 41 68
REMARK SMILES IDX 39 69 65 70 66 71 74 72 67 73 68 74 72 75 75 76 69 77 70 78
REMARK SMILES IDX 73 79 71 80 50 81 51 82 59 83 52 84 53 85 57 86 60 87 54 88
REMARK SMILES IDX 55 89 58 90 56 91
REMARK H PARENT 14 7 5 12 21 25 80 44 48 55
REMARK Flexibility Score: inf
ROOT
ATOM      1  C   UNL A   1      35.111  30.262  27.273  1.00  0.00     0.002 C 
ENDROOT
BRANCH   1   2
ATOM      2  C   UNL A   1      34.609  28.812  27.246  1.00  0.00     0.021 C 
BRANCH   2   3
ATOM      3  C   UNL A   1      33.100  28.656  27.064  1.00  0.00     0.116 C 
BRANCH   3   4
ATOM      4  N   UNL A   1      32.682  29.008  25.724  1.00  0.00    -0.356 N 
ATOM      5  O   UNL A   1      31.038  27.412  25.524  1.00  0.00    -0.275 OA
ATOM      6  C   UNL A   1      31.663  28.361  25.065  1.00  0.00     0.221 C 
ATOM      7  H   UNL A   1      33.148  29.743  25.263  1.00  0.00     0.163 HD
BRANCH   6   8
ATOM      8  C   UNL A   1      31.367  28.937  23.699  1.00  0.00     0.121 C 
BRANCH   8   9
ATOM      9  C   UNL A   1      30.733  27.891  22.784  1.00  0.00     0.125 C 
BRANCH   9  10
ATOM     10  N   UNL A   1      29.293  27.805  22.979  1.00  0.00    -0.355 N 
ATOM     11  C   UNL A   1      28.334  28.773  22.972  1.00  0.00     0.223 C 
ATOM     12  H   UNL A   1      28.955  26.895  23.144  1.00  0.00     0.163 HD
ATOM     13  O   UNL A   1      27.201  28.433  23.315  1.00  0.00    -0.275 OA
BRANCH  11  14
ATOM     14  C   UNL A   1      28.665  30.193  22.504  1.00  0.00     0.078 C 
ATOM     15  C   UNL A   1      27.992  30.466  21.143  1.00  0.00     0.013 C 
ATOM     16  C   UNL A   1      28.248  31.279  23.503  1.00  0.00     0.013 C 
ATOM     17  C   UNL A   1      28.292  31.868  20.617  1.00  0.00     0.001 C 
ATOM     18  C   UNL A   1      28.582  32.675  22.983  1.00  0.00     0.001 C 
ATOM     19  C   UNL A   1      27.930  32.944  21.634  1.00  0.00     0.000 C 
ENDBRANCH  11  14
ENDBRANCH   9  10
ENDBRANCH   8   9
ENDBRANCH   6   8
ENDBRANCH   3   4
ENDBRANCH   2   3
ENDBRANCH   1   2
BRANCH   1  20
ATOM     20  C   UNL A   1      34.250  31.244  28.074  1.00  0.00     0.002 C 
BRANCH  20  21
ATOM     21  C   UNL A   1      33.783  32.482  27.304  1.00  0.00     0.021 C 
BRANCH  21  22
ATOM     22  C   UNL A   1      32.406  33.011  27.697  1.00  0.00     0.116 C 
BRANCH  22  23
ATOM     23  N   UNL A   1      32.388  34.453  27.882  1.00  0.00    -0.352 N 
ATOM     24  C   UNL A   1      33.164  35.243  28.691  1.00  0.00     0.251 C 
ATOM     25  H   UNL A   1      31.717  34.935  27.346  1.00  0.00     0.163 HD
ATOM     26  O   UNL A   1      32.899  36.439  28.818  1.00  0.00    -0.269 OA
BRANCH  24  27
ATOM     27  C   UNL A   1      34.302  34.667  29.440  1.00  0.00     0.039 A 
ATOM     28  C   UNL A   1      34.049  34.051  30.670  1.00  0.00     0.014 A 
ATOM     29  C   UNL A   1      35.611  34.739  28.955  1.00  0.00     0.014 A 
ATOM     30  C   UNL A   1      35.094  33.453  31.377  1.00  0.00     0.010 A 
ATOM     31  C   UNL A   1      36.640  34.080  29.625  1.00  0.00     0.010 A 
ATOM     32  C   UNL A   1      36.393  33.429  30.842  1.00  0.00    -0.014 A 
BRANCH  32  33
ATOM     33  C   UNL A   1      37.482  32.695  31.535  1.00  0.00     0.031 A 
ATOM     34  C   UNL A   1      38.162  31.523  30.884  1.00  0.00     0.074 A 
ATOM     35  C   UNL A   1      37.830  33.062  32.785  1.00  0.00     0.049 A 
ATOM     36  N   UNL A   1      39.137  30.775  31.336  1.00  0.00    -0.248 NA
ATOM     37  C   UNL A   1      37.664  31.123  29.560  1.00  0.00     0.031 C 
ATOM     38  C   UNL A   1      37.208  34.142  33.550  1.00  0.00     0.029 A 
ATOM     39  N   UNL A   1      38.794  32.570  33.629  1.00  0.00    -0.354 N 
ATOM     40  C   UNL A   1      39.363  29.814  30.361  1.00  0.00     0.074 A 
ATOM     41  C   UNL A   1      38.386  30.038  29.317  1.00  0.00     0.031 C 
ATOM     42  C   UNL A   1      37.829  34.259  34.733  1.00  0.00     0.029 A 
ATOM     43  C   UNL A   1      38.870  33.241  34.825  1.00  0.00     0.049 A 
ATOM     44  H   UNL A   1      39.375  31.808  33.400  1.00  0.00     0.167 HD
ATOM     45  C   UNL A   1      40.311  28.845  30.330  1.00  0.00     0.037 A 
ATOM     46  C   UNL A   1      39.692  33.059  35.876  1.00  0.00     0.037 A 
ATOM     47  C   UNL A   1      41.292  28.636  31.363  1.00  0.00     0.049 A 
ATOM     48  C   UNL A   1      40.735  31.977  35.816  1.00  0.00     0.074 A 
ATOM     49  C   UNL A   1      42.344  27.736  31.388  1.00  0.00     0.029 A 
ATOM     50  N   UNL A   1      41.335  29.330  32.565  1.00  0.00    -0.354 N 
ATOM     51  N   UNL A   1      41.000  31.134  34.849  1.00  0.00    -0.248 NA
ATOM     52  C   UNL A   1      41.597  31.828  36.996  1.00  0.00     0.031 C 
ATOM     53  C   UNL A   1      42.986  27.845  32.626  1.00  0.00     0.029 A 
ATOM     54  C   UNL A   1      42.373  28.853  33.353  1.00  0.00     0.049 A 
ATOM     55  H   UNL A   1      40.720  30.054  32.821  1.00  0.00     0.167 HD
ATOM     56  C   UNL A   1      42.071  30.370  35.291  1.00  0.00     0.074 A 
ATOM     57  C   UNL A   1      42.421  30.867  36.605  1.00  0.00     0.031 C 
ATOM     58  C   UNL A   1      42.705  29.348  34.666  1.00  0.00     0.037 A 
BRANCH  45  59
ATOM     59  C   UNL A   1      40.329  27.931  29.137  1.00  0.00     0.064 A 
ATOM     60  C   UNL A   1      41.085  28.224  27.991  1.00  0.00     0.173 A 
ATOM     61  C   UNL A   1      39.598  26.733  29.149  1.00  0.00     0.173 A 
ATOM     62  F   UNL A   1      41.795  29.361  27.923  1.00  0.00    -0.203 F 
ATOM     63  C   UNL A   1      41.081  27.371  26.890  1.00  0.00     0.198 A 
ATOM     64  C   UNL A   1      39.622  25.866  28.058  1.00  0.00     0.198 A 
ATOM     65  F   UNL A   1      38.865  26.398  30.221  1.00  0.00    -0.203 F 
ATOM     66  F   UNL A   1      41.764  27.702  25.786  1.00  0.00    -0.200 F 
ATOM     67  C   UNL A   1      40.354  26.191  26.926  1.00  0.00     0.200 A 
ATOM     68  F   UNL A   1      38.932  24.719  28.102  1.00  0.00    -0.200 F 
ATOM     69  F   UNL A   1      40.353  25.369  25.868  1.00  0.00    -0.200 F 
ENDBRANCH  45  59
BRANCH  46  70
ATOM     70  C   UNL A   1      39.589  33.954  37.058  1.00  0.00     0.064 A 
ATOM     71  C   UNL A   1      40.267  35.180  37.090  1.00  0.00     0.173 A 
ATOM     72  C   UNL A   1      38.810  33.610  38.172  1.00  0.00     0.173 A 
ATOM     73  F   UNL A   1      41.043  35.543  36.057  1.00  0.00    -0.203 F 
ATOM     74  C   UNL A   1      40.184  36.021  38.197  1.00  0.00     0.198 A 
ATOM     75  C   UNL A   1      38.703  34.465  39.266  1.00  0.00     0.198 A 
ATOM     76  F   UNL A   1      38.136  32.450  38.188  1.00  0.00    -0.203 F 
ATOM     77  F   UNL A   1      40.876  37.169  38.217  1.00  0.00    -0.200 F 
ATOM     78  C   UNL A   1      39.397  35.667  39.281  1.00  0.00     0.200 A 
ATOM     79  F   UNL A   1      37.929  34.126  40.306  1.00  0.00    -0.200 F 
ATOM     80  F   UNL A   1      39.309  36.479  40.343  1.00  0.00    -0.200 F 
ENDBRANCH  46  70
BRANCH  58  81
ATOM     81  C   UNL A   1      43.856  28.712  35.393  1.00  0.00     0.064 A 
ATOM     82  C   UNL A   1      43.660  27.667  36.308  1.00  0.00     0.173 A 
ATOM     83  C   UNL A   1      45.171  29.145  35.164  1.00  0.00     0.173 A 
ATOM     84  F   UNL A   1      42.421  27.226  36.576  1.00  0.00    -0.203 F 
ATOM     85  C   UNL A   1      44.733  27.105  36.996  1.00  0.00     0.198 A 
ATOM     86  C   UNL A   1      46.245  28.558  35.828  1.00  0.00     0.198 A 
ATOM     87  F   UNL A   1      45.416  30.136  34.293  1.00  0.00    -0.203 F 
ATOM     88  F   UNL A   1      44.515  26.152  37.912  1.00  0.00    -0.200 F 
ATOM     89  C   UNL A   1      46.025  27.547  36.751  1.00  0.00     0.200 A 
ATOM     90  F   UNL A   1      47.494  28.977  35.580  1.00  0.00    -0.200 F 
ATOM     91  F   UNL A   1      47.057  27.006  37.414  1.00  0.00    -0.200 F 
ENDBRANCH  58  81
ENDBRANCH  32  33
ENDBRANCH  24  27
ENDBRANCH  22  23
ENDBRANCH  21  22
ENDBRANCH  20  21
ENDBRANCH   1  20
TORSDOF 16
ENDMDL
