MODEL 1
REMARK VINA RESULT:     -11.2      0.000      0.000
REMARK SMILES COc1ccc(Br)cc1S(=O)(=O)N(C)CC(=O)NCCCCCCNC(=O)c1ccc(-c2c3nc(c(-c4c(F)c(F)c(F)c(F)c4F)c4ccc([nH]4)c(-c4c(F)c(F)c(F)c(F)c4F)c4nc(c(-c5c(F)c(F)c(F)c(F)c5F)c5ccc2[nH]5)C=C4)C=C3)cc1
REMARK SMILES IDX 20 1 19 2 18 3 16 4 17 5 15 7 13 8 14 9 10 10 11 11 12 12
REMARK SMILES IDX 9 13 3 14 4 15 5 16 8 17 6 18 7 19 2 20 1 21 21 22 22 23
REMARK SMILES IDX 23 24 24 25 25 26 26 27 27 29 28 30 29 31 90 32 30 33 89 34
REMARK SMILES IDX 31 35 32 36 33 37 83 38 34 39 88 40 82 41 84 42 35 43 87 44
REMARK SMILES IDX 81 45 80 46 36 48 68 49 48 50 67 51 49 52 52 53 66 54 85 55
REMARK SMILES IDX 50 56 51 57 65 59 86 60 53 61 37 62 38 63 46 64 39 65 40 66
REMARK SMILES IDX 44 67 47 68 41 69 42 70 45 71 43 72 69 73 70 74 78 75 71 76
REMARK SMILES IDX 72 77 76 78 79 79 73 80 74 81 77 82 75 83 54 84 55 85 63 86
REMARK SMILES IDX 56 87 57 88 61 89 64 90 58 91 59 92 62 93 60 94
REMARK H PARENT 18 6 25 28 84 47 52 58
REMARK Flexibility Score: inf
ROOT
ATOM      1  C   UNL A   1      32.081  28.634  27.025  1.00  0.00     0.021 C 
ENDROOT
BRANCH   1   2
ATOM      2  C   UNL A   1      31.244  27.588  26.281  1.00  0.00     0.116 C 
BRANCH   2   3
ATOM      3  N   UNL A   1      31.326  26.284  26.908  1.00  0.00    -0.355 N 
ATOM      4  C   UNL A   1      31.339  25.025  26.375  1.00  0.00     0.235 C 
ATOM      5  O   UNL A   1      31.465  24.086  27.166  1.00  0.00    -0.274 OA
ATOM      6  H   UNL A   1      31.381  26.308  27.890  1.00  0.00     0.163 HD
BRANCH   4   7
ATOM      7  C   UNL A   1      31.253  24.780  24.866  1.00  0.00     0.202 C 
BRANCH   7   8
ATOM      8  N   UNL A   1      32.528  24.778  24.066  1.00  0.00    -0.191 NA
ATOM      9  C   UNL A   1      32.787  26.072  23.435  1.00  0.00     0.125 C 
BRANCH   8  10
ATOM     10  S   UNL A   1      32.741  23.351  23.168  1.00  0.00     0.247 S 
ATOM     11  O   UNL A   1      33.501  23.725  21.989  1.00  0.00    -0.207 OA
ATOM     12  O   UNL A   1      31.429  22.751  23.045  1.00  0.00    -0.207 OA
BRANCH  10  13
ATOM     13  C   UNL A   1      33.746  22.109  23.959  1.00  0.00     0.125 A 
ATOM     14  C   UNL A   1      35.086  22.191  24.345  1.00  0.00     0.138 A 
ATOM     15  C   UNL A   1      35.708  21.041  24.872  1.00  0.00     0.049 A 
ATOM     16  C   UNL A   1      35.029  19.827  24.987  1.00  0.00     0.019 A 
ATOM     17  C   UNL A   1      33.058  20.881  24.107  1.00  0.00     0.041 A 
ATOM     18  C   UNL A   1      33.699  19.754  24.609  1.00  0.00     0.019 A 
ATOM     19  Br  UNL A   1      32.761  18.122  24.766  1.00  0.00    -0.051 Br
BRANCH  14  20
ATOM     20  O   UNL A   1      35.775  23.365  24.287  1.00  0.00    -0.495 OA
ATOM     21  C   UNL A   1      37.117  23.303  24.784  1.00  0.00     0.278 C 
ENDBRANCH  14  20
ENDBRANCH  10  13
ENDBRANCH   8  10
ENDBRANCH   7   8
ENDBRANCH   4   7
ENDBRANCH   2   3
ENDBRANCH   1   2
BRANCH   1  22
ATOM     22  C   UNL A   1      32.536  29.809  26.156  1.00  0.00     0.002 C 
BRANCH  22  23
ATOM     23  C   UNL A   1      31.402  30.712  25.657  1.00  0.00     0.002 C 
BRANCH  23  24
ATOM     24  C   UNL A   1      31.229  32.045  26.399  1.00  0.00     0.021 C 
BRANCH  24  25
ATOM     25  C   UNL A   1      32.442  32.518  27.200  1.00  0.00     0.116 C 
BRANCH  25  26
ATOM     26  N   UNL A   1      32.359  33.927  27.544  1.00  0.00    -0.352 N 
ATOM     27  C   UNL A   1      33.062  34.655  28.471  1.00  0.00     0.251 C 
ATOM     28  H   UNL A   1      31.693  34.440  27.032  1.00  0.00     0.163 HD
ATOM     29  O   UNL A   1      32.706  35.795  28.753  1.00  0.00    -0.269 OA
BRANCH  27  30
ATOM     30  C   UNL A   1      34.247  34.078  29.145  1.00  0.00     0.039 A 
ATOM     31  C   UNL A   1      34.054  33.087  30.112  1.00  0.00     0.014 A 
ATOM     32  C   UNL A   1      35.536  34.553  28.882  1.00  0.00     0.014 A 
ATOM     33  C   UNL A   1      35.151  32.534  30.777  1.00  0.00     0.010 A 
ATOM     34  C   UNL A   1      36.635  33.968  29.510  1.00  0.00     0.010 A 
ATOM     35  C   UNL A   1      36.454  32.956  30.465  1.00  0.00    -0.014 A 
BRANCH  35  36
ATOM     36  C   UNL A   1      37.634  32.357  31.138  1.00  0.00     0.031 A 
ATOM     37  C   UNL A   1      38.421  31.271  30.459  1.00  0.00     0.074 A 
ATOM     38  C   UNL A   1      37.963  32.747  32.383  1.00  0.00     0.049 A 
ATOM     39  N   UNL A   1      39.430  30.570  30.914  1.00  0.00    -0.248 NA
ATOM     40  C   UNL A   1      38.003  30.909  29.096  1.00  0.00     0.031 C 
ATOM     41  C   UNL A   1      37.259  33.764  33.164  1.00  0.00     0.029 A 
ATOM     42  N   UNL A   1      38.969  32.325  33.217  1.00  0.00    -0.354 N 
ATOM     43  C   UNL A   1      39.753  29.673  29.904  1.00  0.00     0.074 A 
ATOM     44  C   UNL A   1      38.812  29.893  28.826  1.00  0.00     0.031 C 
ATOM     45  C   UNL A   1      37.860  33.896  34.358  1.00  0.00     0.029 A 
ATOM     46  C   UNL A   1      38.974  32.955  34.436  1.00  0.00     0.049 A 
ATOM     47  H   UNL A   1      39.624  31.635  32.964  1.00  0.00     0.167 HD
ATOM     48  C   UNL A   1      40.753  28.760  29.874  1.00  0.00     0.037 A 
ATOM     49  C   UNL A   1      39.783  32.789  35.500  1.00  0.00     0.037 A 
ATOM     50  C   UNL A   1      41.712  28.565  30.929  1.00  0.00     0.049 A 
ATOM     51  C   UNL A   1      40.901  31.786  35.430  1.00  0.00     0.074 A 
ATOM     52  C   UNL A   1      42.795  27.703  30.965  1.00  0.00     0.029 A 
ATOM     53  N   UNL A   1      41.705  29.248  32.135  1.00  0.00    -0.354 N 
ATOM     54  N   UNL A   1      41.225  30.977  34.452  1.00  0.00    -0.248 NA
ATOM     55  C   UNL A   1      41.771  31.680  36.610  1.00  0.00     0.031 C 
ATOM     56  C   UNL A   1      43.427  27.846  32.205  1.00  0.00     0.029 A 
ATOM     57  C   UNL A   1      42.759  28.821  32.927  1.00  0.00     0.049 A 
ATOM     58  H   UNL A   1      41.049  29.937  32.390  1.00  0.00     0.167 HD
ATOM     59  C   UNL A   1      42.346  30.283  34.885  1.00  0.00     0.074 A 
ATOM     60  C   UNL A   1      42.654  30.774  36.213  1.00  0.00     0.031 C 
ATOM     61  C   UNL A   1      43.056  29.326  34.241  1.00  0.00     0.037 A 
BRANCH  48  62
ATOM     62  C   UNL A   1      40.863  27.898  28.651  1.00  0.00     0.064 A 
ATOM     63  C   UNL A   1      40.160  26.689  28.540  1.00  0.00     0.173 A 
ATOM     64  C   UNL A   1      41.653  28.301  27.564  1.00  0.00     0.173 A 
ATOM     65  F   UNL A   1      39.401  26.254  29.558  1.00  0.00    -0.203 F 
ATOM     66  C   UNL A   1      40.263  25.903  27.396  1.00  0.00     0.198 A 
ATOM     67  C   UNL A   1      41.734  27.525  26.411  1.00  0.00     0.198 A 
ATOM     68  F   UNL A   1      42.341  29.451  27.619  1.00  0.00    -0.203 F 
ATOM     69  F   UNL A   1      39.617  24.731  27.329  1.00  0.00    -0.200 F 
ATOM     70  C   UNL A   1      41.045  26.324  26.330  1.00  0.00     0.200 A 
ATOM     71  F   UNL A   1      42.484  27.938  25.379  1.00  0.00    -0.200 F 
ATOM     72  F   UNL A   1      41.140  25.569  25.228  1.00  0.00    -0.200 F 
ENDBRANCH  48  62
BRANCH  49  73
ATOM     73  C   UNL A   1      39.582  33.616  36.715  1.00  0.00     0.064 A 
ATOM     74  C   UNL A   1      40.172  34.883  36.825  1.00  0.00     0.173 A 
ATOM     75  C   UNL A   1      38.796  33.165  37.784  1.00  0.00     0.173 A 
ATOM     76  F   UNL A   1      40.949  35.346  35.835  1.00  0.00    -0.203 F 
ATOM     77  C   UNL A   1      39.995  35.662  37.966  1.00  0.00     0.198 A 
ATOM     78  C   UNL A   1      38.600  33.954  38.915  1.00  0.00     0.198 A 
ATOM     79  F   UNL A   1      38.206  31.962  37.722  1.00  0.00    -0.203 F 
ATOM     80  F   UNL A   1      40.598  36.854  38.060  1.00  0.00    -0.200 F 
ATOM     81  C   UNL A   1      39.205  35.199  39.008  1.00  0.00     0.200 A 
ATOM     82  F   UNL A   1      37.828  33.509  39.915  1.00  0.00    -0.200 F 
ATOM     83  F   UNL A   1      39.030  35.951  40.103  1.00  0.00    -0.200 F 
ENDBRANCH  49  73
BRANCH  61  84
ATOM     84  C   UNL A   1      44.253  28.767  34.950  1.00  0.00     0.064 A 
ATOM     85  C   UNL A   1      45.517  29.363  34.835  1.00  0.00     0.173 A 
ATOM     86  C   UNL A   1      44.124  27.645  35.782  1.00  0.00     0.173 A 
ATOM     87  F   UNL A   1      45.691  30.427  34.038  1.00  0.00    -0.203 F 
ATOM     88  C   UNL A   1      46.615  28.843  35.514  1.00  0.00     0.198 A 
ATOM     89  C   UNL A   1      45.220  27.142  36.478  1.00  0.00     0.198 A 
ATOM     90  F   UNL A   1      42.934  27.044  35.926  1.00  0.00    -0.203 F 
ATOM     91  F   UNL A   1      47.822  29.405  35.363  1.00  0.00    -0.200 F 
ATOM     92  C   UNL A   1      46.464  27.738  36.339  1.00  0.00     0.200 A 
ATOM     93  F   UNL A   1      45.071  26.079  37.280  1.00  0.00    -0.200 F 
ATOM     94  F   UNL A   1      47.522  27.241  36.996  1.00  0.00    -0.200 F 
ENDBRANCH  61  84
ENDBRANCH  35  36
ENDBRANCH  27  30
ENDBRANCH  25  26
ENDBRANCH  24  25
ENDBRANCH  23  24
ENDBRANCH  22  23
ENDBRANCH   1  22
TORSDOF 17
ENDMDL
MODEL 2
REMARK VINA RESULT:     -11.1      3.725      8.554
REMARK SMILES COc1ccc(Br)cc1S(=O)(=O)N(C)CC(=O)NCCCCCCNC(=O)c1ccc(-c2c3nc(c(-c4c(F)c(F)c(F)c(F)c4F)c4ccc([nH]4)c(-c4c(F)c(F)c(F)c(F)c4F)c4nc(c(-c5c(F)c(F)c(F)c(F)c5F)c5ccc2[nH]5)C=C4)C=C3)cc1
REMARK SMILES IDX 20 1 19 2 18 3 16 4 17 5 15 7 13 8 14 9 10 10 11 11 12 12
REMARK SMILES IDX 9 13 3 14 4 15 5 16 8 17 6 18 7 19 2 20 1 21 21 22 22 23
REMARK SMILES IDX 23 24 24 25 25 26 26 27 27 29 28 30 29 31 90 32 30 33 89 34
REMARK SMILES IDX 31 35 32 36 33 37 83 38 34 39 88 40 82 41 84 42 35 43 87 44
REMARK SMILES IDX 81 45 80 46 36 48 68 49 48 50 67 51 49 52 52 53 66 54 85 55
REMARK SMILES IDX 50 56 51 57 65 59 86 60 53 61 37 62 38 63 46 64 39 65 40 66
REMARK SMILES IDX 44 67 47 68 41 69 42 70 45 71 43 72 69 73 70 74 78 75 71 76
REMARK SMILES IDX 72 77 76 78 79 79 73 80 74 81 77 82 75 83 54 84 55 85 63 86
REMARK SMILES IDX 56 87 57 88 61 89 64 90 58 91 59 92 62 93 60 94
REMARK H PARENT 18 6 25 28 84 47 52 58
REMARK Flexibility Score: inf
ROOT
ATOM      1  C   UNL A   1      31.424  26.257  25.882  1.00  0.00     0.021 C 
ENDROOT
BRANCH   1   2
ATOM      2  C   UNL A   1      30.088  25.580  25.556  1.00  0.00     0.116 C 
BRANCH   2   3
ATOM      3  N   UNL A   1      29.664  24.682  26.612  1.00  0.00    -0.355 N 
ATOM      4  C   UNL A   1      29.913  23.354  26.821  1.00  0.00     0.235 C 
ATOM      5  O   UNL A   1      29.448  22.856  27.850  1.00  0.00    -0.274 OA
ATOM      6  H   UNL A   1      29.097  25.101  27.298  1.00  0.00     0.163 HD
BRANCH   4   7
ATOM      7  C   UNL A   1      30.768  22.525  25.859  1.00  0.00     0.202 C 
BRANCH   7   8
ATOM      8  N   UNL A   1      32.075  21.970  26.358  1.00  0.00    -0.191 NA
ATOM      9  C   UNL A   1      32.831  22.950  27.136  1.00  0.00     0.125 C 
BRANCH   8  10
ATOM     10  S   UNL A   1      32.877  21.027  25.194  1.00  0.00     0.247 S 
ATOM     11  O   UNL A   1      32.012  21.002  24.028  1.00  0.00    -0.207 OA
ATOM     12  O   UNL A   1      33.259  19.800  25.860  1.00  0.00    -0.207 OA
BRANCH  10  13
ATOM     13  C   UNL A   1      34.404  21.719  24.588  1.00  0.00     0.125 A 
ATOM     14  C   UNL A   1      34.587  22.804  23.728  1.00  0.00     0.138 A 
ATOM     15  C   UNL A   1      35.894  23.118  23.304  1.00  0.00     0.049 A 
ATOM     16  C   UNL A   1      36.996  22.357  23.698  1.00  0.00     0.019 A 
ATOM     17  C   UNL A   1      35.532  20.972  25.006  1.00  0.00     0.041 A 
ATOM     18  C   UNL A   1      36.810  21.286  24.557  1.00  0.00     0.019 A 
ATOM     19  Br  UNL A   1      38.289  20.251  25.109  1.00  0.00    -0.051 Br
BRANCH  14  20
ATOM     20  O   UNL A   1      33.545  23.598  23.350  1.00  0.00    -0.495 OA
ATOM     21  C   UNL A   1      33.827  25.003  23.345  1.00  0.00     0.278 C 
ENDBRANCH  14  20
ENDBRANCH  10  13
ENDBRANCH   8  10
ENDBRANCH   7   8
ENDBRANCH   4   7
ENDBRANCH   2   3
ENDBRANCH   1   2
BRANCH   1  22
ATOM     22  C   UNL A   1      31.292  27.561  26.672  1.00  0.00     0.002 C 
BRANCH  22  23
ATOM     23  C   UNL A   1      31.911  28.787  25.990  1.00  0.00     0.002 C 
BRANCH  23  24
ATOM     24  C   UNL A   1      33.430  28.740  25.773  1.00  0.00     0.021 C 
BRANCH  24  25
ATOM     25  C   UNL A   1      34.281  28.855  27.037  1.00  0.00     0.116 C 
BRANCH  25  26
ATOM     26  N   UNL A   1      34.104  30.133  27.705  1.00  0.00    -0.352 N 
ATOM     27  C   UNL A   1      34.913  30.783  28.603  1.00  0.00     0.251 C 
ATOM     28  H   UNL A   1      33.272  30.607  27.479  1.00  0.00     0.163 HD
ATOM     29  O   UNL A   1      34.493  31.764  29.209  1.00  0.00    -0.269 OA
BRANCH  27  30
ATOM     30  C   UNL A   1      36.293  30.309  28.859  1.00  0.00     0.039 A 
ATOM     31  C   UNL A   1      37.271  30.532  27.886  1.00  0.00     0.014 A 
ATOM     32  C   UNL A   1      36.612  29.592  30.016  1.00  0.00     0.014 A 
ATOM     33  C   UNL A   1      38.578  30.084  28.092  1.00  0.00     0.010 A 
ATOM     34  C   UNL A   1      37.926  29.187  30.245  1.00  0.00     0.010 A 
ATOM     35  C   UNL A   1      38.921  29.425  29.284  1.00  0.00    -0.014 A 
BRANCH  35  36
ATOM     36  C   UNL A   1      40.312  28.971  29.535  1.00  0.00     0.031 A 
ATOM     37  C   UNL A   1      41.268  29.847  30.296  1.00  0.00     0.074 A 
ATOM     38  C   UNL A   1      40.734  27.798  29.027  1.00  0.00     0.049 A 
ATOM     39  N   UNL A   1      42.540  29.663  30.547  1.00  0.00    -0.248 NA
ATOM     40  C   UNL A   1      40.727  31.108  30.825  1.00  0.00     0.031 C 
ATOM     41  C   UNL A   1      39.916  26.875  28.240  1.00  0.00     0.029 A 
ATOM     42  N   UNL A   1      41.962  27.187  29.087  1.00  0.00    -0.354 N 
ATOM     43  C   UNL A   1      42.955  30.790  31.243  1.00  0.00     0.074 A 
ATOM     44  C   UNL A   1      41.810  31.670  31.346  1.00  0.00     0.031 C 
ATOM     45  C   UNL A   1      40.660  25.810  27.901  1.00  0.00     0.029 A 
ATOM     46  C   UNL A   1      42.013  25.987  28.422  1.00  0.00     0.049 A 
ATOM     47  H   UNL A   1      42.733  27.573  29.562  1.00  0.00     0.167 HD
ATOM     48  C   UNL A   1      44.177  31.061  31.762  1.00  0.00     0.037 A 
ATOM     49  C   UNL A   1      43.036  25.129  28.248  1.00  0.00     0.037 A 
ATOM     50  C   UNL A   1      45.307  30.172  31.694  1.00  0.00     0.049 A 
ATOM     51  C   UNL A   1      44.374  25.442  28.857  1.00  0.00     0.074 A 
ATOM     52  C   UNL A   1      46.569  30.334  32.240  1.00  0.00     0.029 A 
ATOM     53  N   UNL A   1      45.308  28.948  31.042  1.00  0.00    -0.354 N 
ATOM     54  N   UNL A   1      44.742  26.489  29.553  1.00  0.00    -0.248 NA
ATOM     55  C   UNL A   1      45.439  24.447  28.662  1.00  0.00     0.031 C 
ATOM     56  C   UNL A   1      47.342  29.220  31.894  1.00  0.00     0.029 A 
ATOM     57  C   UNL A   1      46.551  28.349  31.163  1.00  0.00     0.049 A 
ATOM     58  H   UNL A   1      44.538  28.562  30.565  1.00  0.00     0.167 HD
ATOM     59  C   UNL A   1      46.068  26.272  29.900  1.00  0.00     0.074 A 
ATOM     60  C   UNL A   1      46.439  24.986  29.346  1.00  0.00     0.031 C 
ATOM     61  C   UNL A   1      46.901  27.066  30.614  1.00  0.00     0.037 A 
BRANCH  48  62
ATOM     62  C   UNL A   1      44.355  32.378  32.458  1.00  0.00     0.064 A 
ATOM     63  C   UNL A   1      44.738  33.531  31.757  1.00  0.00     0.173 A 
ATOM     64  C   UNL A   1      44.108  32.496  33.833  1.00  0.00     0.173 A 
ATOM     65  F   UNL A   1      44.999  33.466  30.443  1.00  0.00    -0.203 F 
ATOM     66  C   UNL A   1      44.890  34.750  32.413  1.00  0.00     0.198 A 
ATOM     67  C   UNL A   1      44.236  33.721  34.482  1.00  0.00     0.198 A 
ATOM     68  F   UNL A   1      43.735  31.423  34.548  1.00  0.00    -0.203 F 
ATOM     69  F   UNL A   1      45.298  35.829  31.732  1.00  0.00    -0.200 F 
ATOM     70  C   UNL A   1      44.633  34.845  33.773  1.00  0.00     0.200 A 
ATOM     71  F   UNL A   1      43.980  33.813  35.794  1.00  0.00    -0.200 F 
ATOM     72  F   UNL A   1      44.777  36.019  34.402  1.00  0.00    -0.200 F 
ENDBRANCH  48  62
BRANCH  49  73
ATOM     73  C   UNL A   1      42.824  23.874  27.485  1.00  0.00     0.064 A 
ATOM     74  C   UNL A   1      43.152  23.799  26.125  1.00  0.00     0.173 A 
ATOM     75  C   UNL A   1      42.298  22.729  28.097  1.00  0.00     0.173 A 
ATOM     76  F   UNL A   1      43.640  24.877  25.494  1.00  0.00    -0.203 F 
ATOM     77  C   UNL A   1      42.949  22.627  25.400  1.00  0.00     0.198 A 
ATOM     78  C   UNL A   1      42.115  21.550  27.378  1.00  0.00     0.198 A 
ATOM     79  F   UNL A   1      41.973  22.752  29.398  1.00  0.00    -0.203 F 
ATOM     80  F   UNL A   1      43.239  22.591  24.093  1.00  0.00    -0.200 F 
ATOM     81  C   UNL A   1      42.435  21.501  26.029  1.00  0.00     0.200 A 
ATOM     82  F   UNL A   1      41.629  20.462  27.990  1.00  0.00    -0.200 F 
ATOM     83  F   UNL A   1      42.244  20.373  25.333  1.00  0.00    -0.200 F 
ENDBRANCH  49  73
BRANCH  61  84
ATOM     84  C   UNL A   1      48.289  26.555  30.861  1.00  0.00     0.064 A 
ATOM     85  C   UNL A   1      49.347  26.860  29.993  1.00  0.00     0.173 A 
ATOM     86  C   UNL A   1      48.569  25.783  31.998  1.00  0.00     0.173 A 
ATOM     87  F   UNL A   1      49.124  27.581  28.884  1.00  0.00    -0.203 F 
ATOM     88  C   UNL A   1      50.634  26.393  30.245  1.00  0.00     0.198 A 
ATOM     89  C   UNL A   1      49.861  25.337  32.259  1.00  0.00     0.198 A 
ATOM     90  F   UNL A   1      47.590  25.469  32.858  1.00  0.00    -0.203 F 
ATOM     91  F   UNL A   1      51.624  26.665  29.385  1.00  0.00    -0.200 F 
ATOM     92  C   UNL A   1      50.891  25.638  31.380  1.00  0.00     0.200 A 
ATOM     93  F   UNL A   1      50.109  24.614  33.359  1.00  0.00    -0.200 F 
ATOM     94  F   UNL A   1      52.132  25.193  31.624  1.00  0.00    -0.200 F 
ENDBRANCH  61  84
ENDBRANCH  35  36
ENDBRANCH  27  30
ENDBRANCH  25  26
ENDBRANCH  24  25
ENDBRANCH  23  24
ENDBRANCH  22  23
ENDBRANCH   1  22
TORSDOF 17
ENDMDL
MODEL 3
REMARK VINA RESULT:     -11.0      5.422     11.037
REMARK SMILES COc1ccc(Br)cc1S(=O)(=O)N(C)CC(=O)NCCCCCCNC(=O)c1ccc(-c2c3nc(c(-c4c(F)c(F)c(F)c(F)c4F)c4ccc([nH]4)c(-c4c(F)c(F)c(F)c(F)c4F)c4nc(c(-c5c(F)c(F)c(F)c(F)c5F)c5ccc2[nH]5)C=C4)C=C3)cc1
REMARK SMILES IDX 20 1 19 2 18 3 16 4 17 5 15 7 13 8 14 9 10 10 11 11 12 12
REMARK SMILES IDX 9 13 3 14 4 15 5 16 8 17 6 18 7 19 2 20 1 21 21 22 22 23
REMARK SMILES IDX 23 24 24 25 25 26 26 27 27 29 28 30 29 31 90 32 30 33 89 34
REMARK SMILES IDX 31 35 32 36 33 37 83 38 34 39 88 40 82 41 84 42 35 43 87 44
REMARK SMILES IDX 81 45 80 46 36 48 68 49 48 50 67 51 49 52 52 53 66 54 85 55
REMARK SMILES IDX 50 56 51 57 65 59 86 60 53 61 37 62 38 63 46 64 39 65 40 66
REMARK SMILES IDX 44 67 47 68 41 69 42 70 45 71 43 72 69 73 70 74 78 75 71 76
REMARK SMILES IDX 72 77 76 78 79 79 73 80 74 81 77 82 75 83 54 84 55 85 63 86
REMARK SMILES IDX 56 87 57 88 61 89 64 90 58 91 59 92 62 93 60 94
REMARK H PARENT 18 6 25 28 84 47 52 58
REMARK Flexibility Score: inf
ROOT
ATOM      1  C   UNL A   1      37.580  22.577  25.484  1.00  0.00     0.021 C 
ENDROOT
BRANCH   1   2
ATOM      2  C   UNL A   1      36.477  23.574  25.857  1.00  0.00     0.116 C 
BRANCH   2   3
ATOM      3  N   UNL A   1      35.389  22.936  26.570  1.00  0.00    -0.355 N 
ATOM      4  C   UNL A   1      34.087  23.310  26.752  1.00  0.00     0.235 C 
ATOM      5  O   UNL A   1      33.365  22.529  27.379  1.00  0.00    -0.274 OA
ATOM      6  H   UNL A   1      35.629  22.083  26.998  1.00  0.00     0.163 HD
BRANCH   4   7
ATOM      7  C   UNL A   1      33.524  24.609  26.169  1.00  0.00     0.202 C 
BRANCH   7   8
ATOM      8  N   UNL A   1      32.643  24.526  24.952  1.00  0.00    -0.191 NA
ATOM      9  C   UNL A   1      33.392  24.722  23.712  1.00  0.00     0.125 C 
BRANCH   8  10
ATOM     10  S   UNL A   1      31.152  25.315  25.163  1.00  0.00     0.247 S 
ATOM     11  O   UNL A   1      30.790  25.127  26.556  1.00  0.00    -0.207 OA
ATOM     12  O   UNL A   1      30.289  24.841  24.102  1.00  0.00    -0.207 OA
BRANCH  10  13
ATOM     13  C   UNL A   1      31.204  27.085  24.962  1.00  0.00     0.125 A 
ATOM     14  C   UNL A   1      31.924  28.025  25.704  1.00  0.00     0.138 A 
ATOM     15  C   UNL A   1      31.737  29.394  25.425  1.00  0.00     0.049 A 
ATOM     16  C   UNL A   1      30.834  29.827  24.452  1.00  0.00     0.019 A 
ATOM     17  C   UNL A   1      30.314  27.535  23.957  1.00  0.00     0.041 A 
ATOM     18  C   UNL A   1      30.128  28.891  23.714  1.00  0.00     0.019 A 
ATOM     19  Br  UNL A   1      28.911  29.458  22.387  1.00  0.00    -0.051 Br
BRANCH  14  20
ATOM     20  O   UNL A   1      32.844  27.645  26.635  1.00  0.00    -0.495 OA
ATOM     21  C   UNL A   1      34.004  28.482  26.713  1.00  0.00     0.278 C 
ENDBRANCH  14  20
ENDBRANCH  10  13
ENDBRANCH   8  10
ENDBRANCH   7   8
ENDBRANCH   4   7
ENDBRANCH   2   3
ENDBRANCH   1   2
BRANCH   1  22
ATOM     22  C   UNL A   1      37.177  21.566  24.408  1.00  0.00     0.002 C 
BRANCH  22  23
ATOM     23  C   UNL A   1      37.024  20.125  24.910  1.00  0.00     0.002 C 
BRANCH  23  24
ATOM     24  C   UNL A   1      38.305  19.280  24.927  1.00  0.00     0.021 C 
BRANCH  24  25
ATOM     25  C   UNL A   1      39.363  19.705  25.945  1.00  0.00     0.116 C 
BRANCH  25  26
ATOM     26  N   UNL A   1      40.513  18.818  25.945  1.00  0.00    -0.352 N 
ATOM     27  C   UNL A   1      41.853  19.105  26.021  1.00  0.00     0.251 C 
ATOM     28  H   UNL A   1      40.298  17.860  25.882  1.00  0.00     0.163 HD
ATOM     29  O   UNL A   1      42.682  18.226  25.805  1.00  0.00    -0.269 OA
BRANCH  27  30
ATOM     30  C   UNL A   1      42.317  20.472  26.354  1.00  0.00     0.039 A 
ATOM     31  C   UNL A   1      42.794  21.288  25.324  1.00  0.00     0.014 A 
ATOM     32  C   UNL A   1      42.348  20.927  27.676  1.00  0.00     0.014 A 
ATOM     33  C   UNL A   1      43.252  22.577  25.609  1.00  0.00     0.010 A 
ATOM     34  C   UNL A   1      42.760  22.230  27.954  1.00  0.00     0.010 A 
ATOM     35  C   UNL A   1      43.219  23.066  26.925  1.00  0.00    -0.014 A 
BRANCH  35  36
ATOM     36  C   UNL A   1      43.671  24.444  27.242  1.00  0.00     0.031 A 
ATOM     37  C   UNL A   1      42.700  25.451  27.790  1.00  0.00     0.074 A 
ATOM     38  C   UNL A   1      44.941  24.808  26.980  1.00  0.00     0.049 A 
ATOM     39  N   UNL A   1      42.883  26.722  28.053  1.00  0.00    -0.248 NA
ATOM     40  C   UNL A   1      41.335  24.973  28.057  1.00  0.00     0.031 C 
ATOM     41  C   UNL A   1      45.970  23.935  26.414  1.00  0.00     0.029 A 
ATOM     42  N   UNL A   1      45.579  26.012  27.145  1.00  0.00    -0.354 N 
ATOM     43  C   UNL A   1      41.656  27.197  28.495  1.00  0.00     0.074 A 
ATOM     44  C   UNL A   1      40.725  26.089  28.433  1.00  0.00     0.031 C 
ATOM     45  C   UNL A   1      47.113  24.629  26.289  1.00  0.00     0.029 A 
ATOM     46  C   UNL A   1      46.891  26.000  26.741  1.00  0.00     0.049 A 
ATOM     47  H   UNL A   1      45.137  26.809  27.517  1.00  0.00     0.167 HD
ATOM     48  C   UNL A   1      41.337  28.441  28.928  1.00  0.00     0.037 A 
ATOM     49  C   UNL A   1      47.809  26.984  26.731  1.00  0.00     0.037 A 
ATOM     50  C   UNL A   1      42.269  29.533  29.025  1.00  0.00     0.049 A 
ATOM     51  C   UNL A   1      47.436  28.349  27.241  1.00  0.00     0.074 A 
ATOM     52  C   UNL A   1      42.052  30.814  29.506  1.00  0.00     0.029 A 
ATOM     53  N   UNL A   1      43.599  29.471  28.640  1.00  0.00    -0.354 N 
ATOM     54  N   UNL A   1      46.285  28.774  27.700  1.00  0.00    -0.248 NA
ATOM     55  C   UNL A   1      48.495  29.369  27.238  1.00  0.00     0.031 C 
ATOM     56  C   UNL A   1      43.246  31.534  29.385  1.00  0.00     0.029 A 
ATOM     57  C   UNL A   1      44.213  30.692  28.862  1.00  0.00     0.049 A 
ATOM     58  H   UNL A   1      44.042  28.675  28.265  1.00  0.00     0.167 HD
ATOM     59  C   UNL A   1      46.483  30.098  28.062  1.00  0.00     0.074 A 
ATOM     60  C   UNL A   1      47.870  30.406  27.779  1.00  0.00     0.031 C 
ATOM     61  C   UNL A   1      45.596  30.979  28.583  1.00  0.00     0.037 A 
BRANCH  48  62
ATOM     62  C   UNL A   1      39.914  28.687  29.334  1.00  0.00     0.064 A 
ATOM     63  C   UNL A   1      39.477  28.461  30.647  1.00  0.00     0.173 A 
ATOM     64  C   UNL A   1      38.986  29.187  28.409  1.00  0.00     0.173 A 
ATOM     65  F   UNL A   1      40.325  27.972  31.565  1.00  0.00    -0.203 F 
ATOM     66  C   UNL A   1      38.157  28.704  31.014  1.00  0.00     0.198 A 
ATOM     67  C   UNL A   1      37.672  29.452  28.785  1.00  0.00     0.198 A 
ATOM     68  F   UNL A   1      39.356  29.424  27.141  1.00  0.00    -0.203 F 
ATOM     69  F   UNL A   1      37.750  28.441  32.263  1.00  0.00    -0.200 F 
ATOM     70  C   UNL A   1      37.257  29.205  30.085  1.00  0.00     0.200 A 
ATOM     71  F   UNL A   1      36.806  29.943  27.887  1.00  0.00    -0.200 F 
ATOM     72  F   UNL A   1      35.987  29.441  30.440  1.00  0.00    -0.200 F 
ENDBRANCH  48  62
BRANCH  49  73
ATOM     73  C   UNL A   1      49.184  26.705  26.247  1.00  0.00     0.064 A 
ATOM     74  C   UNL A   1      49.542  26.967  24.918  1.00  0.00     0.173 A 
ATOM     75  C   UNL A   1      50.164  26.179  27.098  1.00  0.00     0.173 A 
ATOM     76  F   UNL A   1      48.630  27.452  24.062  1.00  0.00    -0.203 F 
ATOM     77  C   UNL A   1      50.828  26.700  24.454  1.00  0.00     0.198 A 
ATOM     78  C   UNL A   1      51.457  25.934  26.640  1.00  0.00     0.198 A 
ATOM     79  F   UNL A   1      49.870  25.917  28.380  1.00  0.00    -0.203 F 
ATOM     80  F   UNL A   1      51.135  26.928  23.170  1.00  0.00    -0.200 F 
ATOM     81  C   UNL A   1      51.786  26.189  25.317  1.00  0.00     0.200 A 
ATOM     82  F   UNL A   1      52.383  25.449  27.479  1.00  0.00    -0.200 F 
ATOM     83  F   UNL A   1      53.024  25.936  24.872  1.00  0.00    -0.200 F 
ENDBRANCH  49  73
BRANCH  61  84
ATOM     84  C   UNL A   1      46.104  32.352  28.907  1.00  0.00     0.064 A 
ATOM     85  C   UNL A   1      46.666  32.649  30.157  1.00  0.00     0.173 A 
ATOM     86  C   UNL A   1      46.060  33.371  27.944  1.00  0.00     0.173 A 
ATOM     87  F   UNL A   1      46.714  31.710  31.115  1.00  0.00    -0.203 F 
ATOM     88  C   UNL A   1      47.151  33.923  30.437  1.00  0.00     0.198 A 
ATOM     89  C   UNL A   1      46.566  34.638  28.220  1.00  0.00     0.198 A 
ATOM     90  F   UNL A   1      45.535  33.133  26.733  1.00  0.00    -0.203 F 
ATOM     91  F   UNL A   1      47.652  34.196  31.649  1.00  0.00    -0.200 F 
ATOM     92  C   UNL A   1      47.106  34.914  29.467  1.00  0.00     0.200 A 
ATOM     93  F   UNL A   1      46.529  35.592  27.280  1.00  0.00    -0.200 F 
ATOM     94  F   UNL A   1      47.577  36.139  29.738  1.00  0.00    -0.200 F 
ENDBRANCH  61  84
ENDBRANCH  35  36
ENDBRANCH  27  30
ENDBRANCH  25  26
ENDBRANCH  24  25
ENDBRANCH  23  24
ENDBRANCH  22  23
ENDBRANCH   1  22
TORSDOF 17
ENDMDL
