MODEL 1
REMARK VINA RESULT:     -11.8      0.000      0.000
REMARK SMILES Cn1ccnc(N[C@H]2C=C[C@H](C(=O)NCCCCCCNC(=O)c3ccc(-c4c5nc(c(-c6c(F)c(F)c(F)c(F)c6F)c6ccc([nH]6)c(-c6c(F)c(F)c(F)c(F)c6F)c6nc(c(-c7c(F)c(F)c(F)c(F)c7F)c7ccc4[nH]7)C=C6)C=C5)cc3)C2)c1=O
REMARK SMILES IDX 17 1 16 2 15 3 14 4 12 5 13 6 11 8 8 9 9 10 87 11 10 12 7 13
REMARK SMILES IDX 6 15 1 16 2 17 3 18 88 19 4 20 89 21 5 22 18 23 19 24 20 25
REMARK SMILES IDX 21 26 22 27 23 29 24 30 25 31 86 32 26 33 85 34 27 35 28 36
REMARK SMILES IDX 29 37 79 38 30 39 84 40 78 41 80 42 31 43 83 44 77 45 76 46
REMARK SMILES IDX 32 48 64 49 44 50 63 51 45 52 48 53 62 54 81 55 46 56 47 57
REMARK SMILES IDX 61 59 82 60 49 61 33 62 34 63 42 64 35 65 36 66 40 67 43 68
REMARK SMILES IDX 37 69 38 70 41 71 39 72 65 73 66 74 74 75 67 76 68 77 72 78
REMARK SMILES IDX 75 79 69 80 70 81 73 82 71 83 50 84 51 85 59 86 52 87 53 88
REMARK SMILES IDX 57 89 60 90 54 91 55 92 58 93 56 94
REMARK H PARENT 14 7 7 14 21 28 80 47 48 58
REMARK Flexibility Score: inf
ROOT
ATOM      1  C   UNL A   1      31.914  29.719  26.939  1.00  0.00     0.002 C 
ENDROOT
BRANCH   1   2
ATOM      2  C   UNL A   1      33.420  29.486  27.083  1.00  0.00     0.021 C 
BRANCH   2   3
ATOM      3  C   UNL A   1      33.983  28.405  26.167  1.00  0.00     0.116 C 
BRANCH   3   4
ATOM      4  N   UNL A   1      34.238  28.903  24.827  1.00  0.00    -0.356 N 
ATOM      5  C   UNL A   1      33.721  28.450  23.641  1.00  0.00     0.227 C 
ATOM      6  O   UNL A   1      33.997  29.061  22.609  1.00  0.00    -0.274 OA
ATOM      7  H   UNL A   1      34.861  29.661  24.761  1.00  0.00     0.163 HD
BRANCH   5   8
ATOM      8  C   UNL A   1      32.829  27.217  23.679  1.00  0.00     0.103 C 
ATOM      9  C   UNL A   1      32.865  25.382  22.052  1.00  0.00     0.104 C 
ATOM     10  C   UNL A   1      31.761  26.331  21.766  1.00  0.00    -0.006 C 
ATOM     11  C   UNL A   1      33.548  25.905  23.315  1.00  0.00     0.046 C 
ATOM     12  C   UNL A   1      31.750  27.345  22.635  1.00  0.00    -0.016 C 
BRANCH   9  13
ATOM     13  N   UNL A   1      32.388  24.030  22.147  1.00  0.00    -0.359 N 
ATOM     14  H   UNL A   1      32.185  23.626  21.273  1.00  0.00     0.162 HD
BRANCH  13  15
ATOM     15  C   UNL A   1      32.154  23.182  23.206  1.00  0.00     0.193 A 
ATOM     16  C   UNL A   1      30.325  22.707  26.553  1.00  0.00     0.153 C 
ATOM     17  N   UNL A   1      31.166  22.493  25.394  1.00  0.00    -0.314 N 
ATOM     18  C   UNL A   1      31.912  21.351  25.259  1.00  0.00     0.109 A 
ATOM     19  C   UNL A   1      31.197  23.480  24.411  1.00  0.00     0.293 A 
ATOM     20  C   UNL A   1      32.682  21.165  24.182  1.00  0.00     0.131 A 
ATOM     21  O   UNL A   1      30.529  24.503  24.486  1.00  0.00    -0.265 OA
ATOM     22  N   UNL A   1      32.822  22.051  23.149  1.00  0.00    -0.233 NA
ENDBRANCH  13  15
ENDBRANCH   9  13
ENDBRANCH   5   8
ENDBRANCH   3   4
ENDBRANCH   2   3
ENDBRANCH   1   2
BRANCH   1  23
ATOM     23  C   UNL A   1      31.517  30.792  25.922  1.00  0.00     0.002 C 
BRANCH  23  24
ATOM     24  C   UNL A   1      31.334  32.197  26.499  1.00  0.00     0.021 C 
BRANCH  24  25
ATOM     25  C   UNL A   1      32.537  32.731  27.266  1.00  0.00     0.116 C 
BRANCH  25  26
ATOM     26  N   UNL A   1      32.375  34.124  27.652  1.00  0.00    -0.352 N 
ATOM     27  C   UNL A   1      33.032  34.841  28.619  1.00  0.00     0.251 C 
ATOM     28  H   UNL A   1      31.695  34.624  27.144  1.00  0.00     0.163 HD
ATOM     29  O   UNL A   1      32.645  35.963  28.930  1.00  0.00    -0.269 OA
BRANCH  27  30
ATOM     30  C   UNL A   1      34.196  34.246  29.308  1.00  0.00     0.039 A 
ATOM     31  C   UNL A   1      33.974  33.397  30.394  1.00  0.00     0.014 A 
ATOM     32  C   UNL A   1      35.499  34.522  28.884  1.00  0.00     0.014 A 
ATOM     33  C   UNL A   1      35.057  32.776  31.017  1.00  0.00     0.010 A 
ATOM     34  C   UNL A   1      36.571  33.841  29.454  1.00  0.00     0.010 A 
ATOM     35  C   UNL A   1      36.362  32.964  30.529  1.00  0.00    -0.014 A 
BRANCH  35  36
ATOM     36  C   UNL A   1      37.517  32.248  31.130  1.00  0.00     0.031 A 
ATOM     37  C   UNL A   1      38.012  32.626  32.498  1.00  0.00     0.074 A 
ATOM     38  C   UNL A   1      38.154  31.298  30.419  1.00  0.00     0.049 A 
ATOM     39  N   UNL A   1      39.039  32.162  33.165  1.00  0.00    -0.248 NA
ATOM     40  C   UNL A   1      37.270  33.684  33.203  1.00  0.00     0.031 C 
ATOM     41  C   UNL A   1      37.796  30.874  29.064  1.00  0.00     0.029 A 
ATOM     42  N   UNL A   1      39.243  30.523  30.733  1.00  0.00    -0.354 N 
ATOM     43  C   UNL A   1      39.072  32.875  34.355  1.00  0.00     0.074 A 
ATOM     44  C   UNL A   1      37.999  33.845  34.297  1.00  0.00     0.031 C 
ATOM     45  C   UNL A   1      38.634  29.901  28.672  1.00  0.00     0.029 A 
ATOM     46  C   UNL A   1      39.613  29.662  29.728  1.00  0.00     0.049 A 
ATOM     47  H   UNL A   1      39.714  30.578  31.595  1.00  0.00     0.167 HD
ATOM     48  C   UNL A   1      39.907  32.721  35.410  1.00  0.00     0.037 A 
ATOM     49  C   UNL A   1      40.635  28.788  29.660  1.00  0.00     0.037 A 
ATOM     50  C   UNL A   1      40.962  31.742  35.471  1.00  0.00     0.049 A 
ATOM     51  C   UNL A   1      41.562  28.652  30.840  1.00  0.00     0.074 A 
ATOM     52  C   UNL A   1      41.825  31.468  36.517  1.00  0.00     0.029 A 
ATOM     53  N   UNL A   1      41.301  30.882  34.436  1.00  0.00    -0.354 N 
ATOM     54  N   UNL A   1      41.539  29.282  31.989  1.00  0.00    -0.248 NA
ATOM     55  C   UNL A   1      42.653  27.676  30.715  1.00  0.00     0.031 C 
ATOM     56  C   UNL A   1      42.725  30.484  36.095  1.00  0.00     0.029 A 
ATOM     57  C   UNL A   1      42.381  30.096  34.811  1.00  0.00     0.049 A 
ATOM     58  H   UNL A   1      40.844  30.835  33.566  1.00  0.00     0.167 HD
ATOM     59  C   UNL A   1      42.587  28.757  32.734  1.00  0.00     0.074 A 
ATOM     60  C   UNL A   1      43.216  27.745  31.912  1.00  0.00     0.031 C 
ATOM     61  C   UNL A   1      42.992  29.085  33.985  1.00  0.00     0.037 A 
BRANCH  48  62
ATOM     62  C   UNL A   1      39.717  33.630  36.591  1.00  0.00     0.064 A 
ATOM     63  C   UNL A   1      40.340  34.885  36.664  1.00  0.00     0.173 A 
ATOM     64  C   UNL A   1      38.861  33.263  37.641  1.00  0.00     0.173 A 
ATOM     65  F   UNL A   1      41.176  35.282  35.692  1.00  0.00    -0.203 F 
ATOM     66  C   UNL A   1      40.138  35.725  37.756  1.00  0.00     0.198 A 
ATOM     67  C   UNL A   1      38.633  34.120  38.715  1.00  0.00     0.198 A 
ATOM     68  F   UNL A   1      38.233  32.078  37.620  1.00  0.00    -0.203 F 
ATOM     69  F   UNL A   1      40.784  36.897  37.827  1.00  0.00    -0.200 F 
ATOM     70  C   UNL A   1      39.278  35.346  38.776  1.00  0.00     0.200 A 
ATOM     71  F   UNL A   1      37.790  33.759  39.691  1.00  0.00    -0.200 F 
ATOM     72  F   UNL A   1      39.074  36.161  39.821  1.00  0.00    -0.200 F 
ENDBRANCH  48  62
BRANCH  49  73
ATOM     73  C   UNL A   1      40.833  27.962  28.439  1.00  0.00     0.064 A 
ATOM     74  C   UNL A   1      40.264  26.686  28.330  1.00  0.00     0.173 A 
ATOM     75  C   UNL A   1      41.610  28.422  27.364  1.00  0.00     0.173 A 
ATOM     76  F   UNL A   1      39.530  26.192  29.338  1.00  0.00    -0.203 F 
ATOM     77  C   UNL A   1      40.487  25.890  27.207  1.00  0.00     0.198 A 
ATOM     78  C   UNL A   1      41.804  27.640  26.228  1.00  0.00     0.198 A 
ATOM     79  F   UNL A   1      42.172  29.639  27.415  1.00  0.00    -0.203 F 
ATOM     80  F   UNL A   1      39.978  24.652  27.155  1.00  0.00    -0.200 F 
ATOM     81  C   UNL A   1      41.252  26.370  26.155  1.00  0.00     0.200 A 
ATOM     82  F   UNL A   1      42.530  28.115  25.207  1.00  0.00    -0.200 F 
ATOM     83  F   UNL A   1      41.466  25.605  25.076  1.00  0.00    -0.200 F 
ENDBRANCH  49  73
BRANCH  61  84
ATOM     84  C   UNL A   1      44.143  28.312  34.563  1.00  0.00     0.064 A 
ATOM     85  C   UNL A   1      45.467  28.764  34.456  1.00  0.00     0.173 A 
ATOM     86  C   UNL A   1      43.912  27.121  35.270  1.00  0.00     0.173 A 
ATOM     87  F   UNL A   1      45.743  29.890  33.781  1.00  0.00    -0.203 F 
ATOM     88  C   UNL A   1      46.518  28.037  35.008  1.00  0.00     0.198 A 
ATOM     89  C   UNL A   1      44.962  26.416  35.852  1.00  0.00     0.198 A 
ATOM     90  F   UNL A   1      42.665  26.647  35.409  1.00  0.00    -0.203 F 
ATOM     91  F   UNL A   1      47.780  28.460  34.847  1.00  0.00    -0.200 F 
ATOM     92  C   UNL A   1      46.265  26.869  35.712  1.00  0.00     0.200 A 
ATOM     93  F   UNL A   1      44.713  25.297  36.546  1.00  0.00    -0.200 F 
ATOM     94  F   UNL A   1      47.277  26.177  36.251  1.00  0.00    -0.200 F 
ENDBRANCH  61  84
ENDBRANCH  35  36
ENDBRANCH  27  30
ENDBRANCH  25  26
ENDBRANCH  24  25
ENDBRANCH  23  24
ENDBRANCH   1  23
TORSDOF 15
ENDMDL
MODEL 2
REMARK VINA RESULT:     -11.8      1.080      7.572
REMARK SMILES Cn1ccnc(N[C@H]2C=C[C@H](C(=O)NCCCCCCNC(=O)c3ccc(-c4c5nc(c(-c6c(F)c(F)c(F)c(F)c6F)c6ccc([nH]6)c(-c6c(F)c(F)c(F)c(F)c6F)c6nc(c(-c7c(F)c(F)c(F)c(F)c7F)c7ccc4[nH]7)C=C6)C=C5)cc3)C2)c1=O
REMARK SMILES IDX 17 1 16 2 15 3 14 4 12 5 13 6 11 8 8 9 9 10 87 11 10 12 7 13
REMARK SMILES IDX 6 15 1 16 2 17 3 18 88 19 4 20 89 21 5 22 18 23 19 24 20 25
REMARK SMILES IDX 21 26 22 27 23 29 24 30 25 31 86 32 26 33 85 34 27 35 28 36
REMARK SMILES IDX 29 37 79 38 30 39 84 40 78 41 80 42 31 43 83 44 77 45 76 46
REMARK SMILES IDX 32 48 64 49 44 50 63 51 45 52 48 53 62 54 81 55 46 56 47 57
REMARK SMILES IDX 61 59 82 60 49 61 33 62 34 63 42 64 35 65 36 66 40 67 43 68
REMARK SMILES IDX 37 69 38 70 41 71 39 72 65 73 66 74 74 75 67 76 68 77 72 78
REMARK SMILES IDX 75 79 69 80 70 81 73 82 71 83 50 84 51 85 59 86 52 87 53 88
REMARK SMILES IDX 57 89 60 90 54 91 55 92 58 93 56 94
REMARK H PARENT 14 7 7 14 21 28 80 47 48 58
REMARK Flexibility Score: inf
ROOT
ATOM      1  C   UNL A   1      32.204  29.736  27.132  1.00  0.00     0.002 C 
ENDROOT
BRANCH   1   2
ATOM      2  C   UNL A   1      33.723  29.544  27.088  1.00  0.00     0.021 C 
BRANCH   2   3
ATOM      3  C   UNL A   1      34.210  28.606  25.989  1.00  0.00     0.116 C 
BRANCH   3   4
ATOM      4  N   UNL A   1      33.804  29.054  24.669  1.00  0.00    -0.356 N 
ATOM      5  C   UNL A   1      33.417  28.293  23.597  1.00  0.00     0.227 C 
ATOM      6  O   UNL A   1      33.028  28.866  22.580  1.00  0.00    -0.274 OA
ATOM      7  H   UNL A   1      33.807  30.027  24.525  1.00  0.00     0.163 HD
BRANCH   5   8
ATOM      8  C   UNL A   1      33.489  26.778  23.737  1.00  0.00     0.103 C 
ATOM      9  C   UNL A   1      32.485  25.156  22.195  1.00  0.00     0.104 C 
ATOM     10  C   UNL A   1      31.634  25.355  23.395  1.00  0.00    -0.006 C 
ATOM     11  C   UNL A   1      33.719  26.032  22.410  1.00  0.00     0.046 C 
ATOM     12  C   UNL A   1      32.165  26.254  24.227  1.00  0.00    -0.016 C 
BRANCH   9  13
ATOM     13  N   UNL A   1      32.770  23.766  21.975  1.00  0.00    -0.359 N 
ATOM     14  H   UNL A   1      32.793  23.519  21.023  1.00  0.00     0.162 HD
BRANCH  13  15
ATOM     15  C   UNL A   1      33.015  22.705  22.819  1.00  0.00     0.193 A 
ATOM     16  C   UNL A   1      35.440  21.178  25.381  1.00  0.00     0.153 C 
ATOM     17  N   UNL A   1      34.314  21.384  24.493  1.00  0.00    -0.314 N 
ATOM     18  C   UNL A   1      33.332  20.436  24.360  1.00  0.00     0.109 A 
ATOM     19  C   UNL A   1      34.249  22.577  23.776  1.00  0.00     0.293 A 
ATOM     20  C   UNL A   1      32.297  20.641  23.540  1.00  0.00     0.131 A 
ATOM     21  O   UNL A   1      35.095  23.454  23.884  1.00  0.00    -0.265 OA
ATOM     22  N   UNL A   1      32.111  21.752  22.765  1.00  0.00    -0.233 NA
ENDBRANCH  13  15
ENDBRANCH   9  13
ENDBRANCH   5   8
ENDBRANCH   3   4
ENDBRANCH   2   3
ENDBRANCH   1   2
BRANCH   1  23
ATOM     23  C   UNL A   1      31.657  30.804  26.182  1.00  0.00     0.002 C 
BRANCH  23  24
ATOM     24  C   UNL A   1      31.413  32.174  26.818  1.00  0.00     0.021 C 
BRANCH  24  25
ATOM     25  C   UNL A   1      32.675  32.911  27.247  1.00  0.00     0.116 C 
BRANCH  25  26
ATOM     26  N   UNL A   1      32.410  34.291  27.625  1.00  0.00    -0.352 N 
ATOM     27  C   UNL A   1      32.977  35.044  28.621  1.00  0.00     0.251 C 
ATOM     28  H   UNL A   1      31.725  34.749  27.087  1.00  0.00     0.163 HD
ATOM     29  O   UNL A   1      32.509  36.139  28.914  1.00  0.00    -0.269 OA
BRANCH  27  30
ATOM     30  C   UNL A   1      34.143  34.519  29.363  1.00  0.00     0.039 A 
ATOM     31  C   UNL A   1      33.939  33.942  30.618  1.00  0.00     0.014 A 
ATOM     32  C   UNL A   1      35.430  34.594  28.823  1.00  0.00     0.014 A 
ATOM     33  C   UNL A   1      35.018  33.385  31.305  1.00  0.00     0.010 A 
ATOM     34  C   UNL A   1      36.490  33.967  29.472  1.00  0.00     0.010 A 
ATOM     35  C   UNL A   1      36.296  33.360  30.722  1.00  0.00    -0.014 A 
BRANCH  35  36
ATOM     36  C   UNL A   1      37.439  32.700  31.404  1.00  0.00     0.031 A 
ATOM     37  C   UNL A   1      38.138  31.538  30.757  1.00  0.00     0.074 A 
ATOM     38  C   UNL A   1      37.808  33.111  32.633  1.00  0.00     0.049 A 
ATOM     39  N   UNL A   1      39.112  30.794  31.218  1.00  0.00    -0.248 NA
ATOM     40  C   UNL A   1      37.664  31.140  29.421  1.00  0.00     0.031 C 
ATOM     41  C   UNL A   1      37.179  34.199  33.384  1.00  0.00     0.029 A 
ATOM     42  N   UNL A   1      38.796  32.657  33.470  1.00  0.00    -0.354 N 
ATOM     43  C   UNL A   1      39.357  29.841  30.240  1.00  0.00     0.074 A 
ATOM     44  C   UNL A   1      38.393  30.059  29.184  1.00  0.00     0.031 C 
ATOM     45  C   UNL A   1      37.810  34.343  34.561  1.00  0.00     0.029 A 
ATOM     46  C   UNL A   1      38.858  33.333  34.665  1.00  0.00     0.049 A 
ATOM     47  H   UNL A   1      39.403  31.919  33.238  1.00  0.00     0.167 HD
ATOM     48  C   UNL A   1      40.315  28.883  30.215  1.00  0.00     0.037 A 
ATOM     49  C   UNL A   1      39.661  33.150  35.731  1.00  0.00     0.037 A 
ATOM     50  C   UNL A   1      41.283  28.680  31.261  1.00  0.00     0.049 A 
ATOM     51  C   UNL A   1      40.703  32.063  35.684  1.00  0.00     0.074 A 
ATOM     52  C   UNL A   1      42.329  27.774  31.304  1.00  0.00     0.029 A 
ATOM     53  N   UNL A   1      41.320  29.390  32.453  1.00  0.00    -0.354 N 
ATOM     54  N   UNL A   1      40.972  31.214  34.723  1.00  0.00    -0.248 NA
ATOM     55  C   UNL A   1      41.557  31.916  36.870  1.00  0.00     0.031 C 
ATOM     56  C   UNL A   1      42.961  27.895  32.546  1.00  0.00     0.029 A 
ATOM     57  C   UNL A   1      42.353  28.921  33.250  1.00  0.00     0.049 A 
ATOM     58  H   UNL A   1      40.704  30.118  32.697  1.00  0.00     0.167 HD
ATOM     59  C   UNL A   1      42.046  30.456  35.174  1.00  0.00     0.074 A 
ATOM     60  C   UNL A   1      42.388  30.957  36.487  1.00  0.00     0.031 C 
ATOM     61  C   UNL A   1      42.689  29.436  34.553  1.00  0.00     0.037 A 
BRANCH  48  62
ATOM     62  C   UNL A   1      40.365  27.977  29.017  1.00  0.00     0.064 A 
ATOM     63  C   UNL A   1      39.637  26.779  28.967  1.00  0.00     0.173 A 
ATOM     64  C   UNL A   1      41.114  28.335  27.886  1.00  0.00     0.173 A 
ATOM     65  F   UNL A   1      38.913  26.383  30.025  1.00  0.00    -0.203 F 
ATOM     66  C   UNL A   1      39.679  25.960  27.842  1.00  0.00     0.198 A 
ATOM     67  C   UNL A   1      41.127  27.532  26.749  1.00  0.00     0.198 A 
ATOM     68  F   UNL A   1      41.824  29.473  27.876  1.00  0.00    -0.203 F 
ATOM     69  F   UNL A   1      39.015  24.796  27.837  1.00  0.00    -0.200 F 
ATOM     70  C   UNL A   1      40.416  26.341  26.730  1.00  0.00     0.200 A 
ATOM     71  F   UNL A   1      41.826  27.909  25.671  1.00  0.00    -0.200 F 
ATOM     72  F   UNL A   1      40.446  25.557  25.643  1.00  0.00    -0.200 F 
ENDBRANCH  48  62
BRANCH  49  73
ATOM     73  C   UNL A   1      39.523  34.021  36.929  1.00  0.00     0.064 A 
ATOM     74  C   UNL A   1      40.159  35.268  36.992  1.00  0.00     0.173 A 
ATOM     75  C   UNL A   1      38.770  33.618  38.042  1.00  0.00     0.173 A 
ATOM     76  F   UNL A   1      40.909  35.691  35.962  1.00  0.00    -0.203 F 
ATOM     77  C   UNL A   1      40.073  36.066  38.132  1.00  0.00     0.198 A 
ATOM     78  C   UNL A   1      38.654  34.431  39.168  1.00  0.00     0.198 A 
ATOM     79  F   UNL A   1      38.136  32.436  38.032  1.00  0.00    -0.203 F 
ATOM     80  F   UNL A   1      40.738  37.227  38.187  1.00  0.00    -0.200 F 
ATOM     81  C   UNL A   1      39.316  35.649  39.216  1.00  0.00     0.200 A 
ATOM     82  F   UNL A   1      37.908  34.031  40.206  1.00  0.00    -0.200 F 
ATOM     83  F   UNL A   1      39.232  36.415  40.312  1.00  0.00    -0.200 F 
ENDBRANCH  49  73
BRANCH  61  84
ATOM     84  C   UNL A   1      43.858  28.821  35.269  1.00  0.00     0.064 A 
ATOM     85  C   UNL A   1      43.698  27.764  36.178  1.00  0.00     0.173 A 
ATOM     86  C   UNL A   1      45.163  29.270  35.009  1.00  0.00     0.173 A 
ATOM     87  F   UNL A   1      42.472  27.306  36.471  1.00  0.00    -0.203 F 
ATOM     88  C   UNL A   1      44.797  27.202  36.822  1.00  0.00     0.198 A 
ATOM     89  C   UNL A   1      46.262  28.681  35.627  1.00  0.00     0.198 A 
ATOM     90  F   UNL A   1      45.374  30.272  34.142  1.00  0.00    -0.203 F 
ATOM     91  F   UNL A   1      44.615  26.230  37.727  1.00  0.00    -0.200 F 
ATOM     92  C   UNL A   1      46.078  27.654  36.540  1.00  0.00     0.200 A 
ATOM     93  F   UNL A   1      47.499  29.108  35.341  1.00  0.00    -0.200 F 
ATOM     94  F   UNL A   1      47.134  27.104  37.154  1.00  0.00    -0.200 F 
ENDBRANCH  61  84
ENDBRANCH  35  36
ENDBRANCH  27  30
ENDBRANCH  25  26
ENDBRANCH  24  25
ENDBRANCH  23  24
ENDBRANCH   1  23
TORSDOF 15
ENDMDL
MODEL 3
REMARK VINA RESULT:     -11.5      6.293     11.702
REMARK SMILES Cn1ccnc(N[C@H]2C=C[C@H](C(=O)NCCCCCCNC(=O)c3ccc(-c4c5nc(c(-c6c(F)c(F)c(F)c(F)c6F)c6ccc([nH]6)c(-c6c(F)c(F)c(F)c(F)c6F)c6nc(c(-c7c(F)c(F)c(F)c(F)c7F)c7ccc4[nH]7)C=C6)C=C5)cc3)C2)c1=O
REMARK SMILES IDX 17 1 16 2 15 3 14 4 12 5 13 6 11 8 8 9 9 10 87 11 10 12 7 13
REMARK SMILES IDX 6 15 1 16 2 17 3 18 88 19 4 20 89 21 5 22 18 23 19 24 20 25
REMARK SMILES IDX 21 26 22 27 23 29 24 30 25 31 86 32 26 33 85 34 27 35 28 36
REMARK SMILES IDX 29 37 79 38 30 39 84 40 78 41 80 42 31 43 83 44 77 45 76 46
REMARK SMILES IDX 32 48 64 49 44 50 63 51 45 52 48 53 62 54 81 55 46 56 47 57
REMARK SMILES IDX 61 59 82 60 49 61 33 62 34 63 42 64 35 65 36 66 40 67 43 68
REMARK SMILES IDX 37 69 38 70 41 71 39 72 65 73 66 74 74 75 67 76 68 77 72 78
REMARK SMILES IDX 75 79 69 80 70 81 73 82 71 83 50 84 51 85 59 86 52 87 53 88
REMARK SMILES IDX 57 89 60 90 54 91 55 92 58 93 56 94
REMARK H PARENT 14 7 7 14 21 28 80 47 48 58
REMARK Flexibility Score: inf
ROOT
ATOM      1  C   UNL A   1      41.638  21.292  26.793  1.00  0.00     0.002 C 
ENDROOT
BRANCH   1   2
ATOM      2  C   UNL A   1      40.710  22.302  27.475  1.00  0.00     0.021 C 
BRANCH   2   3
ATOM      3  C   UNL A   1      39.556  22.788  26.605  1.00  0.00     0.116 C 
BRANCH   3   4
ATOM      4  N   UNL A   1      38.706  21.697  26.165  1.00  0.00    -0.356 N 
ATOM      5  C   UNL A   1      37.634  21.747  25.314  1.00  0.00     0.227 C 
ATOM      6  O   UNL A   1      37.086  20.691  24.996  1.00  0.00    -0.274 OA
ATOM      7  H   UNL A   1      38.927  20.808  26.524  1.00  0.00     0.163 HD
BRANCH   5   8
ATOM      8  C   UNL A   1      37.190  23.113  24.808  1.00  0.00     0.103 C 
ATOM      9  C   UNL A   1      34.900  23.986  24.885  1.00  0.00     0.104 C 
ATOM     10  C   UNL A   1      35.225  23.450  23.540  1.00  0.00    -0.006 C 
ATOM     11  C   UNL A   1      36.171  23.823  25.717  1.00  0.00     0.046 C 
ATOM     12  C   UNL A   1      36.464  22.953  23.498  1.00  0.00    -0.016 C 
BRANCH   9  13
ATOM     13  N   UNL A   1      34.402  25.331  24.811  1.00  0.00    -0.359 N 
ATOM     14  H   UNL A   1      34.940  25.974  25.325  1.00  0.00     0.162 HD
BRANCH  13  15
ATOM     15  C   UNL A   1      33.328  25.909  24.170  1.00  0.00     0.193 A 
ATOM     16  C   UNL A   1      29.508  26.328  24.119  1.00  0.00     0.153 C 
ATOM     17  N   UNL A   1      30.914  26.414  23.782  1.00  0.00    -0.314 N 
ATOM     18  C   UNL A   1      31.337  27.093  22.669  1.00  0.00     0.109 A 
ATOM     19  C   UNL A   1      31.833  25.791  24.623  1.00  0.00     0.293 A 
ATOM     20  C   UNL A   1      32.638  27.167  22.371  1.00  0.00     0.131 A 
ATOM     21  O   UNL A   1      31.495  25.194  25.637  1.00  0.00    -0.265 OA
ATOM     22  N   UNL A   1      33.647  26.594  23.094  1.00  0.00    -0.233 NA
ENDBRANCH  13  15
ENDBRANCH   9  13
ENDBRANCH   5   8
ENDBRANCH   3   4
ENDBRANCH   2   3
ENDBRANCH   1   2
BRANCH   1  23
ATOM     23  C   UNL A   1      41.973  20.052  27.626  1.00  0.00     0.002 C 
BRANCH  23  24
ATOM     24  C   UNL A   1      42.594  18.894  26.844  1.00  0.00     0.021 C 
BRANCH  24  25
ATOM     25  C   UNL A   1      42.555  19.056  25.329  1.00  0.00     0.116 C 
BRANCH  25  26
ATOM     26  N   UNL A   1      43.819  18.704  24.701  1.00  0.00    -0.352 N 
ATOM     27  C   UNL A   1      44.878  19.509  24.368  1.00  0.00     0.251 C 
ATOM     28  H   UNL A   1      43.930  17.750  24.485  1.00  0.00     0.163 HD
ATOM     29  O   UNL A   1      45.797  19.074  23.683  1.00  0.00    -0.269 OA
BRANCH  27  30
ATOM     30  C   UNL A   1      44.897  20.917  24.816  1.00  0.00     0.039 A 
ATOM     31  C   UNL A   1      45.290  21.202  26.126  1.00  0.00     0.014 A 
ATOM     32  C   UNL A   1      44.532  21.951  23.950  1.00  0.00     0.014 A 
ATOM     33  C   UNL A   1      45.375  22.529  26.548  1.00  0.00     0.010 A 
ATOM     34  C   UNL A   1      44.695  23.276  24.346  1.00  0.00     0.010 A 
ATOM     35  C   UNL A   1      45.114  23.579  25.650  1.00  0.00    -0.014 A 
BRANCH  35  36
ATOM     36  C   UNL A   1      45.277  24.998  26.060  1.00  0.00     0.031 A 
ATOM     37  C   UNL A   1      46.627  25.654  25.991  1.00  0.00     0.074 A 
ATOM     38  C   UNL A   1      44.220  25.675  26.548  1.00  0.00     0.049 A 
ATOM     39  N   UNL A   1      46.983  26.860  26.359  1.00  0.00    -0.248 NA
ATOM     40  C   UNL A   1      47.733  24.840  25.460  1.00  0.00     0.031 C 
ATOM     41  C   UNL A   1      42.869  25.134  26.706  1.00  0.00     0.029 A 
ATOM     42  N   UNL A   1      44.118  26.964  27.010  1.00  0.00    -0.354 N 
ATOM     43  C   UNL A   1      48.347  26.943  26.115  1.00  0.00     0.074 A 
ATOM     44  C   UNL A   1      48.770  25.650  25.624  1.00  0.00     0.031 C 
ATOM     45  C   UNL A   1      42.069  26.089  27.207  1.00  0.00     0.029 A 
ATOM     46  C   UNL A   1      42.857  27.294  27.445  1.00  0.00     0.049 A 
ATOM     47  H   UNL A   1      44.875  27.592  27.029  1.00  0.00     0.167 HD
ATOM     48  C   UNL A   1      49.168  28.009  26.268  1.00  0.00     0.037 A 
ATOM     49  C   UNL A   1      42.392  28.436  27.987  1.00  0.00     0.037 A 
ATOM     50  C   UNL A   1      48.740  29.300  26.741  1.00  0.00     0.049 A 
ATOM     51  C   UNL A   1      43.333  29.599  28.165  1.00  0.00     0.074 A 
ATOM     52  C   UNL A   1      49.483  30.459  26.876  1.00  0.00     0.029 A 
ATOM     53  N   UNL A   1      47.452  29.599  27.164  1.00  0.00    -0.354 N 
ATOM     54  N   UNL A   1      44.605  29.689  27.864  1.00  0.00    -0.248 NA
ATOM     55  C   UNL A   1      42.768  30.822  28.751  1.00  0.00     0.031 C 
ATOM     56  C   UNL A   1      48.661  31.443  27.436  1.00  0.00     0.029 A 
ATOM     57  C   UNL A   1      47.389  30.917  27.588  1.00  0.00     0.049 A 
ATOM     58  H   UNL A   1      46.696  28.969  27.163  1.00  0.00     0.167 HD
ATOM     59  C   UNL A   1      44.984  30.984  28.192  1.00  0.00     0.074 A 
ATOM     60  C   UNL A   1      43.803  31.648  28.701  1.00  0.00     0.031 C 
ATOM     61  C   UNL A   1      46.203  31.569  28.083  1.00  0.00     0.037 A 
BRANCH  48  62
ATOM     62  C   UNL A   1      50.619  27.829  25.919  1.00  0.00     0.064 A 
ATOM     63  C   UNL A   1      51.083  27.963  24.601  1.00  0.00     0.173 A 
ATOM     64  C   UNL A   1      51.564  27.567  26.922  1.00  0.00     0.173 A 
ATOM     65  F   UNL A   1      50.221  28.203  23.602  1.00  0.00    -0.203 F 
ATOM     66  C   UNL A   1      52.433  27.812  24.297  1.00  0.00     0.198 A 
ATOM     67  C   UNL A   1      52.918  27.452  26.620  1.00  0.00     0.198 A 
ATOM     68  F   UNL A   1      51.177  27.437  28.200  1.00  0.00    -0.203 F 
ATOM     69  F   UNL A   1      52.846  27.895  23.025  1.00  0.00    -0.200 F 
ATOM     70  C   UNL A   1      53.351  27.566  25.308  1.00  0.00     0.200 A 
ATOM     71  F   UNL A   1      53.805  27.230  27.599  1.00  0.00    -0.200 F 
ATOM     72  F   UNL A   1      54.653  27.434  25.015  1.00  0.00    -0.200 F 
ENDBRANCH  48  62
BRANCH  49  73
ATOM     73  C   UNL A   1      40.964  28.544  28.392  1.00  0.00     0.064 A 
ATOM     74  C   UNL A   1      39.990  28.989  27.488  1.00  0.00     0.173 A 
ATOM     75  C   UNL A   1      40.547  28.224  29.692  1.00  0.00     0.173 A 
ATOM     76  F   UNL A   1      40.340  29.328  26.238  1.00  0.00    -0.203 F 
ATOM     77  C   UNL A   1      38.660  29.138  27.877  1.00  0.00     0.198 A 
ATOM     78  C   UNL A   1      39.212  28.339  30.071  1.00  0.00     0.198 A 
ATOM     79  F   UNL A   1      41.438  27.787  30.595  1.00  0.00    -0.203 F 
ATOM     80  F   UNL A   1      37.760  29.621  27.009  1.00  0.00    -0.200 F 
ATOM     81  C   UNL A   1      38.271  28.808  29.166  1.00  0.00     0.200 A 
ATOM     82  F   UNL A   1      38.838  28.003  31.313  1.00  0.00    -0.200 F 
ATOM     83  F   UNL A   1      36.992  28.951  29.540  1.00  0.00    -0.200 F 
ENDBRANCH  49  73
BRANCH  61  84
ATOM     84  C   UNL A   1      46.312  33.014  28.479  1.00  0.00     0.064 A 
ATOM     85  C   UNL A   1      46.088  34.053  27.562  1.00  0.00     0.173 A 
ATOM     86  C   UNL A   1      46.606  33.364  29.807  1.00  0.00     0.173 A 
ATOM     87  F   UNL A   1      45.816  33.772  26.279  1.00  0.00    -0.203 F 
ATOM     88  C   UNL A   1      46.185  35.385  27.953  1.00  0.00     0.198 A 
ATOM     89  C   UNL A   1      46.666  34.698  30.201  1.00  0.00     0.198 A 
ATOM     90  F   UNL A   1      46.821  32.412  30.726  1.00  0.00    -0.203 F 
ATOM     91  F   UNL A   1      46.020  36.360  27.047  1.00  0.00    -0.200 F 
ATOM     92  C   UNL A   1      46.465  35.707  29.273  1.00  0.00     0.200 A 
ATOM     93  F   UNL A   1      46.919  35.006  31.480  1.00  0.00    -0.200 F 
ATOM     94  F   UNL A   1      46.547  36.991  29.647  1.00  0.00    -0.200 F 
ENDBRANCH  61  84
ENDBRANCH  35  36
ENDBRANCH  27  30
ENDBRANCH  25  26
ENDBRANCH  24  25
ENDBRANCH  23  24
ENDBRANCH   1  23
TORSDOF 15
ENDMDL
