MODEL 1
REMARK VINA RESULT:     -13.6      0.000      0.000
REMARK SMILES Cc1nn(-c2nc3ccccc3o2)c2c1[C@H](c1ccc(C(=O)NCCCCCCNC(=O)c3ccc(-c4c5nc(c(-c6c(F)c(F)c(F)c(F)c6F)c6ccc([nH]6)c(-c6c(F)c(F)c(F)c(F)c6F)c6nc(c(-c7c(F)c(F)c(F)c(F)c7F)c7ccc4[nH]7)C=C6)C=C5)cc3)cc1)CC(=O)N2
REMARK SMILES IDX 26 1 25 2 24 3 23 4 21 5 22 6 20 8 17 9 18 10 97 11 19 12
REMARK SMILES IDX 96 13 16 14 1 15 2 16 3 17 15 18 4 19 14 20 101 21 98 22
REMARK SMILES IDX 99 23 100 25 5 26 6 27 13 28 7 29 12 30 8 31 11 32 9 33
REMARK SMILES IDX 10 34 27 35 28 36 29 37 30 38 31 39 32 41 33 42 34 43 95 44
REMARK SMILES IDX 35 45 94 46 36 47 37 48 38 49 88 50 39 51 93 52 87 53 89 54
REMARK SMILES IDX 40 55 92 56 86 57 85 58 41 60 73 61 53 62 72 63 54 64 57 65
REMARK SMILES IDX 71 66 90 67 55 68 56 69 70 71 91 72 58 73 42 74 43 75 51 76
REMARK SMILES IDX 44 77 45 78 49 79 52 80 46 81 47 82 50 83 48 84 74 85 75 86
REMARK SMILES IDX 83 87 76 88 77 89 81 90 84 91 78 92 79 93 82 94 80 95 59 96
REMARK SMILES IDX 60 97 68 98 61 99 62 100 66 101 69 102 63 103 64 104 67 105
REMARK SMILES IDX 65 106
REMARK H PARENT 23 7 101 24 30 40 89 59 57 70
REMARK Flexibility Score: inf
ROOT
ATOM      1  C   UNL A   1      40.775  21.522  27.813  1.00  0.00     0.002 C 
ENDROOT
BRANCH   1   2
ATOM      2  C   UNL A   1      40.414  22.481  26.672  1.00  0.00     0.021 C 
BRANCH   2   3
ATOM      3  C   UNL A   1      38.985  22.313  26.152  1.00  0.00     0.116 C 
BRANCH   3   4
ATOM      4  N   UNL A   1      38.773  20.963  25.671  1.00  0.00    -0.352 N 
ATOM      5  C   UNL A   1      37.724  20.399  24.994  1.00  0.00     0.251 C 
ATOM      6  O   UNL A   1      37.821  19.231  24.620  1.00  0.00    -0.269 OA
ATOM      7  H   UNL A   1      39.512  20.343  25.863  1.00  0.00     0.163 HD
BRANCH   5   8
ATOM      8  C   UNL A   1      36.497  21.163  24.660  1.00  0.00     0.039 A 
ATOM      9  C   UNL A   1      34.236  22.653  23.847  1.00  0.00    -0.040 A 
ATOM     10  C   UNL A   1      35.536  23.103  23.562  1.00  0.00     0.005 A 
ATOM     11  C   UNL A   1      34.096  21.451  24.564  1.00  0.00     0.005 A 
ATOM     12  C   UNL A   1      36.652  22.352  23.941  1.00  0.00     0.014 A 
ATOM     13  C   UNL A   1      35.212  20.708  24.955  1.00  0.00     0.014 A 
BRANCH   9  14
ATOM     14  C   UNL A   1      33.042  23.426  23.312  1.00  0.00     0.064 C 
ATOM     15  C   UNL A   1      32.559  23.351  26.783  1.00  0.00     0.069 C 
ATOM     16  C   UNL A   1      32.482  24.437  25.770  1.00  0.00     0.066 A 
ATOM     17  N   UNL A   1      32.105  25.645  26.216  1.00  0.00    -0.167 NA
ATOM     18  C   UNL A   1      32.683  24.440  24.354  1.00  0.00     0.026 A 
ATOM     19  N   UNL A   1      32.057  26.421  25.113  1.00  0.00    -0.166 N 
ATOM     20  C   UNL A   1      32.301  25.706  23.973  1.00  0.00     0.145 A 
ATOM     21  N   UNL A   1      32.147  26.145  22.679  1.00  0.00    -0.310 N 
ATOM     22  C   UNL A   1      33.322  24.095  21.947  1.00  0.00     0.113 C 
ATOM     23  C   UNL A   1      32.468  25.316  21.635  1.00  0.00     0.226 C 
ATOM     24  H   UNL A   1      31.806  27.051  22.502  1.00  0.00     0.171 HD
ATOM     25  O   UNL A   1      32.187  25.632  20.479  1.00  0.00    -0.275 OA
BRANCH  19  26
ATOM     26  C   UNL A   1      31.841  27.782  25.266  1.00  0.00     0.325 A 
ATOM     27  N   UNL A   1      32.454  28.472  26.220  1.00  0.00    -0.191 NA
ATOM     28  O   UNL A   1      31.035  28.540  24.448  1.00  0.00    -0.422 OA
ATOM     29  C   UNL A   1      31.928  29.728  26.101  1.00  0.00     0.111 A 
ATOM     30  C   UNL A   1      31.074  29.780  25.012  1.00  0.00     0.156 A 
ATOM     31  C   UNL A   1      32.112  30.873  26.881  1.00  0.00     0.032 A 
ATOM     32  C   UNL A   1      30.375  30.908  24.609  1.00  0.00     0.049 A 
ATOM     33  C   UNL A   1      31.391  32.024  26.533  1.00  0.00     0.003 A 
ATOM     34  C   UNL A   1      30.543  32.040  25.417  1.00  0.00     0.004 A 
ENDBRANCH  19  26
ENDBRANCH   9  14
ENDBRANCH   5   8
ENDBRANCH   3   4
ENDBRANCH   2   3
ENDBRANCH   1   2
BRANCH   1  35
ATOM     35  C   UNL A   1      42.166  20.869  27.729  1.00  0.00     0.002 C 
BRANCH  35  36
ATOM     36  C   UNL A   1      42.285  19.607  26.859  1.00  0.00     0.021 C 
BRANCH  36  37
ATOM     37  C   UNL A   1      42.533  19.898  25.390  1.00  0.00     0.116 C 
BRANCH  37  38
ATOM     38  N   UNL A   1      43.955  19.810  25.025  1.00  0.00    -0.352 N 
ATOM     39  C   UNL A   1      44.858  20.830  24.761  1.00  0.00     0.251 C 
ATOM     40  H   UNL A   1      44.317  18.896  24.956  1.00  0.00     0.163 HD
ATOM     41  O   UNL A   1      45.891  20.628  24.141  1.00  0.00    -0.269 OA
BRANCH  39  42
ATOM     42  C   UNL A   1      44.546  22.174  25.271  1.00  0.00     0.039 A 
ATOM     43  C   UNL A   1      43.595  23.024  24.699  1.00  0.00     0.014 A 
ATOM     44  C   UNL A   1      45.226  22.546  26.417  1.00  0.00     0.014 A 
ATOM     45  C   UNL A   1      43.318  24.231  25.341  1.00  0.00     0.010 A 
ATOM     46  C   UNL A   1      44.708  23.526  27.200  1.00  0.00     0.010 A 
ATOM     47  C   UNL A   1      43.895  24.466  26.596  1.00  0.00    -0.014 A 
BRANCH  47  48
ATOM     48  C   UNL A   1      43.730  25.699  27.345  1.00  0.00     0.031 A 
ATOM     49  C   UNL A   1      44.651  26.800  26.988  1.00  0.00     0.074 A 
ATOM     50  C   UNL A   1      42.618  25.904  28.089  1.00  0.00     0.049 A 
ATOM     51  N   UNL A   1      45.530  27.371  27.742  1.00  0.00    -0.248 NA
ATOM     52  C   UNL A   1      44.665  27.263  25.592  1.00  0.00     0.031 C 
ATOM     53  C   UNL A   1      41.434  25.044  28.259  1.00  0.00     0.029 A 
ATOM     54  N   UNL A   1      42.264  27.019  28.772  1.00  0.00    -0.354 N 
ATOM     55  C   UNL A   1      46.094  28.384  26.973  1.00  0.00     0.074 A 
ATOM     56  C   UNL A   1      45.648  28.165  25.621  1.00  0.00     0.031 C 
ATOM     57  C   UNL A   1      40.420  25.761  28.787  1.00  0.00     0.029 A 
ATOM     58  C   UNL A   1      40.934  27.061  29.163  1.00  0.00     0.049 A 
ATOM     59  H   UNL A   1      42.899  27.743  28.975  1.00  0.00     0.167 HD
ATOM     60  C   UNL A   1      46.707  29.454  27.552  1.00  0.00     0.037 A 
ATOM     61  C   UNL A   1      40.301  28.122  29.718  1.00  0.00     0.037 A 
ATOM     62  C   UNL A   1      47.002  29.204  28.940  1.00  0.00     0.049 A 
ATOM     63  C   UNL A   1      41.361  29.004  30.277  1.00  0.00     0.074 A 
ATOM     64  C   UNL A   1      47.766  28.265  29.608  1.00  0.00     0.029 A 
ATOM     65  N   UNL A   1      46.159  29.726  29.892  1.00  0.00    -0.354 N 
ATOM     66  N   UNL A   1      42.143  28.654  31.265  1.00  0.00    -0.248 NA
ATOM     67  C   UNL A   1      41.879  30.057  29.416  1.00  0.00     0.031 C 
ATOM     68  C   UNL A   1      46.993  27.911  30.754  1.00  0.00     0.029 A 
ATOM     69  C   UNL A   1      45.842  28.701  30.750  1.00  0.00     0.049 A 
ATOM     70  H   UNL A   1      45.842  30.657  29.948  1.00  0.00     0.167 HD
ATOM     71  C   UNL A   1      43.398  29.139  30.921  1.00  0.00     0.074 A 
ATOM     72  C   UNL A   1      43.158  30.051  29.803  1.00  0.00     0.031 C 
ATOM     73  C   UNL A   1      44.544  28.541  31.367  1.00  0.00     0.037 A 
BRANCH  60  74
ATOM     74  C   UNL A   1      46.741  30.837  26.959  1.00  0.00     0.064 A 
ATOM     75  C   UNL A   1      47.963  31.534  26.902  1.00  0.00     0.173 A 
ATOM     76  C   UNL A   1      45.587  31.610  26.707  1.00  0.00     0.173 A 
ATOM     77  F   UNL A   1      49.121  30.902  27.147  1.00  0.00    -0.203 F 
ATOM     78  C   UNL A   1      48.017  32.912  26.679  1.00  0.00     0.198 A 
ATOM     79  C   UNL A   1      45.648  32.973  26.426  1.00  0.00     0.198 A 
ATOM     80  F   UNL A   1      44.352  31.106  26.833  1.00  0.00    -0.203 F 
ATOM     81  F   UNL A   1      49.191  33.553  26.755  1.00  0.00    -0.200 F 
ATOM     82  C   UNL A   1      46.859  33.632  26.444  1.00  0.00     0.200 A 
ATOM     83  F   UNL A   1      44.512  33.654  26.220  1.00  0.00    -0.200 F 
ATOM     84  F   UNL A   1      46.901  34.961  26.289  1.00  0.00    -0.200 F 
ENDBRANCH  60  74
BRANCH  61  85
ATOM     85  C   UNL A   1      38.913  28.564  29.442  1.00  0.00     0.064 A 
ATOM     86  C   UNL A   1      37.998  28.784  30.482  1.00  0.00     0.173 A 
ATOM     87  C   UNL A   1      38.532  29.025  28.165  1.00  0.00     0.173 A 
ATOM     88  F   UNL A   1      38.305  28.421  31.736  1.00  0.00    -0.203 F 
ATOM     89  C   UNL A   1      36.780  29.437  30.259  1.00  0.00     0.198 A 
ATOM     90  C   UNL A   1      37.315  29.670  27.942  1.00  0.00     0.198 A 
ATOM     91  F   UNL A   1      39.372  28.942  27.123  1.00  0.00    -0.203 F 
ATOM     92  F   UNL A   1      35.954  29.681  31.286  1.00  0.00    -0.200 F 
ATOM     93  C   UNL A   1      36.443  29.888  28.992  1.00  0.00     0.200 A 
ATOM     94  F   UNL A   1      37.023  30.133  26.718  1.00  0.00    -0.200 F 
ATOM     95  F   UNL A   1      35.305  30.565  28.792  1.00  0.00    -0.200 F 
ENDBRANCH  61  85
BRANCH  73  96
ATOM     96  C   UNL A   1      44.419  27.449  32.399  1.00  0.00     0.064 A 
ATOM     97  C   UNL A   1      44.342  26.081  32.079  1.00  0.00     0.173 A 
ATOM     98  C   UNL A   1      44.561  27.775  33.752  1.00  0.00     0.173 A 
ATOM     99  F   UNL A   1      44.314  25.674  30.808  1.00  0.00    -0.203 F 
ATOM    100  C   UNL A   1      44.363  25.095  33.064  1.00  0.00     0.198 A 
ATOM    101  C   UNL A   1      44.616  26.788  34.735  1.00  0.00     0.198 A 
ATOM    102  F   UNL A   1      44.705  29.059  34.120  1.00  0.00    -0.203 F 
ATOM    103  F   UNL A   1      44.285  23.800  32.722  1.00  0.00    -0.200 F 
ATOM    104  C   UNL A   1      44.508  25.450  34.393  1.00  0.00     0.200 A 
ATOM    105  F   UNL A   1      44.809  27.134  36.015  1.00  0.00    -0.200 F 
ATOM    106  F   UNL A   1      44.575  24.503  35.339  1.00  0.00    -0.200 F 
ENDBRANCH  73  96
ENDBRANCH  47  48
ENDBRANCH  39  42
ENDBRANCH  37  38
ENDBRANCH  36  37
ENDBRANCH  35  36
ENDBRANCH   1  35
TORSDOF 15
ENDMDL
MODEL 2
REMARK VINA RESULT:     -13.1      3.666      9.800
REMARK SMILES Cc1nn(-c2nc3ccccc3o2)c2c1[C@H](c1ccc(C(=O)NCCCCCCNC(=O)c3ccc(-c4c5nc(c(-c6c(F)c(F)c(F)c(F)c6F)c6ccc([nH]6)c(-c6c(F)c(F)c(F)c(F)c6F)c6nc(c(-c7c(F)c(F)c(F)c(F)c7F)c7ccc4[nH]7)C=C6)C=C5)cc3)cc1)CC(=O)N2
REMARK SMILES IDX 26 1 25 2 24 3 23 4 21 5 22 6 20 8 17 9 18 10 97 11 19 12
REMARK SMILES IDX 96 13 16 14 1 15 2 16 3 17 15 18 4 19 14 20 101 21 98 22
REMARK SMILES IDX 99 23 100 25 5 26 6 27 13 28 7 29 12 30 8 31 11 32 9 33
REMARK SMILES IDX 10 34 27 35 28 36 29 37 30 38 31 39 32 41 33 42 34 43 95 44
REMARK SMILES IDX 35 45 94 46 36 47 37 48 38 49 88 50 39 51 93 52 87 53 89 54
REMARK SMILES IDX 40 55 92 56 86 57 85 58 41 60 73 61 53 62 72 63 54 64 57 65
REMARK SMILES IDX 71 66 90 67 55 68 56 69 70 71 91 72 58 73 42 74 43 75 51 76
REMARK SMILES IDX 44 77 45 78 49 79 52 80 46 81 47 82 50 83 48 84 74 85 75 86
REMARK SMILES IDX 83 87 76 88 77 89 81 90 84 91 78 92 79 93 82 94 80 95 59 96
REMARK SMILES IDX 60 97 68 98 61 99 62 100 66 101 69 102 63 103 64 104 67 105
REMARK SMILES IDX 65 106
REMARK H PARENT 23 7 101 24 30 40 89 59 57 70
REMARK Flexibility Score: inf
ROOT
ATOM      1  C   UNL A   1      35.078  32.215  27.704  1.00  0.00     0.002 C 
ENDROOT
BRANCH   1   2
ATOM      2  C   UNL A   1      34.196  31.151  28.369  1.00  0.00     0.021 C 
BRANCH   2   3
ATOM      3  C   UNL A   1      33.200  30.489  27.414  1.00  0.00     0.116 C 
BRANCH   3   4
ATOM      4  N   UNL A   1      33.740  30.438  26.071  1.00  0.00    -0.352 N 
ATOM      5  C   UNL A   1      33.590  29.514  25.070  1.00  0.00     0.251 C 
ATOM      6  O   UNL A   1      34.095  29.743  23.973  1.00  0.00    -0.269 OA
ATOM      7  H   UNL A   1      34.315  31.201  25.835  1.00  0.00     0.163 HD
BRANCH   5   8
ATOM      8  C   UNL A   1      32.802  28.271  25.255  1.00  0.00     0.039 A 
ATOM      9  C   UNL A   1      31.250  25.913  25.419  1.00  0.00    -0.040 A 
ATOM     10  C   UNL A   1      30.773  27.043  24.737  1.00  0.00     0.005 A 
ATOM     11  C   UNL A   1      32.514  25.997  26.033  1.00  0.00     0.005 A 
ATOM     12  C   UNL A   1      31.552  28.199  24.633  1.00  0.00     0.014 A 
ATOM     13  C   UNL A   1      33.285  27.157  25.943  1.00  0.00     0.014 A 
BRANCH   9  14
ATOM     14  C   UNL A   1      30.436  24.631  25.407  1.00  0.00     0.064 C 
ATOM     15  C   UNL A   1      32.347  24.488  22.473  1.00  0.00     0.069 C 
ATOM     16  C   UNL A   1      32.071  23.505  23.554  1.00  0.00     0.066 A 
ATOM     17  N   UNL A   1      32.597  22.280  23.397  1.00  0.00    -0.167 NA
ATOM     18  C   UNL A   1      31.283  23.588  24.745  1.00  0.00     0.026 A 
ATOM     19  N   UNL A   1      32.157  21.577  24.461  1.00  0.00    -0.166 N 
ATOM     20  C   UNL A   1      31.290  22.301  25.232  1.00  0.00     0.145 A 
ATOM     21  N   UNL A   1      30.524  21.831  26.272  1.00  0.00    -0.310 N 
ATOM     22  C   UNL A   1      29.996  24.184  26.821  1.00  0.00     0.113 C 
ATOM     23  C   UNL A   1      29.724  22.694  26.976  1.00  0.00     0.226 C 
ATOM     24  H   UNL A   1      30.549  20.876  26.510  1.00  0.00     0.171 HD
ATOM     25  O   UNL A   1      28.918  22.265  27.799  1.00  0.00    -0.275 OA
BRANCH  19  26
ATOM     26  C   UNL A   1      32.658  20.300  24.667  1.00  0.00     0.325 A 
ATOM     27  N   UNL A   1      33.917  20.000  24.375  1.00  0.00    -0.191 NA
ATOM     28  O   UNL A   1      31.941  19.262  25.217  1.00  0.00    -0.422 OA
ATOM     29  C   UNL A   1      33.999  18.660  24.632  1.00  0.00     0.111 A 
ATOM     30  C   UNL A   1      32.802  18.208  25.162  1.00  0.00     0.156 A 
ATOM     31  C   UNL A   1      35.045  17.754  24.432  1.00  0.00     0.032 A 
ATOM     32  C   UNL A   1      32.549  16.895  25.534  1.00  0.00     0.049 A 
ATOM     33  C   UNL A   1      34.816  16.409  24.757  1.00  0.00     0.003 A 
ATOM     34  C   UNL A   1      33.593  15.992  25.300  1.00  0.00     0.004 A 
ENDBRANCH  19  26
ENDBRANCH   9  14
ENDBRANCH   5   8
ENDBRANCH   3   4
ENDBRANCH   2   3
ENDBRANCH   1   2
BRANCH   1  35
ATOM     35  C   UNL A   1      34.718  33.678  28.018  1.00  0.00     0.002 C 
BRANCH  35  36
ATOM     36  C   UNL A   1      33.551  33.909  28.991  1.00  0.00     0.021 C 
BRANCH  36  37
ATOM     37  C   UNL A   1      33.732  35.121  29.886  1.00  0.00     0.116 C 
BRANCH  37  38
ATOM     38  N   UNL A   1      33.319  34.869  31.275  1.00  0.00    -0.352 N 
ATOM     39  C   UNL A   1      33.866  33.999  32.209  1.00  0.00     0.251 C 
ATOM     40  H   UNL A   1      32.545  35.391  31.587  1.00  0.00     0.163 HD
ATOM     41  O   UNL A   1      33.236  33.631  33.188  1.00  0.00    -0.269 OA
BRANCH  39  42
ATOM     42  C   UNL A   1      35.248  33.542  31.997  1.00  0.00     0.039 A 
ATOM     43  C   UNL A   1      36.376  34.337  32.223  1.00  0.00     0.014 A 
ATOM     44  C   UNL A   1      35.382  32.224  31.600  1.00  0.00     0.014 A 
ATOM     45  C   UNL A   1      37.634  33.751  32.085  1.00  0.00     0.010 A 
ATOM     46  C   UNL A   1      36.563  31.591  31.811  1.00  0.00     0.010 A 
ATOM     47  C   UNL A   1      37.705  32.368  31.871  1.00  0.00    -0.014 A 
BRANCH  47  48
ATOM     48  C   UNL A   1      38.946  31.645  31.659  1.00  0.00     0.031 A 
ATOM     49  C   UNL A   1      39.688  31.263  32.881  1.00  0.00     0.074 A 
ATOM     50  C   UNL A   1      39.225  31.104  30.450  1.00  0.00     0.049 A 
ATOM     51  N   UNL A   1      40.872  31.636  33.235  1.00  0.00    -0.248 NA
ATOM     52  C   UNL A   1      38.993  30.439  33.881  1.00  0.00     0.031 C 
ATOM     53  C   UNL A   1      38.412  31.090  29.221  1.00  0.00     0.029 A 
ATOM     54  N   UNL A   1      40.282  30.330  30.105  1.00  0.00    -0.354 N 
ATOM     55  C   UNL A   1      41.147  30.961  34.421  1.00  0.00     0.074 A 
ATOM     56  C   UNL A   1      39.904  30.376  34.854  1.00  0.00     0.031 C 
ATOM     57  C   UNL A   1      38.890  30.158  28.368  1.00  0.00     0.029 A 
ATOM     58  C   UNL A   1      40.137  29.654  28.902  1.00  0.00     0.049 A 
ATOM     59  H   UNL A   1      41.090  30.252  30.662  1.00  0.00     0.167 HD
ATOM     60  C   UNL A   1      42.428  30.753  34.835  1.00  0.00     0.037 A 
ATOM     61  C   UNL A   1      40.976  28.709  28.415  1.00  0.00     0.037 A 
ATOM     62  C   UNL A   1      43.354  31.602  34.129  1.00  0.00     0.049 A 
ATOM     63  C   UNL A   1      42.276  28.894  29.114  1.00  0.00     0.074 A 
ATOM     64  C   UNL A   1      43.501  32.971  34.002  1.00  0.00     0.029 A 
ATOM     65  N   UNL A   1      44.068  31.065  33.084  1.00  0.00    -0.354 N 
ATOM     66  N   UNL A   1      43.021  29.961  28.981  1.00  0.00    -0.248 NA
ATOM     67  C   UNL A   1      42.496  28.130  30.333  1.00  0.00     0.031 C 
ATOM     68  C   UNL A   1      43.831  33.179  32.629  1.00  0.00     0.029 A 
ATOM     69  C   UNL A   1      43.932  31.926  32.023  1.00  0.00     0.049 A 
ATOM     70  H   UNL A   1      44.580  30.223  33.095  1.00  0.00     0.167 HD
ATOM     71  C   UNL A   1      43.501  30.227  30.256  1.00  0.00     0.074 A 
ATOM     72  C   UNL A   1      43.197  29.027  31.034  1.00  0.00     0.031 C 
ATOM     73  C   UNL A   1      43.832  31.495  30.646  1.00  0.00     0.037 A 
BRANCH  60  74
ATOM     74  C   UNL A   1      42.880  29.560  35.633  1.00  0.00     0.064 A 
ATOM     75  C   UNL A   1      43.659  29.758  36.790  1.00  0.00     0.173 A 
ATOM     76  C   UNL A   1      42.819  28.232  35.160  1.00  0.00     0.173 A 
ATOM     77  F   UNL A   1      43.803  30.984  37.314  1.00  0.00    -0.203 F 
ATOM     78  C   UNL A   1      44.377  28.716  37.382  1.00  0.00     0.198 A 
ATOM     79  C   UNL A   1      43.490  27.184  35.787  1.00  0.00     0.198 A 
ATOM     80  F   UNL A   1      42.206  27.913  34.012  1.00  0.00    -0.203 F 
ATOM     81  F   UNL A   1      45.202  28.976  38.406  1.00  0.00    -0.200 F 
ATOM     82  C   UNL A   1      44.295  27.431  36.879  1.00  0.00     0.200 A 
ATOM     83  F   UNL A   1      43.411  25.950  35.271  1.00  0.00    -0.200 F 
ATOM     84  F   UNL A   1      45.028  26.443  37.407  1.00  0.00    -0.200 F 
ENDBRANCH  60  74
BRANCH  61  85
ATOM     85  C   UNL A   1      40.588  27.472  27.697  1.00  0.00     0.064 A 
ATOM     86  C   UNL A   1      41.288  27.037  26.562  1.00  0.00     0.173 A 
ATOM     87  C   UNL A   1      39.678  26.552  28.261  1.00  0.00     0.173 A 
ATOM     88  F   UNL A   1      42.208  27.832  25.995  1.00  0.00    -0.203 F 
ATOM     89  C   UNL A   1      41.099  25.756  26.031  1.00  0.00     0.198 A 
ATOM     90  C   UNL A   1      39.485  25.278  27.726  1.00  0.00     0.198 A 
ATOM     91  F   UNL A   1      39.025  26.837  29.396  1.00  0.00    -0.203 F 
ATOM     92  F   UNL A   1      41.826  25.354  24.979  1.00  0.00    -0.200 F 
ATOM     93  C   UNL A   1      40.205  24.874  26.618  1.00  0.00     0.200 A 
ATOM     94  F   UNL A   1      38.645  24.425  28.331  1.00  0.00    -0.200 F 
ATOM     95  F   UNL A   1      40.069  23.628  26.144  1.00  0.00    -0.200 F 
ENDBRANCH  61  85
BRANCH  73  96
ATOM     96  C   UNL A   1      43.841  32.581  29.599  1.00  0.00     0.064 A 
ATOM     97  C   UNL A   1      42.769  33.467  29.388  1.00  0.00     0.173 A 
ATOM     98  C   UNL A   1      45.029  32.848  28.911  1.00  0.00     0.173 A 
ATOM     99  F   UNL A   1      41.636  33.352  30.083  1.00  0.00    -0.203 F 
ATOM    100  C   UNL A   1      42.868  34.541  28.504  1.00  0.00     0.198 A 
ATOM    101  C   UNL A   1      45.140  33.941  28.052  1.00  0.00     0.198 A 
ATOM    102  F   UNL A   1      46.110  32.078  29.116  1.00  0.00    -0.203 F 
ATOM    103  F   UNL A   1      41.825  35.365  28.326  1.00  0.00    -0.200 F 
ATOM    104  C   UNL A   1      44.059  34.781  27.842  1.00  0.00     0.200 A 
ATOM    105  F   UNL A   1      46.310  34.200  27.453  1.00  0.00    -0.200 F 
ATOM    106  F   UNL A   1      44.173  35.838  27.025  1.00  0.00    -0.200 F 
ENDBRANCH  73  96
ENDBRANCH  47  48
ENDBRANCH  39  42
ENDBRANCH  37  38
ENDBRANCH  36  37
ENDBRANCH  35  36
ENDBRANCH   1  35
TORSDOF 15
ENDMDL
MODEL 3
REMARK VINA RESULT:     -13.0      4.472      9.805
REMARK SMILES Cc1nn(-c2nc3ccccc3o2)c2c1[C@H](c1ccc(C(=O)NCCCCCCNC(=O)c3ccc(-c4c5nc(c(-c6c(F)c(F)c(F)c(F)c6F)c6ccc([nH]6)c(-c6c(F)c(F)c(F)c(F)c6F)c6nc(c(-c7c(F)c(F)c(F)c(F)c7F)c7ccc4[nH]7)C=C6)C=C5)cc3)cc1)CC(=O)N2
REMARK SMILES IDX 26 1 25 2 24 3 23 4 21 5 22 6 20 8 17 9 18 10 97 11 19 12
REMARK SMILES IDX 96 13 16 14 1 15 2 16 3 17 15 18 4 19 14 20 101 21 98 22
REMARK SMILES IDX 99 23 100 25 5 26 6 27 13 28 7 29 12 30 8 31 11 32 9 33
REMARK SMILES IDX 10 34 27 35 28 36 29 37 30 38 31 39 32 41 33 42 34 43 95 44
REMARK SMILES IDX 35 45 94 46 36 47 37 48 38 49 88 50 39 51 93 52 87 53 89 54
REMARK SMILES IDX 40 55 92 56 86 57 85 58 41 60 73 61 53 62 72 63 54 64 57 65
REMARK SMILES IDX 71 66 90 67 55 68 56 69 70 71 91 72 58 73 42 74 43 75 51 76
REMARK SMILES IDX 44 77 45 78 49 79 52 80 46 81 47 82 50 83 48 84 74 85 75 86
REMARK SMILES IDX 83 87 76 88 77 89 81 90 84 91 78 92 79 93 82 94 80 95 59 96
REMARK SMILES IDX 60 97 68 98 61 99 62 100 66 101 69 102 63 103 64 104 67 105
REMARK SMILES IDX 65 106
REMARK H PARENT 23 7 101 24 30 40 89 59 57 70
REMARK Flexibility Score: inf
ROOT
ATOM      1  C   UNL A   1      44.540  25.338  25.999  1.00  0.00     0.002 C 
ENDROOT
BRANCH   1   2
ATOM      2  C   UNL A   1      45.497  26.372  25.394  1.00  0.00     0.021 C 
BRANCH   2   3
ATOM      3  C   UNL A   1      46.136  27.302  26.427  1.00  0.00     0.116 C 
BRANCH   3   4
ATOM      4  N   UNL A   1      47.485  26.873  26.735  1.00  0.00    -0.352 N 
ATOM      5  C   UNL A   1      48.043  26.405  27.895  1.00  0.00     0.251 C 
ATOM      6  O   UNL A   1      49.211  26.024  27.878  1.00  0.00    -0.269 OA
ATOM      7  H   UNL A   1      48.110  26.928  25.977  1.00  0.00     0.163 HD
BRANCH   5   8
ATOM      8  C   UNL A   1      47.269  26.302  29.157  1.00  0.00     0.039 A 
ATOM      9  C   UNL A   1      45.938  26.208  31.649  1.00  0.00    -0.040 A 
ATOM     10  C   UNL A   1      47.322  25.990  31.564  1.00  0.00     0.005 A 
ATOM     11  C   UNL A   1      45.233  26.456  30.457  1.00  0.00     0.005 A 
ATOM     12  C   UNL A   1      47.984  26.064  30.335  1.00  0.00     0.014 A 
ATOM     13  C   UNL A   1      45.892  26.514  29.227  1.00  0.00     0.014 A 
BRANCH   9  14
ATOM     14  C   UNL A   1      45.268  26.248  33.012  1.00  0.00     0.064 C 
ATOM     15  C   UNL A   1      44.112  23.280  31.550  1.00  0.00     0.069 C 
ATOM     16  C   UNL A   1      44.665  23.602  32.893  1.00  0.00     0.066 A 
ATOM     17  N   UNL A   1      44.704  22.597  33.781  1.00  0.00    -0.167 NA
ATOM     18  C   UNL A   1      45.130  24.828  33.467  1.00  0.00     0.026 A 
ATOM     19  N   UNL A   1      45.180  23.155  34.913  1.00  0.00    -0.166 N 
ATOM     20  C   UNL A   1      45.351  24.507  34.786  1.00  0.00     0.145 A 
ATOM     21  N   UNL A   1      45.640  25.397  35.794  1.00  0.00    -0.310 N 
ATOM     22  C   UNL A   1      46.051  27.095  34.042  1.00  0.00     0.113 C 
ATOM     23  C   UNL A   1      45.816  26.725  35.500  1.00  0.00     0.226 C 
ATOM     24  H   UNL A   1      45.719  25.083  36.723  1.00  0.00     0.171 HD
ATOM     25  O   UNL A   1      45.917  27.554  36.403  1.00  0.00    -0.275 OA
BRANCH  19  26
ATOM     26  C   UNL A   1      45.482  22.329  35.986  1.00  0.00     0.325 A 
ATOM     27  N   UNL A   1      45.625  22.818  37.210  1.00  0.00    -0.191 NA
ATOM     28  O   UNL A   1      45.617  20.963  35.901  1.00  0.00    -0.422 OA
ATOM     29  C   UNL A   1      45.994  21.731  37.953  1.00  0.00     0.111 A 
ATOM     30  C   UNL A   1      45.976  20.594  37.163  1.00  0.00     0.156 A 
ATOM     31  C   UNL A   1      46.374  21.627  39.294  1.00  0.00     0.032 A 
ATOM     32  C   UNL A   1      46.299  19.319  37.606  1.00  0.00     0.049 A 
ATOM     33  C   UNL A   1      46.748  20.363  39.771  1.00  0.00     0.003 A 
ATOM     34  C   UNL A   1      46.708  19.233  38.943  1.00  0.00     0.004 A 
ENDBRANCH  19  26
ENDBRANCH   9  14
ENDBRANCH   5   8
ENDBRANCH   3   4
ENDBRANCH   2   3
ENDBRANCH   1   2
BRANCH   1  35
ATOM     35  C   UNL A   1      45.129  23.937  26.240  1.00  0.00     0.002 C 
BRANCH  35  36
ATOM     36  C   UNL A   1      44.244  22.740  25.857  1.00  0.00     0.021 C 
BRANCH  36  37
ATOM     37  C   UNL A   1      43.062  23.110  24.979  1.00  0.00     0.116 C 
BRANCH  37  38
ATOM     38  N   UNL A   1      41.830  22.399  25.355  1.00  0.00    -0.352 N 
ATOM     39  C   UNL A   1      41.058  22.526  26.501  1.00  0.00     0.251 C 
ATOM     40  H   UNL A   1      41.508  21.738  24.699  1.00  0.00     0.163 HD
ATOM     41  O   UNL A   1      40.276  21.654  26.848  1.00  0.00    -0.269 OA
BRANCH  39  42
ATOM     42  C   UNL A   1      41.193  23.762  27.288  1.00  0.00     0.039 A 
ATOM     43  C   UNL A   1      42.068  23.908  28.368  1.00  0.00     0.014 A 
ATOM     44  C   UNL A   1      40.422  24.827  26.856  1.00  0.00     0.014 A 
ATOM     45  C   UNL A   1      42.177  25.164  28.964  1.00  0.00     0.010 A 
ATOM     46  C   UNL A   1      40.789  26.086  27.201  1.00  0.00     0.010 A 
ATOM     47  C   UNL A   1      41.519  26.246  28.364  1.00  0.00    -0.014 A 
BRANCH  47  48
ATOM     48  C   UNL A   1      41.509  27.591  28.909  1.00  0.00     0.031 A 
ATOM     49  C   UNL A   1      42.520  28.519  28.358  1.00  0.00     0.074 A 
ATOM     50  C   UNL A   1      40.454  28.026  29.637  1.00  0.00     0.049 A 
ATOM     51  N   UNL A   1      43.481  29.107  28.989  1.00  0.00    -0.248 NA
ATOM     52  C   UNL A   1      42.523  28.753  26.906  1.00  0.00     0.031 C 
ATOM     53  C   UNL A   1      39.198  27.332  29.972  1.00  0.00     0.029 A 
ATOM     54  N   UNL A   1      40.240  29.266  30.140  1.00  0.00    -0.354 N 
ATOM     55  C   UNL A   1      44.112  29.921  28.054  1.00  0.00     0.074 A 
ATOM     56  C   UNL A   1      43.592  29.540  26.765  1.00  0.00     0.031 C 
ATOM     57  C   UNL A   1      38.282  28.227  30.401  1.00  0.00     0.029 A 
ATOM     58  C   UNL A   1      38.938  29.508  30.552  1.00  0.00     0.049 A 
ATOM     59  H   UNL A   1      40.953  29.942  30.209  1.00  0.00     0.167 HD
ATOM     60  C   UNL A   1      44.852  30.999  28.438  1.00  0.00     0.037 A 
ATOM     61  C   UNL A   1      38.438  30.703  30.944  1.00  0.00     0.037 A 
ATOM     62  C   UNL A   1      45.176  30.941  29.842  1.00  0.00     0.049 A 
ATOM     63  C   UNL A   1      39.602  31.546  31.328  1.00  0.00     0.074 A 
ATOM     64  C   UNL A   1      45.869  30.044  30.633  1.00  0.00     0.029 A 
ATOM     65  N   UNL A   1      44.428  31.692  30.717  1.00  0.00    -0.354 N 
ATOM     66  N   UNL A   1      40.385  31.276  32.340  1.00  0.00    -0.248 NA
ATOM     67  C   UNL A   1      40.187  32.391  30.297  1.00  0.00     0.031 C 
ATOM     68  C   UNL A   1      45.111  29.958  31.839  1.00  0.00     0.029 A 
ATOM     69  C   UNL A   1      44.046  30.854  31.736  1.00  0.00     0.049 A 
ATOM     70  H   UNL A   1      44.208  32.648  30.630  1.00  0.00     0.167 HD
ATOM     71  C   UNL A   1      41.667  31.567  31.892  1.00  0.00     0.074 A 
ATOM     72  C   UNL A   1      41.474  32.312  30.649  1.00  0.00     0.031 C 
ATOM     73  C   UNL A   1      42.764  30.930  32.402  1.00  0.00     0.037 A 
BRANCH  60  74
ATOM     74  C   UNL A   1      44.999  32.260  27.631  1.00  0.00     0.064 A 
ATOM     75  C   UNL A   1      46.194  32.489  26.921  1.00  0.00     0.173 A 
ATOM     76  C   UNL A   1      44.138  33.372  27.750  1.00  0.00     0.173 A 
ATOM     77  F   UNL A   1      47.095  31.508  26.765  1.00  0.00    -0.203 F 
ATOM     78  C   UNL A   1      46.529  33.754  26.432  1.00  0.00     0.198 A 
ATOM     79  C   UNL A   1      44.449  34.618  27.210  1.00  0.00     0.198 A 
ATOM     80  F   UNL A   1      43.021  33.331  28.488  1.00  0.00    -0.203 F 
ATOM     81  F   UNL A   1      47.730  33.953  25.872  1.00  0.00    -0.200 F 
ATOM     82  C   UNL A   1      45.658  34.819  26.579  1.00  0.00     0.200 A 
ATOM     83  F   UNL A   1      43.599  35.640  27.380  1.00  0.00    -0.200 F 
ATOM     84  F   UNL A   1      46.002  36.044  26.164  1.00  0.00    -0.200 F 
ENDBRANCH  60  74
BRANCH  61  85
ATOM     85  C   UNL A   1      37.091  31.240  30.634  1.00  0.00     0.064 A 
ATOM     86  C   UNL A   1      36.202  31.614  31.653  1.00  0.00     0.173 A 
ATOM     87  C   UNL A   1      36.743  31.635  29.325  1.00  0.00     0.173 A 
ATOM     88  F   UNL A   1      36.484  31.320  32.931  1.00  0.00    -0.203 F 
ATOM     89  C   UNL A   1      35.043  32.349  31.380  1.00  0.00     0.198 A 
ATOM     90  C   UNL A   1      35.584  32.363  29.053  1.00  0.00     0.198 A 
ATOM     91  F   UNL A   1      37.568  31.404  28.293  1.00  0.00    -0.203 F 
ATOM     92  F   UNL A   1      34.246  32.738  32.386  1.00  0.00    -0.200 F 
ATOM     93  C   UNL A   1      34.740  32.731  30.083  1.00  0.00     0.200 A 
ATOM     94  F   UNL A   1      35.327  32.756  27.797  1.00  0.00    -0.200 F 
ATOM     95  F   UNL A   1      33.661  33.486  29.831  1.00  0.00    -0.200 F 
ENDBRANCH  61  85
BRANCH  73  96
ATOM     96  C   UNL A   1      42.573  30.032  33.599  1.00  0.00     0.064 A 
ATOM     97  C   UNL A   1      42.397  28.640  33.506  1.00  0.00     0.173 A 
ATOM     98  C   UNL A   1      42.749  30.565  34.880  1.00  0.00     0.173 A 
ATOM     99  F   UNL A   1      42.330  28.033  32.320  1.00  0.00    -0.203 F 
ATOM    100  C   UNL A   1      42.358  27.829  34.640  1.00  0.00     0.198 A 
ATOM    101  C   UNL A   1      42.745  29.751  36.012  1.00  0.00     0.198 A 
ATOM    102  F   UNL A   1      42.986  31.878  35.033  1.00  0.00    -0.203 F 
ATOM    103  F   UNL A   1      42.187  26.504  34.514  1.00  0.00    -0.200 F 
ATOM    104  C   UNL A   1      42.540  28.386  35.893  1.00  0.00     0.200 A 
ATOM    105  F   UNL A   1      42.973  30.287  37.218  1.00  0.00    -0.200 F 
ATOM    106  F   UNL A   1      42.549  27.604  36.982  1.00  0.00    -0.200 F 
ENDBRANCH  73  96
ENDBRANCH  47  48
ENDBRANCH  39  42
ENDBRANCH  37  38
ENDBRANCH  36  37
ENDBRANCH  35  36
ENDBRANCH   1  35
TORSDOF 15
ENDMDL
