MODEL 1
REMARK VINA RESULT:     -13.1      0.000      0.000
REMARK SMILES Cc1ccnc(C(=O)c2[nH]c3ccc(F)cc3c2CC(=O)NCCCCCCNC(=O)c2ccc(-c3c4nc(c(-c5c(F)c(F)c(F)c(F)c5F)c5ccc([nH]5)c(-c5c(F)c(F)c(F)c(F)c5F)c5nc(c(-c6c(F)c(F)c(F)c(F)c6F)c6ccc3[nH]6)C=C5)C=C4)cc2)c1
REMARK SMILES IDX 25 1 24 2 23 3 22 4 20 5 21 6 19 8 18 9 9 10 10 11 11 12
REMARK SMILES IDX 17 14 12 15 16 16 13 17 14 18 15 19 7 20 8 21 6 22 1 23 2 24
REMARK SMILES IDX 3 25 95 26 4 27 5 28 26 29 27 30 28 31 29 32 30 33 31 35
REMARK SMILES IDX 32 36 33 37 94 38 34 39 93 40 35 41 36 42 37 43 87 44 38 45
REMARK SMILES IDX 92 46 86 47 88 48 39 49 91 50 85 51 84 52 40 54 72 55 52 56
REMARK SMILES IDX 71 57 53 58 56 59 70 60 89 61 54 62 55 63 69 65 90 66 57 67
REMARK SMILES IDX 41 68 42 69 50 70 43 71 44 72 48 73 51 74 45 75 46 76 49 77
REMARK SMILES IDX 47 78 73 79 74 80 82 81 75 82 76 83 80 84 83 85 77 86 78 87
REMARK SMILES IDX 81 88 79 89 58 90 59 91 67 92 60 93 61 94 65 95 68 96 62 97
REMARK SMILES IDX 63 98 66 99 64 100
REMARK H PARENT 22 7 10 13 29 34 88 53 56 64
REMARK Flexibility Score: inf
ROOT
ATOM      1  C   UNL A   1      31.804  29.225  26.599  1.00  0.00     0.002 C 
ENDROOT
BRANCH   1   2
ATOM      2  C   UNL A   1      32.885  28.243  26.136  1.00  0.00     0.021 C 
BRANCH   2   3
ATOM      3  C   UNL A   1      32.633  26.759  26.434  1.00  0.00     0.116 C 
BRANCH   3   4
ATOM      4  N   UNL A   1      31.241  26.408  26.624  1.00  0.00    -0.356 N 
ATOM      5  C   UNL A   1      30.331  25.860  25.770  1.00  0.00     0.224 C 
ATOM      6  O   UNL A   1      29.244  25.529  26.255  1.00  0.00    -0.275 OA
ATOM      7  H   UNL A   1      30.892  26.598  27.524  1.00  0.00     0.163 HD
BRANCH   5   8
ATOM      8  C   UNL A   1      30.628  25.592  24.308  1.00  0.00     0.138 C 
BRANCH   8   9
ATOM      9  C   UNL A   1      30.734  26.789  23.406  1.00  0.00    -0.002 A 
ATOM     10  C   UNL A   1      31.841  27.287  22.713  1.00  0.00     0.093 A 
ATOM     11  N   UNL A   1      31.444  28.490  22.155  1.00  0.00    -0.352 N 
ATOM     12  C   UNL A   1      30.108  28.727  22.349  1.00  0.00     0.046 A 
ATOM     13  H   UNL A   1      32.048  29.102  21.676  1.00  0.00     0.167 HD
ATOM     14  C   UNL A   1      29.647  27.723  23.193  1.00  0.00     0.007 A 
ATOM     15  C   UNL A   1      29.292  29.762  21.870  1.00  0.00     0.030 A 
ATOM     16  C   UNL A   1      28.304  27.787  23.625  1.00  0.00     0.049 A 
ATOM     17  C   UNL A   1      27.950  29.760  22.259  1.00  0.00     0.041 A 
ATOM     18  C   UNL A   1      27.474  28.790  23.127  1.00  0.00     0.123 A 
ATOM     19  F   UNL A   1      26.181  28.803  23.482  1.00  0.00    -0.207 F 
BRANCH  10  20
ATOM     20  C   UNL A   1      33.245  26.897  22.579  1.00  0.00     0.227 C 
ATOM     21  O   UNL A   1      34.026  27.676  22.033  1.00  0.00    -0.285 OA
BRANCH  20  22
ATOM     22  C   UNL A   1      33.752  25.525  22.941  1.00  0.00     0.113 A 
ATOM     23  C   UNL A   1      35.665  23.630  25.632  1.00  0.00     0.044 C 
ATOM     24  C   UNL A   1      34.857  23.961  24.413  1.00  0.00    -0.047 A 
ATOM     25  C   UNL A   1      34.528  22.948  23.517  1.00  0.00     0.023 A 
ATOM     26  C   UNL A   1      34.404  25.260  24.141  1.00  0.00     0.036 A 
ATOM     27  C   UNL A   1      33.819  23.280  22.377  1.00  0.00     0.112 A 
ATOM     28  N   UNL A   1      33.437  24.536  22.065  1.00  0.00    -0.253 NA
ENDBRANCH  20  22
ENDBRANCH  10  20
ENDBRANCH   8   9
ENDBRANCH   5   8
ENDBRANCH   3   4
ENDBRANCH   2   3
ENDBRANCH   1   2
BRANCH   1  29
ATOM     29  C   UNL A   1      31.615  30.454  25.716  1.00  0.00     0.002 C 
BRANCH  29  30
ATOM     30  C   UNL A   1      31.399  31.744  26.503  1.00  0.00     0.021 C 
BRANCH  30  31
ATOM     31  C   UNL A   1      32.688  32.369  27.017  1.00  0.00     0.116 C 
BRANCH  31  32
ATOM     32  N   UNL A   1      32.505  33.758  27.404  1.00  0.00    -0.352 N 
ATOM     33  C   UNL A   1      33.139  34.455  28.403  1.00  0.00     0.251 C 
ATOM     34  H   UNL A   1      31.840  34.265  26.883  1.00  0.00     0.163 HD
ATOM     35  O   UNL A   1      32.747  35.562  28.745  1.00  0.00    -0.269 OA
BRANCH  33  36
ATOM     36  C   UNL A   1      34.296  33.832  29.078  1.00  0.00     0.039 A 
ATOM     37  C   UNL A   1      34.071  32.829  30.023  1.00  0.00     0.014 A 
ATOM     38  C   UNL A   1      35.598  34.226  28.755  1.00  0.00     0.014 A 
ATOM     39  C   UNL A   1      35.160  32.194  30.618  1.00  0.00     0.010 A 
ATOM     40  C   UNL A   1      36.679  33.532  29.284  1.00  0.00     0.010 A 
ATOM     41  C   UNL A   1      36.472  32.524  30.236  1.00  0.00    -0.014 A 
BRANCH  41  42
ATOM     42  C   UNL A   1      37.641  31.853  30.855  1.00  0.00     0.031 A 
ATOM     43  C   UNL A   1      38.086  32.251  32.236  1.00  0.00     0.074 A 
ATOM     44  C   UNL A   1      38.327  30.925  30.162  1.00  0.00     0.049 A 
ATOM     45  N   UNL A   1      39.105  31.819  32.935  1.00  0.00    -0.248 NA
ATOM     46  C   UNL A   1      37.297  33.296  32.909  1.00  0.00     0.031 C 
ATOM     47  C   UNL A   1      38.020  30.491  28.798  1.00  0.00     0.029 A 
ATOM     48  N   UNL A   1      39.427  30.182  30.509  1.00  0.00    -0.354 N 
ATOM     49  C   UNL A   1      39.084  32.548  34.118  1.00  0.00     0.074 A 
ATOM     50  C   UNL A   1      37.997  33.495  34.015  1.00  0.00     0.031 C 
ATOM     51  C   UNL A   1      38.894  29.538  28.435  1.00  0.00     0.029 A 
ATOM     52  C   UNL A   1      39.842  29.321  29.523  1.00  0.00     0.049 A 
ATOM     53  H   UNL A   1      39.876  30.260  31.381  1.00  0.00     0.167 HD
ATOM     54  C   UNL A   1      39.882  32.417  35.205  1.00  0.00     0.037 A 
ATOM     55  C   UNL A   1      40.875  28.458  29.501  1.00  0.00     0.037 A 
ATOM     56  C   UNL A   1      40.948  31.457  35.309  1.00  0.00     0.049 A 
ATOM     57  C   UNL A   1      41.753  28.337  30.720  1.00  0.00     0.074 A 
ATOM     58  C   UNL A   1      41.785  31.208  36.383  1.00  0.00     0.029 A 
ATOM     59  N   UNL A   1      41.330  30.590  34.296  1.00  0.00    -0.354 N 
ATOM     60  N   UNL A   1      41.682  28.982  31.860  1.00  0.00    -0.248 NA
ATOM     61  C   UNL A   1      42.846  27.358  30.652  1.00  0.00     0.031 C 
ATOM     62  C   UNL A   1      42.709  30.231  36.001  1.00  0.00     0.029 A 
ATOM     63  C   UNL A   1      42.405  29.820  34.712  1.00  0.00     0.049 A 
ATOM     64  H   UNL A   1      40.902  30.530  33.412  1.00  0.00     0.167 HD
ATOM     65  C   UNL A   1      42.694  28.461  32.656  1.00  0.00     0.074 A 
ATOM     66  C   UNL A   1      43.354  27.438  31.871  1.00  0.00     0.031 C 
ATOM     67  C   UNL A   1      43.044  28.797  33.923  1.00  0.00     0.037 A 
BRANCH  54  68
ATOM     68  C   UNL A   1      39.627  33.338  36.366  1.00  0.00     0.064 A 
ATOM     69  C   UNL A   1      40.244  34.595  36.462  1.00  0.00     0.173 A 
ATOM     70  C   UNL A   1      38.740  32.966  37.388  1.00  0.00     0.173 A 
ATOM     71  F   UNL A   1      41.112  34.995  35.521  1.00  0.00    -0.203 F 
ATOM     72  C   UNL A   1      40.012  35.428  37.554  1.00  0.00     0.198 A 
ATOM     73  C   UNL A   1      38.481  33.818  38.459  1.00  0.00     0.198 A 
ATOM     74  F   UNL A   1      38.119  31.778  37.346  1.00  0.00    -0.203 F 
ATOM     75  F   UNL A   1      40.661  36.596  37.653  1.00  0.00    -0.200 F 
ATOM     76  C   UNL A   1      39.125  35.042  38.547  1.00  0.00     0.200 A 
ATOM     77  F   UNL A   1      37.611  33.449  39.410  1.00  0.00    -0.200 F 
ATOM     78  F   UNL A   1      38.897  35.847  39.593  1.00  0.00    -0.200 F 
ENDBRANCH  54  68
BRANCH  55  79
ATOM     79  C   UNL A   1      41.118  27.617  28.300  1.00  0.00     0.064 A 
ATOM     80  C   UNL A   1      40.508  26.361  28.162  1.00  0.00     0.173 A 
ATOM     81  C   UNL A   1      41.968  28.043  27.269  1.00  0.00     0.173 A 
ATOM     82  F   UNL A   1      39.700  25.901  29.129  1.00  0.00    -0.203 F 
ATOM     83  C   UNL A   1      40.762  25.555  27.055  1.00  0.00     0.198 A 
ATOM     84  C   UNL A   1      42.195  27.249  26.147  1.00  0.00     0.198 A 
ATOM     85  F   UNL A   1      42.570  29.240  27.347  1.00  0.00    -0.203 F 
ATOM     86  F   UNL A   1      40.208  24.337  26.977  1.00  0.00    -0.200 F 
ATOM     87  C   UNL A   1      41.601  26.001  26.046  1.00  0.00     0.200 A 
ATOM     88  F   UNL A   1      42.993  27.692  25.166  1.00  0.00    -0.200 F 
ATOM     89  F   UNL A   1      41.843  25.226  24.980  1.00  0.00    -0.200 F 
ENDBRANCH  55  79
BRANCH  67  90
ATOM     90  C   UNL A   1      44.156  28.012  34.562  1.00  0.00     0.064 A 
ATOM     91  C   UNL A   1      45.491  28.441  34.516  1.00  0.00     0.173 A 
ATOM     92  C   UNL A   1      43.872  26.824  35.254  1.00  0.00     0.173 A 
ATOM     93  F   UNL A   1      45.817  29.563  33.857  1.00  0.00    -0.203 F 
ATOM     94  C   UNL A   1      46.504  27.690  35.107  1.00  0.00     0.198 A 
ATOM     95  C   UNL A   1      44.882  26.096  35.875  1.00  0.00     0.198 A 
ATOM     96  F   UNL A   1      42.611  26.373  35.338  1.00  0.00    -0.203 F 
ATOM     97  F   UNL A   1      47.779  28.087  34.996  1.00  0.00    -0.200 F 
ATOM     98  C   UNL A   1      46.199  26.523  35.791  1.00  0.00     0.200 A 
ATOM     99  F   UNL A   1      44.582  24.979  36.553  1.00  0.00    -0.200 F 
ATOM    100  F   UNL A   1      47.174  25.805  36.363  1.00  0.00    -0.200 F 
ENDBRANCH  67  90
ENDBRANCH  41  42
ENDBRANCH  33  36
ENDBRANCH  31  32
ENDBRANCH  30  31
ENDBRANCH  29  30
ENDBRANCH   1  29
TORSDOF 16
ENDMDL
MODEL 2
REMARK VINA RESULT:     -13.0      1.611      3.489
REMARK SMILES Cc1ccnc(C(=O)c2[nH]c3ccc(F)cc3c2CC(=O)NCCCCCCNC(=O)c2ccc(-c3c4nc(c(-c5c(F)c(F)c(F)c(F)c5F)c5ccc([nH]5)c(-c5c(F)c(F)c(F)c(F)c5F)c5nc(c(-c6c(F)c(F)c(F)c(F)c6F)c6ccc3[nH]6)C=C5)C=C4)cc2)c1
REMARK SMILES IDX 25 1 24 2 23 3 22 4 20 5 21 6 19 8 18 9 9 10 10 11 11 12
REMARK SMILES IDX 17 14 12 15 16 16 13 17 14 18 15 19 7 20 8 21 6 22 1 23 2 24
REMARK SMILES IDX 3 25 95 26 4 27 5 28 26 29 27 30 28 31 29 32 30 33 31 35
REMARK SMILES IDX 32 36 33 37 94 38 34 39 93 40 35 41 36 42 37 43 87 44 38 45
REMARK SMILES IDX 92 46 86 47 88 48 39 49 91 50 85 51 84 52 40 54 72 55 52 56
REMARK SMILES IDX 71 57 53 58 56 59 70 60 89 61 54 62 55 63 69 65 90 66 57 67
REMARK SMILES IDX 41 68 42 69 50 70 43 71 44 72 48 73 51 74 45 75 46 76 49 77
REMARK SMILES IDX 47 78 73 79 74 80 82 81 75 82 76 83 80 84 83 85 77 86 78 87
REMARK SMILES IDX 81 88 79 89 58 90 59 91 67 92 60 93 61 94 65 95 68 96 62 97
REMARK SMILES IDX 63 98 66 99 64 100
REMARK H PARENT 22 7 10 13 29 34 88 53 56 64
REMARK Flexibility Score: inf
ROOT
ATOM      1  C   UNL A   1      31.739  29.250  26.797  1.00  0.00     0.002 C 
ENDROOT
BRANCH   1   2
ATOM      2  C   UNL A   1      33.002  28.394  26.669  1.00  0.00     0.021 C 
BRANCH   2   3
ATOM      3  C   UNL A   1      32.884  27.125  25.814  1.00  0.00     0.116 C 
BRANCH   3   4
ATOM      4  N   UNL A   1      32.039  26.093  26.377  1.00  0.00    -0.356 N 
ATOM      5  C   UNL A   1      32.178  24.737  26.406  1.00  0.00     0.224 C 
ATOM      6  O   UNL A   1      31.367  24.110  27.095  1.00  0.00    -0.275 OA
ATOM      7  H   UNL A   1      31.224  26.428  26.815  1.00  0.00     0.163 HD
BRANCH   5   8
ATOM      8  C   UNL A   1      33.302  24.008  25.697  1.00  0.00     0.138 C 
BRANCH   8   9
ATOM      9  C   UNL A   1      32.926  23.178  24.502  1.00  0.00    -0.002 A 
ATOM     10  C   UNL A   1      32.590  23.582  23.207  1.00  0.00     0.093 A 
ATOM     11  N   UNL A   1      32.181  22.443  22.537  1.00  0.00    -0.352 N 
ATOM     12  C   UNL A   1      32.356  21.314  23.294  1.00  0.00     0.046 A 
ATOM     13  H   UNL A   1      31.809  22.443  21.625  1.00  0.00     0.167 HD
ATOM     14  C   UNL A   1      32.748  21.742  24.557  1.00  0.00     0.007 A 
ATOM     15  C   UNL A   1      32.167  19.964  22.964  1.00  0.00     0.030 A 
ATOM     16  C   UNL A   1      32.910  20.766  25.565  1.00  0.00     0.049 A 
ATOM     17  C   UNL A   1      32.402  19.016  23.963  1.00  0.00     0.041 A 
ATOM     18  C   UNL A   1      32.760  19.419  25.241  1.00  0.00     0.123 A 
ATOM     19  F   UNL A   1      32.989  18.492  26.182  1.00  0.00    -0.207 F 
BRANCH  10  20
ATOM     20  C   UNL A   1      32.468  24.867  22.517  1.00  0.00     0.227 C 
ATOM     21  O   UNL A   1      33.347  25.197  21.721  1.00  0.00    -0.285 OA
BRANCH  20  22
ATOM     22  C   UNL A   1      31.397  25.875  22.847  1.00  0.00     0.113 A 
ATOM     23  C   UNL A   1      30.381  29.497  22.264  1.00  0.00     0.044 C 
ATOM     24  C   UNL A   1      30.377  28.058  22.687  1.00  0.00    -0.047 A 
ATOM     25  C   UNL A   1      29.318  27.574  23.448  1.00  0.00     0.023 A 
ATOM     26  C   UNL A   1      31.402  27.168  22.334  1.00  0.00     0.036 A 
ATOM     27  C   UNL A   1      29.352  26.256  23.866  1.00  0.00     0.112 A 
ATOM     28  N   UNL A   1      30.364  25.405  23.595  1.00  0.00    -0.253 NA
ENDBRANCH  20  22
ENDBRANCH  10  20
ENDBRANCH   8   9
ENDBRANCH   5   8
ENDBRANCH   3   4
ENDBRANCH   2   3
ENDBRANCH   1   2
BRANCH   1  29
ATOM     29  C   UNL A   1      31.632  30.412  25.814  1.00  0.00     0.002 C 
BRANCH  29  30
ATOM     30  C   UNL A   1      31.394  31.761  26.487  1.00  0.00     0.021 C 
BRANCH  30  31
ATOM     31  C   UNL A   1      32.637  32.342  27.147  1.00  0.00     0.116 C 
BRANCH  31  32
ATOM     32  N   UNL A   1      32.464  33.742  27.498  1.00  0.00    -0.352 N 
ATOM     33  C   UNL A   1      33.125  34.466  28.460  1.00  0.00     0.251 C 
ATOM     34  H   UNL A   1      31.788  34.234  26.979  1.00  0.00     0.163 HD
ATOM     35  O   UNL A   1      32.742  35.583  28.779  1.00  0.00    -0.269 OA
BRANCH  33  36
ATOM     36  C   UNL A   1      34.297  33.861  29.124  1.00  0.00     0.039 A 
ATOM     37  C   UNL A   1      34.096  32.869  30.085  1.00  0.00     0.014 A 
ATOM     38  C   UNL A   1      35.591  34.260  28.774  1.00  0.00     0.014 A 
ATOM     39  C   UNL A   1      35.199  32.250  30.670  1.00  0.00     0.010 A 
ATOM     40  C   UNL A   1      36.685  33.582  29.294  1.00  0.00     0.010 A 
ATOM     41  C   UNL A   1      36.502  32.585  30.262  1.00  0.00    -0.014 A 
BRANCH  41  42
ATOM     42  C   UNL A   1      37.686  31.931  30.871  1.00  0.00     0.031 A 
ATOM     43  C   UNL A   1      38.141  32.339  32.245  1.00  0.00     0.074 A 
ATOM     44  C   UNL A   1      38.377  31.010  30.173  1.00  0.00     0.049 A 
ATOM     45  N   UNL A   1      39.173  31.923  32.935  1.00  0.00    -0.248 NA
ATOM     46  C   UNL A   1      37.347  33.376  32.924  1.00  0.00     0.031 C 
ATOM     47  C   UNL A   1      38.061  30.567  28.814  1.00  0.00     0.029 A 
ATOM     48  N   UNL A   1      39.490  30.282  30.510  1.00  0.00    -0.354 N 
ATOM     49  C   UNL A   1      39.156  32.655  34.115  1.00  0.00     0.074 A 
ATOM     50  C   UNL A   1      38.056  33.588  34.021  1.00  0.00     0.031 C 
ATOM     51  C   UNL A   1      38.943  29.624  28.444  1.00  0.00     0.029 A 
ATOM     52  C   UNL A   1      39.906  29.423  29.522  1.00  0.00     0.049 A 
ATOM     53  H   UNL A   1      39.948  30.369  31.377  1.00  0.00     0.167 HD
ATOM     54  C   UNL A   1      39.967  32.537  35.194  1.00  0.00     0.037 A 
ATOM     55  C   UNL A   1      40.949  28.573  29.492  1.00  0.00     0.037 A 
ATOM     56  C   UNL A   1      41.047  31.592  35.289  1.00  0.00     0.049 A 
ATOM     57  C   UNL A   1      41.842  28.468  30.701  1.00  0.00     0.074 A 
ATOM     58  C   UNL A   1      41.899  31.358  36.355  1.00  0.00     0.029 A 
ATOM     59  N   UNL A   1      41.429  30.727  34.275  1.00  0.00    -0.354 N 
ATOM     60  N   UNL A   1      41.776  29.115  31.840  1.00  0.00    -0.248 NA
ATOM     61  C   UNL A   1      42.946  27.503  30.624  1.00  0.00     0.031 C 
ATOM     62  C   UNL A   1      42.831  30.391  35.965  1.00  0.00     0.029 A 
ATOM     63  C   UNL A   1      42.518  29.972  34.682  1.00  0.00     0.049 A 
ATOM     64  H   UNL A   1      40.992  30.658  33.396  1.00  0.00     0.167 HD
ATOM     65  C   UNL A   1      42.802  28.610  32.627  1.00  0.00     0.074 A 
ATOM     66  C   UNL A   1      43.467  27.593  31.838  1.00  0.00     0.031 C 
ATOM     67  C   UNL A   1      43.162  28.954  33.889  1.00  0.00     0.037 A 
BRANCH  54  68
ATOM     68  C   UNL A   1      39.713  33.459  36.355  1.00  0.00     0.064 A 
ATOM     69  C   UNL A   1      38.845  33.109  37.400  1.00  0.00     0.173 A 
ATOM     70  C   UNL A   1      40.362  34.701  36.432  1.00  0.00     0.173 A 
ATOM     71  F   UNL A   1      38.187  31.940  37.371  1.00  0.00    -0.203 F 
ATOM     72  C   UNL A   1      38.606  33.982  38.459  1.00  0.00     0.198 A 
ATOM     73  C   UNL A   1      40.150  35.555  37.512  1.00  0.00     0.198 A 
ATOM     74  F   UNL A   1      41.206  35.085  35.463  1.00  0.00    -0.203 F 
ATOM     75  F   UNL A   1      37.725  33.651  39.413  1.00  0.00    -0.200 F 
ATOM     76  C   UNL A   1      39.265  35.200  38.518  1.00  0.00     0.200 A 
ATOM     77  F   UNL A   1      40.800  36.726  37.574  1.00  0.00    -0.200 F 
ATOM     78  F   UNL A   1      39.041  36.036  39.540  1.00  0.00    -0.200 F 
ENDBRANCH  54  68
BRANCH  55  79
ATOM     79  C   UNL A   1      41.190  27.732  28.290  1.00  0.00     0.064 A 
ATOM     80  C   UNL A   1      40.576  26.478  28.152  1.00  0.00     0.173 A 
ATOM     81  C   UNL A   1      42.042  28.155  27.260  1.00  0.00     0.173 A 
ATOM     82  F   UNL A   1      39.766  26.021  29.119  1.00  0.00    -0.203 F 
ATOM     83  C   UNL A   1      40.828  25.671  27.046  1.00  0.00     0.198 A 
ATOM     84  C   UNL A   1      42.267  27.361  26.138  1.00  0.00     0.198 A 
ATOM     85  F   UNL A   1      42.649  29.350  27.339  1.00  0.00    -0.203 F 
ATOM     86  F   UNL A   1      40.269  24.455  26.967  1.00  0.00    -0.200 F 
ATOM     87  C   UNL A   1      41.668  26.114  26.037  1.00  0.00     0.200 A 
ATOM     88  F   UNL A   1      43.067  27.801  25.158  1.00  0.00    -0.200 F 
ATOM     89  F   UNL A   1      41.908  25.339  24.971  1.00  0.00    -0.200 F 
ENDBRANCH  55  79
BRANCH  67  90
ATOM     90  C   UNL A   1      44.290  28.187  34.518  1.00  0.00     0.064 A 
ATOM     91  C   UNL A   1      45.621  28.624  34.443  1.00  0.00     0.173 A 
ATOM     92  C   UNL A   1      44.028  27.006  35.230  1.00  0.00     0.173 A 
ATOM     93  F   UNL A   1      45.928  29.740  33.763  1.00  0.00    -0.203 F 
ATOM     94  C   UNL A   1      46.651  27.888  35.025  1.00  0.00     0.198 A 
ATOM     95  C   UNL A   1      45.054  26.293  35.843  1.00  0.00     0.198 A 
ATOM     96  F   UNL A   1      42.772  26.547  35.342  1.00  0.00    -0.203 F 
ATOM     97  F   UNL A   1      47.921  28.293  34.886  1.00  0.00    -0.200 F 
ATOM     98  C   UNL A   1      46.366  26.728  35.729  1.00  0.00     0.200 A 
ATOM     99  F   UNL A   1      44.774  25.183  36.540  1.00  0.00    -0.200 F 
ATOM    100  F   UNL A   1      47.357  26.025  36.294  1.00  0.00    -0.200 F 
ENDBRANCH  67  90
ENDBRANCH  41  42
ENDBRANCH  33  36
ENDBRANCH  31  32
ENDBRANCH  30  31
ENDBRANCH  29  30
ENDBRANCH   1  29
TORSDOF 16
ENDMDL
MODEL 3
REMARK VINA RESULT:     -12.9      0.645      7.190
REMARK SMILES Cc1ccnc(C(=O)c2[nH]c3ccc(F)cc3c2CC(=O)NCCCCCCNC(=O)c2ccc(-c3c4nc(c(-c5c(F)c(F)c(F)c(F)c5F)c5ccc([nH]5)c(-c5c(F)c(F)c(F)c(F)c5F)c5nc(c(-c6c(F)c(F)c(F)c(F)c6F)c6ccc3[nH]6)C=C5)C=C4)cc2)c1
REMARK SMILES IDX 25 1 24 2 23 3 22 4 20 5 21 6 19 8 18 9 9 10 10 11 11 12
REMARK SMILES IDX 17 14 12 15 16 16 13 17 14 18 15 19 7 20 8 21 6 22 1 23 2 24
REMARK SMILES IDX 3 25 95 26 4 27 5 28 26 29 27 30 28 31 29 32 30 33 31 35
REMARK SMILES IDX 32 36 33 37 94 38 34 39 93 40 35 41 36 42 37 43 87 44 38 45
REMARK SMILES IDX 92 46 86 47 88 48 39 49 91 50 85 51 84 52 40 54 72 55 52 56
REMARK SMILES IDX 71 57 53 58 56 59 70 60 89 61 54 62 55 63 69 65 90 66 57 67
REMARK SMILES IDX 41 68 42 69 50 70 43 71 44 72 48 73 51 74 45 75 46 76 49 77
REMARK SMILES IDX 47 78 73 79 74 80 82 81 75 82 76 83 80 84 83 85 77 86 78 87
REMARK SMILES IDX 81 88 79 89 58 90 59 91 67 92 60 93 61 94 65 95 68 96 62 97
REMARK SMILES IDX 63 98 66 99 64 100
REMARK H PARENT 22 7 10 13 29 34 88 53 56 64
REMARK Flexibility Score: inf
ROOT
ATOM      1  C   UNL A   1      31.780  29.382  26.961  1.00  0.00     0.002 C 
ENDROOT
BRANCH   1   2
ATOM      2  C   UNL A   1      32.991  28.452  26.834  1.00  0.00     0.021 C 
BRANCH   2   3
ATOM      3  C   UNL A   1      32.704  27.017  26.372  1.00  0.00     0.116 C 
BRANCH   3   4
ATOM      4  N   UNL A   1      31.367  26.543  26.664  1.00  0.00    -0.356 N 
ATOM      5  C   UNL A   1      30.474  25.854  25.900  1.00  0.00     0.224 C 
ATOM      6  O   UNL A   1      29.454  25.448  26.467  1.00  0.00    -0.275 OA
ATOM      7  H   UNL A   1      31.050  26.754  27.571  1.00  0.00     0.163 HD
BRANCH   5   8
ATOM      8  C   UNL A   1      30.719  25.523  24.441  1.00  0.00     0.138 C 
BRANCH   8   9
ATOM      9  C   UNL A   1      30.810  26.682  23.488  1.00  0.00    -0.002 A 
ATOM     10  C   UNL A   1      31.908  27.157  22.765  1.00  0.00     0.093 A 
ATOM     11  N   UNL A   1      31.498  28.332  22.161  1.00  0.00    -0.352 N 
ATOM     12  C   UNL A   1      30.163  28.569  22.356  1.00  0.00     0.046 A 
ATOM     13  H   UNL A   1      32.095  28.927  21.651  1.00  0.00     0.167 HD
ATOM     14  C   UNL A   1      29.715  27.599  23.246  1.00  0.00     0.007 A 
ATOM     15  C   UNL A   1      29.337  29.578  21.840  1.00  0.00     0.030 A 
ATOM     16  C   UNL A   1      28.375  27.674  23.686  1.00  0.00     0.049 A 
ATOM     17  C   UNL A   1      27.998  29.585  22.240  1.00  0.00     0.041 A 
ATOM     18  C   UNL A   1      27.535  28.650  23.153  1.00  0.00     0.123 A 
ATOM     19  F   UNL A   1      26.246  28.669  23.518  1.00  0.00    -0.207 F 
BRANCH  10  20
ATOM     20  C   UNL A   1      33.314  26.770  22.636  1.00  0.00     0.227 C 
ATOM     21  O   UNL A   1      34.091  27.542  22.074  1.00  0.00    -0.285 OA
BRANCH  20  22
ATOM     22  C   UNL A   1      33.827  25.406  23.022  1.00  0.00     0.113 A 
ATOM     23  C   UNL A   1      35.762  23.569  25.737  1.00  0.00     0.044 C 
ATOM     24  C   UNL A   1      34.945  23.874  24.517  1.00  0.00    -0.047 A 
ATOM     25  C   UNL A   1      34.613  22.843  23.643  1.00  0.00     0.023 A 
ATOM     26  C   UNL A   1      34.487  25.167  24.222  1.00  0.00     0.036 A 
ATOM     27  C   UNL A   1      33.896  23.150  22.501  1.00  0.00     0.112 A 
ATOM     28  N   UNL A   1      33.508  24.399  22.167  1.00  0.00    -0.253 NA
ENDBRANCH  20  22
ENDBRANCH  10  20
ENDBRANCH   8   9
ENDBRANCH   5   8
ENDBRANCH   3   4
ENDBRANCH   2   3
ENDBRANCH   1   2
BRANCH   1  29
ATOM     29  C   UNL A   1      31.693  30.490  25.916  1.00  0.00     0.002 C 
BRANCH  29  30
ATOM     30  C   UNL A   1      31.401  31.866  26.507  1.00  0.00     0.021 C 
BRANCH  30  31
ATOM     31  C   UNL A   1      32.604  32.509  27.181  1.00  0.00     0.116 C 
BRANCH  31  32
ATOM     32  N   UNL A   1      32.374  33.912  27.487  1.00  0.00    -0.352 N 
ATOM     33  C   UNL A   1      32.972  34.682  28.454  1.00  0.00     0.251 C 
ATOM     34  H   UNL A   1      31.704  34.368  26.928  1.00  0.00     0.163 HD
ATOM     35  O   UNL A   1      32.543  35.794  28.726  1.00  0.00    -0.269 OA
BRANCH  33  36
ATOM     36  C   UNL A   1      34.136  34.133  29.179  1.00  0.00     0.039 A 
ATOM     37  C   UNL A   1      33.919  33.261  30.247  1.00  0.00     0.014 A 
ATOM     38  C   UNL A   1      35.435  34.464  28.783  1.00  0.00     0.014 A 
ATOM     39  C   UNL A   1      35.013  32.691  30.897  1.00  0.00     0.010 A 
ATOM     40  C   UNL A   1      36.519  33.827  29.374  1.00  0.00     0.010 A 
ATOM     41  C   UNL A   1      36.320  32.951  30.451  1.00  0.00    -0.014 A 
BRANCH  41  42
ATOM     42  C   UNL A   1      37.494  32.347  31.127  1.00  0.00     0.031 A 
ATOM     43  C   UNL A   1      38.259  31.243  30.450  1.00  0.00     0.074 A 
ATOM     44  C   UNL A   1      37.840  32.755  32.362  1.00  0.00     0.049 A 
ATOM     45  N   UNL A   1      39.284  30.555  30.888  1.00  0.00    -0.248 NA
ATOM     46  C   UNL A   1      37.793  30.837  29.115  1.00  0.00     0.031 C 
ATOM     47  C   UNL A   1      37.146  33.783  33.138  1.00  0.00     0.029 A 
ATOM     48  N   UNL A   1      38.863  32.352  33.183  1.00  0.00    -0.354 N 
ATOM     49  C   UNL A   1      39.572  29.633  29.890  1.00  0.00     0.074 A 
ATOM     50  C   UNL A   1      38.574  29.799  28.857  1.00  0.00     0.031 C 
ATOM     51  C   UNL A   1      37.779  33.950  34.311  1.00  0.00     0.029 A 
ATOM     52  C   UNL A   1      38.899  33.017  34.384  1.00  0.00     0.049 A 
ATOM     53  H   UNL A   1      39.509  31.652  32.935  1.00  0.00     0.167 HD
ATOM     54  C   UNL A   1      40.594  28.747  29.828  1.00  0.00     0.037 A 
ATOM     55  C   UNL A   1      39.740  32.883  35.427  1.00  0.00     0.037 A 
ATOM     56  C   UNL A   1      41.595  28.600  30.850  1.00  0.00     0.049 A 
ATOM     57  C   UNL A   1      40.864  31.884  35.336  1.00  0.00     0.074 A 
ATOM     58  C   UNL A   1      42.700  27.767  30.865  1.00  0.00     0.029 A 
ATOM     59  N   UNL A   1      41.608  29.302  32.047  1.00  0.00    -0.354 N 
ATOM     60  N   UNL A   1      41.168  31.065  34.359  1.00  0.00    -0.248 NA
ATOM     61  C   UNL A   1      41.769  31.802  36.490  1.00  0.00     0.031 C 
ATOM     62  C   UNL A   1      43.350  27.924  32.093  1.00  0.00     0.029 A 
ATOM     63  C   UNL A   1      42.690  28.905  32.816  1.00  0.00     0.049 A 
ATOM     64  H   UNL A   1      40.947  29.981  32.311  1.00  0.00     0.167 HD
ATOM     65  C   UNL A   1      42.319  30.399  34.762  1.00  0.00     0.074 A 
ATOM     66  C   UNL A   1      42.663  30.921  36.069  1.00  0.00     0.031 C 
ATOM     67  C   UNL A   1      43.027  29.443  34.110  1.00  0.00     0.037 A 
BRANCH  54  68
ATOM     68  C   UNL A   1      40.675  27.867  28.611  1.00  0.00     0.064 A 
ATOM     69  C   UNL A   1      41.451  28.217  27.496  1.00  0.00     0.173 A 
ATOM     70  C   UNL A   1      39.981  26.648  28.567  1.00  0.00     0.173 A 
ATOM     71  F   UNL A   1      42.124  29.377  27.478  1.00  0.00    -0.203 F 
ATOM     72  C   UNL A   1      41.501  27.400  26.369  1.00  0.00     0.198 A 
ATOM     73  C   UNL A   1      40.063  25.815  27.454  1.00  0.00     0.198 A 
ATOM     74  F   UNL A   1      39.227  26.260  29.607  1.00  0.00    -0.203 F 
ATOM     75  F   UNL A   1      42.199  27.786  25.293  1.00  0.00    -0.200 F 
ATOM     76  C   UNL A   1      40.813  26.196  26.352  1.00  0.00     0.200 A 
ATOM     77  F   UNL A   1      39.410  24.644  27.447  1.00  0.00    -0.200 F 
ATOM     78  F   UNL A   1      40.867  25.407  25.271  1.00  0.00    -0.200 F 
ENDBRANCH  54  68
BRANCH  55  79
ATOM     79  C   UNL A   1      39.573  33.737  36.632  1.00  0.00     0.064 A 
ATOM     80  C   UNL A   1      40.165  35.006  36.706  1.00  0.00     0.173 A 
ATOM     81  C   UNL A   1      38.828  33.302  37.739  1.00  0.00     0.173 A 
ATOM     82  F   UNL A   1      40.902  35.460  35.681  1.00  0.00    -0.203 F 
ATOM     83  C   UNL A   1      40.042  35.794  37.848  1.00  0.00     0.198 A 
ATOM     84  C   UNL A   1      38.679  34.104  38.867  1.00  0.00     0.198 A 
ATOM     85  F   UNL A   1      38.234  32.099  37.717  1.00  0.00    -0.203 F 
ATOM     86  F   UNL A   1      40.664  36.980  37.910  1.00  0.00    -0.200 F 
ATOM     87  C   UNL A   1      39.295  35.345  38.926  1.00  0.00     0.200 A 
ATOM     88  F   UNL A   1      37.940  33.674  39.899  1.00  0.00    -0.200 F 
ATOM     89  F   UNL A   1      39.174  36.104  40.023  1.00  0.00    -0.200 F 
ENDBRANCH  55  79
BRANCH  67  90
ATOM     90  C   UNL A   1      44.279  28.941  34.774  1.00  0.00     0.064 A 
ATOM     91  C   UNL A   1      44.272  27.831  35.632  1.00  0.00     0.173 A 
ATOM     92  C   UNL A   1      45.509  29.568  34.523  1.00  0.00     0.173 A 
ATOM     93  F   UNL A   1      43.121  27.203  35.914  1.00  0.00    -0.203 F 
ATOM     94  C   UNL A   1      45.444  27.392  36.243  1.00  0.00     0.198 A 
ATOM     95  C   UNL A   1      46.684  29.103  35.106  1.00  0.00     0.198 A 
ATOM     96  F   UNL A   1      45.575  30.628  33.703  1.00  0.00    -0.203 F 
ATOM     97  F   UNL A   1      45.403  26.369  37.107  1.00  0.00    -0.200 F 
ATOM     98  C   UNL A   1      46.650  28.023  35.974  1.00  0.00     0.200 A 
ATOM     99  F   UNL A   1      47.851  29.703  34.829  1.00  0.00    -0.200 F 
ATOM    100  F   UNL A   1      47.777  27.596  36.559  1.00  0.00    -0.200 F 
ENDBRANCH  67  90
ENDBRANCH  41  42
ENDBRANCH  33  36
ENDBRANCH  31  32
ENDBRANCH  30  31
ENDBRANCH  29  30
ENDBRANCH   1  29
TORSDOF 16
ENDMDL
