MODEL 1
REMARK VINA RESULT:     -12.4      0.000      0.000
REMARK SMILES CC[C@@H]1[NH2+][C@@H](C(=O)NCCCCCCNC(=O)c2ccc(-c3c4nc(c(-c5c(F)c(F)c(F)c(F)c5F)c5ccc([nH]5)c(-c5c(F)c(F)c(F)c(F)c5F)c5nc(c(-c6c(F)c(F)c(F)c(F)c6F)c6ccc3[nH]6)C=C5)C=C4)cc2)Cc2c1[nH]c1ccccc21
REMARK SMILES IDX 12 1 11 2 10 3 9 4 8 5 6 6 7 7 5 9 3 10 4 11 83 12 82 15
REMARK SMILES IDX 84 16 81 17 90 18 85 19 89 21 86 22 88 23 87 24 2 25 1 26
REMARK SMILES IDX 13 27 14 28 15 29 16 30 17 32 18 33 19 34 80 35 20 36 79 37
REMARK SMILES IDX 21 38 22 39 23 40 73 41 24 42 78 43 72 44 74 45 25 46 77 47
REMARK SMILES IDX 71 48 70 49 26 51 58 52 38 53 57 54 39 55 42 56 56 57 75 58
REMARK SMILES IDX 40 59 41 60 55 62 76 63 43 64 27 65 28 66 36 67 29 68 30 69
REMARK SMILES IDX 34 70 37 71 31 72 32 73 35 74 33 75 59 76 60 77 68 78 61 79
REMARK SMILES IDX 62 80 66 81 69 82 63 83 64 84 67 85 65 86 44 87 45 88 53 89
REMARK SMILES IDX 46 90 47 91 51 92 54 93 48 94 49 95 52 96 50 97
REMARK H PARENT 8 8 4 13 4 14 84 20 15 31 74 50 42 61
REMARK Flexibility Score: inf
ROOT
ATOM      1  C   UNL A   1      34.054  23.982  25.893  1.00  0.00     0.002 C 
ENDROOT
BRANCH   1   2
ATOM      2  C   UNL A   1      32.977  23.028  25.368  1.00  0.00     0.002 C 
BRANCH   2   3
ATOM      3  C   UNL A   1      33.094  22.680  23.879  1.00  0.00     0.021 C 
BRANCH   3   4
ATOM      4  C   UNL A   1      32.032  23.353  23.004  1.00  0.00     0.116 C 
BRANCH   4   5
ATOM      5  N   UNL A   1      32.670  24.130  21.958  1.00  0.00    -0.351 N 
ATOM      6  C   UNL A   1      32.633  25.473  21.724  1.00  0.00     0.278 C 
ATOM      7  O   UNL A   1      33.195  25.888  20.706  1.00  0.00    -0.268 OA
ATOM      8  H   UNL A   1      33.212  23.609  21.322  1.00  0.00     0.163 HD
BRANCH   6   9
ATOM      9  C   UNL A   1      31.994  26.457  22.723  1.00  0.00     0.277 C 
ATOM     10  C   UNL A   1      30.631  28.524  22.788  1.00  0.00     0.230 C 
ATOM     11  N   UNL A   1      31.408  27.593  21.948  1.00  0.00    -0.328 N 
ATOM     12  C   UNL A   1      31.434  28.853  24.006  1.00  0.00     0.078 A 
ATOM     13  H   UNL A   1      32.167  28.110  21.504  1.00  0.00     0.347 HD
ATOM     14  H   UNL A   1      30.767  27.194  21.261  1.00  0.00     0.347 HD
ATOM     15  C   UNL A   1      32.507  28.139  24.501  1.00  0.00    -0.007 A 
ATOM     16  N   UNL A   1      31.243  29.940  24.813  1.00  0.00    -0.353 N 
ATOM     17  C   UNL A   1      32.954  26.863  23.870  1.00  0.00     0.113 C 
ATOM     18  C   UNL A   1      33.071  28.889  25.568  1.00  0.00     0.003 A 
ATOM     19  C   UNL A   1      32.244  29.999  25.762  1.00  0.00     0.046 A 
ATOM     20  H   UNL A   1      30.504  30.584  24.730  1.00  0.00     0.166 HD
ATOM     21  C   UNL A   1      34.214  28.747  26.377  1.00  0.00     0.010 A 
ATOM     22  C   UNL A   1      32.484  30.951  26.759  1.00  0.00     0.026 A 
ATOM     23  C   UNL A   1      34.485  29.709  27.358  1.00  0.00     0.001 A 
ATOM     24  C   UNL A   1      33.625  30.788  27.550  1.00  0.00     0.002 A 
BRANCH  10  25
ATOM     25  C   UNL A   1      29.235  27.972  23.136  1.00  0.00     0.068 C 
ATOM     26  C   UNL A   1      28.136  28.964  22.768  1.00  0.00     0.011 C 
ENDBRANCH  10  25
ENDBRANCH   6   9
ENDBRANCH   4   5
ENDBRANCH   3   4
ENDBRANCH   2   3
ENDBRANCH   1   2
BRANCH   1  27
ATOM     27  C   UNL A   1      35.306  23.301  26.451  1.00  0.00     0.021 C 
BRANCH  27  28
ATOM     28  C   UNL A   1      36.606  23.692  25.753  1.00  0.00     0.116 C 
BRANCH  28  29
ATOM     29  N   UNL A   1      37.641  22.688  25.938  1.00  0.00    -0.352 N 
ATOM     30  C   UNL A   1      38.941  22.841  26.351  1.00  0.00     0.251 C 
ATOM     31  H   UNL A   1      37.370  21.763  25.738  1.00  0.00     0.163 HD
ATOM     32  O   UNL A   1      39.736  21.914  26.236  1.00  0.00    -0.269 OA
BRANCH  30  33
ATOM     33  C   UNL A   1      39.391  24.125  26.928  1.00  0.00     0.039 A 
ATOM     34  C   UNL A   1      40.022  25.053  26.094  1.00  0.00     0.014 A 
ATOM     35  C   UNL A   1      39.232  24.401  28.289  1.00  0.00     0.014 A 
ATOM     36  C   UNL A   1      40.457  26.272  26.618  1.00  0.00     0.010 A 
ATOM     37  C   UNL A   1      39.603  25.644  28.795  1.00  0.00     0.010 A 
ATOM     38  C   UNL A   1      40.232  26.587  27.968  1.00  0.00    -0.014 A 
BRANCH  38  39
ATOM     39  C   UNL A   1      40.663  27.892  28.530  1.00  0.00     0.031 A 
ATOM     40  C   UNL A   1      42.103  28.119  28.898  1.00  0.00     0.074 A 
ATOM     41  C   UNL A   1      39.748  28.854  28.756  1.00  0.00     0.049 A 
ATOM     42  N   UNL A   1      42.665  29.174  29.434  1.00  0.00    -0.248 NA
ATOM     43  C   UNL A   1      43.032  27.003  28.660  1.00  0.00     0.031 C 
ATOM     44  C   UNL A   1      38.312  28.733  28.496  1.00  0.00     0.029 A 
ATOM     45  N   UNL A   1      39.887  30.121  29.265  1.00  0.00    -0.354 N 
ATOM     46  C   UNL A   1      44.002  28.842  29.613  1.00  0.00     0.074 A 
ATOM     47  C   UNL A   1      44.160  27.473  29.176  1.00  0.00     0.031 C 
ATOM     48  C   UNL A   1      37.706  29.883  28.829  1.00  0.00     0.029 A 
ATOM     49  C   UNL A   1      38.703  30.812  29.354  1.00  0.00     0.049 A 
ATOM     50  H   UNL A   1      40.753  30.499  29.541  1.00  0.00     0.167 HD
ATOM     51  C   UNL A   1      45.010  29.616  30.082  1.00  0.00     0.037 A 
ATOM     52  C   UNL A   1      38.451  32.053  29.811  1.00  0.00     0.037 A 
ATOM     53  C   UNL A   1      44.856  30.991  30.482  1.00  0.00     0.049 A 
ATOM     54  C   UNL A   1      39.596  32.901  30.296  1.00  0.00     0.074 A 
ATOM     55  C   UNL A   1      45.829  31.884  30.894  1.00  0.00     0.029 A 
ATOM     56  N   UNL A   1      43.647  31.670  30.521  1.00  0.00    -0.354 N 
ATOM     57  N   UNL A   1      40.870  32.606  30.379  1.00  0.00    -0.248 NA
ATOM     58  C   UNL A   1      39.267  34.265  30.736  1.00  0.00     0.031 C 
ATOM     59  C   UNL A   1      45.203  33.090  31.226  1.00  0.00     0.029 A 
ATOM     60  C   UNL A   1      43.847  32.965  30.971  1.00  0.00     0.049 A 
ATOM     61  H   UNL A   1      42.775  31.288  30.266  1.00  0.00     0.167 HD
ATOM     62  C   UNL A   1      41.498  33.750  30.851  1.00  0.00     0.074 A 
ATOM     63  C   UNL A   1      40.466  34.752  31.018  1.00  0.00     0.031 C 
ATOM     64  C   UNL A   1      42.810  33.954  31.125  1.00  0.00     0.037 A 
BRANCH  51  65
ATOM     65  C   UNL A   1      46.375  28.999  30.186  1.00  0.00     0.064 A 
ATOM     66  C   UNL A   1      46.800  28.342  31.350  1.00  0.00     0.173 A 
ATOM     67  C   UNL A   1      47.250  29.022  29.089  1.00  0.00     0.173 A 
ATOM     68  F   UNL A   1      46.007  28.298  32.430  1.00  0.00    -0.203 F 
ATOM     69  C   UNL A   1      48.062  27.755  31.421  1.00  0.00     0.198 A 
ATOM     70  C   UNL A   1      48.498  28.408  29.155  1.00  0.00     0.198 A 
ATOM     71  F   UNL A   1      46.891  29.633  27.950  1.00  0.00    -0.203 F 
ATOM     72  F   UNL A   1      48.464  27.172  32.560  1.00  0.00    -0.200 F 
ATOM     73  C   UNL A   1      48.906  27.781  30.321  1.00  0.00     0.200 A 
ATOM     74  F   UNL A   1      49.307  28.424  28.086  1.00  0.00    -0.200 F 
ATOM     75  F   UNL A   1      50.115  27.207  30.389  1.00  0.00    -0.200 F 
ENDBRANCH  51  65
BRANCH  52  76
ATOM     76  C   UNL A   1      37.062  32.580  29.807  1.00  0.00     0.064 A 
ATOM     77  C   UNL A   1      36.557  33.279  28.701  1.00  0.00     0.173 A 
ATOM     78  C   UNL A   1      36.216  32.412  30.913  1.00  0.00     0.173 A 
ATOM     79  F   UNL A   1      37.335  33.483  27.627  1.00  0.00    -0.203 F 
ATOM     80  C   UNL A   1      35.271  33.813  28.712  1.00  0.00     0.198 A 
ATOM     81  C   UNL A   1      34.919  32.920  30.911  1.00  0.00     0.198 A 
ATOM     82  F   UNL A   1      36.647  31.745  31.993  1.00  0.00    -0.203 F 
ATOM     83  F   UNL A   1      34.834  34.523  27.663  1.00  0.00    -0.200 F 
ATOM     84  C   UNL A   1      34.450  33.630  29.815  1.00  0.00     0.200 A 
ATOM     85  F   UNL A   1      34.124  32.728  31.972  1.00  0.00    -0.200 F 
ATOM     86  F   UNL A   1      33.214  34.144  29.825  1.00  0.00    -0.200 F 
ENDBRANCH  52  76
BRANCH  64  87
ATOM     87  C   UNL A   1      43.208  35.322  31.596  1.00  0.00     0.064 A 
ATOM     88  C   UNL A   1      43.663  36.306  30.706  1.00  0.00     0.173 A 
ATOM     89  C   UNL A   1      43.110  35.660  32.954  1.00  0.00     0.173 A 
ATOM     90  F   UNL A   1      43.788  36.027  29.399  1.00  0.00    -0.203 F 
ATOM     91  C   UNL A   1      44.039  37.566  31.163  1.00  0.00     0.198 A 
ATOM     92  C   UNL A   1      43.455  36.931  33.404  1.00  0.00     0.198 A 
ATOM     93  F   UNL A   1      42.672  34.758  33.846  1.00  0.00    -0.203 F 
ATOM     94  F   UNL A   1      44.524  38.471  30.302  1.00  0.00    -0.200 F 
ATOM     95  C   UNL A   1      43.929  37.879  32.509  1.00  0.00     0.200 A 
ATOM     96  F   UNL A   1      43.335  37.237  34.703  1.00  0.00    -0.200 F 
ATOM     97  F   UNL A   1      44.288  39.094  32.947  1.00  0.00    -0.200 F 
ENDBRANCH  64  87
ENDBRANCH  38  39
ENDBRANCH  30  33
ENDBRANCH  28  29
ENDBRANCH  27  28
ENDBRANCH   1  27
TORSDOF 14
ENDMDL
MODEL 2
REMARK VINA RESULT:     -12.3      3.434      9.013
REMARK SMILES CC[C@@H]1[NH2+][C@@H](C(=O)NCCCCCCNC(=O)c2ccc(-c3c4nc(c(-c5c(F)c(F)c(F)c(F)c5F)c5ccc([nH]5)c(-c5c(F)c(F)c(F)c(F)c5F)c5nc(c(-c6c(F)c(F)c(F)c(F)c6F)c6ccc3[nH]6)C=C5)C=C4)cc2)Cc2c1[nH]c1ccccc21
REMARK SMILES IDX 12 1 11 2 10 3 9 4 8 5 6 6 7 7 5 9 3 10 4 11 83 12 82 15
REMARK SMILES IDX 84 16 81 17 90 18 85 19 89 21 86 22 88 23 87 24 2 25 1 26
REMARK SMILES IDX 13 27 14 28 15 29 16 30 17 32 18 33 19 34 80 35 20 36 79 37
REMARK SMILES IDX 21 38 22 39 23 40 73 41 24 42 78 43 72 44 74 45 25 46 77 47
REMARK SMILES IDX 71 48 70 49 26 51 58 52 38 53 57 54 39 55 42 56 56 57 75 58
REMARK SMILES IDX 40 59 41 60 55 62 76 63 43 64 27 65 28 66 36 67 29 68 30 69
REMARK SMILES IDX 34 70 37 71 31 72 32 73 35 74 33 75 59 76 60 77 68 78 61 79
REMARK SMILES IDX 62 80 66 81 69 82 63 83 64 84 67 85 65 86 44 87 45 88 53 89
REMARK SMILES IDX 46 90 47 91 51 92 54 93 48 94 49 95 52 96 50 97
REMARK H PARENT 8 8 4 13 4 14 84 20 15 31 74 50 42 61
REMARK Flexibility Score: inf
ROOT
ATOM      1  C   UNL A   1      31.966  27.730  26.761  1.00  0.00     0.002 C 
ENDROOT
BRANCH   1   2
ATOM      2  C   UNL A   1      31.076  27.571  25.523  1.00  0.00     0.002 C 
BRANCH   2   3
ATOM      3  C   UNL A   1      31.530  26.486  24.539  1.00  0.00     0.021 C 
BRANCH   3   4
ATOM      4  C   UNL A   1      30.553  25.311  24.424  1.00  0.00     0.116 C 
BRANCH   4   5
ATOM      5  N   UNL A   1      30.314  24.734  25.733  1.00  0.00    -0.351 N 
ATOM      6  C   UNL A   1      30.843  23.612  26.301  1.00  0.00     0.278 C 
ATOM      7  O   UNL A   1      30.411  23.277  27.408  1.00  0.00    -0.268 OA
ATOM      8  H   UNL A   1      29.674  25.225  26.297  1.00  0.00     0.163 HD
BRANCH   6   9
ATOM      9  C   UNL A   1      31.996  22.831  25.640  1.00  0.00     0.277 C 
ATOM     10  C   UNL A   1      32.851  20.522  25.368  1.00  0.00     0.230 C 
ATOM     11  N   UNL A   1      31.890  21.400  26.062  1.00  0.00    -0.328 N 
ATOM     12  C   UNL A   1      34.202  21.163  25.410  1.00  0.00     0.078 A 
ATOM     13  H   UNL A   1      32.063  21.343  27.065  1.00  0.00     0.347 HD
ATOM     14  H   UNL A   1      30.953  21.080  25.818  1.00  0.00     0.347 HD
ATOM     15  C   UNL A   1      34.473  22.493  25.664  1.00  0.00    -0.007 A 
ATOM     16  N   UNL A   1      35.394  20.518  25.228  1.00  0.00    -0.353 N 
ATOM     17  C   UNL A   1      33.381  23.488  25.868  1.00  0.00     0.113 C 
ATOM     18  C   UNL A   1      35.883  22.634  25.771  1.00  0.00     0.003 A 
ATOM     19  C   UNL A   1      36.438  21.388  25.465  1.00  0.00     0.046 A 
ATOM     20  H   UNL A   1      35.492  19.574  24.967  1.00  0.00     0.166 HD
ATOM     21  C   UNL A   1      36.745  23.692  26.116  1.00  0.00     0.010 A 
ATOM     22  C   UNL A   1      37.819  21.163  25.447  1.00  0.00     0.026 A 
ATOM     23  C   UNL A   1      38.128  23.474  26.134  1.00  0.00     0.001 A 
ATOM     24  C   UNL A   1      38.655  22.229  25.793  1.00  0.00     0.002 A 
BRANCH  10  25
ATOM     25  C   UNL A   1      32.405  20.186  23.931  1.00  0.00     0.068 C 
ATOM     26  C   UNL A   1      32.513  18.691  23.649  1.00  0.00     0.011 C 
ENDBRANCH  10  25
ENDBRANCH   6   9
ENDBRANCH   4   5
ENDBRANCH   3   4
ENDBRANCH   2   3
ENDBRANCH   1   2
BRANCH   1  27
ATOM     27  C   UNL A   1      33.465  27.555  26.508  1.00  0.00     0.021 C 
BRANCH  27  28
ATOM     28  C   UNL A   1      34.143  28.758  25.857  1.00  0.00     0.116 C 
BRANCH  28  29
ATOM     29  N   UNL A   1      33.772  30.004  26.509  1.00  0.00    -0.352 N 
ATOM     30  C   UNL A   1      34.366  30.645  27.567  1.00  0.00     0.251 C 
ATOM     31  H   UNL A   1      32.980  30.453  26.137  1.00  0.00     0.163 HD
ATOM     32  O   UNL A   1      33.789  31.570  28.128  1.00  0.00    -0.269 OA
BRANCH  30  33
ATOM     33  C   UNL A   1      35.699  30.217  28.042  1.00  0.00     0.039 A 
ATOM     34  C   UNL A   1      35.812  29.659  29.319  1.00  0.00     0.014 A 
ATOM     35  C   UNL A   1      36.839  30.402  27.255  1.00  0.00     0.014 A 
ATOM     36  C   UNL A   1      37.062  29.249  29.788  1.00  0.00     0.010 A 
ATOM     37  C   UNL A   1      38.073  29.930  27.696  1.00  0.00     0.010 A 
ATOM     38  C   UNL A   1      38.200  29.361  28.973  1.00  0.00    -0.014 A 
BRANCH  38  39
ATOM     39  C   UNL A   1      39.528  28.902  29.449  1.00  0.00     0.031 A 
ATOM     40  C   UNL A   1      40.315  29.739  30.420  1.00  0.00     0.074 A 
ATOM     41  C   UNL A   1      40.048  27.757  28.968  1.00  0.00     0.049 A 
ATOM     42  N   UNL A   1      41.506  29.525  30.923  1.00  0.00    -0.248 NA
ATOM     43  C   UNL A   1      39.695  30.997  30.865  1.00  0.00     0.031 C 
ATOM     44  C   UNL A   1      39.409  26.889  27.978  1.00  0.00     0.029 A 
ATOM     45  N   UNL A   1      41.240  27.131  29.238  1.00  0.00    -0.354 N 
ATOM     46  C   UNL A   1      41.783  30.627  31.723  1.00  0.00     0.074 A 
ATOM     47  C   UNL A   1      40.660  31.530  31.603  1.00  0.00     0.031 C 
ATOM     48  C   UNL A   1      40.204  25.834  27.738  1.00  0.00     0.029 A 
ATOM     49  C   UNL A   1      41.422  25.966  28.533  1.00  0.00     0.049 A 
ATOM     50  H   UNL A   1      41.901  27.483  29.877  1.00  0.00     0.167 HD
ATOM     51  C   UNL A   1      42.867  30.854  32.502  1.00  0.00     0.037 A 
ATOM     52  C   UNL A   1      42.457  25.105  28.526  1.00  0.00     0.037 A 
ATOM     53  C   UNL A   1      43.966  29.936  32.648  1.00  0.00     0.049 A 
ATOM     54  C   UNL A   1      43.634  25.368  29.427  1.00  0.00     0.074 A 
ATOM     55  C   UNL A   1      45.072  30.037  33.473  1.00  0.00     0.029 A 
ATOM     56  N   UNL A   1      44.098  28.747  31.947  1.00  0.00    -0.354 N 
ATOM     57  N   UNL A   1      43.845  26.369  30.245  1.00  0.00    -0.248 NA
ATOM     58  C   UNL A   1      44.712  24.367  29.413  1.00  0.00     0.031 C 
ATOM     59  C   UNL A   1      45.896  28.931  33.239  1.00  0.00     0.029 A 
ATOM     60  C   UNL A   1      45.278  28.114  32.305  1.00  0.00     0.049 A 
ATOM     61  H   UNL A   1      43.449  28.402  31.291  1.00  0.00     0.167 HD
ATOM     62  C   UNL A   1      45.060  26.109  30.863  1.00  0.00     0.074 A 
ATOM     63  C   UNL A   1      45.531  24.843  30.340  1.00  0.00     0.031 C 
ATOM     64  C   UNL A   1      45.728  26.850  31.781  1.00  0.00     0.037 A 
BRANCH  51  65
ATOM     65  C   UNL A   1      42.920  32.147  33.265  1.00  0.00     0.064 A 
ATOM     66  C   UNL A   1      43.487  33.306  32.714  1.00  0.00     0.173 A 
ATOM     67  C   UNL A   1      42.353  32.240  34.545  1.00  0.00     0.173 A 
ATOM     68  F   UNL A   1      44.051  33.269  31.498  1.00  0.00    -0.203 F 
ATOM     69  C   UNL A   1      43.508  34.502  33.427  1.00  0.00     0.198 A 
ATOM     70  C   UNL A   1      42.349  33.445  35.242  1.00  0.00     0.198 A 
ATOM     71  F   UNL A   1      41.793  31.163  35.117  1.00  0.00    -0.203 F 
ATOM     72  F   UNL A   1      44.096  35.585  32.898  1.00  0.00    -0.200 F 
ATOM     73  C   UNL A   1      42.932  34.573  34.686  1.00  0.00     0.200 A 
ATOM     74  F   UNL A   1      41.780  33.514  36.454  1.00  0.00    -0.200 F 
ATOM     75  F   UNL A   1      42.944  35.728  35.366  1.00  0.00    -0.200 F 
ENDBRANCH  51  65
BRANCH  52  76
ATOM     76  C   UNL A   1      42.417  23.899  27.658  1.00  0.00     0.064 A 
ATOM     77  C   UNL A   1      41.957  22.670  28.150  1.00  0.00     0.173 A 
ATOM     78  C   UNL A   1      42.853  23.946  26.326  1.00  0.00     0.173 A 
ATOM     79  F   UNL A   1      41.548  22.571  29.425  1.00  0.00    -0.203 F 
ATOM     80  C   UNL A   1      41.960  21.528  27.353  1.00  0.00     0.198 A 
ATOM     81  C   UNL A   1      42.827  22.810  25.520  1.00  0.00     0.198 A 
ATOM     82  F   UNL A   1      43.297  25.099  25.805  1.00  0.00    -0.203 F 
ATOM     83  F   UNL A   1      41.566  20.354  27.866  1.00  0.00    -0.200 F 
ATOM     84  C   UNL A   1      42.391  21.599  26.037  1.00  0.00     0.200 A 
ATOM     85  F   UNL A   1      43.231  22.886  24.244  1.00  0.00    -0.200 F 
ATOM     86  F   UNL A   1      42.394  20.500  25.271  1.00  0.00    -0.200 F 
ENDBRANCH  52  76
BRANCH  64  87
ATOM     87  C   UNL A   1      47.020  26.293  32.304  1.00  0.00     0.064 A 
ATOM     88  C   UNL A   1      47.057  25.422  33.403  1.00  0.00     0.173 A 
ATOM     89  C   UNL A   1      48.235  26.616  31.682  1.00  0.00     0.173 A 
ATOM     90  F   UNL A   1      45.922  25.094  34.042  1.00  0.00    -0.203 F 
ATOM     91  C   UNL A   1      48.266  24.924  33.882  1.00  0.00     0.198 A 
ATOM     92  C   UNL A   1      49.439  26.091  32.142  1.00  0.00     0.198 A 
ATOM     93  F   UNL A   1      48.255  27.437  30.621  1.00  0.00    -0.203 F 
ATOM     94  F   UNL A   1      48.281  24.139  34.968  1.00  0.00    -0.200 F 
ATOM     95  C   UNL A   1      49.453  25.253  33.248  1.00  0.00     0.200 A 
ATOM     96  F   UNL A   1      50.585  26.398  31.520  1.00  0.00    -0.200 F 
ATOM     97  F   UNL A   1      50.616  24.770  33.708  1.00  0.00    -0.200 F 
ENDBRANCH  64  87
ENDBRANCH  38  39
ENDBRANCH  30  33
ENDBRANCH  28  29
ENDBRANCH  27  28
ENDBRANCH   1  27
TORSDOF 14
ENDMDL
MODEL 3
REMARK VINA RESULT:     -12.1      3.377      8.836
REMARK SMILES CC[C@@H]1[NH2+][C@@H](C(=O)NCCCCCCNC(=O)c2ccc(-c3c4nc(c(-c5c(F)c(F)c(F)c(F)c5F)c5ccc([nH]5)c(-c5c(F)c(F)c(F)c(F)c5F)c5nc(c(-c6c(F)c(F)c(F)c(F)c6F)c6ccc3[nH]6)C=C5)C=C4)cc2)Cc2c1[nH]c1ccccc21
REMARK SMILES IDX 12 1 11 2 10 3 9 4 8 5 6 6 7 7 5 9 3 10 4 11 83 12 82 15
REMARK SMILES IDX 84 16 81 17 90 18 85 19 89 21 86 22 88 23 87 24 2 25 1 26
REMARK SMILES IDX 13 27 14 28 15 29 16 30 17 32 18 33 19 34 80 35 20 36 79 37
REMARK SMILES IDX 21 38 22 39 23 40 73 41 24 42 78 43 72 44 74 45 25 46 77 47
REMARK SMILES IDX 71 48 70 49 26 51 58 52 38 53 57 54 39 55 42 56 56 57 75 58
REMARK SMILES IDX 40 59 41 60 55 62 76 63 43 64 27 65 28 66 36 67 29 68 30 69
REMARK SMILES IDX 34 70 37 71 31 72 32 73 35 74 33 75 59 76 60 77 68 78 61 79
REMARK SMILES IDX 62 80 66 81 69 82 63 83 64 84 67 85 65 86 44 87 45 88 53 89
REMARK SMILES IDX 46 90 47 91 51 92 54 93 48 94 49 95 52 96 50 97
REMARK H PARENT 8 8 4 13 4 14 84 20 15 31 74 50 42 61
REMARK Flexibility Score: inf
ROOT
ATOM      1  C   UNL A   1      32.690  27.107  24.756  1.00  0.00     0.002 C 
ENDROOT
BRANCH   1   2
ATOM      2  C   UNL A   1      31.255  27.618  24.930  1.00  0.00     0.002 C 
BRANCH   2   3
ATOM      3  C   UNL A   1      30.183  26.782  24.221  1.00  0.00     0.021 C 
BRANCH   3   4
ATOM      4  C   UNL A   1      30.474  25.278  24.222  1.00  0.00     0.116 C 
BRANCH   4   5
ATOM      5  N   UNL A   1      30.261  24.733  25.550  1.00  0.00    -0.351 N 
ATOM      6  C   UNL A   1      30.818  23.639  26.143  1.00  0.00     0.278 C 
ATOM      7  O   UNL A   1      30.405  23.327  27.264  1.00  0.00    -0.268 OA
ATOM      8  H   UNL A   1      29.618  25.228  26.107  1.00  0.00     0.163 HD
BRANCH   6   9
ATOM      9  C   UNL A   1      31.979  22.861  25.492  1.00  0.00     0.277 C 
ATOM     10  C   UNL A   1      32.827  20.553  25.199  1.00  0.00     0.230 C 
ATOM     11  N   UNL A   1      31.858  21.425  25.889  1.00  0.00    -0.328 N 
ATOM     12  C   UNL A   1      34.180  21.185  25.276  1.00  0.00     0.078 A 
ATOM     13  H   UNL A   1      32.012  21.351  26.894  1.00  0.00     0.347 HD
ATOM     14  H   UNL A   1      30.924  21.113  25.623  1.00  0.00     0.347 HD
ATOM     15  C   UNL A   1      34.454  22.509  25.556  1.00  0.00    -0.007 A 
ATOM     16  N   UNL A   1      35.372  20.536  25.106  1.00  0.00    -0.353 N 
ATOM     17  C   UNL A   1      33.363  23.507  25.755  1.00  0.00     0.113 C 
ATOM     18  C   UNL A   1      35.862  22.641  25.692  1.00  0.00     0.003 A 
ATOM     19  C   UNL A   1      36.416  21.397  25.376  1.00  0.00     0.046 A 
ATOM     20  H   UNL A   1      35.470  19.596  24.832  1.00  0.00     0.166 HD
ATOM     21  C   UNL A   1      36.723  23.689  26.069  1.00  0.00     0.010 A 
ATOM     22  C   UNL A   1      37.796  21.165  25.380  1.00  0.00     0.026 A 
ATOM     23  C   UNL A   1      38.104  23.462  26.109  1.00  0.00     0.001 A 
ATOM     24  C   UNL A   1      38.631  22.221  25.759  1.00  0.00     0.002 A 
BRANCH  10  25
ATOM     25  C   UNL A   1      32.406  20.242  23.749  1.00  0.00     0.068 C 
ATOM     26  C   UNL A   1      32.519  18.752  23.443  1.00  0.00     0.011 C 
ENDBRANCH  10  25
ENDBRANCH   6   9
ENDBRANCH   4   5
ENDBRANCH   3   4
ENDBRANCH   2   3
ENDBRANCH   1   2
BRANCH   1  27
ATOM     27  C   UNL A   1      33.777  28.031  25.309  1.00  0.00     0.021 C 
BRANCH  27  28
ATOM     28  C   UNL A   1      33.641  28.352  26.795  1.00  0.00     0.116 C 
BRANCH  28  29
ATOM     29  N   UNL A   1      33.531  29.782  27.031  1.00  0.00    -0.352 N 
ATOM     30  C   UNL A   1      34.358  30.617  27.739  1.00  0.00     0.251 C 
ATOM     31  H   UNL A   1      32.748  30.216  26.622  1.00  0.00     0.163 HD
ATOM     32  O   UNL A   1      33.993  31.753  28.019  1.00  0.00    -0.269 OA
BRANCH  30  33
ATOM     33  C   UNL A   1      35.691  30.147  28.176  1.00  0.00     0.039 A 
ATOM     34  C   UNL A   1      36.734  30.122  27.246  1.00  0.00     0.014 A 
ATOM     35  C   UNL A   1      35.904  29.693  29.480  1.00  0.00     0.014 A 
ATOM     36  C   UNL A   1      38.000  29.681  27.636  1.00  0.00     0.010 A 
ATOM     37  C   UNL A   1      37.183  29.320  29.887  1.00  0.00     0.010 A 
ATOM     38  C   UNL A   1      38.241  29.296  28.965  1.00  0.00    -0.014 A 
BRANCH  38  39
ATOM     39  C   UNL A   1      39.589  28.853  29.399  1.00  0.00     0.031 A 
ATOM     40  C   UNL A   1      40.415  29.721  30.309  1.00  0.00     0.074 A 
ATOM     41  C   UNL A   1      40.090  27.693  28.933  1.00  0.00     0.049 A 
ATOM     42  N   UNL A   1      41.627  29.523  30.767  1.00  0.00    -0.248 NA
ATOM     43  C   UNL A   1      39.813  30.992  30.739  1.00  0.00     0.031 C 
ATOM     44  C   UNL A   1      39.411  26.794  27.999  1.00  0.00     0.029 A 
ATOM     45  N   UNL A   1      41.293  27.077  29.172  1.00  0.00    -0.354 N 
ATOM     46  C   UNL A   1      41.935  30.650  31.519  1.00  0.00     0.074 A 
ATOM     47  C   UNL A   1      40.807  31.548  31.418  1.00  0.00     0.031 C 
ATOM     48  C   UNL A   1      40.197  25.733  27.760  1.00  0.00     0.029 A 
ATOM     49  C   UNL A   1      41.447  25.890  28.497  1.00  0.00     0.049 A 
ATOM     50  H   UNL A   1      41.980  27.449  29.771  1.00  0.00     0.167 HD
ATOM     51  C   UNL A   1      43.051  30.902  32.244  1.00  0.00     0.037 A 
ATOM     52  C   UNL A   1      42.482  25.029  28.474  1.00  0.00     0.037 A 
ATOM     53  C   UNL A   1      44.157  29.989  32.372  1.00  0.00     0.049 A 
ATOM     54  C   UNL A   1      43.696  25.320  29.315  1.00  0.00     0.074 A 
ATOM     55  C   UNL A   1      45.296  30.116  33.147  1.00  0.00     0.029 A 
ATOM     56  N   UNL A   1      44.260  28.778  31.705  1.00  0.00    -0.354 N 
ATOM     57  N   UNL A   1      43.940  26.347  30.091  1.00  0.00    -0.248 NA
ATOM     58  C   UNL A   1      44.773  24.320  29.288  1.00  0.00     0.031 C 
ATOM     59  C   UNL A   1      46.111  29.003  32.913  1.00  0.00     0.029 A 
ATOM     60  C   UNL A   1      45.455  28.157  32.033  1.00  0.00     0.049 A 
ATOM     61  H   UNL A   1      43.585  28.412  31.088  1.00  0.00     0.167 HD
ATOM     62  C   UNL A   1      45.180  26.107  30.666  1.00  0.00     0.074 A 
ATOM     63  C   UNL A   1      45.630  24.826  30.164  1.00  0.00     0.031 C 
ATOM     64  C   UNL A   1      45.885  26.877  31.530  1.00  0.00     0.037 A 
BRANCH  51  65
ATOM     65  C   UNL A   1      43.135  32.218  32.963  1.00  0.00     0.064 A 
ATOM     66  C   UNL A   1      42.656  32.375  34.272  1.00  0.00     0.173 A 
ATOM     67  C   UNL A   1      43.746  33.323  32.351  1.00  0.00     0.173 A 
ATOM     68  F   UNL A   1      42.054  31.354  34.899  1.00  0.00    -0.203 F 
ATOM     69  C   UNL A   1      42.762  33.598  34.932  1.00  0.00     0.198 A 
ATOM     70  C   UNL A   1      43.878  34.534  33.026  1.00  0.00     0.198 A 
ATOM     71  F   UNL A   1      44.227  33.225  31.102  1.00  0.00    -0.203 F 
ATOM     72  F   UNL A   1      42.256  33.737  36.166  1.00  0.00    -0.200 F 
ATOM     73  C   UNL A   1      43.380  34.673  34.312  1.00  0.00     0.200 A 
ATOM     74  F   UNL A   1      44.487  35.568  32.429  1.00  0.00    -0.200 F 
ATOM     75  F   UNL A   1      43.491  35.845  34.952  1.00  0.00    -0.200 F 
ENDBRANCH  51  65
BRANCH  52  76
ATOM     76  C   UNL A   1      42.407  23.796  27.648  1.00  0.00     0.064 A 
ATOM     77  C   UNL A   1      41.925  22.594  28.185  1.00  0.00     0.173 A 
ATOM     78  C   UNL A   1      42.831  23.789  26.311  1.00  0.00     0.173 A 
ATOM     79  F   UNL A   1      41.526  22.547  29.465  1.00  0.00    -0.203 F 
ATOM     80  C   UNL A   1      41.896  21.427  27.426  1.00  0.00     0.198 A 
ATOM     81  C   UNL A   1      42.773  22.628  25.544  1.00  0.00     0.198 A 
ATOM     82  F   UNL A   1      43.295  24.913  25.747  1.00  0.00    -0.203 F 
ATOM     83  F   UNL A   1      41.480  20.280  27.981  1.00  0.00    -0.200 F 
ATOM     84  C   UNL A   1      42.315  21.444  26.105  1.00  0.00     0.200 A 
ATOM     85  F   UNL A   1      43.165  22.652  24.262  1.00  0.00    -0.200 F 
ATOM     86  F   UNL A   1      42.287  20.321  25.376  1.00  0.00    -0.200 F 
ENDBRANCH  52  76
BRANCH  64  87
ATOM     87  C   UNL A   1      47.199  26.337  32.016  1.00  0.00     0.064 A 
ATOM     88  C   UNL A   1      48.391  26.550  31.310  1.00  0.00     0.173 A 
ATOM     89  C   UNL A   1      47.267  25.615  33.218  1.00  0.00     0.173 A 
ATOM     90  F   UNL A   1      48.376  27.222  30.147  1.00  0.00    -0.203 F 
ATOM     91  C   UNL A   1      49.598  26.030  31.770  1.00  0.00     0.198 A 
ATOM     92  C   UNL A   1      48.480  25.126  33.692  1.00  0.00     0.198 A 
ATOM     93  F   UNL A   1      46.157  25.391  33.937  1.00  0.00    -0.203 F 
ATOM     94  F   UNL A   1      50.716  26.199  31.049  1.00  0.00    -0.200 F 
ATOM     95  C   UNL A   1      49.643  25.325  32.962  1.00  0.00     0.200 A 
ATOM     96  F   UNL A   1      48.525  24.457  34.852  1.00  0.00    -0.200 F 
ATOM     97  F   UNL A   1      50.807  24.829  33.406  1.00  0.00    -0.200 F 
ENDBRANCH  64  87
ENDBRANCH  38  39
ENDBRANCH  30  33
ENDBRANCH  28  29
ENDBRANCH  27  28
ENDBRANCH   1  27
TORSDOF 14
ENDMDL
