MODEL 1
REMARK VINA RESULT:     -12.3      0.000      0.000
REMARK SMILES C=C(C)[C@@H]1CC=C(CN2C[C@@]34C=C[C@@H](O3)[C@H](C(=O)NCCCCCCNC(=O)c3ccc(-c5c6nc(c(-c7c(F)c(F)c(F)c(F)c7F)c7ccc([nH]7)c(-c7c(F)c(F)c(F)c(F)c7F)c7nc(c(-c8c(F)c(F)c(F)c(F)c8F)c8ccc5[nH]8)C=C7)C=C6)cc3)[C@@H]4C2=O)CC1
REMARK SMILES IDX 22 1 21 2 20 3 19 4 17 5 18 6 16 8 9 9 10 10 93 11 11 12
REMARK SMILES IDX 92 13 94 14 12 15 15 16 13 17 14 18 8 19 7 20 4 21 5 22
REMARK SMILES IDX 96 23 6 24 95 25 2 26 1 27 3 28 23 29 24 30 25 31 26 32
REMARK SMILES IDX 27 33 28 35 29 36 30 37 91 38 31 39 90 40 32 41 33 42 34 43
REMARK SMILES IDX 84 44 35 45 89 46 83 47 85 48 36 49 88 50 82 51 81 52 37 54
REMARK SMILES IDX 69 55 49 56 68 57 50 58 53 59 67 60 86 61 51 62 52 63 66 65
REMARK SMILES IDX 87 66 54 67 38 68 39 69 47 70 40 71 41 72 45 73 48 74 42 75
REMARK SMILES IDX 43 76 46 77 44 78 70 79 71 80 79 81 72 82 73 83 77 84 80 85
REMARK SMILES IDX 74 86 75 87 78 88 76 89 55 90 56 91 64 92 57 93 58 94 62 95
REMARK SMILES IDX 65 96 59 97 60 98 63 99 61 100
REMARK H PARENT 19 7 26 34 85 53 53 64
REMARK Flexibility Score: inf
ROOT
ATOM      1  C   UNL A   1      34.556  32.550  29.424  1.00  0.00     0.002 C 
ENDROOT
BRANCH   1   2
ATOM      2  C   UNL A   1      34.784  31.505  28.311  1.00  0.00     0.021 C 
BRANCH   2   3
ATOM      3  C   UNL A   1      33.557  31.179  27.446  1.00  0.00     0.116 C 
BRANCH   3   4
ATOM      4  N   UNL A   1      33.194  29.790  27.617  1.00  0.00    -0.356 N 
ATOM      5  C   UNL A   1      32.155  29.146  27.038  1.00  0.00     0.227 C 
ATOM      6  O   UNL A   1      31.386  28.543  27.794  1.00  0.00    -0.275 OA
ATOM      7  H   UNL A   1      33.763  29.258  28.219  1.00  0.00     0.163 HD
BRANCH   5   8
ATOM      8  C   UNL A   1      32.134  28.868  25.551  1.00  0.00     0.127 C 
ATOM      9  N   UNL A   1      31.241  25.433  24.392  1.00  0.00    -0.335 N 
ATOM     10  C   UNL A   1      31.053  26.322  23.221  1.00  0.00     0.160 C 
ATOM     11  C   UNL A   1      31.895  26.109  25.457  1.00  0.00     0.230 C 
ATOM     12  C   UNL A   1      31.966  27.484  23.614  1.00  0.00     0.117 C 
ATOM     13  C   UNL A   1      31.611  27.537  25.110  1.00  0.00     0.132 C 
ATOM     14  O   UNL A   1      32.383  25.634  26.447  1.00  0.00    -0.274 OA
ATOM     15  C   UNL A   1      33.450  27.334  23.386  1.00  0.00     0.009 C 
ATOM     16  O   UNL A   1      31.853  28.877  23.292  1.00  0.00    -0.360 OA
ATOM     17  C   UNL A   1      34.015  28.453  23.858  1.00  0.00     0.004 C 
ATOM     18  C   UNL A   1      32.897  29.340  24.318  1.00  0.00     0.155 C 
BRANCH   9  19
ATOM     19  C   UNL A   1      30.484  24.230  24.679  1.00  0.00     0.150 C 
BRANCH  19  20
ATOM     20  C   UNL A   1      31.402  23.010  24.632  1.00  0.00    -0.055 C 
ATOM     21  C   UNL A   1      32.867  20.442  24.746  1.00  0.00     0.018 C 
ATOM     22  C   UNL A   1      32.676  21.191  23.413  1.00  0.00     0.035 C 
ATOM     23  C   UNL A   1      32.874  21.415  25.937  1.00  0.00     0.013 C 
ATOM     24  C   UNL A   1      31.929  22.489  23.506  1.00  0.00    -0.025 C 
ATOM     25  C   UNL A   1      31.628  22.309  25.952  1.00  0.00     0.033 C 
BRANCH  21  26
ATOM     26  C   UNL A   1      34.116  19.567  24.670  1.00  0.00    -0.077 C 
ATOM     27  C   UNL A   1      34.048  18.277  24.296  1.00  0.00     0.008 C 
ATOM     28  C   UNL A   1      35.445  20.209  24.973  1.00  0.00     0.039 C 
ENDBRANCH  21  26
ENDBRANCH  19  20
ENDBRANCH   9  19
ENDBRANCH   5   8
ENDBRANCH   3   4
ENDBRANCH   2   3
ENDBRANCH   1   2
BRANCH   1  29
ATOM     29  C   UNL A   1      34.751  34.017  29.026  1.00  0.00     0.002 C 
BRANCH  29  30
ATOM     30  C   UNL A   1      33.468  34.843  28.938  1.00  0.00     0.021 C 
BRANCH  30  31
ATOM     31  C   UNL A   1      33.481  36.136  29.744  1.00  0.00     0.116 C 
BRANCH  31  32
ATOM     32  N   UNL A   1      32.461  36.169  30.778  1.00  0.00    -0.352 N 
ATOM     33  C   UNL A   1      32.481  35.587  32.024  1.00  0.00     0.251 C 
ATOM     34  H   UNL A   1      31.647  36.676  30.558  1.00  0.00     0.163 HD
ATOM     35  O   UNL A   1      31.477  35.588  32.730  1.00  0.00    -0.269 OA
BRANCH  33  36
ATOM     36  C   UNL A   1      33.715  34.925  32.502  1.00  0.00     0.039 A 
ATOM     37  C   UNL A   1      33.638  33.609  32.965  1.00  0.00     0.014 A 
ATOM     38  C   UNL A   1      34.943  35.592  32.480  1.00  0.00     0.014 A 
ATOM     39  C   UNL A   1      34.804  32.942  33.348  1.00  0.00     0.010 A 
ATOM     40  C   UNL A   1      36.111  34.903  32.792  1.00  0.00     0.010 A 
ATOM     41  C   UNL A   1      36.054  33.572  33.232  1.00  0.00    -0.014 A 
BRANCH  41  42
ATOM     42  C   UNL A   1      37.310  32.856  33.573  1.00  0.00     0.031 A 
ATOM     43  C   UNL A   1      38.034  33.174  34.852  1.00  0.00     0.074 A 
ATOM     44  C   UNL A   1      37.828  31.964  32.708  1.00  0.00     0.049 A 
ATOM     45  N   UNL A   1      39.176  32.711  35.296  1.00  0.00    -0.248 NA
ATOM     46  C   UNL A   1      37.402  34.162  35.740  1.00  0.00     0.031 C 
ATOM     47  C   UNL A   1      37.243  31.600  31.417  1.00  0.00     0.029 A 
ATOM     48  N   UNL A   1      38.972  31.207  32.779  1.00  0.00    -0.354 N 
ATOM     49  C   UNL A   1      39.399  33.355  36.506  1.00  0.00     0.074 A 
ATOM     50  C   UNL A   1      38.308  34.284  36.699  1.00  0.00     0.031 C 
ATOM     51  C   UNL A   1      38.019  30.675  30.828  1.00  0.00     0.029 A 
ATOM     52  C   UNL A   1      39.174  30.410  31.679  1.00  0.00     0.049 A 
ATOM     53  H   UNL A   1      39.588  31.233  33.547  1.00  0.00     0.167 HD
ATOM     54  C   UNL A   1      40.409  33.168  37.389  1.00  0.00     0.037 A 
ATOM     55  C   UNL A   1      40.183  29.566  31.388  1.00  0.00     0.037 A 
ATOM     56  C   UNL A   1      41.486  32.231  37.203  1.00  0.00     0.049 A 
ATOM     57  C   UNL A   1      41.305  29.394  32.378  1.00  0.00     0.074 A 
ATOM     58  C   UNL A   1      42.536  31.941  38.056  1.00  0.00     0.029 A 
ATOM     59  N   UNL A   1      41.649  31.430  36.081  1.00  0.00    -0.354 N 
ATOM     60  N   UNL A   1      41.474  29.964  33.546  1.00  0.00    -0.248 NA
ATOM     61  C   UNL A   1      42.372  28.453  32.010  1.00  0.00     0.031 C 
ATOM     62  C   UNL A   1      43.357  30.995  37.434  1.00  0.00     0.029 A 
ATOM     63  C   UNL A   1      42.792  30.658  36.215  1.00  0.00     0.049 A 
ATOM     64  H   UNL A   1      41.041  31.413  35.307  1.00  0.00     0.167 HD
ATOM     65  C   UNL A   1      42.646  29.431  34.065  1.00  0.00     0.074 A 
ATOM     66  C   UNL A   1      43.138  28.478  33.092  1.00  0.00     0.031 C 
ATOM     67  C   UNL A   1      43.260  29.704  35.242  1.00  0.00     0.037 A 
BRANCH  54  68
ATOM     68  C   UNL A   1      40.391  33.989  38.647  1.00  0.00     0.064 A 
ATOM     69  C   UNL A   1      41.053  35.225  38.723  1.00  0.00     0.173 A 
ATOM     70  C   UNL A   1      39.676  33.558  39.773  1.00  0.00     0.173 A 
ATOM     71  F   UNL A   1      41.761  35.678  37.677  1.00  0.00    -0.203 F 
ATOM     72  C   UNL A   1      41.024  35.983  39.891  1.00  0.00     0.198 A 
ATOM     73  C   UNL A   1      39.624  34.333  40.929  1.00  0.00     0.198 A 
ATOM     74  F   UNL A   1      39.020  32.387  39.752  1.00  0.00    -0.203 F 
ATOM     75  F   UNL A   1      41.705  37.136  39.956  1.00  0.00    -0.200 F 
ATOM     76  C   UNL A   1      40.303  35.540  40.989  1.00  0.00     0.200 A 
ATOM     77  F   UNL A   1      38.916  33.911  41.986  1.00  0.00    -0.200 F 
ATOM     78  F   UNL A   1      40.269  36.275  42.111  1.00  0.00    -0.200 F 
ENDBRANCH  54  68
BRANCH  55  79
ATOM     79  C   UNL A   1      40.175  28.802  30.112  1.00  0.00     0.064 A 
ATOM     80  C   UNL A   1      40.772  29.324  28.956  1.00  0.00     0.173 A 
ATOM     81  C   UNL A   1      39.555  27.548  30.016  1.00  0.00     0.173 A 
ATOM     82  F   UNL A   1      41.357  30.530  28.993  1.00  0.00    -0.203 F 
ATOM     83  C   UNL A   1      40.725  28.635  27.747  1.00  0.00     0.198 A 
ATOM     84  C   UNL A   1      39.535  26.845  28.813  1.00  0.00     0.198 A 
ATOM     85  F   UNL A   1      38.972  27.001  31.094  1.00  0.00    -0.203 F 
ATOM     86  F   UNL A   1      41.255  29.184  26.645  1.00  0.00    -0.200 F 
ATOM     87  C   UNL A   1      40.111  27.394  27.677  1.00  0.00     0.200 A 
ATOM     88  F   UNL A   1      38.953  25.640  28.752  1.00  0.00    -0.200 F 
ATOM     89  F   UNL A   1      40.064  26.732  26.513  1.00  0.00    -0.200 F 
ENDBRANCH  55  79
BRANCH  67  90
ATOM     90  C   UNL A   1      44.508  28.933  35.563  1.00  0.00     0.064 A 
ATOM     91  C   UNL A   1      44.463  27.710  36.246  1.00  0.00     0.173 A 
ATOM     92  C   UNL A   1      45.760  29.410  35.147  1.00  0.00     0.173 A 
ATOM     93  F   UNL A   1      43.292  27.220  36.678  1.00  0.00    -0.203 F 
ATOM     94  C   UNL A   1      45.631  27.005  36.526  1.00  0.00     0.198 A 
ATOM     95  C   UNL A   1      46.922  28.686  35.400  1.00  0.00     0.198 A 
ATOM     96  F   UNL A   1      45.857  30.572  34.483  1.00  0.00    -0.203 F 
ATOM     97  F   UNL A   1      45.570  25.862  37.224  1.00  0.00    -0.200 F 
ATOM     98  C   UNL A   1      46.858  27.490  36.097  1.00  0.00     0.200 A 
ATOM     99  F   UNL A   1      48.105  29.150  34.972  1.00  0.00    -0.200 F 
ATOM    100  F   UNL A   1      47.980  26.805  36.360  1.00  0.00    -0.200 F 
ENDBRANCH  67  90
ENDBRANCH  41  42
ENDBRANCH  33  36
ENDBRANCH  31  32
ENDBRANCH  30  31
ENDBRANCH  29  30
ENDBRANCH   1  29
TORSDOF 16
ENDMDL
MODEL 2
REMARK VINA RESULT:     -12.3      1.685      7.611
REMARK SMILES C=C(C)[C@@H]1CC=C(CN2C[C@@]34C=C[C@@H](O3)[C@H](C(=O)NCCCCCCNC(=O)c3ccc(-c5c6nc(c(-c7c(F)c(F)c(F)c(F)c7F)c7ccc([nH]7)c(-c7c(F)c(F)c(F)c(F)c7F)c7nc(c(-c8c(F)c(F)c(F)c(F)c8F)c8ccc5[nH]8)C=C7)C=C6)cc3)[C@@H]4C2=O)CC1
REMARK SMILES IDX 22 1 21 2 20 3 19 4 17 5 18 6 16 8 9 9 10 10 93 11 11 12
REMARK SMILES IDX 92 13 94 14 12 15 15 16 13 17 14 18 8 19 7 20 4 21 5 22
REMARK SMILES IDX 96 23 6 24 95 25 2 26 1 27 3 28 23 29 24 30 25 31 26 32
REMARK SMILES IDX 27 33 28 35 29 36 30 37 91 38 31 39 90 40 32 41 33 42 34 43
REMARK SMILES IDX 84 44 35 45 89 46 83 47 85 48 36 49 88 50 82 51 81 52 37 54
REMARK SMILES IDX 69 55 49 56 68 57 50 58 53 59 67 60 86 61 51 62 52 63 66 65
REMARK SMILES IDX 87 66 54 67 38 68 39 69 47 70 40 71 41 72 45 73 48 74 42 75
REMARK SMILES IDX 43 76 46 77 44 78 70 79 71 80 79 81 72 82 73 83 77 84 80 85
REMARK SMILES IDX 74 86 75 87 78 88 76 89 55 90 56 91 64 92 57 93 58 94 62 95
REMARK SMILES IDX 65 96 59 97 60 98 63 99 61 100
REMARK H PARENT 19 7 26 34 85 53 53 64
REMARK Flexibility Score: inf
ROOT
ATOM      1  C   UNL A   1      32.664  29.865  26.084  1.00  0.00     0.002 C 
ENDROOT
BRANCH   1   2
ATOM      2  C   UNL A   1      32.418  29.307  24.666  1.00  0.00     0.021 C 
BRANCH   2   3
ATOM      3  C   UNL A   1      30.950  29.276  24.211  1.00  0.00     0.116 C 
BRANCH   3   4
ATOM      4  N   UNL A   1      30.362  28.000  24.547  1.00  0.00    -0.356 N 
ATOM      5  C   UNL A   1      30.039  27.005  23.689  1.00  0.00     0.227 C 
ATOM      6  O   UNL A   1      28.881  26.578  23.745  1.00  0.00    -0.275 OA
ATOM      7  H   UNL A   1      30.175  27.838  25.499  1.00  0.00     0.163 HD
BRANCH   5   8
ATOM      8  C   UNL A   1      31.108  26.213  22.967  1.00  0.00     0.127 C 
ATOM      9  N   UNL A   1      33.080  23.703  24.903  1.00  0.00    -0.335 N 
ATOM     10  C   UNL A   1      33.254  23.347  23.475  1.00  0.00     0.160 C 
ATOM     11  C   UNL A   1      32.442  24.964  25.050  1.00  0.00     0.230 C 
ATOM     12  C   UNL A   1      32.941  24.693  22.820  1.00  0.00     0.117 C 
ATOM     13  C   UNL A   1      31.764  25.101  23.722  1.00  0.00     0.132 C 
ATOM     14  O   UNL A   1      32.346  25.634  26.043  1.00  0.00    -0.274 OA
ATOM     15  C   UNL A   1      34.027  25.741  22.792  1.00  0.00     0.009 C 
ATOM     16  O   UNL A   1      32.365  24.966  21.536  1.00  0.00    -0.360 OA
ATOM     17  C   UNL A   1      33.484  26.825  22.221  1.00  0.00     0.004 C 
ATOM     18  C   UNL A   1      32.088  26.449  21.823  1.00  0.00     0.155 C 
BRANCH   9  19
ATOM     19  C   UNL A   1      33.075  22.776  26.018  1.00  0.00     0.150 C 
BRANCH  19  20
ATOM     20  C   UNL A   1      33.349  21.357  25.520  1.00  0.00    -0.055 C 
ATOM     21  C   UNL A   1      33.656  18.722  24.212  1.00  0.00     0.018 C 
ATOM     22  C   UNL A   1      34.880  19.500  24.732  1.00  0.00     0.035 C 
ATOM     23  C   UNL A   1      32.391  19.067  25.016  1.00  0.00     0.013 C 
ATOM     24  C   UNL A   1      34.576  20.814  25.389  1.00  0.00    -0.025 C 
ATOM     25  C   UNL A   1      32.138  20.579  25.060  1.00  0.00     0.033 C 
BRANCH  21  26
ATOM     26  C   UNL A   1      33.969  17.227  24.186  1.00  0.00    -0.077 C 
ATOM     27  C   UNL A   1      34.292  16.597  23.044  1.00  0.00     0.008 C 
ATOM     28  C   UNL A   1      33.962  16.484  25.497  1.00  0.00     0.039 C 
ENDBRANCH  21  26
ENDBRANCH  19  20
ENDBRANCH   9  19
ENDBRANCH   5   8
ENDBRANCH   3   4
ENDBRANCH   2   3
ENDBRANCH   1   2
BRANCH   1  29
ATOM     29  C   UNL A   1      31.489  30.602  26.735  1.00  0.00     0.002 C 
BRANCH  29  30
ATOM     30  C   UNL A   1      31.517  32.124  26.594  1.00  0.00     0.021 C 
BRANCH  30  31
ATOM     31  C   UNL A   1      32.690  32.810  27.282  1.00  0.00     0.116 C 
BRANCH  31  32
ATOM     32  N   UNL A   1      32.414  34.196  27.622  1.00  0.00    -0.352 N 
ATOM     33  C   UNL A   1      33.008  34.981  28.582  1.00  0.00     0.251 C 
ATOM     34  H   UNL A   1      31.707  34.632  27.093  1.00  0.00     0.163 HD
ATOM     35  O   UNL A   1      32.563  36.094  28.842  1.00  0.00    -0.269 OA
BRANCH  33  36
ATOM     36  C   UNL A   1      34.175  34.463  29.329  1.00  0.00     0.039 A 
ATOM     37  C   UNL A   1      33.959  33.778  30.527  1.00  0.00     0.014 A 
ATOM     38  C   UNL A   1      35.475  34.639  28.844  1.00  0.00     0.014 A 
ATOM     39  C   UNL A   1      35.041  33.215  31.207  1.00  0.00     0.010 A 
ATOM     40  C   UNL A   1      36.543  34.016  29.484  1.00  0.00     0.010 A 
ATOM     41  C   UNL A   1      36.338  33.300  30.673  1.00  0.00    -0.014 A 
BRANCH  41  42
ATOM     42  C   UNL A   1      37.491  32.653  31.349  1.00  0.00     0.031 A 
ATOM     43  C   UNL A   1      38.212  31.514  30.682  1.00  0.00     0.074 A 
ATOM     44  C   UNL A   1      37.853  33.051  32.584  1.00  0.00     0.049 A 
ATOM     45  N   UNL A   1      39.193  30.775  31.136  1.00  0.00    -0.248 NA
ATOM     46  C   UNL A   1      37.752  31.140  29.336  1.00  0.00     0.031 C 
ATOM     47  C   UNL A   1      37.207  34.115  33.353  1.00  0.00     0.029 A 
ATOM     48  N   UNL A   1      38.849  32.598  33.415  1.00  0.00    -0.354 N 
ATOM     49  C   UNL A   1      39.461  29.849  30.136  1.00  0.00     0.074 A 
ATOM     50  C   UNL A   1      38.502  30.078  29.078  1.00  0.00     0.031 C 
ATOM     51  C   UNL A   1      37.835  34.248  34.533  1.00  0.00     0.029 A 
ATOM     52  C   UNL A   1      38.901  33.255  34.621  1.00  0.00     0.049 A 
ATOM     53  H   UNL A   1      39.466  31.872  33.169  1.00  0.00     0.167 HD
ATOM     54  C   UNL A   1      40.437  28.910  30.092  1.00  0.00     0.037 A 
ATOM     55  C   UNL A   1      39.713  33.071  35.679  1.00  0.00     0.037 A 
ATOM     56  C   UNL A   1      41.401  28.694  31.139  1.00  0.00     0.049 A 
ATOM     57  C   UNL A   1      40.775  32.005  35.612  1.00  0.00     0.074 A 
ATOM     58  C   UNL A   1      42.452  27.794  31.174  1.00  0.00     0.029 A 
ATOM     59  N   UNL A   1      41.431  29.390  32.339  1.00  0.00    -0.354 N 
ATOM     60  N   UNL A   1      41.057  31.176  34.637  1.00  0.00    -0.248 NA
ATOM     61  C   UNL A   1      41.637  31.856  36.793  1.00  0.00     0.031 C 
ATOM     62  C   UNL A   1      43.093  27.916  32.410  1.00  0.00     0.029 A 
ATOM     63  C   UNL A   1      42.473  28.927  33.127  1.00  0.00     0.049 A 
ATOM     64  H   UNL A   1      40.806  30.107  32.592  1.00  0.00     0.167 HD
ATOM     65  C   UNL A   1      42.144  30.430  35.071  1.00  0.00     0.074 A 
ATOM     66  C   UNL A   1      42.483  30.917  36.393  1.00  0.00     0.031 C 
ATOM     67  C   UNL A   1      42.804  29.433  34.435  1.00  0.00     0.037 A 
BRANCH  54  68
ATOM     68  C   UNL A   1      40.516  28.050  28.863  1.00  0.00     0.064 A 
ATOM     69  C   UNL A   1      39.816  26.836  28.774  1.00  0.00     0.173 A 
ATOM     70  C   UNL A   1      41.268  28.457  27.752  1.00  0.00     0.173 A 
ATOM     71  F   UNL A   1      39.092  26.396  29.814  1.00  0.00    -0.203 F 
ATOM     72  C   UNL A   1      39.889  26.049  27.627  1.00  0.00     0.198 A 
ATOM     73  C   UNL A   1      41.315  27.682  26.596  1.00  0.00     0.198 A 
ATOM     74  F   UNL A   1      41.952  29.611  27.782  1.00  0.00    -0.203 F 
ATOM     75  F   UNL A   1      39.252  24.871  27.584  1.00  0.00    -0.200 F 
ATOM     76  C   UNL A   1      40.632  26.477  26.537  1.00  0.00     0.200 A 
ATOM     77  F   UNL A   1      42.021  28.102  25.537  1.00  0.00    -0.200 F 
ATOM     78  F   UNL A   1      40.696  25.722  25.431  1.00  0.00    -0.200 F 
ENDBRANCH  54  68
BRANCH  55  79
ATOM     79  C   UNL A   1      39.571  33.924  36.888  1.00  0.00     0.064 A 
ATOM     80  C   UNL A   1      38.808  33.498  37.984  1.00  0.00     0.173 A 
ATOM     81  C   UNL A   1      40.176  35.187  36.966  1.00  0.00     0.173 A 
ATOM     82  F   UNL A   1      38.191  32.308  37.947  1.00  0.00    -0.203 F 
ATOM     83  C   UNL A   1      38.631  34.314  39.099  1.00  0.00     0.198 A 
ATOM     84  C   UNL A   1      40.024  35.989  38.095  1.00  0.00     0.198 A 
ATOM     85  F   UNL A   1      40.921  35.640  35.946  1.00  0.00    -0.203 F 
ATOM     86  F   UNL A   1      37.851  33.905  40.109  1.00  0.00    -0.200 F 
ATOM     87  C   UNL A   1      39.244  35.557  39.156  1.00  0.00     0.200 A 
ATOM     88  F   UNL A   1      40.629  37.184  38.152  1.00  0.00    -0.200 F 
ATOM     89  F   UNL A   1      39.072  36.342  40.228  1.00  0.00    -0.200 F 
ENDBRANCH  55  79
BRANCH  67  90
ATOM     90  C   UNL A   1      43.985  28.829  35.139  1.00  0.00     0.064 A 
ATOM     91  C   UNL A   1      45.274  29.367  35.011  1.00  0.00     0.173 A 
ATOM     92  C   UNL A   1      43.816  27.720  35.982  1.00  0.00     0.173 A 
ATOM     93  F   UNL A   1      45.490  30.417  34.205  1.00  0.00    -0.203 F 
ATOM     94  C   UNL A   1      46.354  28.799  35.680  1.00  0.00     0.198 A 
ATOM     95  C   UNL A   1      44.894  27.175  36.674  1.00  0.00     0.198 A 
ATOM     96  F   UNL A   1      42.602  27.172  36.145  1.00  0.00    -0.203 F 
ATOM     97  F   UNL A   1      47.586  29.299  35.504  1.00  0.00    -0.200 F 
ATOM     98  C   UNL A   1      46.163  27.709  36.516  1.00  0.00     0.200 A 
ATOM     99  F   UNL A   1      44.703  26.130  37.493  1.00  0.00    -0.200 F 
ATOM    100  F   UNL A   1      47.204  27.169  37.165  1.00  0.00    -0.200 F 
ENDBRANCH  67  90
ENDBRANCH  41  42
ENDBRANCH  33  36
ENDBRANCH  31  32
ENDBRANCH  30  31
ENDBRANCH  29  30
ENDBRANCH   1  29
TORSDOF 16
ENDMDL
MODEL 3
REMARK VINA RESULT:     -12.2      1.793      2.906
REMARK SMILES C=C(C)[C@@H]1CC=C(CN2C[C@@]34C=C[C@@H](O3)[C@H](C(=O)NCCCCCCNC(=O)c3ccc(-c5c6nc(c(-c7c(F)c(F)c(F)c(F)c7F)c7ccc([nH]7)c(-c7c(F)c(F)c(F)c(F)c7F)c7nc(c(-c8c(F)c(F)c(F)c(F)c8F)c8ccc5[nH]8)C=C7)C=C6)cc3)[C@@H]4C2=O)CC1
REMARK SMILES IDX 22 1 21 2 20 3 19 4 17 5 18 6 16 8 9 9 10 10 93 11 11 12
REMARK SMILES IDX 92 13 94 14 12 15 15 16 13 17 14 18 8 19 7 20 4 21 5 22
REMARK SMILES IDX 96 23 6 24 95 25 2 26 1 27 3 28 23 29 24 30 25 31 26 32
REMARK SMILES IDX 27 33 28 35 29 36 30 37 91 38 31 39 90 40 32 41 33 42 34 43
REMARK SMILES IDX 84 44 35 45 89 46 83 47 85 48 36 49 88 50 82 51 81 52 37 54
REMARK SMILES IDX 69 55 49 56 68 57 50 58 53 59 67 60 86 61 51 62 52 63 66 65
REMARK SMILES IDX 87 66 54 67 38 68 39 69 47 70 40 71 41 72 45 73 48 74 42 75
REMARK SMILES IDX 43 76 46 77 44 78 70 79 71 80 79 81 72 82 73 83 77 84 80 85
REMARK SMILES IDX 74 86 75 87 78 88 76 89 55 90 56 91 64 92 57 93 58 94 62 95
REMARK SMILES IDX 65 96 59 97 60 98 63 99 61 100
REMARK H PARENT 19 7 26 34 85 53 53 64
REMARK Flexibility Score: inf
ROOT
ATOM      1  C   UNL A   1      32.606  29.934  26.017  1.00  0.00     0.002 C 
ENDROOT
BRANCH   1   2
ATOM      2  C   UNL A   1      32.258  29.321  24.644  1.00  0.00     0.021 C 
BRANCH   2   3
ATOM      3  C   UNL A   1      30.758  29.193  24.335  1.00  0.00     0.116 C 
BRANCH   3   4
ATOM      4  N   UNL A   1      30.305  27.860  24.660  1.00  0.00    -0.356 N 
ATOM      5  C   UNL A   1      30.036  26.860  23.790  1.00  0.00     0.227 C 
ATOM      6  O   UNL A   1      28.925  26.327  23.885  1.00  0.00    -0.275 OA
ATOM      7  H   UNL A   1      30.178  27.660  25.615  1.00  0.00     0.163 HD
BRANCH   5   8
ATOM      8  C   UNL A   1      31.137  26.188  23.001  1.00  0.00     0.127 C 
ATOM      9  N   UNL A   1      33.590  24.048  24.829  1.00  0.00    -0.335 N 
ATOM     10  C   UNL A   1      33.690  23.658  23.402  1.00  0.00     0.160 C 
ATOM     11  C   UNL A   1      32.801  25.218  24.993  1.00  0.00     0.230 C 
ATOM     12  C   UNL A   1      33.143  24.922  22.738  1.00  0.00     0.117 C 
ATOM     13  C   UNL A   1      32.001  25.206  23.728  1.00  0.00     0.132 C 
ATOM     14  O   UNL A   1      32.697  25.911  25.970  1.00  0.00    -0.274 OA
ATOM     15  C   UNL A   1      34.069  26.103  22.581  1.00  0.00     0.009 C 
ATOM     16  O   UNL A   1      32.428  25.061  21.502  1.00  0.00    -0.360 OA
ATOM     17  C   UNL A   1      33.337  27.079  22.027  1.00  0.00     0.004 C 
ATOM     18  C   UNL A   1      31.976  26.504  21.767  1.00  0.00     0.155 C 
BRANCH   9  19
ATOM     19  C   UNL A   1      33.805  23.176  25.967  1.00  0.00     0.150 C 
BRANCH  19  20
ATOM     20  C   UNL A   1      33.784  21.716  25.520  1.00  0.00    -0.055 C 
ATOM     21  C   UNL A   1      33.538  19.028  24.308  1.00  0.00     0.018 C 
ATOM     22  C   UNL A   1      34.902  19.566  24.780  1.00  0.00     0.035 C 
ATOM     23  C   UNL A   1      32.384  19.644  25.117  1.00  0.00     0.013 C 
ATOM     24  C   UNL A   1      34.877  20.936  25.392  1.00  0.00    -0.025 C 
ATOM     25  C   UNL A   1      32.434  21.177  25.107  1.00  0.00     0.033 C 
BRANCH  21  26
ATOM     26  C   UNL A   1      33.550  17.501  24.334  1.00  0.00    -0.077 C 
ATOM     27  C   UNL A   1      34.096  16.786  23.336  1.00  0.00     0.008 C 
ATOM     28  C   UNL A   1      32.980  16.813  25.548  1.00  0.00     0.039 C 
ENDBRANCH  21  26
ENDBRANCH  19  20
ENDBRANCH   9  19
ENDBRANCH   5   8
ENDBRANCH   3   4
ENDBRANCH   2   3
ENDBRANCH   1   2
BRANCH   1  29
ATOM     29  C   UNL A   1      31.457  30.623  26.762  1.00  0.00     0.002 C 
BRANCH  29  30
ATOM     30  C   UNL A   1      31.420  32.146  26.636  1.00  0.00     0.021 C 
BRANCH  30  31
ATOM     31  C   UNL A   1      32.678  32.859  27.117  1.00  0.00     0.116 C 
BRANCH  31  32
ATOM     32  N   UNL A   1      32.418  34.207  27.592  1.00  0.00    -0.352 N 
ATOM     33  C   UNL A   1      33.025  34.889  28.620  1.00  0.00     0.251 C 
ATOM     34  H   UNL A   1      31.712  34.699  27.113  1.00  0.00     0.163 HD
ATOM     35  O   UNL A   1      32.592  35.976  28.990  1.00  0.00    -0.269 OA
BRANCH  33  36
ATOM     36  C   UNL A   1      34.191  34.290  29.306  1.00  0.00     0.039 A 
ATOM     37  C   UNL A   1      33.970  33.416  30.373  1.00  0.00     0.014 A 
ATOM     38  C   UNL A   1      35.494  34.577  28.890  1.00  0.00     0.014 A 
ATOM     39  C   UNL A   1      35.054  32.782  30.983  1.00  0.00     0.010 A 
ATOM     40  C   UNL A   1      36.567  33.889  29.449  1.00  0.00     0.010 A 
ATOM     41  C   UNL A   1      36.359  32.987  30.504  1.00  0.00    -0.014 A 
BRANCH  41  42
ATOM     42  C   UNL A   1      37.517  32.271  31.098  1.00  0.00     0.031 A 
ATOM     43  C   UNL A   1      38.023  32.659  32.460  1.00  0.00     0.074 A 
ATOM     44  C   UNL A   1      38.147  31.314  30.390  1.00  0.00     0.049 A 
ATOM     45  N   UNL A   1      39.059  32.204  33.119  1.00  0.00    -0.248 NA
ATOM     46  C   UNL A   1      37.280  33.715  33.164  1.00  0.00     0.031 C 
ATOM     47  C   UNL A   1      37.779  30.878  29.043  1.00  0.00     0.029 A 
ATOM     48  N   UNL A   1      39.239  30.542  30.703  1.00  0.00    -0.354 N 
ATOM     49  C   UNL A   1      39.094  32.923  34.308  1.00  0.00     0.074 A 
ATOM     50  C   UNL A   1      38.014  33.882  34.254  1.00  0.00     0.031 C 
ATOM     51  C   UNL A   1      38.615  29.901  28.653  1.00  0.00     0.029 A 
ATOM     52  C   UNL A   1      39.601  29.670  29.704  1.00  0.00     0.049 A 
ATOM     53  H   UNL A   1      39.717  30.607  31.561  1.00  0.00     0.167 HD
ATOM     54  C   UNL A   1      39.934  32.774  35.361  1.00  0.00     0.037 A 
ATOM     55  C   UNL A   1      40.618  28.791  29.642  1.00  0.00     0.037 A 
ATOM     56  C   UNL A   1      40.998  31.807  35.419  1.00  0.00     0.049 A 
ATOM     57  C   UNL A   1      41.551  28.662  30.818  1.00  0.00     0.074 A 
ATOM     58  C   UNL A   1      41.879  31.554  36.455  1.00  0.00     0.029 A 
ATOM     59  N   UNL A   1      41.324  30.931  34.393  1.00  0.00    -0.354 N 
ATOM     60  N   UNL A   1      41.537  29.305  31.961  1.00  0.00    -0.248 NA
ATOM     61  C   UNL A   1      42.637  27.680  30.696  1.00  0.00     0.031 C 
ATOM     62  C   UNL A   1      42.765  30.553  36.042  1.00  0.00     0.029 A 
ATOM     63  C   UNL A   1      42.404  30.148  34.767  1.00  0.00     0.049 A 
ATOM     64  H   UNL A   1      40.856  30.875  33.529  1.00  0.00     0.167 HD
ATOM     65  C   UNL A   1      42.587  28.785  32.704  1.00  0.00     0.074 A 
ATOM     66  C   UNL A   1      43.209  27.761  31.889  1.00  0.00     0.031 C 
ATOM     67  C   UNL A   1      43.001  29.123  33.949  1.00  0.00     0.037 A 
BRANCH  54  68
ATOM     68  C   UNL A   1      39.727  33.677  36.543  1.00  0.00     0.064 A 
ATOM     69  C   UNL A   1      40.351  34.932  36.623  1.00  0.00     0.173 A 
ATOM     70  C   UNL A   1      38.872  33.302  37.589  1.00  0.00     0.173 A 
ATOM     71  F   UNL A   1      41.188  35.333  35.655  1.00  0.00    -0.203 F 
ATOM     72  C   UNL A   1      40.147  35.766  37.720  1.00  0.00     0.198 A 
ATOM     73  C   UNL A   1      38.647  34.151  38.670  1.00  0.00     0.198 A 
ATOM     74  F   UNL A   1      38.246  32.116  37.560  1.00  0.00    -0.203 F 
ATOM     75  F   UNL A   1      40.792  36.938  37.798  1.00  0.00    -0.200 F 
ATOM     76  C   UNL A   1      39.290  35.377  38.738  1.00  0.00     0.200 A 
ATOM     77  F   UNL A   1      37.807  33.781  39.647  1.00  0.00    -0.200 F 
ATOM     78  F   UNL A   1      39.089  36.184  39.791  1.00  0.00    -0.200 F 
ENDBRANCH  54  68
BRANCH  55  79
ATOM     79  C   UNL A   1      40.803  27.945  28.433  1.00  0.00     0.064 A 
ATOM     80  C   UNL A   1      41.576  28.392  27.353  1.00  0.00     0.173 A 
ATOM     81  C   UNL A   1      40.197  26.685  28.324  1.00  0.00     0.173 A 
ATOM     82  F   UNL A   1      42.157  29.600  27.401  1.00  0.00    -0.203 F 
ATOM     83  C   UNL A   1      41.713  27.625  26.198  1.00  0.00     0.198 A 
ATOM     84  C   UNL A   1      40.361  25.905  27.181  1.00  0.00     0.198 A 
ATOM     85  F   UNL A   1      39.451  26.207  29.332  1.00  0.00    -0.203 F 
ATOM     86  F   UNL A   1      42.412  28.102  25.159  1.00  0.00    -0.200 F 
ATOM     87  C   UNL A   1      41.109  26.380  26.115  1.00  0.00     0.200 A 
ATOM     88  F   UNL A   1      39.787  24.696  27.110  1.00  0.00    -0.200 F 
ATOM     89  F   UNL A   1      41.239  25.643  25.004  1.00  0.00    -0.200 F 
ENDBRANCH  55  79
BRANCH  67  90
ATOM     90  C   UNL A   1      44.154  28.352  34.525  1.00  0.00     0.064 A 
ATOM     91  C   UNL A   1      45.473  28.820  34.434  1.00  0.00     0.173 A 
ATOM     92  C   UNL A   1      43.928  27.148  35.209  1.00  0.00     0.173 A 
ATOM     93  F   UNL A   1      45.742  29.957  33.777  1.00  0.00    -0.203 F 
ATOM     94  C   UNL A   1      46.526  28.095  34.984  1.00  0.00     0.198 A 
ATOM     95  C   UNL A   1      44.981  26.443  35.785  1.00  0.00     0.198 A 
ATOM     96  F   UNL A   1      42.684  26.660  35.331  1.00  0.00    -0.203 F 
ATOM     97  F   UNL A   1      47.785  28.535  34.842  1.00  0.00    -0.200 F 
ATOM     98  C   UNL A   1      46.280  26.912  35.665  1.00  0.00     0.200 A 
ATOM     99  F   UNL A   1      44.739  25.307  36.454  1.00  0.00    -0.200 F 
ATOM    100  F   UNL A   1      47.296  26.220  36.199  1.00  0.00    -0.200 F 
ENDBRANCH  67  90
ENDBRANCH  41  42
ENDBRANCH  33  36
ENDBRANCH  31  32
ENDBRANCH  30  31
ENDBRANCH  29  30
ENDBRANCH   1  29
TORSDOF 16
ENDMDL
