MODEL 1
REMARK VINA RESULT:     -11.8      0.000      0.000
REMARK SMILES CN(Cc1ncc(C(=O)NCCCCCCNC(=O)c2ccc(-c3c4nc(c(-c5c(F)c(F)c(F)c(F)c5F)c5ccc([nH]5)c(-c5c(F)c(F)c(F)c(F)c5F)c5nc(c(-c6c(F)c(F)c(F)c(F)c6F)c6ccc3[nH]6)C=C5)C=C4)cc2)cn1)S(=O)(=O)c1ccc(Cl)cc1
REMARK SMILES IDX 12 1 11 2 10 3 8 4 9 5 7 7 4 8 5 9 84 10 6 11 83 12 3 13
REMARK SMILES IDX 2 14 1 15 85 16 86 17 87 18 88 19 89 20 94 21 90 22 93 23
REMARK SMILES IDX 91 24 92 25 13 26 14 27 15 28 16 29 17 30 18 31 19 33 20 34
REMARK SMILES IDX 21 35 82 36 22 37 81 38 23 39 24 40 25 41 75 42 26 43 80 44
REMARK SMILES IDX 74 45 76 46 27 47 79 48 73 49 72 50 28 52 60 53 40 54 59 55
REMARK SMILES IDX 41 56 44 57 58 58 77 59 42 60 43 61 57 63 78 64 45 65 29 66
REMARK SMILES IDX 30 67 38 68 31 69 32 70 36 71 39 72 33 73 34 74 37 75 35 76
REMARK SMILES IDX 61 77 62 78 70 79 63 80 64 81 68 82 71 83 65 84 66 85 69 86
REMARK SMILES IDX 67 87 46 88 47 89 55 90 48 91 49 92 53 93 56 94 50 95 51 96
REMARK SMILES IDX 54 97 52 98
REMARK H PARENT 10 6 17 32 76 51 44 62
REMARK Flexibility Score: inf
ROOT
ATOM      1  C   UNL A   1      40.010  22.836  26.920  1.00  0.00     0.021 C 
ENDROOT
BRANCH   1   2
ATOM      2  C   UNL A   1      38.694  22.772  26.142  1.00  0.00     0.116 C 
BRANCH   2   3
ATOM      3  N   UNL A   1      38.407  21.403  25.744  1.00  0.00    -0.352 N 
ATOM      4  C   UNL A   1      37.413  20.870  24.968  1.00  0.00     0.254 C 
ATOM      5  O   UNL A   1      37.428  19.663  24.734  1.00  0.00    -0.269 OA
ATOM      6  H   UNL A   1      39.043  20.740  26.098  1.00  0.00     0.163 HD
BRANCH   4   7
ATOM      7  C   UNL A   1      36.362  21.691  24.354  1.00  0.00     0.076 A 
ATOM      8  C   UNL A   1      34.290  23.030  23.219  1.00  0.00     0.143 A 
ATOM      9  N   UNL A   1      35.536  23.332  22.797  1.00  0.00    -0.239 NA
ATOM     10  N   UNL A   1      34.010  22.194  24.240  1.00  0.00    -0.239 NA
ATOM     11  C   UNL A   1      36.546  22.657  23.392  1.00  0.00     0.128 A 
ATOM     12  C   UNL A   1      35.061  21.538  24.781  1.00  0.00     0.128 A 
BRANCH   8  13
ATOM     13  C   UNL A   1      33.124  23.616  22.447  1.00  0.00     0.179 C 
BRANCH  13  14
ATOM     14  N   UNL A   1      32.438  24.818  23.034  1.00  0.00    -0.193 NA
ATOM     15  C   UNL A   1      31.033  24.517  23.415  1.00  0.00     0.125 C 
BRANCH  14  16
ATOM     16  S   UNL A   1      32.560  26.287  22.169  1.00  0.00     0.243 S 
ATOM     17  O   UNL A   1      33.891  26.382  21.606  1.00  0.00    -0.207 OA
ATOM     18  O   UNL A   1      31.394  26.388  21.319  1.00  0.00    -0.207 OA
BRANCH  16  19
ATOM     19  C   UNL A   1      32.391  27.584  23.371  1.00  0.00     0.082 A 
ATOM     20  C   UNL A   1      33.407  27.854  24.292  1.00  0.00     0.023 A 
ATOM     21  C   UNL A   1      31.191  28.304  23.401  1.00  0.00     0.023 A 
ATOM     22  C   UNL A   1      33.228  28.872  25.233  1.00  0.00     0.022 A 
ATOM     23  C   UNL A   1      31.008  29.304  24.358  1.00  0.00     0.022 A 
ATOM     24  C   UNL A   1      32.029  29.588  25.265  1.00  0.00     0.041 A 
ATOM     25  Cl  UNL A   1      31.805  30.824  26.439  1.00  0.00    -0.084 Cl
ENDBRANCH  16  19
ENDBRANCH  14  16
ENDBRANCH  13  14
ENDBRANCH   8  13
ENDBRANCH   4   7
ENDBRANCH   2   3
ENDBRANCH   1   2
BRANCH   1  26
ATOM     26  C   UNL A   1      41.166  22.091  26.239  1.00  0.00     0.002 C 
BRANCH  26  27
ATOM     27  C   UNL A   1      41.632  20.819  26.958  1.00  0.00     0.002 C 
BRANCH  27  28
ATOM     28  C   UNL A   1      41.774  19.578  26.070  1.00  0.00     0.021 C 
BRANCH  28  29
ATOM     29  C   UNL A   1      43.088  18.819  26.229  1.00  0.00     0.116 C 
BRANCH  29  30
ATOM     30  N   UNL A   1      43.817  18.719  24.977  1.00  0.00    -0.352 N 
ATOM     31  C   UNL A   1      44.436  19.696  24.241  1.00  0.00     0.251 C 
ATOM     32  H   UNL A   1      43.874  17.812  24.599  1.00  0.00     0.163 HD
ATOM     33  O   UNL A   1      44.841  19.442  23.110  1.00  0.00    -0.269 OA
BRANCH  31  34
ATOM     34  C   UNL A   1      44.615  21.060  24.789  1.00  0.00     0.039 A 
ATOM     35  C   UNL A   1      44.200  22.147  24.013  1.00  0.00     0.014 A 
ATOM     36  C   UNL A   1      45.244  21.281  26.018  1.00  0.00     0.014 A 
ATOM     37  C   UNL A   1      44.388  23.449  24.480  1.00  0.00     0.010 A 
ATOM     38  C   UNL A   1      45.380  22.579  26.510  1.00  0.00     0.010 A 
ATOM     39  C   UNL A   1      44.968  23.676  25.738  1.00  0.00    -0.014 A 
BRANCH  39  40
ATOM     40  C   UNL A   1      45.170  25.059  26.237  1.00  0.00     0.031 A 
ATOM     41  C   UNL A   1      46.524  25.708  26.149  1.00  0.00     0.074 A 
ATOM     42  C   UNL A   1      44.141  25.722  26.796  1.00  0.00     0.049 A 
ATOM     43  N   UNL A   1      46.894  26.906  26.528  1.00  0.00    -0.248 NA
ATOM     44  C   UNL A   1      47.610  24.895  25.580  1.00  0.00     0.031 C 
ATOM     45  C   UNL A   1      42.794  25.183  26.984  1.00  0.00     0.029 A 
ATOM     46  N   UNL A   1      44.067  26.993  27.307  1.00  0.00    -0.354 N 
ATOM     47  C   UNL A   1      48.254  26.985  26.257  1.00  0.00     0.074 A 
ATOM     48  C   UNL A   1      48.654  25.700  25.723  1.00  0.00     0.031 C 
ATOM     49  C   UNL A   1      42.019  26.125  27.548  1.00  0.00     0.029 A 
ATOM     50  C   UNL A   1      42.819  27.325  27.776  1.00  0.00     0.049 A 
ATOM     51  H   UNL A   1      44.834  27.609  27.335  1.00  0.00     0.167 HD
ATOM     52  C   UNL A   1      49.088  28.040  26.417  1.00  0.00     0.037 A 
ATOM     53  C   UNL A   1      42.371  28.472  28.320  1.00  0.00     0.037 A 
ATOM     54  C   UNL A   1      48.683  29.327  26.917  1.00  0.00     0.049 A 
ATOM     55  C   UNL A   1      43.307  29.642  28.449  1.00  0.00     0.074 A 
ATOM     56  C   UNL A   1      49.442  30.474  27.070  1.00  0.00     0.029 A 
ATOM     57  N   UNL A   1      47.401  29.637  27.344  1.00  0.00    -0.354 N 
ATOM     58  N   UNL A   1      44.575  29.726  28.126  1.00  0.00    -0.248 NA
ATOM     59  C   UNL A   1      42.744  30.881  29.002  1.00  0.00     0.031 C 
ATOM     60  C   UNL A   1      48.626  31.472  27.616  1.00  0.00     0.029 A 
ATOM     61  C   UNL A   1      47.348  30.955  27.767  1.00  0.00     0.049 A 
ATOM     62  H   UNL A   1      46.639  29.013  27.347  1.00  0.00     0.167 HD
ATOM     63  C   UNL A   1      44.954  31.031  28.408  1.00  0.00     0.074 A 
ATOM     64  C   UNL A   1      43.779  31.707  28.917  1.00  0.00     0.031 C 
ATOM     65  C   UNL A   1      46.166  31.615  28.257  1.00  0.00     0.037 A 
BRANCH  52  66
ATOM     66  C   UNL A   1      50.527  27.848  26.035  1.00  0.00     0.064 A 
ATOM     67  C   UNL A   1      51.501  27.520  26.990  1.00  0.00     0.173 A 
ATOM     68  C   UNL A   1      50.930  27.961  24.696  1.00  0.00     0.173 A 
ATOM     69  F   UNL A   1      51.168  27.413  28.285  1.00  0.00    -0.203 F 
ATOM     70  C   UNL A   1      52.831  27.337  26.622  1.00  0.00     0.198 A 
ATOM     71  C   UNL A   1      52.257  27.752  24.328  1.00  0.00     0.198 A 
ATOM     72  F   UNL A   1      50.038  28.268  23.743  1.00  0.00    -0.203 F 
ATOM     73  F   UNL A   1      53.753  27.070  27.558  1.00  0.00    -0.200 F 
ATOM     74  C   UNL A   1      53.207  27.447  25.291  1.00  0.00     0.200 A 
ATOM     75  F   UNL A   1      52.617  27.848  23.041  1.00  0.00    -0.200 F 
ATOM     76  F   UNL A   1      54.488  27.267  24.939  1.00  0.00    -0.200 F 
ENDBRANCH  52  66
BRANCH  53  77
ATOM     77  C   UNL A   1      40.949  28.585  28.733  1.00  0.00     0.064 A 
ATOM     78  C   UNL A   1      39.972  29.019  27.828  1.00  0.00     0.173 A 
ATOM     79  C   UNL A   1      40.539  28.257  30.032  1.00  0.00     0.173 A 
ATOM     80  F   UNL A   1      40.322  29.362  26.579  1.00  0.00    -0.203 F 
ATOM     81  C   UNL A   1      38.639  29.138  28.212  1.00  0.00     0.198 A 
ATOM     82  C   UNL A   1      39.201  28.353  30.408  1.00  0.00     0.198 A 
ATOM     83  F   UNL A   1      41.436  27.830  30.933  1.00  0.00    -0.203 F 
ATOM     84  F   UNL A   1      37.730  29.593  27.338  1.00  0.00    -0.200 F 
ATOM     85  C   UNL A   1      38.253  28.801  29.500  1.00  0.00     0.200 A 
ATOM     86  F   UNL A   1      38.830  28.014  31.651  1.00  0.00    -0.200 F 
ATOM     87  F   UNL A   1      36.969  28.910  29.867  1.00  0.00    -0.200 F 
ENDBRANCH  53  77
BRANCH  65  88
ATOM     88  C   UNL A   1      46.274  33.070  28.610  1.00  0.00     0.064 A 
ATOM     89  C   UNL A   1      46.633  33.489  29.899  1.00  0.00     0.173 A 
ATOM     90  C   UNL A   1      46.041  34.053  27.637  1.00  0.00     0.173 A 
ATOM     91  F   UNL A   1      46.851  32.584  30.866  1.00  0.00    -0.203 F 
ATOM     92  C   UNL A   1      46.731  34.842  30.208  1.00  0.00     0.198 A 
ATOM     93  C   UNL A   1      46.165  35.405  27.944  1.00  0.00     0.198 A 
ATOM     94  F   UNL A   1      45.699  33.702  26.389  1.00  0.00    -0.203 F 
ATOM     95  F   UNL A   1      47.034  35.222  31.458  1.00  0.00    -0.200 F 
ATOM     96  C   UNL A   1      46.502  35.799  29.230  1.00  0.00     0.200 A 
ATOM     97  F   UNL A   1      45.952  36.328  26.996  1.00  0.00    -0.200 F 
ATOM     98  F   UNL A   1      46.599  37.102  29.529  1.00  0.00    -0.200 F 
ENDBRANCH  65  88
ENDBRANCH  39  40
ENDBRANCH  31  34
ENDBRANCH  29  30
ENDBRANCH  28  29
ENDBRANCH  27  28
ENDBRANCH  26  27
ENDBRANCH   1  26
TORSDOF 17
ENDMDL
MODEL 2
REMARK VINA RESULT:     -11.7      0.288      1.983
REMARK SMILES CN(Cc1ncc(C(=O)NCCCCCCNC(=O)c2ccc(-c3c4nc(c(-c5c(F)c(F)c(F)c(F)c5F)c5ccc([nH]5)c(-c5c(F)c(F)c(F)c(F)c5F)c5nc(c(-c6c(F)c(F)c(F)c(F)c6F)c6ccc3[nH]6)C=C5)C=C4)cc2)cn1)S(=O)(=O)c1ccc(Cl)cc1
REMARK SMILES IDX 12 1 11 2 10 3 8 4 9 5 7 7 4 8 5 9 84 10 6 11 83 12 3 13
REMARK SMILES IDX 2 14 1 15 85 16 86 17 87 18 88 19 89 20 94 21 90 22 93 23
REMARK SMILES IDX 91 24 92 25 13 26 14 27 15 28 16 29 17 30 18 31 19 33 20 34
REMARK SMILES IDX 21 35 82 36 22 37 81 38 23 39 24 40 25 41 75 42 26 43 80 44
REMARK SMILES IDX 74 45 76 46 27 47 79 48 73 49 72 50 28 52 60 53 40 54 59 55
REMARK SMILES IDX 41 56 44 57 58 58 77 59 42 60 43 61 57 63 78 64 45 65 29 66
REMARK SMILES IDX 30 67 38 68 31 69 32 70 36 71 39 72 33 73 34 74 37 75 35 76
REMARK SMILES IDX 61 77 62 78 70 79 63 80 64 81 68 82 71 83 65 84 66 85 69 86
REMARK SMILES IDX 67 87 46 88 47 89 55 90 48 91 49 92 53 93 56 94 50 95 51 96
REMARK SMILES IDX 54 97 52 98
REMARK H PARENT 10 6 17 32 76 51 44 62
REMARK Flexibility Score: inf
ROOT
ATOM      1  C   UNL A   1      40.144  22.715  26.886  1.00  0.00     0.021 C 
ENDROOT
BRANCH   1   2
ATOM      2  C   UNL A   1      38.818  22.683  26.123  1.00  0.00     0.116 C 
BRANCH   2   3
ATOM      3  N   UNL A   1      38.479  21.318  25.756  1.00  0.00    -0.352 N 
ATOM      4  C   UNL A   1      37.456  20.806  25.003  1.00  0.00     0.254 C 
ATOM      5  O   UNL A   1      37.427  19.594  24.792  1.00  0.00    -0.269 OA
ATOM      6  H   UNL A   1      39.096  20.640  26.113  1.00  0.00     0.163 HD
BRANCH   4   7
ATOM      7  C   UNL A   1      36.426  21.651  24.387  1.00  0.00     0.076 A 
ATOM      8  C   UNL A   1      34.389  23.038  23.245  1.00  0.00     0.143 A 
ATOM      9  N   UNL A   1      35.645  23.326  22.843  1.00  0.00    -0.239 NA
ATOM     10  N   UNL A   1      34.084  22.192  24.252  1.00  0.00    -0.239 NA
ATOM     11  C   UNL A   1      36.637  22.626  23.441  1.00  0.00     0.128 A 
ATOM     12  C   UNL A   1      35.118  21.513  24.796  1.00  0.00     0.128 A 
BRANCH   8  13
ATOM     13  C   UNL A   1      33.242  23.652  22.468  1.00  0.00     0.179 C 
BRANCH  13  14
ATOM     14  N   UNL A   1      32.559  24.848  23.068  1.00  0.00    -0.193 NA
ATOM     15  C   UNL A   1      31.168  24.534  23.486  1.00  0.00     0.125 C 
BRANCH  14  16
ATOM     16  S   UNL A   1      32.644  26.316  22.196  1.00  0.00     0.243 S 
ATOM     17  O   UNL A   1      33.970  26.438  21.626  1.00  0.00    -0.207 OA
ATOM     18  O   UNL A   1      31.471  26.387  21.352  1.00  0.00    -0.207 OA
BRANCH  16  19
ATOM     19  C   UNL A   1      32.452  27.614  23.394  1.00  0.00     0.082 A 
ATOM     20  C   UNL A   1      33.487  27.948  24.272  1.00  0.00     0.023 A 
ATOM     21  C   UNL A   1      31.217  28.269  23.466  1.00  0.00     0.023 A 
ATOM     22  C   UNL A   1      33.290  28.964  25.210  1.00  0.00     0.022 A 
ATOM     23  C   UNL A   1      31.017  29.267  24.421  1.00  0.00     0.022 A 
ATOM     24  C   UNL A   1      32.056  29.615  25.284  1.00  0.00     0.041 A 
ATOM     25  Cl  UNL A   1      31.811  30.849  26.457  1.00  0.00    -0.084 Cl
ENDBRANCH  16  19
ENDBRANCH  14  16
ENDBRANCH  13  14
ENDBRANCH   8  13
ENDBRANCH   4   7
ENDBRANCH   2   3
ENDBRANCH   1   2
BRANCH   1  26
ATOM     26  C   UNL A   1      41.297  22.019  26.149  1.00  0.00     0.002 C 
BRANCH  26  27
ATOM     27  C   UNL A   1      41.902  20.815  26.880  1.00  0.00     0.002 C 
BRANCH  27  28
ATOM     28  C   UNL A   1      42.024  19.535  26.047  1.00  0.00     0.021 C 
BRANCH  28  29
ATOM     29  C   UNL A   1      43.357  18.804  26.180  1.00  0.00     0.116 C 
BRANCH  29  30
ATOM     30  N   UNL A   1      44.013  18.627  24.895  1.00  0.00    -0.352 N 
ATOM     31  C   UNL A   1      44.592  19.554  24.070  1.00  0.00     0.251 C 
ATOM     32  H   UNL A   1      44.045  17.698  24.568  1.00  0.00     0.163 HD
ATOM     33  O   UNL A   1      44.931  19.232  22.935  1.00  0.00    -0.269 OA
BRANCH  31  34
ATOM     34  C   UNL A   1      44.808  20.946  24.526  1.00  0.00     0.039 A 
ATOM     35  C   UNL A   1      45.460  21.152  25.746  1.00  0.00     0.014 A 
ATOM     36  C   UNL A   1      44.320  22.039  23.805  1.00  0.00     0.014 A 
ATOM     37  C   UNL A   1      45.648  22.449  26.227  1.00  0.00     0.010 A 
ATOM     38  C   UNL A   1      44.557  23.338  24.256  1.00  0.00     0.010 A 
ATOM     39  C   UNL A   1      45.209  23.554  25.480  1.00  0.00    -0.014 A 
BRANCH  39  40
ATOM     40  C   UNL A   1      45.406  24.934  25.988  1.00  0.00     0.031 A 
ATOM     41  C   UNL A   1      46.759  25.586  25.910  1.00  0.00     0.074 A 
ATOM     42  C   UNL A   1      44.372  25.592  26.545  1.00  0.00     0.049 A 
ATOM     43  N   UNL A   1      47.125  26.782  26.298  1.00  0.00    -0.248 NA
ATOM     44  C   UNL A   1      47.850  24.779  25.343  1.00  0.00     0.031 C 
ATOM     45  C   UNL A   1      43.025  25.050  26.723  1.00  0.00     0.029 A 
ATOM     46  N   UNL A   1      44.293  26.860  27.063  1.00  0.00    -0.354 N 
ATOM     47  C   UNL A   1      48.486  26.866  26.035  1.00  0.00     0.074 A 
ATOM     48  C   UNL A   1      48.892  25.585  25.496  1.00  0.00     0.031 C 
ATOM     49  C   UNL A   1      42.246  25.987  27.288  1.00  0.00     0.029 A 
ATOM     50  C   UNL A   1      43.042  27.187  27.527  1.00  0.00     0.049 A 
ATOM     51  H   UNL A   1      45.059  27.477  27.098  1.00  0.00     0.167 HD
ATOM     52  C   UNL A   1      49.317  27.922  26.205  1.00  0.00     0.037 A 
ATOM     53  C   UNL A   1      42.589  28.330  28.075  1.00  0.00     0.037 A 
ATOM     54  C   UNL A   1      48.907  29.205  26.710  1.00  0.00     0.049 A 
ATOM     55  C   UNL A   1      43.522  29.501  28.215  1.00  0.00     0.074 A 
ATOM     56  C   UNL A   1      49.663  30.353  26.873  1.00  0.00     0.029 A 
ATOM     57  N   UNL A   1      47.622  29.510  27.132  1.00  0.00    -0.354 N 
ATOM     58  N   UNL A   1      44.792  29.589  27.899  1.00  0.00    -0.248 NA
ATOM     59  C   UNL A   1      42.954  30.736  28.771  1.00  0.00     0.031 C 
ATOM     60  C   UNL A   1      48.842  31.346  27.420  1.00  0.00     0.029 A 
ATOM     61  C   UNL A   1      47.565  30.826  27.562  1.00  0.00     0.049 A 
ATOM     62  H   UNL A   1      46.861  28.884  27.127  1.00  0.00     0.167 HD
ATOM     63  C   UNL A   1      45.166  30.894  28.190  1.00  0.00     0.074 A 
ATOM     64  C   UNL A   1      43.988  31.564  28.697  1.00  0.00     0.031 C 
ATOM     65  C   UNL A   1      46.379  31.481  28.049  1.00  0.00     0.037 A 
BRANCH  52  66
ATOM     66  C   UNL A   1      50.759  27.734  25.830  1.00  0.00     0.064 A 
ATOM     67  C   UNL A   1      51.201  27.905  24.511  1.00  0.00     0.173 A 
ATOM     68  C   UNL A   1      51.713  27.413  26.808  1.00  0.00     0.173 A 
ATOM     69  F   UNL A   1      50.326  28.200  23.538  1.00  0.00    -0.203 F 
ATOM     70  C   UNL A   1      52.542  27.735  24.177  1.00  0.00     0.198 A 
ATOM     71  C   UNL A   1      53.057  27.270  26.475  1.00  0.00     0.198 A 
ATOM     72  F   UNL A   1      51.342  27.243  28.086  1.00  0.00    -0.203 F 
ATOM     73  F   UNL A   1      52.935  27.858  22.902  1.00  0.00    -0.200 F 
ATOM     74  C   UNL A   1      53.470  27.424  25.161  1.00  0.00     0.200 A 
ATOM     75  F   UNL A   1      53.954  26.979  27.428  1.00  0.00    -0.200 F 
ATOM     76  F   UNL A   1      54.761  27.265  24.838  1.00  0.00    -0.200 F 
ENDBRANCH  52  66
BRANCH  53  77
ATOM     77  C   UNL A   1      41.165  28.439  28.481  1.00  0.00     0.064 A 
ATOM     78  C   UNL A   1      40.754  28.051  29.763  1.00  0.00     0.173 A 
ATOM     79  C   UNL A   1      40.192  28.938  27.604  1.00  0.00     0.173 A 
ATOM     80  F   UNL A   1      41.647  27.550  30.629  1.00  0.00    -0.203 F 
ATOM     81  C   UNL A   1      39.418  28.140  30.147  1.00  0.00     0.198 A 
ATOM     82  C   UNL A   1      38.861  29.049  27.997  1.00  0.00     0.198 A 
ATOM     83  F   UNL A   1      40.539  29.330  26.369  1.00  0.00    -0.203 F 
ATOM     84  F   UNL A   1      39.044  27.725  31.365  1.00  0.00    -0.200 F 
ATOM     85  C   UNL A   1      38.473  28.644  29.266  1.00  0.00     0.200 A 
ATOM     86  F   UNL A   1      37.953  29.549  27.147  1.00  0.00    -0.200 F 
ATOM     87  F   UNL A   1      37.189  28.734  29.637  1.00  0.00    -0.200 F 
ENDBRANCH  53  77
BRANCH  65  88
ATOM     88  C   UNL A   1      46.482  32.934  28.411  1.00  0.00     0.064 A 
ATOM     89  C   UNL A   1      46.216  33.944  27.476  1.00  0.00     0.173 A 
ATOM     90  C   UNL A   1      46.823  33.316  29.717  1.00  0.00     0.173 A 
ATOM     91  F   UNL A   1      45.901  33.628  26.210  1.00  0.00    -0.203 F 
ATOM     92  C   UNL A   1      46.314  35.287  27.830  1.00  0.00     0.198 A 
ATOM     93  C   UNL A   1      46.894  34.659  30.073  1.00  0.00     0.198 A 
ATOM     94  F   UNL A   1      47.081  32.385  30.648  1.00  0.00    -0.203 F 
ATOM     95  F   UNL A   1      46.099  36.238  26.909  1.00  0.00    -0.200 F 
ATOM     96  C   UNL A   1      46.647  35.643  29.128  1.00  0.00     0.200 A 
ATOM     97  F   UNL A   1      47.208  35.002  31.330  1.00  0.00    -0.200 F 
ATOM     98  F   UNL A   1      46.738  36.937  29.467  1.00  0.00    -0.200 F 
ENDBRANCH  65  88
ENDBRANCH  39  40
ENDBRANCH  31  34
ENDBRANCH  29  30
ENDBRANCH  28  29
ENDBRANCH  27  28
ENDBRANCH  26  27
ENDBRANCH   1  26
TORSDOF 17
ENDMDL
MODEL 3
REMARK VINA RESULT:     -11.7      6.794     12.406
REMARK SMILES CN(Cc1ncc(C(=O)NCCCCCCNC(=O)c2ccc(-c3c4nc(c(-c5c(F)c(F)c(F)c(F)c5F)c5ccc([nH]5)c(-c5c(F)c(F)c(F)c(F)c5F)c5nc(c(-c6c(F)c(F)c(F)c(F)c6F)c6ccc3[nH]6)C=C5)C=C4)cc2)cn1)S(=O)(=O)c1ccc(Cl)cc1
REMARK SMILES IDX 12 1 11 2 10 3 8 4 9 5 7 7 4 8 5 9 84 10 6 11 83 12 3 13
REMARK SMILES IDX 2 14 1 15 85 16 86 17 87 18 88 19 89 20 94 21 90 22 93 23
REMARK SMILES IDX 91 24 92 25 13 26 14 27 15 28 16 29 17 30 18 31 19 33 20 34
REMARK SMILES IDX 21 35 82 36 22 37 81 38 23 39 24 40 25 41 75 42 26 43 80 44
REMARK SMILES IDX 74 45 76 46 27 47 79 48 73 49 72 50 28 52 60 53 40 54 59 55
REMARK SMILES IDX 41 56 44 57 58 58 77 59 42 60 43 61 57 63 78 64 45 65 29 66
REMARK SMILES IDX 30 67 38 68 31 69 32 70 36 71 39 72 33 73 34 74 37 75 35 76
REMARK SMILES IDX 61 77 62 78 70 79 63 80 64 81 68 82 71 83 65 84 66 85 69 86
REMARK SMILES IDX 67 87 46 88 47 89 55 90 48 91 49 92 53 93 56 94 50 95 51 96
REMARK SMILES IDX 54 97 52 98
REMARK H PARENT 10 6 17 32 76 51 44 62
REMARK Flexibility Score: inf
ROOT
ATOM      1  C   UNL A   1      35.136  31.460  28.485  1.00  0.00     0.021 C 
ENDROOT
BRANCH   1   2
ATOM      2  C   UNL A   1      34.298  30.512  27.624  1.00  0.00     0.116 C 
BRANCH   2   3
ATOM      3  N   UNL A   1      33.154  31.213  27.067  1.00  0.00    -0.352 N 
ATOM      4  C   UNL A   1      31.984  30.756  26.520  1.00  0.00     0.254 C 
ATOM      5  O   UNL A   1      31.137  31.575  26.167  1.00  0.00    -0.269 OA
ATOM      6  H   UNL A   1      33.234  32.194  27.087  1.00  0.00     0.163 HD
BRANCH   4   7
ATOM      7  C   UNL A   1      31.676  29.327  26.392  1.00  0.00     0.076 A 
ATOM      8  C   UNL A   1      30.963  26.737  25.996  1.00  0.00     0.143 A 
ATOM      9  N   UNL A   1      31.199  27.134  27.265  1.00  0.00    -0.239 NA
ATOM     10  N   UNL A   1      31.164  27.504  24.905  1.00  0.00    -0.239 NA
ATOM     11  C   UNL A   1      31.565  28.426  27.425  1.00  0.00     0.128 A 
ATOM     12  C   UNL A   1      31.513  28.789  25.134  1.00  0.00     0.128 A 
BRANCH   8  13
ATOM     13  C   UNL A   1      30.364  25.360  25.789  1.00  0.00     0.179 C 
BRANCH  13  14
ATOM     14  N   UNL A   1      31.275  24.275  25.288  1.00  0.00    -0.193 NA
ATOM     15  C   UNL A   1      30.950  23.887  23.890  1.00  0.00     0.125 C 
BRANCH  14  16
ATOM     16  S   UNL A   1      31.490  22.909  26.292  1.00  0.00     0.243 S 
ATOM     17  O   UNL A   1      31.473  23.343  27.673  1.00  0.00    -0.207 OA
ATOM     18  O   UNL A   1      30.578  21.884  25.832  1.00  0.00    -0.207 OA
BRANCH  16  19
ATOM     19  C   UNL A   1      33.120  22.292  25.944  1.00  0.00     0.082 A 
ATOM     20  C   UNL A   1      34.259  23.035  26.263  1.00  0.00     0.023 A 
ATOM     21  C   UNL A   1      33.233  21.054  25.299  1.00  0.00     0.023 A 
ATOM     22  C   UNL A   1      35.522  22.521  25.958  1.00  0.00     0.022 A 
ATOM     23  C   UNL A   1      34.496  20.555  24.975  1.00  0.00     0.022 A 
ATOM     24  C   UNL A   1      35.635  21.288  25.311  1.00  0.00     0.041 A 
ATOM     25  Cl  UNL A   1      37.191  20.671  24.916  1.00  0.00    -0.084 Cl
ENDBRANCH  16  19
ENDBRANCH  14  16
ENDBRANCH  13  14
ENDBRANCH   8  13
ENDBRANCH   4   7
ENDBRANCH   2   3
ENDBRANCH   1   2
BRANCH   1  26
ATOM     26  C   UNL A   1      35.088  32.922  28.019  1.00  0.00     0.002 C 
BRANCH  26  27
ATOM     27  C   UNL A   1      34.816  33.947  29.126  1.00  0.00     0.002 C 
BRANCH  27  28
ATOM     28  C   UNL A   1      33.409  34.553  29.128  1.00  0.00     0.021 C 
BRANCH  28  29
ATOM     29  C   UNL A   1      33.335  36.011  29.572  1.00  0.00     0.116 C 
BRANCH  29  30
ATOM     30  N   UNL A   1      32.505  36.182  30.752  1.00  0.00    -0.352 N 
ATOM     31  C   UNL A   1      32.642  35.648  32.007  1.00  0.00     0.251 C 
ATOM     32  H   UNL A   1      31.725  36.770  30.631  1.00  0.00     0.163 HD
ATOM     33  O   UNL A   1      31.729  35.765  32.820  1.00  0.00    -0.269 OA
BRANCH  31  34
ATOM     34  C   UNL A   1      33.874  34.924  32.393  1.00  0.00     0.039 A 
ATOM     35  C   UNL A   1      35.091  35.611  32.345  1.00  0.00     0.014 A 
ATOM     36  C   UNL A   1      33.852  33.569  32.735  1.00  0.00     0.014 A 
ATOM     37  C   UNL A   1      36.278  34.950  32.666  1.00  0.00     0.010 A 
ATOM     38  C   UNL A   1      35.030  32.923  33.111  1.00  0.00     0.010 A 
ATOM     39  C   UNL A   1      36.256  33.604  33.063  1.00  0.00    -0.014 A 
BRANCH  39  40
ATOM     40  C   UNL A   1      37.516  32.897  33.404  1.00  0.00     0.031 A 
ATOM     41  C   UNL A   1      38.222  33.187  34.701  1.00  0.00     0.074 A 
ATOM     42  C   UNL A   1      38.040  32.014  32.535  1.00  0.00     0.049 A 
ATOM     43  N   UNL A   1      39.329  32.670  35.174  1.00  0.00    -0.248 NA
ATOM     44  C   UNL A   1      37.617  34.208  35.568  1.00  0.00     0.031 C 
ATOM     45  C   UNL A   1      37.477  31.685  31.225  1.00  0.00     0.029 A 
ATOM     46  N   UNL A   1      39.164  31.232  32.622  1.00  0.00    -0.354 N 
ATOM     47  C   UNL A   1      39.558  33.311  36.384  1.00  0.00     0.074 A 
ATOM     48  C   UNL A   1      38.502  34.286  36.553  1.00  0.00     0.031 C 
ATOM     49  C   UNL A   1      38.245  30.750  30.640  1.00  0.00     0.029 A 
ATOM     50  C   UNL A   1      39.361  30.429  31.525  1.00  0.00     0.049 A 
ATOM     51  H   UNL A   1      39.771  31.244  33.396  1.00  0.00     0.167 HD
ATOM     52  C   UNL A   1      40.546  33.091  37.284  1.00  0.00     0.037 A 
ATOM     53  C   UNL A   1      40.329  29.529  31.267  1.00  0.00     0.037 A 
ATOM     54  C   UNL A   1      41.578  32.099  37.131  1.00  0.00     0.049 A 
ATOM     55  C   UNL A   1      41.391  29.274  32.300  1.00  0.00     0.074 A 
ATOM     56  C   UNL A   1      42.594  31.765  38.008  1.00  0.00     0.029 A 
ATOM     57  N   UNL A   1      41.721  31.277  36.023  1.00  0.00    -0.354 N 
ATOM     58  N   UNL A   1      41.559  29.839  33.472  1.00  0.00    -0.248 NA
ATOM     59  C   UNL A   1      42.389  28.243  31.983  1.00  0.00     0.031 C 
ATOM     60  C   UNL A   1      43.370  30.759  37.420  1.00  0.00     0.029 A 
ATOM     61  C   UNL A   1      42.812  30.441  36.192  1.00  0.00     0.049 A 
ATOM     62  H   UNL A   1      41.133  31.285  35.233  1.00  0.00     0.167 HD
ATOM     63  C   UNL A   1      42.660  29.215  34.042  1.00  0.00     0.074 A 
ATOM     64  C   UNL A   1      43.113  28.219  33.093  1.00  0.00     0.031 C 
ATOM     65  C   UNL A   1      43.240  29.446  35.244  1.00  0.00     0.037 A 
BRANCH  52  66
ATOM     66  C   UNL A   1      40.553  33.936  38.525  1.00  0.00     0.064 A 
ATOM     67  C   UNL A   1      39.839  33.560  39.671  1.00  0.00     0.173 A 
ATOM     68  C   UNL A   1      41.309  35.117  38.578  1.00  0.00     0.173 A 
ATOM     69  F   UNL A   1      39.092  32.446  39.667  1.00  0.00    -0.203 F 
ATOM     70  C   UNL A   1      39.859  34.349  40.818  1.00  0.00     0.198 A 
ATOM     71  C   UNL A   1      41.347  35.890  39.735  1.00  0.00     0.198 A 
ATOM     72  F   UNL A   1      42.014  35.519  37.510  1.00  0.00    -0.203 F 
ATOM     73  F   UNL A   1      39.132  33.994  41.887  1.00  0.00    -0.200 F 
ATOM     74  C   UNL A   1      40.617  35.510  40.851  1.00  0.00     0.200 A 
ATOM     75  F   UNL A   1      42.089  37.006  39.770  1.00  0.00    -0.200 F 
ATOM     76  F   UNL A   1      40.639  36.266  41.958  1.00  0.00    -0.200 F 
ENDBRANCH  52  66
BRANCH  53  77
ATOM     77  C   UNL A   1      40.304  28.763  29.996  1.00  0.00     0.064 A 
ATOM     78  C   UNL A   1      39.633  27.536  29.912  1.00  0.00     0.173 A 
ATOM     79  C   UNL A   1      40.939  29.243  28.842  1.00  0.00     0.173 A 
ATOM     80  F   UNL A   1      39.027  27.028  30.996  1.00  0.00    -0.203 F 
ATOM     81  C   UNL A   1      39.615  26.807  28.725  1.00  0.00     0.198 A 
ATOM     82  C   UNL A   1      40.900  28.524  27.650  1.00  0.00     0.198 A 
ATOM     83  F   UNL A   1      41.588  30.417  28.871  1.00  0.00    -0.203 F 
ATOM     84  F   UNL A   1      39.000  25.617  28.682  1.00  0.00    -0.200 F 
ATOM     85  C   UNL A   1      40.244  27.304  27.593  1.00  0.00     0.200 A 
ATOM     86  F   UNL A   1      41.498  29.014  26.555  1.00  0.00    -0.200 F 
ATOM     87  F   UNL A   1      40.221  26.605  26.451  1.00  0.00    -0.200 F 
ENDBRANCH  53  77
BRANCH  65  88
ATOM     88  C   UNL A   1      44.407  28.579  35.618  1.00  0.00     0.064 A 
ATOM     89  C   UNL A   1      45.721  28.931  35.282  1.00  0.00     0.173 A 
ATOM     90  C   UNL A   1      44.205  27.397  36.347  1.00  0.00     0.173 A 
ATOM     91  F   UNL A   1      45.962  30.045  34.573  1.00  0.00    -0.203 F 
ATOM     92  C   UNL A   1      46.792  28.117  35.641  1.00  0.00     0.198 A 
ATOM     93  C   UNL A   1      45.281  26.599  36.725  1.00  0.00     0.198 A 
ATOM     94  F   UNL A   1      42.966  27.021  36.695  1.00  0.00    -0.203 F 
ATOM     95  F   UNL A   1      48.037  28.450  35.271  1.00  0.00    -0.200 F 
ATOM     96  C   UNL A   1      46.572  26.955  36.365  1.00  0.00     0.200 A 
ATOM     97  F   UNL A   1      45.067  25.482  37.433  1.00  0.00    -0.200 F 
ATOM     98  F   UNL A   1      47.604  26.174  36.711  1.00  0.00    -0.200 F 
ENDBRANCH  65  88
ENDBRANCH  39  40
ENDBRANCH  31  34
ENDBRANCH  29  30
ENDBRANCH  28  29
ENDBRANCH  27  28
ENDBRANCH  26  27
ENDBRANCH   1  26
TORSDOF 17
ENDMDL
