MODEL 1
REMARK VINA RESULT:     -14.7      0.000      0.000
REMARK SMILES Cc1cccc(N2C(=O)/C(=C/c3ccc(C(=O)NCCCCCCNC(=O)c4ccc(-c5c6nc(c(-c7c(F)c(F)c(F)c(F)c7F)c7ccc([nH]7)c(-c7c(F)c(F)c(F)c(F)c7F)c7nc(c(-c8c(F)c(F)c(F)c(F)c8F)c8ccc5[nH]8)C=C7)C=C6)cc4)cc3)c3ccccc3C2=O)c1
REMARK SMILES IDX 21 1 20 2 19 3 18 4 16 5 17 6 15 8 12 9 13 10 92 11 14 12
REMARK SMILES IDX 91 13 11 14 7 15 8 16 99 17 9 18 10 19 98 20 100 21 93 22
REMARK SMILES IDX 97 23 94 24 96 25 95 26 6 27 1 28 2 29 3 30 101 31 4 32 5 33
REMARK SMILES IDX 22 34 23 35 24 36 25 37 26 38 27 40 28 41 29 42 90 43 30 44
REMARK SMILES IDX 89 45 31 46 32 47 33 48 83 49 34 50 88 51 82 52 84 53 35 54
REMARK SMILES IDX 87 55 81 56 80 57 36 59 68 60 48 61 67 62 49 63 52 64 66 65
REMARK SMILES IDX 85 66 50 67 51 68 65 70 86 71 53 72 37 73 38 74 46 75 39 76
REMARK SMILES IDX 40 77 44 78 47 79 41 80 42 81 45 82 43 83 69 84 70 85 78 86
REMARK SMILES IDX 71 87 72 88 76 89 79 90 73 91 74 92 77 93 75 94 54 95 55 96
REMARK SMILES IDX 63 97 56 98 57 99 61 100 64 101 58 102 59 103 62 104 60 105
REMARK H PARENT 18 7 25 39 84 58 52 69
REMARK Flexibility Score: inf
ROOT
ATOM      1  C   UNL A   1      33.141  27.913  25.837  1.00  0.00     0.002 C 
ENDROOT
BRANCH   1   2
ATOM      2  C   UNL A   1      33.907  28.675  24.750  1.00  0.00     0.021 C 
BRANCH   2   3
ATOM      3  C   UNL A   1      33.201  28.883  23.410  1.00  0.00     0.116 C 
BRANCH   3   4
ATOM      4  N   UNL A   1      31.820  29.310  23.532  1.00  0.00    -0.352 N 
ATOM      5  C   UNL A   1      30.672  28.552  23.549  1.00  0.00     0.251 C 
ATOM      6  O   UNL A   1      29.576  29.099  23.621  1.00  0.00    -0.269 OA
ATOM      7  H   UNL A   1      31.685  30.282  23.612  1.00  0.00     0.163 HD
BRANCH   5   8
ATOM      8  C   UNL A   1      30.744  27.078  23.417  1.00  0.00     0.039 A 
ATOM      9  C   UNL A   1      31.175  24.321  23.201  1.00  0.00    -0.025 A 
ATOM     10  C   UNL A   1      31.525  25.173  22.145  1.00  0.00     0.009 A 
ATOM     11  C   UNL A   1      30.489  24.845  24.306  1.00  0.00     0.009 A 
ATOM     12  C   UNL A   1      31.307  26.549  22.253  1.00  0.00     0.014 A 
ATOM     13  C   UNL A   1      30.276  26.221  24.416  1.00  0.00     0.014 A 
BRANCH   9  14
ATOM     14  C   UNL A   1      31.558  22.904  23.127  1.00  0.00     0.022 C 
ATOM     15  N   UNL A   1      33.377  20.142  24.558  1.00  0.00    -0.242 N 
ATOM     16  C   UNL A   1      32.727  20.821  23.506  1.00  0.00     0.265 C 
ATOM     17  C   UNL A   1      33.882  20.842  25.676  1.00  0.00     0.265 C 
ATOM     18  O   UNL A   1      32.154  20.310  22.545  1.00  0.00    -0.268 OA
ATOM     19  C   UNL A   1      32.663  22.320  23.648  1.00  0.00     0.049 C 
ATOM     20  C   UNL A   1      34.262  22.260  25.474  1.00  0.00     0.048 A 
ATOM     21  O   UNL A   1      34.074  20.407  26.809  1.00  0.00    -0.268 OA
ATOM     22  C   UNL A   1      33.719  22.981  24.417  1.00  0.00    -0.000 A 
ATOM     23  C   UNL A   1      35.196  22.857  26.338  1.00  0.00     0.014 A 
ATOM     24  C   UNL A   1      34.209  24.271  24.161  1.00  0.00     0.010 A 
ATOM     25  C   UNL A   1      35.622  24.164  26.116  1.00  0.00     0.001 A 
ATOM     26  C   UNL A   1      35.143  24.865  25.013  1.00  0.00     0.001 A 
BRANCH  15  27
ATOM     27  C   UNL A   1      33.430  18.679  24.533  1.00  0.00     0.053 A 
ATOM     28  C   UNL A   1      31.605  15.692  26.126  1.00  0.00     0.044 C 
ATOM     29  C   UNL A   1      32.563  16.488  25.288  1.00  0.00    -0.049 A 
ATOM     30  C   UNL A   1      33.495  15.828  24.489  1.00  0.00     0.003 A 
ATOM     31  C   UNL A   1      32.528  17.896  25.286  1.00  0.00     0.030 A 
ATOM     32  C   UNL A   1      34.379  16.565  23.716  1.00  0.00     0.002 A 
ATOM     33  C   UNL A   1      34.348  17.966  23.743  1.00  0.00     0.027 A 
ENDBRANCH  15  27
ENDBRANCH   9  14
ENDBRANCH   5   8
ENDBRANCH   3   4
ENDBRANCH   2   3
ENDBRANCH   1   2
BRANCH   1  34
ATOM     34  C   UNL A   1      33.016  28.573  27.217  1.00  0.00     0.002 C 
BRANCH  34  35
ATOM     35  C   UNL A   1      32.533  30.023  27.251  1.00  0.00     0.021 C 
BRANCH  35  36
ATOM     36  C   UNL A   1      33.585  31.069  26.907  1.00  0.00     0.116 C 
BRANCH  36  37
ATOM     37  N   UNL A   1      34.010  31.907  28.019  1.00  0.00    -0.352 N 
ATOM     38  C   UNL A   1      34.992  31.677  28.976  1.00  0.00     0.251 C 
ATOM     39  H   UNL A   1      33.530  32.762  28.107  1.00  0.00     0.163 HD
ATOM     40  O   UNL A   1      35.165  32.467  29.880  1.00  0.00    -0.269 OA
BRANCH  38  41
ATOM     41  C   UNL A   1      35.920  30.524  28.808  1.00  0.00     0.039 A 
ATOM     42  C   UNL A   1      36.187  29.723  29.927  1.00  0.00     0.014 A 
ATOM     43  C   UNL A   1      36.659  30.354  27.643  1.00  0.00     0.014 A 
ATOM     44  C   UNL A   1      37.351  28.953  29.957  1.00  0.00     0.010 A 
ATOM     45  C   UNL A   1      37.865  29.689  27.711  1.00  0.00     0.010 A 
ATOM     46  C   UNL A   1      38.245  29.045  28.892  1.00  0.00    -0.014 A 
BRANCH  46  47
ATOM     47  C   UNL A   1      39.640  28.625  28.960  1.00  0.00     0.031 A 
ATOM     48  C   UNL A   1      40.050  27.262  28.562  1.00  0.00     0.074 A 
ATOM     49  C   UNL A   1      40.592  29.552  29.218  1.00  0.00     0.049 A 
ATOM     50  N   UNL A   1      41.188  26.737  28.868  1.00  0.00    -0.248 NA
ATOM     51  C   UNL A   1      39.197  26.368  27.791  1.00  0.00     0.031 C 
ATOM     52  C   UNL A   1      42.027  29.439  28.966  1.00  0.00     0.029 A 
ATOM     53  N   UNL A   1      40.464  30.745  29.948  1.00  0.00    -0.354 N 
ATOM     54  C   UNL A   1      41.336  25.584  28.134  1.00  0.00     0.074 A 
ATOM     55  C   UNL A   1      40.045  25.371  27.519  1.00  0.00     0.031 C 
ATOM     56  C   UNL A   1      42.676  30.307  29.755  1.00  0.00     0.029 A 
ATOM     57  C   UNL A   1      41.690  30.895  30.643  1.00  0.00     0.049 A 
ATOM     58  H   UNL A   1      39.687  31.350  29.971  1.00  0.00     0.167 HD
ATOM     59  C   UNL A   1      42.571  25.008  28.041  1.00  0.00     0.037 A 
ATOM     60  C   UNL A   1      41.738  30.857  32.006  1.00  0.00     0.037 A 
ATOM     61  C   UNL A   1      43.565  25.725  28.837  1.00  0.00     0.049 A 
ATOM     62  C   UNL A   1      42.591  29.749  32.589  1.00  0.00     0.074 A 
ATOM     63  C   UNL A   1      44.572  26.633  28.551  1.00  0.00     0.029 A 
ATOM     64  N   UNL A   1      43.423  25.740  30.211  1.00  0.00    -0.354 N 
ATOM     65  N   UNL A   1      43.179  28.827  31.881  1.00  0.00    -0.248 NA
ATOM     66  C   UNL A   1      42.758  29.532  34.028  1.00  0.00     0.031 C 
ATOM     67  C   UNL A   1      45.055  27.167  29.779  1.00  0.00     0.029 A 
ATOM     68  C   UNL A   1      44.333  26.589  30.806  1.00  0.00     0.049 A 
ATOM     69  H   UNL A   1      42.756  25.211  30.705  1.00  0.00     0.167 HD
ATOM     70  C   UNL A   1      43.717  27.885  32.717  1.00  0.00     0.074 A 
ATOM     71  C   UNL A   1      43.438  28.373  34.053  1.00  0.00     0.031 C 
ATOM     72  C   UNL A   1      44.303  26.746  32.249  1.00  0.00     0.037 A 
BRANCH  59  73
ATOM     73  C   UNL A   1      42.935  23.919  27.057  1.00  0.00     0.064 A 
ATOM     74  C   UNL A   1      42.576  22.574  27.302  1.00  0.00     0.173 A 
ATOM     75  C   UNL A   1      43.659  24.125  25.870  1.00  0.00     0.173 A 
ATOM     76  F   UNL A   1      41.782  22.233  28.325  1.00  0.00    -0.203 F 
ATOM     77  C   UNL A   1      43.021  21.520  26.502  1.00  0.00     0.198 A 
ATOM     78  C   UNL A   1      44.155  23.067  25.101  1.00  0.00     0.198 A 
ATOM     79  F   UNL A   1      43.860  25.354  25.380  1.00  0.00    -0.203 F 
ATOM     80  F   UNL A   1      42.653  20.265  26.793  1.00  0.00    -0.200 F 
ATOM     81  C   UNL A   1      43.847  21.762  25.425  1.00  0.00     0.200 A 
ATOM     82  F   UNL A   1      44.931  23.325  24.039  1.00  0.00    -0.200 F 
ATOM     83  F   UNL A   1      44.317  20.748  24.688  1.00  0.00    -0.200 F 
ENDBRANCH  59  73
BRANCH  60  84
ATOM     84  C   UNL A   1      40.499  31.391  32.629  1.00  0.00     0.064 A 
ATOM     85  C   UNL A   1      40.304  32.786  32.633  1.00  0.00     0.173 A 
ATOM     86  C   UNL A   1      39.378  30.577  32.824  1.00  0.00     0.173 A 
ATOM     87  F   UNL A   1      41.348  33.609  32.442  1.00  0.00    -0.203 F 
ATOM     88  C   UNL A   1      39.027  33.336  32.696  1.00  0.00     0.198 A 
ATOM     89  C   UNL A   1      38.102  31.133  32.906  1.00  0.00     0.198 A 
ATOM     90  F   UNL A   1      39.499  29.242  32.808  1.00  0.00    -0.203 F 
ATOM     91  F   UNL A   1      38.860  34.660  32.568  1.00  0.00    -0.200 F 
ATOM     92  C   UNL A   1      37.923  32.505  32.802  1.00  0.00     0.200 A 
ATOM     93  F   UNL A   1      37.031  30.329  32.980  1.00  0.00    -0.200 F 
ATOM     94  F   UNL A   1      36.687  33.021  32.760  1.00  0.00    -0.200 F 
ENDBRANCH  60  84
BRANCH  72  95
ATOM     95  C   UNL A   1      44.891  25.675  33.117  1.00  0.00     0.064 A 
ATOM     96  C   UNL A   1      46.261  25.372  33.117  1.00  0.00     0.173 A 
ATOM     97  C   UNL A   1      44.067  24.823  33.885  1.00  0.00     0.173 A 
ATOM     98  F   UNL A   1      47.120  26.089  32.378  1.00  0.00    -0.203 F 
ATOM     99  C   UNL A   1      46.774  24.304  33.859  1.00  0.00     0.198 A 
ATOM    100  C   UNL A   1      44.573  23.729  34.582  1.00  0.00     0.198 A 
ATOM    101  F   UNL A   1      42.749  25.043  34.000  1.00  0.00    -0.203 F 
ATOM    102  F   UNL A   1      48.094  24.075  33.867  1.00  0.00    -0.200 F 
ATOM    103  C   UNL A   1      45.930  23.475  34.578  1.00  0.00     0.200 A 
ATOM    104  F   UNL A   1      43.738  22.926  35.257  1.00  0.00    -0.200 F 
ATOM    105  F   UNL A   1      46.421  22.436  35.266  1.00  0.00    -0.200 F 
ENDBRANCH  72  95
ENDBRANCH  46  47
ENDBRANCH  38  41
ENDBRANCH  36  37
ENDBRANCH  35  36
ENDBRANCH  34  35
ENDBRANCH   1  34
TORSDOF 15
ENDMDL
MODEL 2
REMARK VINA RESULT:     -14.2      1.489      2.021
REMARK SMILES Cc1cccc(N2C(=O)/C(=C/c3ccc(C(=O)NCCCCCCNC(=O)c4ccc(-c5c6nc(c(-c7c(F)c(F)c(F)c(F)c7F)c7ccc([nH]7)c(-c7c(F)c(F)c(F)c(F)c7F)c7nc(c(-c8c(F)c(F)c(F)c(F)c8F)c8ccc5[nH]8)C=C7)C=C6)cc4)cc3)c3ccccc3C2=O)c1
REMARK SMILES IDX 21 1 20 2 19 3 18 4 16 5 17 6 15 8 12 9 13 10 92 11 14 12
REMARK SMILES IDX 91 13 11 14 7 15 8 16 99 17 9 18 10 19 98 20 100 21 93 22
REMARK SMILES IDX 97 23 94 24 96 25 95 26 6 27 1 28 2 29 3 30 101 31 4 32 5 33
REMARK SMILES IDX 22 34 23 35 24 36 25 37 26 38 27 40 28 41 29 42 90 43 30 44
REMARK SMILES IDX 89 45 31 46 32 47 33 48 83 49 34 50 88 51 82 52 84 53 35 54
REMARK SMILES IDX 87 55 81 56 80 57 36 59 68 60 48 61 67 62 49 63 52 64 66 65
REMARK SMILES IDX 85 66 50 67 51 68 65 70 86 71 53 72 37 73 38 74 46 75 39 76
REMARK SMILES IDX 40 77 44 78 47 79 41 80 42 81 45 82 43 83 69 84 70 85 78 86
REMARK SMILES IDX 71 87 72 88 76 89 79 90 73 91 74 92 77 93 75 94 54 95 55 96
REMARK SMILES IDX 63 97 56 98 57 99 61 100 64 101 58 102 59 103 62 104 60 105
REMARK H PARENT 18 7 25 39 84 58 52 69
REMARK Flexibility Score: inf
ROOT
ATOM      1  C   UNL A   1      32.116  27.991  26.396  1.00  0.00     0.002 C 
ENDROOT
BRANCH   1   2
ATOM      2  C   UNL A   1      31.646  29.346  25.853  1.00  0.00     0.021 C 
BRANCH   2   3
ATOM      3  C   UNL A   1      31.561  29.501  24.335  1.00  0.00     0.116 C 
BRANCH   3   4
ATOM      4  N   UNL A   1      30.214  29.404  23.806  1.00  0.00    -0.352 N 
ATOM      5  C   UNL A   1      29.533  28.297  23.354  1.00  0.00     0.251 C 
ATOM      6  O   UNL A   1      28.399  28.417  22.901  1.00  0.00    -0.269 OA
ATOM      7  H   UNL A   1      29.716  30.252  23.764  1.00  0.00     0.163 HD
BRANCH   5   8
ATOM      8  C   UNL A   1      30.183  26.966  23.349  1.00  0.00     0.039 A 
ATOM      9  C   UNL A   1      31.148  24.340  23.259  1.00  0.00    -0.025 A 
ATOM     10  C   UNL A   1      30.304  24.744  24.301  1.00  0.00     0.009 A 
ATOM     11  C   UNL A   1      31.609  25.294  22.341  1.00  0.00     0.009 A 
ATOM     12  C   UNL A   1      29.824  26.055  24.347  1.00  0.00     0.014 A 
ATOM     13  C   UNL A   1      31.126  26.605  22.384  1.00  0.00     0.014 A 
BRANCH   9  14
ATOM     14  C   UNL A   1      31.509  22.920  23.147  1.00  0.00     0.022 C 
ATOM     15  N   UNL A   1      33.269  20.088  24.514  1.00  0.00    -0.242 N 
ATOM     16  C   UNL A   1      32.640  20.808  23.476  1.00  0.00     0.265 C 
ATOM     17  C   UNL A   1      33.773  20.745  25.656  1.00  0.00     0.265 C 
ATOM     18  O   UNL A   1      32.069  20.334  22.494  1.00  0.00    -0.268 OA
ATOM     19  C   UNL A   1      32.598  22.303  23.661  1.00  0.00     0.049 C 
ATOM     20  C   UNL A   1      34.178  22.163  25.501  1.00  0.00     0.048 A 
ATOM     21  O   UNL A   1      33.946  20.275  26.779  1.00  0.00    -0.268 OA
ATOM     22  C   UNL A   1      33.657  22.923  24.460  1.00  0.00    -0.000 A 
ATOM     23  C   UNL A   1      35.111  22.718  26.391  1.00  0.00     0.014 A 
ATOM     24  C   UNL A   1      34.170  24.212  24.247  1.00  0.00     0.010 A 
ATOM     25  C   UNL A   1      35.561  24.025  26.212  1.00  0.00     0.001 A 
ATOM     26  C   UNL A   1      35.105  24.765  25.127  1.00  0.00     0.001 A 
BRANCH  15  27
ATOM     27  C   UNL A   1      33.298  18.625  24.446  1.00  0.00     0.053 A 
ATOM     28  C   UNL A   1      31.752  15.613  26.271  1.00  0.00     0.044 C 
ATOM     29  C   UNL A   1      32.554  16.422  25.293  1.00  0.00    -0.049 A 
ATOM     30  C   UNL A   1      33.319  15.776  24.325  1.00  0.00     0.003 A 
ATOM     31  C   UNL A   1      32.536  17.831  25.330  1.00  0.00     0.030 A 
ATOM     32  C   UNL A   1      34.060  16.525  23.423  1.00  0.00     0.002 A 
ATOM     33  C   UNL A   1      34.051  17.925  23.487  1.00  0.00     0.027 A 
ENDBRANCH  15  27
ENDBRANCH   9  14
ENDBRANCH   5   8
ENDBRANCH   3   4
ENDBRANCH   2   3
ENDBRANCH   1   2
BRANCH   1  34
ATOM     34  C   UNL A   1      33.625  27.784  26.585  1.00  0.00     0.002 C 
BRANCH  34  35
ATOM     35  C   UNL A   1      34.514  29.022  26.471  1.00  0.00     0.021 C 
BRANCH  35  36
ATOM     36  C   UNL A   1      34.784  29.752  27.780  1.00  0.00     0.116 C 
BRANCH  36  37
ATOM     37  N   UNL A   1      34.072  31.011  27.943  1.00  0.00    -0.352 N 
ATOM     38  C   UNL A   1      34.387  32.110  28.735  1.00  0.00     0.251 C 
ATOM     39  H   UNL A   1      33.245  31.098  27.416  1.00  0.00     0.163 HD
ATOM     40  O   UNL A   1      33.632  33.058  28.799  1.00  0.00    -0.269 OA
BRANCH  38  41
ATOM     41  C   UNL A   1      35.718  32.173  29.400  1.00  0.00     0.039 A 
ATOM     42  C   UNL A   1      36.746  32.875  28.755  1.00  0.00     0.014 A 
ATOM     43  C   UNL A   1      36.004  31.403  30.520  1.00  0.00     0.014 A 
ATOM     44  C   UNL A   1      38.075  32.591  29.072  1.00  0.00     0.010 A 
ATOM     45  C   UNL A   1      37.312  31.032  30.757  1.00  0.00     0.010 A 
ATOM     46  C   UNL A   1      38.344  31.575  29.986  1.00  0.00    -0.014 A 
BRANCH  46  47
ATOM     47  C   UNL A   1      39.639  30.915  30.115  1.00  0.00     0.031 A 
ATOM     48  C   UNL A   1      39.919  29.636  29.431  1.00  0.00     0.074 A 
ATOM     49  C   UNL A   1      40.653  31.575  30.722  1.00  0.00     0.049 A 
ATOM     50  N   UNL A   1      40.909  28.864  29.730  1.00  0.00    -0.248 NA
ATOM     51  C   UNL A   1      39.090  29.112  28.354  1.00  0.00     0.031 C 
ATOM     52  C   UNL A   1      42.081  31.278  30.631  1.00  0.00     0.029 A 
ATOM     53  N   UNL A   1      40.571  32.565  31.716  1.00  0.00    -0.354 N 
ATOM     54  C   UNL A   1      41.016  27.910  28.745  1.00  0.00     0.074 A 
ATOM     55  C   UNL A   1      39.827  28.076  27.940  1.00  0.00     0.031 C 
ATOM     56  C   UNL A   1      42.703  31.808  31.694  1.00  0.00     0.029 A 
ATOM     57  C   UNL A   1      41.675  32.331  32.573  1.00  0.00     0.049 A 
ATOM     58  H   UNL A   1      39.890  33.272  31.799  1.00  0.00     0.167 HD
ATOM     59  C   UNL A   1      42.159  27.168  28.661  1.00  0.00     0.037 A 
ATOM     60  C   UNL A   1      41.493  31.963  33.875  1.00  0.00     0.037 A 
ATOM     61  C   UNL A   1      43.098  27.491  29.733  1.00  0.00     0.049 A 
ATOM     62  C   UNL A   1      42.079  30.617  34.251  1.00  0.00     0.074 A 
ATOM     63  C   UNL A   1      44.253  28.252  29.821  1.00  0.00     0.029 A 
ATOM     64  N   UNL A   1      42.735  27.205  31.036  1.00  0.00    -0.354 N 
ATOM     65  N   UNL A   1      42.644  29.802  33.407  1.00  0.00    -0.248 NA
ATOM     66  C   UNL A   1      41.976  30.040  35.593  1.00  0.00     0.031 C 
ATOM     67  C   UNL A   1      44.595  28.388  31.197  1.00  0.00     0.029 A 
ATOM     68  C   UNL A   1      43.642  27.718  31.940  1.00  0.00     0.049 A 
ATOM     69  H   UNL A   1      41.930  26.698  31.287  1.00  0.00     0.167 HD
ATOM     70  C   UNL A   1      42.903  28.610  34.030  1.00  0.00     0.074 A 
ATOM     71  C   UNL A   1      42.478  28.808  35.400  1.00  0.00     0.031 C 
ATOM     72  C   UNL A   1      43.397  27.531  33.358  1.00  0.00     0.037 A 
BRANCH  59  73
ATOM     73  C   UNL A   1      42.528  26.297  27.481  1.00  0.00     0.064 A 
ATOM     74  C   UNL A   1      41.898  25.048  27.280  1.00  0.00     0.173 A 
ATOM     75  C   UNL A   1      43.510  26.617  26.528  1.00  0.00     0.173 A 
ATOM     76  F   UNL A   1      40.860  24.655  28.028  1.00  0.00    -0.203 F 
ATOM     77  C   UNL A   1      42.312  24.146  26.296  1.00  0.00     0.198 A 
ATOM     78  C   UNL A   1      43.966  25.694  25.580  1.00  0.00     0.198 A 
ATOM     79  F   UNL A   1      44.019  27.852  26.440  1.00  0.00    -0.203 F 
ATOM     80  F   UNL A   1      41.679  22.973  26.163  1.00  0.00    -0.200 F 
ATOM     81  C   UNL A   1      43.375  24.452  25.474  1.00  0.00     0.200 A 
ATOM     82  F   UNL A   1      44.981  26.021  24.769  1.00  0.00    -0.200 F 
ATOM     83  F   UNL A   1      43.807  23.568  24.566  1.00  0.00    -0.200 F 
ENDBRANCH  59  73
BRANCH  60  84
ATOM     84  C   UNL A   1      40.252  32.541  34.455  1.00  0.00     0.064 A 
ATOM     85  C   UNL A   1      40.278  33.886  34.873  1.00  0.00     0.173 A 
ATOM     86  C   UNL A   1      39.004  31.954  34.225  1.00  0.00     0.173 A 
ATOM     87  F   UNL A   1      41.452  34.496  35.099  1.00  0.00    -0.203 F 
ATOM     88  C   UNL A   1      39.112  34.646  34.928  1.00  0.00     0.198 A 
ATOM     89  C   UNL A   1      37.837  32.714  34.299  1.00  0.00     0.198 A 
ATOM     90  F   UNL A   1      38.918  30.684  33.804  1.00  0.00    -0.203 F 
ATOM     91  F   UNL A   1      39.180  35.956  35.203  1.00  0.00    -0.200 F 
ATOM     92  C   UNL A   1      37.895  34.065  34.611  1.00  0.00     0.200 A 
ATOM     93  F   UNL A   1      36.662  32.161  33.966  1.00  0.00    -0.200 F 
ATOM     94  F   UNL A   1      36.786  34.815  34.562  1.00  0.00    -0.200 F 
ENDBRANCH  60  84
BRANCH  72  95
ATOM     95  C   UNL A   1      43.683  26.199  33.985  1.00  0.00     0.064 A 
ATOM     96  C   UNL A   1      44.948  25.595  33.928  1.00  0.00     0.173 A 
ATOM     97  C   UNL A   1      42.648  25.422  34.551  1.00  0.00     0.173 A 
ATOM     98  F   UNL A   1      45.984  26.230  33.361  1.00  0.00    -0.203 F 
ATOM     99  C   UNL A   1      45.167  24.310  34.431  1.00  0.00     0.198 A 
ATOM    100  C   UNL A   1      42.858  24.122  35.004  1.00  0.00     0.198 A 
ATOM    101  F   UNL A   1      41.409  25.912  34.703  1.00  0.00    -0.203 F 
ATOM    102  F   UNL A   1      46.400  23.785  34.398  1.00  0.00    -0.200 F 
ATOM    103  C   UNL A   1      44.122  23.569  34.954  1.00  0.00     0.200 A 
ATOM    104  F   UNL A   1      41.830  23.414  35.490  1.00  0.00    -0.200 F 
ATOM    105  F   UNL A   1      44.330  22.327  35.411  1.00  0.00    -0.200 F 
ENDBRANCH  72  95
ENDBRANCH  46  47
ENDBRANCH  38  41
ENDBRANCH  36  37
ENDBRANCH  35  36
ENDBRANCH  34  35
ENDBRANCH   1  34
TORSDOF 15
ENDMDL
MODEL 3
REMARK VINA RESULT:     -14.0      1.997      3.650
REMARK SMILES Cc1cccc(N2C(=O)/C(=C/c3ccc(C(=O)NCCCCCCNC(=O)c4ccc(-c5c6nc(c(-c7c(F)c(F)c(F)c(F)c7F)c7ccc([nH]7)c(-c7c(F)c(F)c(F)c(F)c7F)c7nc(c(-c8c(F)c(F)c(F)c(F)c8F)c8ccc5[nH]8)C=C7)C=C6)cc4)cc3)c3ccccc3C2=O)c1
REMARK SMILES IDX 21 1 20 2 19 3 18 4 16 5 17 6 15 8 12 9 13 10 92 11 14 12
REMARK SMILES IDX 91 13 11 14 7 15 8 16 99 17 9 18 10 19 98 20 100 21 93 22
REMARK SMILES IDX 97 23 94 24 96 25 95 26 6 27 1 28 2 29 3 30 101 31 4 32 5 33
REMARK SMILES IDX 22 34 23 35 24 36 25 37 26 38 27 40 28 41 29 42 90 43 30 44
REMARK SMILES IDX 89 45 31 46 32 47 33 48 83 49 34 50 88 51 82 52 84 53 35 54
REMARK SMILES IDX 87 55 81 56 80 57 36 59 68 60 48 61 67 62 49 63 52 64 66 65
REMARK SMILES IDX 85 66 50 67 51 68 65 70 86 71 53 72 37 73 38 74 46 75 39 76
REMARK SMILES IDX 40 77 44 78 47 79 41 80 42 81 45 82 43 83 69 84 70 85 78 86
REMARK SMILES IDX 71 87 72 88 76 89 79 90 73 91 74 92 77 93 75 94 54 95 55 96
REMARK SMILES IDX 63 97 56 98 57 99 61 100 64 101 58 102 59 103 62 104 60 105
REMARK H PARENT 18 7 25 39 84 58 52 69
REMARK Flexibility Score: inf
ROOT
ATOM      1  C   UNL A   1      32.079  29.089  26.297  1.00  0.00     0.002 C 
ENDROOT
BRANCH   1   2
ATOM      2  C   UNL A   1      31.537  29.756  25.028  1.00  0.00     0.021 C 
BRANCH   2   3
ATOM      3  C   UNL A   1      31.578  28.939  23.736  1.00  0.00     0.116 C 
BRANCH   3   4
ATOM      4  N   UNL A   1      30.480  28.000  23.597  1.00  0.00    -0.352 N 
ATOM      5  C   UNL A   1      30.450  26.650  23.858  1.00  0.00     0.251 C 
ATOM      6  O   UNL A   1      29.428  26.006  23.640  1.00  0.00    -0.269 OA
ATOM      7  H   UNL A   1      29.636  28.385  23.268  1.00  0.00     0.163 HD
BRANCH   5   8
ATOM      8  C   UNL A   1      31.663  25.952  24.341  1.00  0.00     0.039 A 
ATOM      9  C   UNL A   1      34.102  24.890  25.215  1.00  0.00    -0.025 A 
ATOM     10  C   UNL A   1      33.896  25.154  23.855  1.00  0.00     0.009 A 
ATOM     11  C   UNL A   1      33.034  25.039  26.111  1.00  0.00     0.009 A 
ATOM     12  C   UNL A   1      32.678  25.681  23.419  1.00  0.00     0.014 A 
ATOM     13  C   UNL A   1      31.817  25.571  25.677  1.00  0.00     0.014 A 
BRANCH   9  14
ATOM     14  C   UNL A   1      35.441  24.486  25.665  1.00  0.00     0.022 C 
ATOM     15  N   UNL A   1      37.994  21.946  25.797  1.00  0.00    -0.242 N 
ATOM     16  C   UNL A   1      37.353  23.121  26.242  1.00  0.00     0.265 C 
ATOM     17  C   UNL A   1      37.300  20.978  25.040  1.00  0.00     0.265 C 
ATOM     18  O   UNL A   1      37.881  24.078  26.808  1.00  0.00    -0.268 OA
ATOM     19  C   UNL A   1      35.890  23.230  25.894  1.00  0.00     0.049 C 
ATOM     20  C   UNL A   1      35.831  20.896  25.226  1.00  0.00     0.048 A 
ATOM     21  O   UNL A   1      37.771  20.162  24.251  1.00  0.00    -0.268 OA
ATOM     22  C   UNL A   1      35.133  21.989  25.727  1.00  0.00    -0.000 A 
ATOM     23  C   UNL A   1      35.161  19.700  24.922  1.00  0.00     0.014 A 
ATOM     24  C   UNL A   1      33.771  21.833  26.034  1.00  0.00     0.010 A 
ATOM     25  C   UNL A   1      33.794  19.580  25.165  1.00  0.00     0.001 A 
ATOM     26  C   UNL A   1      33.103  20.642  25.740  1.00  0.00     0.001 A 
BRANCH  15  27
ATOM     27  C   UNL A   1      39.430  21.787  26.037  1.00  0.00     0.053 A 
ATOM     28  C   UNL A   1      41.990  18.952  26.486  1.00  0.00     0.044 C 
ATOM     29  C   UNL A   1      41.401  20.328  26.367  1.00  0.00    -0.049 A 
ATOM     30  C   UNL A   1      42.226  21.445  26.482  1.00  0.00     0.003 A 
ATOM     31  C   UNL A   1      40.025  20.509  26.127  1.00  0.00     0.030 A 
ATOM     32  C   UNL A   1      41.680  22.715  26.373  1.00  0.00     0.002 A 
ATOM     33  C   UNL A   1      40.305  22.880  26.158  1.00  0.00     0.027 A 
ENDBRANCH  15  27
ENDBRANCH   9  14
ENDBRANCH   5   8
ENDBRANCH   3   4
ENDBRANCH   2   3
ENDBRANCH   1   2
BRANCH   1  34
ATOM     34  C   UNL A   1      33.586  28.808  26.367  1.00  0.00     0.002 C 
BRANCH  34  35
ATOM     35  C   UNL A   1      34.325  29.296  27.613  1.00  0.00     0.021 C 
BRANCH  35  36
ATOM     36  C   UNL A   1      34.752  30.758  27.585  1.00  0.00     0.116 C 
BRANCH  36  37
ATOM     37  N   UNL A   1      35.022  31.348  28.889  1.00  0.00    -0.352 N 
ATOM     38  C   UNL A   1      36.041  31.070  29.792  1.00  0.00     0.251 C 
ATOM     39  H   UNL A   1      34.388  32.046  29.173  1.00  0.00     0.163 HD
ATOM     40  O   UNL A   1      36.069  31.621  30.874  1.00  0.00    -0.269 OA
BRANCH  38  41
ATOM     41  C   UNL A   1      37.170  30.195  29.373  1.00  0.00     0.039 A 
ATOM     42  C   UNL A   1      37.273  28.925  29.958  1.00  0.00     0.014 A 
ATOM     43  C   UNL A   1      38.206  30.679  28.584  1.00  0.00     0.014 A 
ATOM     44  C   UNL A   1      38.507  28.271  29.965  1.00  0.00     0.010 A 
ATOM     45  C   UNL A   1      39.451  30.095  28.687  1.00  0.00     0.010 A 
ATOM     46  C   UNL A   1      39.617  28.926  29.436  1.00  0.00    -0.014 A 
BRANCH  46  47
ATOM     47  C   UNL A   1      40.998  28.552  29.721  1.00  0.00     0.031 A 
ATOM     48  C   UNL A   1      41.639  27.409  29.040  1.00  0.00     0.074 A 
ATOM     49  C   UNL A   1      41.755  29.374  30.485  1.00  0.00     0.049 A 
ATOM     50  N   UNL A   1      42.727  26.849  29.447  1.00  0.00    -0.248 NA
ATOM     51  C   UNL A   1      41.090  26.788  27.841  1.00  0.00     0.031 C 
ATOM     52  C   UNL A   1      43.213  29.396  30.582  1.00  0.00     0.029 A 
ATOM     53  N   UNL A   1      41.329  30.259  31.490  1.00  0.00    -0.354 N 
ATOM     54  C   UNL A   1      43.168  26.005  28.455  1.00  0.00     0.074 A 
ATOM     55  C   UNL A   1      42.084  25.963  27.499  1.00  0.00     0.031 C 
ATOM     56  C   UNL A   1      43.562  29.979  31.739  1.00  0.00     0.029 A 
ATOM     57  C   UNL A   1      42.339  30.212  32.484  1.00  0.00     0.049 A 
ATOM     58  H   UNL A   1      40.505  30.797  31.502  1.00  0.00     0.167 HD
ATOM     59  C   UNL A   1      44.448  25.531  28.504  1.00  0.00     0.037 A 
ATOM     60  C   UNL A   1      42.078  29.732  33.735  1.00  0.00     0.037 A 
ATOM     61  C   UNL A   1      45.146  25.980  29.707  1.00  0.00     0.049 A 
ATOM     62  C   UNL A   1      42.893  28.522  34.143  1.00  0.00     0.074 A 
ATOM     63  C   UNL A   1      46.084  26.963  29.980  1.00  0.00     0.029 A 
ATOM     64  N   UNL A   1      44.693  25.540  30.936  1.00  0.00    -0.354 N 
ATOM     65  N   UNL A   1      43.728  27.902  33.358  1.00  0.00    -0.248 NA
ATOM     66  C   UNL A   1      42.749  27.853  35.438  1.00  0.00     0.031 C 
ATOM     67  C   UNL A   1      46.209  27.081  31.393  1.00  0.00     0.029 A 
ATOM     68  C   UNL A   1      45.341  26.177  31.974  1.00  0.00     0.049 A 
ATOM     69  H   UNL A   1      43.993  24.858  31.056  1.00  0.00     0.167 HD
ATOM     70  C   UNL A   1      44.161  26.756  33.970  1.00  0.00     0.074 A 
ATOM     71  C   UNL A   1      43.531  26.772  35.275  1.00  0.00     0.031 C 
ATOM     72  C   UNL A   1      44.963  25.853  33.337  1.00  0.00     0.037 A 
BRANCH  59  73
ATOM     73  C   UNL A   1      45.147  24.836  27.358  1.00  0.00     0.064 A 
ATOM     74  C   UNL A   1      45.783  25.581  26.340  1.00  0.00     0.173 A 
ATOM     75  C   UNL A   1      45.207  23.442  27.186  1.00  0.00     0.173 A 
ATOM     76  F   UNL A   1      45.919  26.911  26.422  1.00  0.00    -0.203 F 
ATOM     77  C   UNL A   1      46.307  24.988  25.189  1.00  0.00     0.198 A 
ATOM     78  C   UNL A   1      45.677  22.850  26.009  1.00  0.00     0.198 A 
ATOM     79  F   UNL A   1      44.869  22.603  28.174  1.00  0.00    -0.203 F 
ATOM     80  F   UNL A   1      46.888  25.753  24.254  1.00  0.00    -0.200 F 
ATOM     81  C   UNL A   1      46.215  23.626  25.004  1.00  0.00     0.200 A 
ATOM     82  F   UNL A   1      45.608  21.520  25.861  1.00  0.00    -0.200 F 
ATOM     83  F   UNL A   1      46.669  23.061  23.878  1.00  0.00    -0.200 F 
ENDBRANCH  59  73
BRANCH  60  84
ATOM     84  C   UNL A   1      40.676  29.993  34.156  1.00  0.00     0.064 A 
ATOM     85  C   UNL A   1      40.375  31.248  34.722  1.00  0.00     0.173 A 
ATOM     86  C   UNL A   1      39.616  29.235  33.651  1.00  0.00     0.173 A 
ATOM     87  F   UNL A   1      41.360  32.016  35.213  1.00  0.00    -0.203 F 
ATOM     88  C   UNL A   1      39.087  31.774  34.664  1.00  0.00     0.198 A 
ATOM     89  C   UNL A   1      38.324  29.758  33.611  1.00  0.00     0.198 A 
ATOM     90  F   UNL A   1      39.844  28.043  33.081  1.00  0.00    -0.203 F 
ATOM     91  F   UNL A   1      38.855  33.023  35.093  1.00  0.00    -0.200 F 
ATOM     92  C   UNL A   1      38.068  31.040  34.080  1.00  0.00     0.200 A 
ATOM     93  F   UNL A   1      37.342  29.061  33.022  1.00  0.00    -0.200 F 
ATOM     94  F   UNL A   1      36.852  31.581  33.928  1.00  0.00    -0.200 F 
ENDBRANCH  60  84
BRANCH  72  95
ATOM     95  C   UNL A   1      45.453  24.576  33.952  1.00  0.00     0.064 A 
ATOM     96  C   UNL A   1      46.791  24.386  34.329  1.00  0.00     0.173 A 
ATOM     97  C   UNL A   1      44.611  23.447  34.058  1.00  0.00     0.173 A 
ATOM     98  F   UNL A   1      47.682  25.382  34.216  1.00  0.00    -0.203 F 
ATOM     99  C   UNL A   1      47.248  23.154  34.807  1.00  0.00     0.198 A 
ATOM    100  C   UNL A   1      45.081  22.208  34.486  1.00  0.00     0.198 A 
ATOM    101  F   UNL A   1      43.303  23.521  33.773  1.00  0.00    -0.203 F 
ATOM    102  F   UNL A   1      48.523  23.026  35.199  1.00  0.00    -0.200 F 
ATOM    103  C   UNL A   1      46.398  22.064  34.871  1.00  0.00     0.200 A 
ATOM    104  F   UNL A   1      44.248  21.158  34.523  1.00  0.00    -0.200 F 
ATOM    105  F   UNL A   1      46.846  20.878  35.305  1.00  0.00    -0.200 F 
ENDBRANCH  72  95
ENDBRANCH  46  47
ENDBRANCH  38  41
ENDBRANCH  36  37
ENDBRANCH  35  36
ENDBRANCH  34  35
ENDBRANCH   1  34
TORSDOF 15
ENDMDL
