MODEL 1
REMARK VINA RESULT:     -10.8      0.000      0.000
REMARK SMILES CCN(C(=O)N1C[C@@H](C)[C@H](C(=O)OC)C1)C(C)(C)C(=O)NCCCCCCNC(=O)c1ccc(-c2c3nc(c(-c4c(F)c(F)c(F)c(F)c4F)c4ccc([nH]4)c(-c4c(F)c(F)c(F)c(F)c4F)c4nc(c(-c5c(F)c(F)c(F)c(F)c5F)c5ccc2[nH]5)C=C4)C=C3)cc1
REMARK SMILES IDX 23 1 22 2 21 3 19 4 20 5 16 7 17 8 18 9 3 10 2 11 1 12 4 13
REMARK SMILES IDX 5 14 6 15 7 16 15 17 8 18 10 19 9 20 11 21 12 22 13 23 14 24
REMARK SMILES IDX 24 25 25 26 26 27 27 28 28 29 29 30 30 32 31 33 32 34 93 35
REMARK SMILES IDX 33 36 92 37 34 38 35 39 36 40 86 41 37 42 91 43 85 44 87 45
REMARK SMILES IDX 38 46 90 47 84 48 83 49 39 51 71 52 51 53 70 54 52 55 55 56
REMARK SMILES IDX 69 57 88 58 53 59 54 60 68 62 89 63 56 64 40 65 41 66 49 67
REMARK SMILES IDX 42 68 43 69 47 70 50 71 44 72 45 73 48 74 46 75 72 76 73 77
REMARK SMILES IDX 81 78 74 79 75 80 79 81 82 82 76 83 77 84 80 85 78 86 57 87
REMARK SMILES IDX 58 88 66 89 59 90 60 91 64 92 67 93 61 94 62 95 65 96 63 97
REMARK H PARENT 21 6 28 31 87 50 55 61
REMARK Flexibility Score: inf
ROOT
ATOM      1  C   UNL A   1      34.747  31.725  27.645  1.00  0.00     0.021 C 
ENDROOT
BRANCH   1   2
ATOM      2  C   UNL A   1      34.253  30.284  27.767  1.00  0.00     0.116 C 
BRANCH   2   3
ATOM      3  N   UNL A   1      34.531  29.458  26.599  1.00  0.00    -0.354 N 
ATOM      4  C   UNL A   1      33.684  28.873  25.681  1.00  0.00     0.245 C 
ATOM      5  O   UNL A   1      34.194  28.558  24.602  1.00  0.00    -0.272 OA
ATOM      6  H   UNL A   1      35.488  29.288  26.439  1.00  0.00     0.163 HD
BRANCH   4   7
ATOM      7  C   UNL A   1      32.127  28.775  25.954  1.00  0.00     0.117 C 
ATOM      8  C   UNL A   1      31.660  30.239  25.728  1.00  0.00     0.045 C 
ATOM      9  C   UNL A   1      31.872  28.251  27.388  1.00  0.00     0.045 C 
BRANCH   7  10
ATOM     10  N   UNL A   1      31.367  27.887  24.985  1.00  0.00    -0.311 N 
BRANCH  10  11
ATOM     11  C   UNL A   1      30.461  28.538  24.011  1.00  0.00     0.119 C 
ATOM     12  C   UNL A   1      29.734  27.625  23.024  1.00  0.00     0.027 C 
ENDBRANCH  10  11
BRANCH  10  13
ATOM     13  C   UNL A   1      31.157  26.567  25.376  1.00  0.00     0.320 C 
ATOM     14  O   UNL A   1      30.155  26.257  26.028  1.00  0.00    -0.248 OA
BRANCH  13  15
ATOM     15  N   UNL A   1      32.063  25.599  24.997  1.00  0.00    -0.323 N 
ATOM     16  C   UNL A   1      32.115  24.670  23.880  1.00  0.00     0.125 C 
ATOM     17  C   UNL A   1      33.081  25.173  25.938  1.00  0.00     0.137 C 
ATOM     18  C   UNL A   1      32.223  23.310  24.599  1.00  0.00     0.021 C 
ATOM     19  C   UNL A   1      32.881  23.656  25.964  1.00  0.00     0.123 C 
ATOM     20  C   UNL A   1      33.014  22.280  23.808  1.00  0.00     0.010 C 
BRANCH  19  21
ATOM     21  C   UNL A   1      31.999  23.307  27.152  1.00  0.00     0.310 C 
ATOM     22  O   UNL A   1      30.830  23.655  27.250  1.00  0.00    -0.252 OA
BRANCH  21  23
ATOM     23  O   UNL A   1      32.656  22.537  28.062  1.00  0.00    -0.469 OA
ATOM     24  C   UNL A   1      33.950  22.087  27.661  1.00  0.00     0.282 C 
ENDBRANCH  21  23
ENDBRANCH  19  21
ENDBRANCH  13  15
ENDBRANCH  10  13
ENDBRANCH   7  10
ENDBRANCH   4   7
ENDBRANCH   2   3
ENDBRANCH   1   2
BRANCH   1  25
ATOM     25  C   UNL A   1      34.644  32.561  28.921  1.00  0.00     0.002 C 
BRANCH  25  26
ATOM     26  C   UNL A   1      34.620  34.077  28.713  1.00  0.00     0.002 C 
BRANCH  26  27
ATOM     27  C   UNL A   1      33.255  34.748  28.886  1.00  0.00     0.021 C 
BRANCH  27  28
ATOM     28  C   UNL A   1      33.292  36.148  29.488  1.00  0.00     0.116 C 
BRANCH  28  29
ATOM     29  N   UNL A   1      32.492  36.254  30.696  1.00  0.00    -0.352 N 
ATOM     30  C   UNL A   1      32.662  35.645  31.913  1.00  0.00     0.251 C 
ATOM     31  H   UNL A   1      31.711  36.851  30.630  1.00  0.00     0.163 HD
ATOM     32  O   UNL A   1      31.780  35.715  32.766  1.00  0.00    -0.269 OA
BRANCH  30  33
ATOM     33  C   UNL A   1      33.896  34.883  32.196  1.00  0.00     0.039 A 
ATOM     34  C   UNL A   1      35.123  35.553  32.154  1.00  0.00     0.014 A 
ATOM     35  C   UNL A   1      33.855  33.516  32.482  1.00  0.00     0.014 A 
ATOM     36  C   UNL A   1      36.299  34.863  32.451  1.00  0.00     0.010 A 
ATOM     37  C   UNL A   1      35.021  32.846  32.850  1.00  0.00     0.010 A 
ATOM     38  C   UNL A   1      36.256  33.512  32.833  1.00  0.00    -0.014 A 
BRANCH  38  39
ATOM     39  C   UNL A   1      37.496  32.787  33.210  1.00  0.00     0.031 A 
ATOM     40  C   UNL A   1      38.191  33.095  34.509  1.00  0.00     0.074 A 
ATOM     41  C   UNL A   1      38.018  31.878  32.366  1.00  0.00     0.049 A 
ATOM     42  N   UNL A   1      39.301  32.596  34.992  1.00  0.00    -0.248 NA
ATOM     43  C   UNL A   1      37.569  34.115  35.368  1.00  0.00     0.031 C 
ATOM     44  C   UNL A   1      37.466  31.528  31.055  1.00  0.00     0.029 A 
ATOM     45  N   UNL A   1      39.134  31.086  32.476  1.00  0.00    -0.354 N 
ATOM     46  C   UNL A   1      39.505  33.237  36.208  1.00  0.00     0.074 A 
ATOM     47  C   UNL A   1      38.444  34.208  36.358  1.00  0.00     0.031 C 
ATOM     48  C   UNL A   1      38.232  30.579  30.495  1.00  0.00     0.029 A 
ATOM     49  C   UNL A   1      39.348  30.278  31.385  1.00  0.00     0.049 A 
ATOM     50  H   UNL A   1      39.726  31.095  33.264  1.00  0.00     0.167 HD
ATOM     51  C   UNL A   1      40.470  33.012  37.132  1.00  0.00     0.037 A 
ATOM     52  C   UNL A   1      40.338  29.403  31.130  1.00  0.00     0.037 A 
ATOM     53  C   UNL A   1      41.522  32.039  36.984  1.00  0.00     0.049 A 
ATOM     54  C   UNL A   1      41.409  29.185  32.166  1.00  0.00     0.074 A 
ATOM     55  C   UNL A   1      42.534  31.719  37.872  1.00  0.00     0.029 A 
ATOM     56  N   UNL A   1      41.693  31.224  35.875  1.00  0.00    -0.354 N 
ATOM     57  N   UNL A   1      41.556  29.755  33.338  1.00  0.00    -0.248 NA
ATOM     58  C   UNL A   1      42.444  28.192  31.849  1.00  0.00     0.031 C 
ATOM     59  C   UNL A   1      43.343  30.742  37.282  1.00  0.00     0.029 A 
ATOM     60  C   UNL A   1      42.803  30.412  36.050  1.00  0.00     0.049 A 
ATOM     61  H   UNL A   1      41.113  31.223  35.079  1.00  0.00     0.167 HD
ATOM     62  C   UNL A   1      42.680  29.171  33.908  1.00  0.00     0.074 A 
ATOM     63  C   UNL A   1      43.163  28.186  32.962  1.00  0.00     0.031 C 
ATOM     64  C   UNL A   1      43.263  29.430  35.104  1.00  0.00     0.037 A 
BRANCH  51  65
ATOM     65  C   UNL A   1      40.425  33.822  38.395  1.00  0.00     0.064 A 
ATOM     66  C   UNL A   1      39.620  33.438  39.479  1.00  0.00     0.173 A 
ATOM     67  C   UNL A   1      41.227  34.962  38.548  1.00  0.00     0.173 A 
ATOM     68  F   UNL A   1      38.825  32.362  39.381  1.00  0.00    -0.203 F 
ATOM     69  C   UNL A   1      39.600  34.180  40.657  1.00  0.00     0.198 A 
ATOM     70  C   UNL A   1      41.229  35.685  39.738  1.00  0.00     0.198 A 
ATOM     71  F   UNL A   1      42.021  35.370  37.546  1.00  0.00    -0.203 F 
ATOM     72  F   UNL A   1      38.788  33.818  41.661  1.00  0.00    -0.200 F 
ATOM     73  C   UNL A   1      40.411  35.296  40.789  1.00  0.00     0.200 A 
ATOM     74  F   UNL A   1      42.023  36.755  39.870  1.00  0.00    -0.200 F 
ATOM     75  F   UNL A   1      40.400  36.003  41.928  1.00  0.00    -0.200 F 
ENDBRANCH  51  65
BRANCH  52  76
ATOM     76  C   UNL A   1      40.363  28.655  29.844  1.00  0.00     0.064 A 
ATOM     77  C   UNL A   1      41.073  29.140  28.736  1.00  0.00     0.173 A 
ATOM     78  C   UNL A   1      39.653  27.455  29.688  1.00  0.00     0.173 A 
ATOM     79  F   UNL A   1      41.751  30.293  28.829  1.00  0.00    -0.203 F 
ATOM     80  C   UNL A   1      41.044  28.473  27.514  1.00  0.00     0.198 A 
ATOM     81  C   UNL A   1      39.652  26.771  28.474  1.00  0.00     0.198 A 
ATOM     82  F   UNL A   1      38.963  26.943  30.718  1.00  0.00    -0.203 F 
ATOM     83  F   UNL A   1      41.680  28.991  26.455  1.00  0.00    -0.200 F 
ATOM     84  C   UNL A   1      40.337  27.286  27.385  1.00  0.00     0.200 A 
ATOM     85  F   UNL A   1      38.982  25.616  28.359  1.00  0.00    -0.200 F 
ATOM     86  F   UNL A   1      40.307  26.646  26.208  1.00  0.00    -0.200 F 
ENDBRANCH  52  76
BRANCH  64  87
ATOM     87  C   UNL A   1      44.465  28.608  35.473  1.00  0.00     0.064 A 
ATOM     88  C   UNL A   1      44.343  27.392  36.164  1.00  0.00     0.173 A 
ATOM     89  C   UNL A   1      45.751  29.028  35.106  1.00  0.00     0.173 A 
ATOM     90  F   UNL A   1      43.136  26.953  36.550  1.00  0.00    -0.203 F 
ATOM     91  C   UNL A   1      45.469  26.647  36.503  1.00  0.00     0.198 A 
ATOM     92  C   UNL A   1      46.872  28.264  35.418  1.00  0.00     0.198 A 
ATOM     93  F   UNL A   1      45.923  30.179  34.437  1.00  0.00    -0.203 F 
ATOM     94  F   UNL A   1      45.333  25.518  37.213  1.00  0.00    -0.200 F 
ATOM     95  C   UNL A   1      46.731  27.079  36.125  1.00  0.00     0.200 A 
ATOM     96  F   UNL A   1      48.090  28.676  35.038  1.00  0.00    -0.200 F 
ATOM     97  F   UNL A   1      47.813  26.358  36.449  1.00  0.00    -0.200 F 
ENDBRANCH  64  87
ENDBRANCH  38  39
ENDBRANCH  30  33
ENDBRANCH  28  29
ENDBRANCH  27  28
ENDBRANCH  26  27
ENDBRANCH  25  26
ENDBRANCH   1  25
TORSDOF 19
ENDMDL
MODEL 2
REMARK VINA RESULT:     -10.8      6.258     10.891
REMARK SMILES CCN(C(=O)N1C[C@@H](C)[C@H](C(=O)OC)C1)C(C)(C)C(=O)NCCCCCCNC(=O)c1ccc(-c2c3nc(c(-c4c(F)c(F)c(F)c(F)c4F)c4ccc([nH]4)c(-c4c(F)c(F)c(F)c(F)c4F)c4nc(c(-c5c(F)c(F)c(F)c(F)c5F)c5ccc2[nH]5)C=C4)C=C3)cc1
REMARK SMILES IDX 23 1 22 2 21 3 19 4 20 5 16 7 17 8 18 9 3 10 2 11 1 12 4 13
REMARK SMILES IDX 5 14 6 15 7 16 15 17 8 18 10 19 9 20 11 21 12 22 13 23 14 24
REMARK SMILES IDX 24 25 25 26 26 27 27 28 28 29 29 30 30 32 31 33 32 34 93 35
REMARK SMILES IDX 33 36 92 37 34 38 35 39 36 40 86 41 37 42 91 43 85 44 87 45
REMARK SMILES IDX 38 46 90 47 84 48 83 49 39 51 71 52 51 53 70 54 52 55 55 56
REMARK SMILES IDX 69 57 88 58 53 59 54 60 68 62 89 63 56 64 40 65 41 66 49 67
REMARK SMILES IDX 42 68 43 69 47 70 50 71 44 72 45 73 48 74 46 75 72 76 73 77
REMARK SMILES IDX 81 78 74 79 75 80 79 81 82 82 76 83 77 84 80 85 78 86 57 87
REMARK SMILES IDX 58 88 66 89 59 90 60 91 64 92 67 93 61 94 62 95 65 96 63 97
REMARK H PARENT 21 6 28 31 87 50 55 61
REMARK Flexibility Score: inf
ROOT
ATOM      1  C   UNL A   1      36.843  23.334  25.420  1.00  0.00     0.021 C 
ENDROOT
BRANCH   1   2
ATOM      2  C   UNL A   1      35.369  23.154  25.782  1.00  0.00     0.116 C 
BRANCH   2   3
ATOM      3  N   UNL A   1      34.886  21.786  25.650  1.00  0.00    -0.354 N 
ATOM      4  C   UNL A   1      33.977  21.227  24.775  1.00  0.00     0.245 C 
ATOM      5  O   UNL A   1      34.043  20.001  24.640  1.00  0.00    -0.272 OA
ATOM      6  H   UNL A   1      35.274  21.152  26.295  1.00  0.00     0.163 HD
BRANCH   4   7
ATOM      7  C   UNL A   1      33.031  22.137  23.889  1.00  0.00     0.117 C 
ATOM      8  C   UNL A   1      32.239  21.087  23.065  1.00  0.00     0.045 C 
ATOM      9  C   UNL A   1      33.881  23.100  23.025  1.00  0.00     0.045 C 
BRANCH   7  10
ATOM     10  N   UNL A   1      32.030  22.966  24.675  1.00  0.00    -0.311 N 
BRANCH  10  11
ATOM     11  C   UNL A   1      31.264  22.296  25.749  1.00  0.00     0.119 C 
ATOM     12  C   UNL A   1      30.276  23.156  26.537  1.00  0.00     0.027 C 
ENDBRANCH  10  11
BRANCH  10  13
ATOM     13  C   UNL A   1      31.523  24.101  24.045  1.00  0.00     0.320 C 
ATOM     14  O   UNL A   1      30.661  23.998  23.167  1.00  0.00    -0.248 OA
BRANCH  13  15
ATOM     15  N   UNL A   1      31.971  25.346  24.435  1.00  0.00    -0.323 N 
ATOM     16  C   UNL A   1      32.111  25.989  25.731  1.00  0.00     0.125 C 
ATOM     17  C   UNL A   1      32.140  26.384  23.437  1.00  0.00     0.137 C 
ATOM     18  C   UNL A   1      31.267  27.266  25.548  1.00  0.00     0.021 C 
ATOM     19  C   UNL A   1      31.304  27.528  24.017  1.00  0.00     0.123 C 
ATOM     20  C   UNL A   1      31.785  28.444  26.360  1.00  0.00     0.010 C 
BRANCH  19  21
ATOM     21  C   UNL A   1      29.927  27.491  23.375  1.00  0.00     0.310 C 
ATOM     22  O   UNL A   1      28.967  26.915  23.871  1.00  0.00    -0.252 OA
BRANCH  21  23
ATOM     23  O   UNL A   1      29.889  28.202  22.215  1.00  0.00    -0.469 OA
ATOM     24  C   UNL A   1      30.151  29.598  22.346  1.00  0.00     0.282 C 
ENDBRANCH  21  23
ENDBRANCH  19  21
ENDBRANCH  13  15
ENDBRANCH  10  13
ENDBRANCH   7  10
ENDBRANCH   4   7
ENDBRANCH   2   3
ENDBRANCH   1   2
BRANCH   1  25
ATOM     25  C   UNL A   1      37.736  22.124  25.697  1.00  0.00     0.002 C 
BRANCH  25  26
ATOM     26  C   UNL A   1      37.666  21.003  24.656  1.00  0.00     0.002 C 
BRANCH  26  27
ATOM     27  C   UNL A   1      38.449  19.733  24.997  1.00  0.00     0.021 C 
BRANCH  27  28
ATOM     28  C   UNL A   1      39.425  19.866  26.160  1.00  0.00     0.116 C 
BRANCH  28  29
ATOM     29  N   UNL A   1      40.530  18.926  26.066  1.00  0.00    -0.352 N 
ATOM     30  C   UNL A   1      41.880  19.165  26.045  1.00  0.00     0.251 C 
ATOM     31  H   UNL A   1      40.270  17.978  26.008  1.00  0.00     0.163 HD
ATOM     32  O   UNL A   1      42.663  18.256  25.779  1.00  0.00    -0.269 OA
BRANCH  30  33
ATOM     33  C   UNL A   1      42.400  20.522  26.319  1.00  0.00     0.039 A 
ATOM     34  C   UNL A   1      42.789  21.321  25.241  1.00  0.00     0.014 A 
ATOM     35  C   UNL A   1      42.524  21.000  27.626  1.00  0.00     0.014 A 
ATOM     36  C   UNL A   1      43.251  22.618  25.472  1.00  0.00     0.010 A 
ATOM     37  C   UNL A   1      42.915  22.318  27.851  1.00  0.00     0.010 A 
ATOM     38  C   UNL A   1      43.288  23.140  26.775  1.00  0.00    -0.014 A 
BRANCH  38  39
ATOM     39  C   UNL A   1      43.720  24.539  27.024  1.00  0.00     0.031 A 
ATOM     40  C   UNL A   1      42.734  25.561  27.521  1.00  0.00     0.074 A 
ATOM     41  C   UNL A   1      44.992  24.899  26.765  1.00  0.00     0.049 A 
ATOM     42  N   UNL A   1      42.914  26.836  27.759  1.00  0.00    -0.248 NA
ATOM     43  C   UNL A   1      41.360  25.094  27.761  1.00  0.00     0.031 C 
ATOM     44  C   UNL A   1      46.028  24.012  26.232  1.00  0.00     0.029 A 
ATOM     45  N   UNL A   1      45.630  26.105  26.907  1.00  0.00    -0.354 N 
ATOM     46  C   UNL A   1      41.681  27.319  28.179  1.00  0.00     0.074 A 
ATOM     47  C   UNL A   1      40.745  26.219  28.099  1.00  0.00     0.031 C 
ATOM     48  C   UNL A   1      47.175  24.699  26.112  1.00  0.00     0.029 A 
ATOM     49  C   UNL A   1      46.949  26.081  26.523  1.00  0.00     0.049 A 
ATOM     50  H   UNL A   1      45.185  26.914  27.252  1.00  0.00     0.167 HD
ATOM     51  C   UNL A   1      41.364  28.559  28.624  1.00  0.00     0.037 A 
ATOM     52  C   UNL A   1      47.868  27.063  26.498  1.00  0.00     0.037 A 
ATOM     53  C   UNL A   1      42.298  29.652  28.711  1.00  0.00     0.049 A 
ATOM     54  C   UNL A   1      47.486  28.437  26.981  1.00  0.00     0.074 A 
ATOM     55  C   UNL A   1      42.082  30.939  29.169  1.00  0.00     0.029 A 
ATOM     56  N   UNL A   1      43.631  29.582  28.334  1.00  0.00    -0.354 N 
ATOM     57  N   UNL A   1      46.330  28.865  27.431  1.00  0.00    -0.248 NA
ATOM     58  C   UNL A   1      48.538  29.463  26.964  1.00  0.00     0.031 C 
ATOM     59  C   UNL A   1      43.272  31.661  29.030  1.00  0.00     0.029 A 
ATOM     60  C   UNL A   1      44.246  30.808  28.536  1.00  0.00     0.049 A 
ATOM     61  H   UNL A   1      44.076  28.780  27.974  1.00  0.00     0.167 HD
ATOM     62  C   UNL A   1      46.524  30.196  27.777  1.00  0.00     0.074 A 
ATOM     63  C   UNL A   1      47.914  30.499  27.505  1.00  0.00     0.031 C 
ATOM     64  C   UNL A   1      45.632  31.089  28.270  1.00  0.00     0.037 A 
BRANCH  51  65
ATOM     65  C   UNL A   1      39.950  28.797  29.069  1.00  0.00     0.064 A 
ATOM     66  C   UNL A   1      38.962  29.220  28.165  1.00  0.00     0.173 A 
ATOM     67  C   UNL A   1      39.563  28.556  30.395  1.00  0.00     0.173 A 
ATOM     68  F   UNL A   1      39.281  29.475  26.888  1.00  0.00    -0.203 F 
ATOM     69  C   UNL A   1      37.647  29.415  28.578  1.00  0.00     0.198 A 
ATOM     70  C   UNL A   1      38.240  28.724  30.798  1.00  0.00     0.198 A 
ATOM     71  F   UNL A   1      40.465  28.146  31.299  1.00  0.00    -0.203 F 
ATOM     72  F   UNL A   1      36.732  29.862  27.706  1.00  0.00    -0.200 F 
ATOM     73  C   UNL A   1      37.286  29.158  29.892  1.00  0.00     0.200 A 
ATOM     74  F   UNL A   1      37.889  28.462  32.064  1.00  0.00    -0.200 F 
ATOM     75  F   UNL A   1      36.017  29.336  30.285  1.00  0.00    -0.200 F 
ENDBRANCH  51  65
BRANCH  52  76
ATOM     76  C   UNL A   1      49.246  26.788  26.007  1.00  0.00     0.064 A 
ATOM     77  C   UNL A   1      49.600  27.020  24.671  1.00  0.00     0.173 A 
ATOM     78  C   UNL A   1      50.227  26.260  26.859  1.00  0.00     0.173 A 
ATOM     79  F   UNL A   1      48.691  27.506  23.812  1.00  0.00    -0.203 F 
ATOM     80  C   UNL A   1      50.871  26.702  24.197  1.00  0.00     0.198 A 
ATOM     81  C   UNL A   1      51.508  25.974  26.392  1.00  0.00     0.198 A 
ATOM     82  F   UNL A   1      49.944  26.025  28.149  1.00  0.00    -0.203 F 
ATOM     83  F   UNL A   1      51.164  26.876  22.901  1.00  0.00    -0.200 F 
ATOM     84  C   UNL A   1      51.826  26.184  25.059  1.00  0.00     0.200 A 
ATOM     85  F   UNL A   1      52.433  25.489  27.232  1.00  0.00    -0.200 F 
ATOM     86  F   UNL A   1      53.047  25.875  24.602  1.00  0.00    -0.200 F 
ENDBRANCH  52  76
BRANCH  64  87
ATOM     87  C   UNL A   1      46.143  32.466  28.584  1.00  0.00     0.064 A 
ATOM     88  C   UNL A   1      46.155  33.486  27.620  1.00  0.00     0.173 A 
ATOM     89  C   UNL A   1      46.599  32.777  29.874  1.00  0.00     0.173 A 
ATOM     90  F   UNL A   1      45.743  33.237  26.368  1.00  0.00    -0.203 F 
ATOM     91  C   UNL A   1      46.638  34.755  27.928  1.00  0.00     0.198 A 
ATOM     92  C   UNL A   1      47.050  34.055  30.187  1.00  0.00     0.198 A 
ATOM     93  F   UNL A   1      46.600  31.840  30.835  1.00  0.00    -0.203 F 
ATOM     94  F   UNL A   1      46.694  35.697  26.976  1.00  0.00    -0.200 F 
ATOM     95  C   UNL A   1      47.079  35.041  29.212  1.00  0.00     0.200 A 
ATOM     96  F   UNL A   1      47.461  34.334  31.432  1.00  0.00    -0.200 F 
ATOM     97  F   UNL A   1      47.540  36.264  29.506  1.00  0.00    -0.200 F 
ENDBRANCH  64  87
ENDBRANCH  38  39
ENDBRANCH  30  33
ENDBRANCH  28  29
ENDBRANCH  27  28
ENDBRANCH  26  27
ENDBRANCH  25  26
ENDBRANCH   1  25
TORSDOF 19
ENDMDL
MODEL 3
REMARK VINA RESULT:     -10.7      6.162     10.891
REMARK SMILES CCN(C(=O)N1C[C@@H](C)[C@H](C(=O)OC)C1)C(C)(C)C(=O)NCCCCCCNC(=O)c1ccc(-c2c3nc(c(-c4c(F)c(F)c(F)c(F)c4F)c4ccc([nH]4)c(-c4c(F)c(F)c(F)c(F)c4F)c4nc(c(-c5c(F)c(F)c(F)c(F)c5F)c5ccc2[nH]5)C=C4)C=C3)cc1
REMARK SMILES IDX 23 1 22 2 21 3 19 4 20 5 16 7 17 8 18 9 3 10 2 11 1 12 4 13
REMARK SMILES IDX 5 14 6 15 7 16 15 17 8 18 10 19 9 20 11 21 12 22 13 23 14 24
REMARK SMILES IDX 24 25 25 26 26 27 27 28 28 29 29 30 30 32 31 33 32 34 93 35
REMARK SMILES IDX 33 36 92 37 34 38 35 39 36 40 86 41 37 42 91 43 85 44 87 45
REMARK SMILES IDX 38 46 90 47 84 48 83 49 39 51 71 52 51 53 70 54 52 55 55 56
REMARK SMILES IDX 69 57 88 58 53 59 54 60 68 62 89 63 56 64 40 65 41 66 49 67
REMARK SMILES IDX 42 68 43 69 47 70 50 71 44 72 45 73 48 74 46 75 72 76 73 77
REMARK SMILES IDX 81 78 74 79 75 80 79 81 82 82 76 83 77 84 80 85 78 86 57 87
REMARK SMILES IDX 58 88 66 89 59 90 60 91 64 92 67 93 61 94 62 95 65 96 63 97
REMARK H PARENT 21 6 28 31 87 50 55 61
REMARK Flexibility Score: inf
ROOT
ATOM      1  C   UNL A   1      36.732  22.715  24.102  1.00  0.00     0.021 C 
ENDROOT
BRANCH   1   2
ATOM      2  C   UNL A   1      35.219  22.594  23.926  1.00  0.00     0.116 C 
BRANCH   2   3
ATOM      3  N   UNL A   1      34.461  22.751  25.161  1.00  0.00    -0.354 N 
ATOM      4  C   UNL A   1      33.102  22.833  25.386  1.00  0.00     0.245 C 
ATOM      5  O   UNL A   1      32.731  22.582  26.536  1.00  0.00    -0.272 OA
ATOM      6  H   UNL A   1      35.014  22.808  25.973  1.00  0.00     0.163 HD
BRANCH   4   7
ATOM      7  C   UNL A   1      32.091  23.073  24.191  1.00  0.00     0.117 C 
ATOM      8  C   UNL A   1      30.728  23.174  24.927  1.00  0.00     0.045 C 
ATOM      9  C   UNL A   1      32.174  21.901  23.183  1.00  0.00     0.045 C 
BRANCH   7  10
ATOM     10  N   UNL A   1      32.306  24.368  23.427  1.00  0.00    -0.311 N 
BRANCH  10  11
ATOM     11  C   UNL A   1      32.889  24.285  22.068  1.00  0.00     0.119 C 
ATOM     12  C   UNL A   1      32.645  25.470  21.136  1.00  0.00     0.027 C 
ENDBRANCH  10  11
BRANCH  10  13
ATOM     13  C   UNL A   1      32.438  25.529  24.185  1.00  0.00     0.320 C 
ATOM     14  O   UNL A   1      33.515  25.812  24.717  1.00  0.00    -0.248 OA
BRANCH  13  15
ATOM     15  N   UNL A   1      31.360  26.380  24.308  1.00  0.00    -0.323 N 
ATOM     16  C   UNL A   1      30.252  26.713  23.428  1.00  0.00     0.125 C 
ATOM     17  C   UNL A   1      31.347  27.359  25.378  1.00  0.00     0.137 C 
ATOM     18  C   UNL A   1      30.389  28.244  23.305  1.00  0.00     0.021 C 
ATOM     19  C   UNL A   1      31.108  28.666  24.617  1.00  0.00     0.123 C 
ATOM     20  C   UNL A   1      29.053  28.947  23.113  1.00  0.00     0.010 C 
BRANCH  19  21
ATOM     21  C   UNL A   1      32.451  29.331  24.369  1.00  0.00     0.310 C 
ATOM     22  O   UNL A   1      33.149  29.795  25.261  1.00  0.00    -0.252 OA
BRANCH  21  23
ATOM     23  O   UNL A   1      32.790  29.314  23.051  1.00  0.00    -0.469 OA
ATOM     24  C   UNL A   1      34.027  28.669  22.748  1.00  0.00     0.282 C 
ENDBRANCH  21  23
ENDBRANCH  19  21
ENDBRANCH  13  15
ENDBRANCH  10  13
ENDBRANCH   7  10
ENDBRANCH   4   7
ENDBRANCH   2   3
ENDBRANCH   1   2
BRANCH   1  25
ATOM     25  C   UNL A   1      37.358  21.725  25.083  1.00  0.00     0.002 C 
BRANCH  25  26
ATOM     26  C   UNL A   1      37.019  20.252  24.838  1.00  0.00     0.002 C 
BRANCH  26  27
ATOM     27  C   UNL A   1      38.153  19.259  25.102  1.00  0.00     0.021 C 
BRANCH  27  28
ATOM     28  C   UNL A   1      39.406  19.857  25.731  1.00  0.00     0.116 C 
BRANCH  28  29
ATOM     29  N   UNL A   1      40.455  18.871  25.923  1.00  0.00    -0.352 N 
ATOM     30  C   UNL A   1      41.796  19.053  26.144  1.00  0.00     0.251 C 
ATOM     31  H   UNL A   1      40.160  17.932  25.887  1.00  0.00     0.163 HD
ATOM     32  O   UNL A   1      42.564  18.095  26.104  1.00  0.00    -0.269 OA
BRANCH  30  33
ATOM     33  C   UNL A   1      42.328  20.407  26.410  1.00  0.00     0.039 A 
ATOM     34  C   UNL A   1      42.884  21.129  25.351  1.00  0.00     0.014 A 
ATOM     35  C   UNL A   1      42.301  20.956  27.695  1.00  0.00     0.014 A 
ATOM     36  C   UNL A   1      43.362  22.422  25.570  1.00  0.00     0.010 A 
ATOM     37  C   UNL A   1      42.710  22.273  27.897  1.00  0.00     0.010 A 
ATOM     38  C   UNL A   1      43.251  23.018  26.837  1.00  0.00    -0.014 A 
BRANCH  38  39
ATOM     39  C   UNL A   1      43.701  24.415  27.064  1.00  0.00     0.031 A 
ATOM     40  C   UNL A   1      42.730  25.456  27.552  1.00  0.00     0.074 A 
ATOM     41  C   UNL A   1      44.975  24.756  26.794  1.00  0.00     0.049 A 
ATOM     42  N   UNL A   1      42.926  26.732  27.772  1.00  0.00    -0.248 NA
ATOM     43  C   UNL A   1      41.351  25.009  27.806  1.00  0.00     0.031 C 
ATOM     44  C   UNL A   1      45.998  23.849  26.268  1.00  0.00     0.029 A 
ATOM     45  N   UNL A   1      45.629  25.956  26.916  1.00  0.00    -0.354 N 
ATOM     46  C   UNL A   1      41.701  27.236  28.192  1.00  0.00     0.074 A 
ATOM     47  C   UNL A   1      40.752  26.145  28.131  1.00  0.00     0.031 C 
ATOM     48  C   UNL A   1      47.153  24.520  26.133  1.00  0.00     0.029 A 
ATOM     49  C   UNL A   1      46.946  25.911  26.526  1.00  0.00     0.049 A 
ATOM     50  H   UNL A   1      45.195  26.775  27.252  1.00  0.00     0.167 HD
ATOM     51  C   UNL A   1      41.402  28.485  28.621  1.00  0.00     0.037 A 
ATOM     52  C   UNL A   1      47.876  26.882  26.483  1.00  0.00     0.037 A 
ATOM     53  C   UNL A   1      42.349  29.567  28.688  1.00  0.00     0.049 A 
ATOM     54  C   UNL A   1      47.513  28.267  26.948  1.00  0.00     0.074 A 
ATOM     55  C   UNL A   1      42.150  30.864  29.129  1.00  0.00     0.029 A 
ATOM     56  N   UNL A   1      43.679  29.476  28.305  1.00  0.00    -0.354 N 
ATOM     57  N   UNL A   1      46.365  28.714  27.398  1.00  0.00    -0.248 NA
ATOM     58  C   UNL A   1      48.577  29.279  26.912  1.00  0.00     0.031 C 
ATOM     59  C   UNL A   1      43.349  31.569  28.974  1.00  0.00     0.029 A 
ATOM     60  C   UNL A   1      44.309  30.698  28.487  1.00  0.00     0.049 A 
ATOM     61  H   UNL A   1      44.112  28.664  27.954  1.00  0.00     0.167 HD
ATOM     62  C   UNL A   1      46.577  30.047  27.725  1.00  0.00     0.074 A 
ATOM     63  C   UNL A   1      47.969  30.330  27.442  1.00  0.00     0.031 C 
ATOM     64  C   UNL A   1      45.698  30.958  28.211  1.00  0.00     0.037 A 
BRANCH  51  65
ATOM     65  C   UNL A   1      39.993  28.747  29.069  1.00  0.00     0.064 A 
ATOM     66  C   UNL A   1      39.008  29.177  28.167  1.00  0.00     0.173 A 
ATOM     67  C   UNL A   1      39.607  28.520  30.398  1.00  0.00     0.173 A 
ATOM     68  F   UNL A   1      39.326  29.419  26.886  1.00  0.00    -0.203 F 
ATOM     69  C   UNL A   1      37.697  29.394  28.583  1.00  0.00     0.198 A 
ATOM     70  C   UNL A   1      38.289  28.709  30.806  1.00  0.00     0.198 A 
ATOM     71  F   UNL A   1      40.507  28.102  31.302  1.00  0.00    -0.203 F 
ATOM     72  F   UNL A   1      36.785  29.848  27.712  1.00  0.00    -0.200 F 
ATOM     73  C   UNL A   1      37.338  29.151  29.900  1.00  0.00     0.200 A 
ATOM     74  F   UNL A   1      37.939  28.460  32.075  1.00  0.00    -0.200 F 
ATOM     75  F   UNL A   1      36.072  29.349  30.297  1.00  0.00    -0.200 F 
ENDBRANCH  51  65
BRANCH  52  76
ATOM     76  C   UNL A   1      49.248  26.583  25.989  1.00  0.00     0.064 A 
ATOM     77  C   UNL A   1      50.211  26.003  26.828  1.00  0.00     0.173 A 
ATOM     78  C   UNL A   1      49.632  26.897  24.678  1.00  0.00     0.173 A 
ATOM     79  F   UNL A   1      49.897  25.702  28.097  1.00  0.00    -0.203 F 
ATOM     80  C   UNL A   1      51.513  25.782  26.386  1.00  0.00     0.198 A 
ATOM     81  C   UNL A   1      50.926  26.645  24.226  1.00  0.00     0.198 A 
ATOM     82  F   UNL A   1      48.749  27.447  23.831  1.00  0.00    -0.203 F 
ATOM     83  F   UNL A   1      52.429  25.285  27.227  1.00  0.00    -0.200 F 
ATOM     84  C   UNL A   1      51.868  26.099  25.083  1.00  0.00     0.200 A 
ATOM     85  F   UNL A   1      51.260  26.937  22.961  1.00  0.00    -0.200 F 
ATOM     86  F   UNL A   1      53.122  25.890  24.658  1.00  0.00    -0.200 F 
ENDBRANCH  52  76
BRANCH  64  87
ATOM     87  C   UNL A   1      46.227  32.333  28.503  1.00  0.00     0.064 A 
ATOM     88  C   UNL A   1      46.767  32.665  29.755  1.00  0.00     0.173 A 
ATOM     89  C   UNL A   1      46.218  33.323  27.509  1.00  0.00     0.173 A 
ATOM     90  F   UNL A   1      46.786  31.759  30.744  1.00  0.00    -0.203 F 
ATOM     91  C   UNL A   1      47.246  33.947  30.010  1.00  0.00     0.198 A 
ATOM     92  C   UNL A   1      46.728  34.594  27.757  1.00  0.00     0.198 A 
ATOM     93  F   UNL A   1      45.720  33.055  26.292  1.00  0.00    -0.203 F 
ATOM     94  F   UNL A   1      47.705  34.258  31.230  1.00  0.00    -0.200 F 
ATOM     95  C   UNL A   1      47.233  34.908  29.010  1.00  0.00     0.200 A 
ATOM     96  F   UNL A   1      46.729  35.516  26.785  1.00  0.00    -0.200 F 
ATOM     97  F   UNL A   1      47.699  36.140  29.257  1.00  0.00    -0.200 F 
ENDBRANCH  64  87
ENDBRANCH  38  39
ENDBRANCH  30  33
ENDBRANCH  28  29
ENDBRANCH  27  28
ENDBRANCH  26  27
ENDBRANCH  25  26
ENDBRANCH   1  25
TORSDOF 19
ENDMDL
