MODEL 1
REMARK VINA RESULT:     -12.7      0.000      0.000
REMARK SMILES Cc1ccc(C(=O)N[C@@H](C(=O)NCCCCCCNC(=O)c2ccc(-c3c4nc(c(-c5c(F)c(F)c(F)c(F)c5F)c5ccc([nH]5)c(-c5c(F)c(F)c(F)c(F)c5F)c5nc(c(-c6c(F)c(F)c(F)c(F)c6F)c6ccc3[nH]6)C=C5)C=C4)cc2)[C@@H](C)O)c(F)c1
REMARK SMILES IDX 15 1 14 2 13 3 12 4 10 5 11 6 9 8 8 9 6 10 7 11 5 13 1 14
REMARK SMILES IDX 2 15 3 16 90 17 4 18 88 19 89 20 85 21 86 22 87 23 16 25
REMARK SMILES IDX 17 26 18 27 19 28 20 29 21 31 22 32 23 33 84 34 24 35 83 36
REMARK SMILES IDX 25 37 26 38 27 39 77 40 28 41 82 42 76 43 78 44 29 45 81 46
REMARK SMILES IDX 75 47 74 48 30 50 62 51 42 52 61 53 43 54 46 55 60 56 79 57
REMARK SMILES IDX 44 58 45 59 59 61 80 62 47 63 31 64 32 65 40 66 33 67 34 68
REMARK SMILES IDX 38 69 41 70 35 71 36 72 39 73 37 74 63 75 64 76 72 77 65 78
REMARK SMILES IDX 66 79 70 80 73 81 67 82 68 83 71 84 69 85 48 86 49 87 57 88
REMARK SMILES IDX 50 89 51 90 55 91 58 92 52 93 53 94 56 95 54 96
REMARK H PARENT 12 7 8 12 87 24 19 30 78 49 46 60
REMARK Flexibility Score: inf
ROOT
ATOM      1  C   UNL A   1      34.925  24.021  25.103  1.00  0.00     0.002 C 
ENDROOT
BRANCH   1   2
ATOM      2  C   UNL A   1      34.427  24.552  23.758  1.00  0.00     0.021 C 
BRANCH   2   3
ATOM      3  C   UNL A   1      33.795  25.933  23.883  1.00  0.00     0.116 C 
BRANCH   3   4
ATOM      4  N   UNL A   1      32.403  25.872  23.509  1.00  0.00    -0.354 N 
ATOM      5  C   UNL A   1      31.319  25.631  24.303  1.00  0.00     0.245 C 
ATOM      6  O   UNL A   1      30.242  25.421  23.748  1.00  0.00    -0.273 OA
ATOM      7  H   UNL A   1      32.209  26.025  22.556  1.00  0.00     0.163 HD
BRANCH   5   8
ATOM      8  C   UNL A   1      31.497  25.747  25.834  1.00  0.00     0.200 C 
BRANCH   8   9
ATOM      9  N   UNL A   1      30.633  24.808  26.566  1.00  0.00    -0.338 N 
ATOM     10  C   UNL A   1      30.665  23.454  26.818  1.00  0.00     0.254 C 
ATOM     11  O   UNL A   1      29.780  23.028  27.557  1.00  0.00    -0.269 OA
ATOM     12  H   UNL A   1      29.849  25.249  26.969  1.00  0.00     0.164 HD
BRANCH  10  13
ATOM     13  C   UNL A   1      31.637  22.497  26.197  1.00  0.00     0.075 A 
ATOM     14  C   UNL A   1      34.325  19.416  24.730  1.00  0.00     0.044 C 
ATOM     15  C   UNL A   1      33.407  20.491  25.231  1.00  0.00    -0.048 A 
ATOM     16  C   UNL A   1      32.435  21.049  24.400  1.00  0.00     0.004 A 
ATOM     17  C   UNL A   1      33.540  20.994  26.526  1.00  0.00     0.043 A 
ATOM     18  C   UNL A   1      31.589  22.063  24.868  1.00  0.00     0.017 A 
ATOM     19  C   UNL A   1      32.656  21.968  27.004  1.00  0.00     0.136 A 
ATOM     20  F   UNL A   1      32.815  22.353  28.278  1.00  0.00    -0.206 F 
ENDBRANCH  10  13
ENDBRANCH   8   9
BRANCH   8  21
ATOM     21  C   UNL A   1      31.263  27.207  26.294  1.00  0.00     0.143 C 
ATOM     22  C   UNL A   1      32.458  27.820  27.022  1.00  0.00     0.041 C 
BRANCH  21  23
ATOM     23  O   UNL A   1      30.982  28.044  25.164  1.00  0.00    -0.391 OA
ATOM     24  H   UNL A   1      30.594  28.880  25.470  1.00  0.00     0.211 HD
ENDBRANCH  21  23
ENDBRANCH   8  21
ENDBRANCH   5   8
ENDBRANCH   3   4
ENDBRANCH   2   3
ENDBRANCH   1   2
BRANCH   1  25
ATOM     25  C   UNL A   1      35.994  22.917  24.997  1.00  0.00     0.002 C 
BRANCH  25  26
ATOM     26  C   UNL A   1      37.455  23.401  24.999  1.00  0.00     0.021 C 
BRANCH  26  27
ATOM     27  C   UNL A   1      37.771  24.195  26.241  1.00  0.00     0.116 C 
BRANCH  27  28
ATOM     28  N   UNL A   1      38.908  23.621  26.957  1.00  0.00    -0.352 N 
ATOM     29  C   UNL A   1      40.015  24.269  27.465  1.00  0.00     0.251 C 
ATOM     30  H   UNL A   1      38.881  22.646  27.095  1.00  0.00     0.163 HD
ATOM     31  O   UNL A   1      41.059  23.679  27.669  1.00  0.00    -0.269 OA
BRANCH  29  32
ATOM     32  C   UNL A   1      39.878  25.694  27.806  1.00  0.00     0.039 A 
ATOM     33  C   UNL A   1      40.237  26.717  26.922  1.00  0.00     0.014 A 
ATOM     34  C   UNL A   1      39.475  25.989  29.102  1.00  0.00     0.014 A 
ATOM     35  C   UNL A   1      40.214  28.031  27.380  1.00  0.00     0.010 A 
ATOM     36  C   UNL A   1      39.169  27.258  29.447  1.00  0.00     0.010 A 
ATOM     37  C   UNL A   1      39.696  28.265  28.654  1.00  0.00    -0.014 A 
BRANCH  37  38
ATOM     38  C   UNL A   1      39.721  29.520  29.366  1.00  0.00     0.031 A 
ATOM     39  C   UNL A   1      38.669  30.478  29.073  1.00  0.00     0.074 A 
ATOM     40  C   UNL A   1      40.597  29.568  30.395  1.00  0.00     0.049 A 
ATOM     41  N   UNL A   1      38.792  31.749  29.163  1.00  0.00    -0.248 NA
ATOM     42  C   UNL A   1      37.363  30.051  28.578  1.00  0.00     0.031 C 
ATOM     43  C   UNL A   1      40.732  30.490  31.506  1.00  0.00     0.029 A 
ATOM     44  N   UNL A   1      41.703  28.706  30.551  1.00  0.00    -0.354 N 
ATOM     45  C   UNL A   1      37.510  32.254  29.149  1.00  0.00     0.074 A 
ATOM     46  C   UNL A   1      36.705  31.212  28.562  1.00  0.00     0.031 C 
ATOM     47  C   UNL A   1      41.997  30.401  31.971  1.00  0.00     0.029 A 
ATOM     48  C   UNL A   1      42.731  29.487  31.101  1.00  0.00     0.049 A 
ATOM     49  H   UNL A   1      41.745  27.750  30.319  1.00  0.00     0.167 HD
ATOM     50  C   UNL A   1      37.262  33.385  29.873  1.00  0.00     0.037 A 
ATOM     51  C   UNL A   1      43.756  29.808  30.252  1.00  0.00     0.037 A 
ATOM     52  C   UNL A   1      38.503  33.820  30.538  1.00  0.00     0.049 A 
ATOM     53  C   UNL A   1      43.657  31.239  29.772  1.00  0.00     0.074 A 
ATOM     54  C   UNL A   1      39.005  33.662  31.821  1.00  0.00     0.029 A 
ATOM     55  N   UNL A   1      39.593  34.154  29.753  1.00  0.00    -0.354 N 
ATOM     56  N   UNL A   1      42.633  32.015  30.008  1.00  0.00    -0.248 NA
ATOM     57  C   UNL A   1      44.686  31.909  28.983  1.00  0.00     0.031 C 
ATOM     58  C   UNL A   1      40.426  33.836  31.766  1.00  0.00     0.029 A 
ATOM     59  C   UNL A   1      40.782  34.103  30.455  1.00  0.00     0.049 A 
ATOM     60  H   UNL A   1      39.529  34.400  28.803  1.00  0.00     0.167 HD
ATOM     61  C   UNL A   1      42.867  33.262  29.514  1.00  0.00     0.074 A 
ATOM     62  C   UNL A   1      44.146  33.131  28.830  1.00  0.00     0.031 C 
ATOM     63  C   UNL A   1      42.024  34.317  29.725  1.00  0.00     0.037 A 
BRANCH  50  64
ATOM     64  C   UNL A   1      35.890  33.913  30.244  1.00  0.00     0.064 A 
ATOM     65  C   UNL A   1      35.034  34.407  29.237  1.00  0.00     0.173 A 
ATOM     66  C   UNL A   1      35.353  33.983  31.546  1.00  0.00     0.173 A 
ATOM     67  F   UNL A   1      35.350  34.307  27.939  1.00  0.00    -0.203 F 
ATOM     68  C   UNL A   1      33.802  35.006  29.519  1.00  0.00     0.198 A 
ATOM     69  C   UNL A   1      34.139  34.616  31.834  1.00  0.00     0.198 A 
ATOM     70  F   UNL A   1      35.936  33.383  32.587  1.00  0.00    -0.203 F 
ATOM     71  F   UNL A   1      33.039  35.457  28.513  1.00  0.00    -0.200 F 
ATOM     72  C   UNL A   1      33.365  35.136  30.819  1.00  0.00     0.200 A 
ATOM     73  F   UNL A   1      33.719  34.700  33.104  1.00  0.00    -0.200 F 
ATOM     74  F   UNL A   1      32.195  35.726  31.092  1.00  0.00    -0.200 F 
ENDBRANCH  50  64
BRANCH  51  75
ATOM     75  C   UNL A   1      44.175  28.600  29.458  1.00  0.00     0.064 A 
ATOM     76  C   UNL A   1      43.911  28.644  28.069  1.00  0.00     0.173 A 
ATOM     77  C   UNL A   1      45.198  27.741  29.882  1.00  0.00     0.173 A 
ATOM     78  F   UNL A   1      42.917  29.418  27.603  1.00  0.00    -0.203 F 
ATOM     79  C   UNL A   1      44.765  28.043  27.145  1.00  0.00     0.198 A 
ATOM     80  C   UNL A   1      46.018  27.093  28.948  1.00  0.00     0.198 A 
ATOM     81  F   UNL A   1      45.487  27.621  31.185  1.00  0.00    -0.203 F 
ATOM     82  F   UNL A   1      44.595  28.267  25.834  1.00  0.00    -0.200 F 
ATOM     83  C   UNL A   1      45.843  27.301  27.587  1.00  0.00     0.200 A 
ATOM     84  F   UNL A   1      47.034  26.327  29.372  1.00  0.00    -0.200 F 
ATOM     85  F   UNL A   1      46.730  26.825  26.701  1.00  0.00    -0.200 F 
ENDBRANCH  51  75
BRANCH  63  86
ATOM     86  C   UNL A   1      42.351  35.696  29.247  1.00  0.00     0.064 A 
ATOM     87  C   UNL A   1      41.834  36.200  28.045  1.00  0.00     0.173 A 
ATOM     88  C   UNL A   1      43.275  36.517  29.925  1.00  0.00     0.173 A 
ATOM     89  F   UNL A   1      41.027  35.453  27.275  1.00  0.00    -0.203 F 
ATOM     90  C   UNL A   1      42.145  37.483  27.603  1.00  0.00     0.198 A 
ATOM     91  C   UNL A   1      43.643  37.765  29.441  1.00  0.00     0.198 A 
ATOM     92  F   UNL A   1      43.824  36.152  31.091  1.00  0.00    -0.203 F 
ATOM     93  F   UNL A   1      41.556  37.965  26.501  1.00  0.00    -0.200 F 
ATOM     94  C   UNL A   1      43.055  38.262  28.296  1.00  0.00     0.200 A 
ATOM     95  F   UNL A   1      44.560  38.488  30.100  1.00  0.00    -0.200 F 
ATOM     96  F   UNL A   1      43.361  39.492  27.865  1.00  0.00    -0.200 F 
ENDBRANCH  63  86
ENDBRANCH  37  38
ENDBRANCH  29  32
ENDBRANCH  27  28
ENDBRANCH  26  27
ENDBRANCH  25  26
ENDBRANCH   1  25
TORSDOF 17
ENDMDL
MODEL 2
REMARK VINA RESULT:     -12.7      0.746      1.370
REMARK SMILES Cc1ccc(C(=O)N[C@@H](C(=O)NCCCCCCNC(=O)c2ccc(-c3c4nc(c(-c5c(F)c(F)c(F)c(F)c5F)c5ccc([nH]5)c(-c5c(F)c(F)c(F)c(F)c5F)c5nc(c(-c6c(F)c(F)c(F)c(F)c6F)c6ccc3[nH]6)C=C5)C=C4)cc2)[C@@H](C)O)c(F)c1
REMARK SMILES IDX 15 1 14 2 13 3 12 4 10 5 11 6 9 8 8 9 6 10 7 11 5 13 1 14
REMARK SMILES IDX 2 15 3 16 90 17 4 18 88 19 89 20 85 21 86 22 87 23 16 25
REMARK SMILES IDX 17 26 18 27 19 28 20 29 21 31 22 32 23 33 84 34 24 35 83 36
REMARK SMILES IDX 25 37 26 38 27 39 77 40 28 41 82 42 76 43 78 44 29 45 81 46
REMARK SMILES IDX 75 47 74 48 30 50 62 51 42 52 61 53 43 54 46 55 60 56 79 57
REMARK SMILES IDX 44 58 45 59 59 61 80 62 47 63 31 64 32 65 40 66 33 67 34 68
REMARK SMILES IDX 38 69 41 70 35 71 36 72 39 73 37 74 63 75 64 76 72 77 65 78
REMARK SMILES IDX 66 79 70 80 73 81 67 82 68 83 71 84 69 85 48 86 49 87 57 88
REMARK SMILES IDX 50 89 51 90 55 91 58 92 52 93 53 94 56 95 54 96
REMARK H PARENT 12 7 8 12 87 24 19 30 78 49 46 60
REMARK Flexibility Score: inf
ROOT
ATOM      1  C   UNL A   1      35.072  24.431  24.950  1.00  0.00     0.002 C 
ENDROOT
BRANCH   1   2
ATOM      2  C   UNL A   1      34.363  24.841  23.658  1.00  0.00     0.021 C 
BRANCH   2   3
ATOM      3  C   UNL A   1      33.732  26.224  23.763  1.00  0.00     0.116 C 
BRANCH   3   4
ATOM      4  N   UNL A   1      32.326  26.148  23.447  1.00  0.00    -0.354 N 
ATOM      5  C   UNL A   1      31.285  25.843  24.276  1.00  0.00     0.245 C 
ATOM      6  O   UNL A   1      30.188  25.634  23.758  1.00  0.00    -0.273 OA
ATOM      7  H   UNL A   1      32.087  26.341  22.512  1.00  0.00     0.163 HD
BRANCH   5   8
ATOM      8  C   UNL A   1      31.528  25.892  25.801  1.00  0.00     0.200 C 
BRANCH   8   9
ATOM      9  N   UNL A   1      30.672  24.943  26.530  1.00  0.00    -0.338 N 
ATOM     10  C   UNL A   1      30.721  23.591  26.786  1.00  0.00     0.254 C 
ATOM     11  O   UNL A   1      29.836  23.154  27.520  1.00  0.00    -0.269 OA
ATOM     12  H   UNL A   1      29.880  25.375  26.927  1.00  0.00     0.164 HD
BRANCH  10  13
ATOM     13  C   UNL A   1      31.708  22.645  26.173  1.00  0.00     0.075 A 
ATOM     14  C   UNL A   1      34.424  19.586  24.712  1.00  0.00     0.044 C 
ATOM     15  C   UNL A   1      33.497  20.654  25.211  1.00  0.00    -0.048 A 
ATOM     16  C   UNL A   1      32.574  21.258  24.359  1.00  0.00     0.004 A 
ATOM     17  C   UNL A   1      33.574  21.102  26.531  1.00  0.00     0.043 A 
ATOM     18  C   UNL A   1      31.719  22.265  24.827  1.00  0.00     0.017 A 
ATOM     19  C   UNL A   1      32.681  22.070  27.005  1.00  0.00     0.136 A 
ATOM     20  F   UNL A   1      32.784  22.402  28.300  1.00  0.00    -0.206 F 
ENDBRANCH  10  13
ENDBRANCH   8   9
BRANCH   8  21
ATOM     21  C   UNL A   1      31.349  27.337  26.330  1.00  0.00     0.143 C 
ATOM     22  C   UNL A   1      32.593  27.898  27.015  1.00  0.00     0.041 C 
BRANCH  21  23
ATOM     23  O   UNL A   1      31.026  28.223  25.249  1.00  0.00    -0.391 OA
ATOM     24  H   UNL A   1      31.263  27.804  24.406  1.00  0.00     0.211 HD
ENDBRANCH  21  23
ENDBRANCH   8  21
ENDBRANCH   5   8
ENDBRANCH   3   4
ENDBRANCH   2   3
ENDBRANCH   1   2
BRANCH   1  25
ATOM     25  C   UNL A   1      35.925  23.153  24.833  1.00  0.00     0.002 C 
BRANCH  25  26
ATOM     26  C   UNL A   1      37.433  23.335  25.075  1.00  0.00     0.021 C 
BRANCH  26  27
ATOM     27  C   UNL A   1      37.701  24.083  26.357  1.00  0.00     0.116 C 
BRANCH  27  28
ATOM     28  N   UNL A   1      38.874  23.548  27.044  1.00  0.00    -0.352 N 
ATOM     29  C   UNL A   1      39.972  24.234  27.522  1.00  0.00     0.251 C 
ATOM     30  H   UNL A   1      38.884  22.572  27.182  1.00  0.00     0.163 HD
ATOM     31  O   UNL A   1      41.040  23.679  27.699  1.00  0.00    -0.269 OA
BRANCH  29  32
ATOM     32  C   UNL A   1      39.796  25.654  27.866  1.00  0.00     0.039 A 
ATOM     33  C   UNL A   1      40.023  26.684  26.947  1.00  0.00     0.014 A 
ATOM     34  C   UNL A   1      39.498  25.942  29.190  1.00  0.00     0.014 A 
ATOM     35  C   UNL A   1      39.977  27.999  27.397  1.00  0.00     0.010 A 
ATOM     36  C   UNL A   1      39.161  27.198  29.554  1.00  0.00     0.010 A 
ATOM     37  C   UNL A   1      39.564  28.221  28.711  1.00  0.00    -0.014 A 
BRANCH  37  38
ATOM     38  C   UNL A   1      39.592  29.483  29.411  1.00  0.00     0.031 A 
ATOM     39  C   UNL A   1      38.562  30.454  29.082  1.00  0.00     0.074 A 
ATOM     40  C   UNL A   1      40.443  29.529  30.460  1.00  0.00     0.049 A 
ATOM     41  N   UNL A   1      38.702  31.724  29.162  1.00  0.00    -0.248 NA
ATOM     42  C   UNL A   1      37.261  30.040  28.561  1.00  0.00     0.031 C 
ATOM     43  C   UNL A   1      40.566  30.461  31.564  1.00  0.00     0.029 A 
ATOM     44  N   UNL A   1      41.532  28.652  30.651  1.00  0.00    -0.354 N 
ATOM     45  C   UNL A   1      37.429  32.247  29.113  1.00  0.00     0.074 A 
ATOM     46  C   UNL A   1      36.621  31.212  28.517  1.00  0.00     0.031 C 
ATOM     47  C   UNL A   1      41.818  30.357  32.061  1.00  0.00     0.029 A 
ATOM     48  C   UNL A   1      42.559  29.423  31.218  1.00  0.00     0.049 A 
ATOM     49  H   UNL A   1      41.566  27.693  30.430  1.00  0.00     0.167 HD
ATOM     50  C   UNL A   1      37.180  33.390  29.819  1.00  0.00     0.037 A 
ATOM     51  C   UNL A   1      43.608  29.720  30.390  1.00  0.00     0.037 A 
ATOM     52  C   UNL A   1      38.412  33.813  30.509  1.00  0.00     0.049 A 
ATOM     53  C   UNL A   1      43.543  31.147  29.893  1.00  0.00     0.074 A 
ATOM     54  C   UNL A   1      38.880  33.662  31.805  1.00  0.00     0.029 A 
ATOM     55  N   UNL A   1      39.525  34.123  29.747  1.00  0.00    -0.354 N 
ATOM     56  N   UNL A   1      42.526  31.941  30.097  1.00  0.00    -0.248 NA
ATOM     57  C   UNL A   1      44.601  31.793  29.122  1.00  0.00     0.031 C 
ATOM     58  C   UNL A   1      40.305  33.814  31.782  1.00  0.00     0.029 A 
ATOM     59  C   UNL A   1      40.696  34.061  30.478  1.00  0.00     0.049 A 
ATOM     60  H   UNL A   1      39.487  34.359  28.792  1.00  0.00     0.167 HD
ATOM     61  C   UNL A   1      42.790  33.178  29.595  1.00  0.00     0.074 A 
ATOM     62  C   UNL A   1      44.082  33.022  28.944  1.00  0.00     0.031 C 
ATOM     63  C   UNL A   1      41.959  34.249  29.775  1.00  0.00     0.037 A 
BRANCH  50  64
ATOM     64  C   UNL A   1      35.809  33.942  30.151  1.00  0.00     0.064 A 
ATOM     65  C   UNL A   1      34.986  34.444  29.119  1.00  0.00     0.173 A 
ATOM     66  C   UNL A   1      35.239  34.028  31.438  1.00  0.00     0.173 A 
ATOM     67  F   UNL A   1      35.335  34.332  27.831  1.00  0.00    -0.203 F 
ATOM     68  C   UNL A   1      33.758  35.065  29.366  1.00  0.00     0.198 A 
ATOM     69  C   UNL A   1      34.028  34.683  31.691  1.00  0.00     0.198 A 
ATOM     70  F   UNL A   1      35.785  33.426  32.498  1.00  0.00    -0.203 F 
ATOM     71  F   UNL A   1      33.029  35.523  28.338  1.00  0.00    -0.200 F 
ATOM     72  C   UNL A   1      33.290  35.210  30.654  1.00  0.00     0.200 A 
ATOM     73  F   UNL A   1      33.577  34.781  32.950  1.00  0.00    -0.200 F 
ATOM     74  F   UNL A   1      32.123  35.820  30.893  1.00  0.00    -0.200 F 
ENDBRANCH  50  64
BRANCH  51  75
ATOM     75  C   UNL A   1      44.028  28.498  29.619  1.00  0.00     0.064 A 
ATOM     76  C   UNL A   1      44.508  27.410  30.385  1.00  0.00     0.173 A 
ATOM     77  C   UNL A   1      43.520  28.202  28.347  1.00  0.00     0.173 A 
ATOM     78  F   UNL A   1      45.043  27.632  31.597  1.00  0.00    -0.203 F 
ATOM     79  C   UNL A   1      44.282  26.090  29.998  1.00  0.00     0.198 A 
ATOM     80  C   UNL A   1      43.348  26.872  27.939  1.00  0.00     0.198 A 
ATOM     81  F   UNL A   1      43.075  29.182  27.548  1.00  0.00    -0.203 F 
ATOM     82  F   UNL A   1      44.576  25.087  30.839  1.00  0.00    -0.200 F 
ATOM     83  C   UNL A   1      43.664  25.823  28.792  1.00  0.00     0.200 A 
ATOM     84  F   UNL A   1      42.799  26.607  26.744  1.00  0.00    -0.200 F 
ATOM     85  F   UNL A   1      43.341  24.561  28.476  1.00  0.00    -0.200 F 
ENDBRANCH  51  75
BRANCH  63  86
ATOM     86  C   UNL A   1      42.317  35.618  29.291  1.00  0.00     0.064 A 
ATOM     87  C   UNL A   1      41.827  36.121  28.078  1.00  0.00     0.173 A 
ATOM     88  C   UNL A   1      43.248  36.426  29.975  1.00  0.00     0.173 A 
ATOM     89  F   UNL A   1      41.017  35.383  27.302  1.00  0.00    -0.203 F 
ATOM     90  C   UNL A   1      42.168  37.394  27.630  1.00  0.00     0.198 A 
ATOM     91  C   UNL A   1      43.645  37.664  29.486  1.00  0.00     0.198 A 
ATOM     92  F   UNL A   1      43.774  36.061  31.152  1.00  0.00    -0.203 F 
ATOM     93  F   UNL A   1      41.603  37.878  26.516  1.00  0.00    -0.200 F 
ATOM     94  C   UNL A   1      43.083  38.162  28.330  1.00  0.00     0.200 A 
ATOM     95  F   UNL A   1      44.566  38.374  30.153  1.00  0.00    -0.200 F 
ATOM     96  F   UNL A   1      43.417  39.382  27.893  1.00  0.00    -0.200 F 
ENDBRANCH  63  86
ENDBRANCH  37  38
ENDBRANCH  29  32
ENDBRANCH  27  28
ENDBRANCH  26  27
ENDBRANCH  25  26
ENDBRANCH   1  25
TORSDOF 17
ENDMDL
MODEL 3
REMARK VINA RESULT:     -12.7      3.986     10.139
REMARK SMILES Cc1ccc(C(=O)N[C@@H](C(=O)NCCCCCCNC(=O)c2ccc(-c3c4nc(c(-c5c(F)c(F)c(F)c(F)c5F)c5ccc([nH]5)c(-c5c(F)c(F)c(F)c(F)c5F)c5nc(c(-c6c(F)c(F)c(F)c(F)c6F)c6ccc3[nH]6)C=C5)C=C4)cc2)[C@@H](C)O)c(F)c1
REMARK SMILES IDX 15 1 14 2 13 3 12 4 10 5 11 6 9 8 8 9 6 10 7 11 5 13 1 14
REMARK SMILES IDX 2 15 3 16 90 17 4 18 88 19 89 20 85 21 86 22 87 23 16 25
REMARK SMILES IDX 17 26 18 27 19 28 20 29 21 31 22 32 23 33 84 34 24 35 83 36
REMARK SMILES IDX 25 37 26 38 27 39 77 40 28 41 82 42 76 43 78 44 29 45 81 46
REMARK SMILES IDX 75 47 74 48 30 50 62 51 42 52 61 53 43 54 46 55 60 56 79 57
REMARK SMILES IDX 44 58 45 59 59 61 80 62 47 63 31 64 32 65 40 66 33 67 34 68
REMARK SMILES IDX 38 69 41 70 35 71 36 72 39 73 37 74 63 75 64 76 72 77 65 78
REMARK SMILES IDX 66 79 70 80 73 81 67 82 68 83 71 84 69 85 48 86 49 87 57 88
REMARK SMILES IDX 50 89 51 90 55 91 58 92 52 93 53 94 56 95 54 96
REMARK H PARENT 12 7 8 12 87 24 19 30 78 49 46 60
REMARK Flexibility Score: inf
ROOT
ATOM      1  C   UNL A   1      31.665  27.284  26.691  1.00  0.00     0.002 C 
ENDROOT
BRANCH   1   2
ATOM      2  C   UNL A   1      31.017  25.940  26.355  1.00  0.00     0.021 C 
BRANCH   2   3
ATOM      3  C   UNL A   1      31.964  24.769  26.591  1.00  0.00     0.116 C 
BRANCH   3   4
ATOM      4  N   UNL A   1      31.687  23.716  25.644  1.00  0.00    -0.354 N 
ATOM      5  C   UNL A   1      32.194  23.548  24.388  1.00  0.00     0.245 C 
ATOM      6  O   UNL A   1      31.672  22.695  23.672  1.00  0.00    -0.273 OA
ATOM      7  H   UNL A   1      31.050  23.027  25.944  1.00  0.00     0.163 HD
BRANCH   5   8
ATOM      8  C   UNL A   1      33.450  24.358  23.995  1.00  0.00     0.200 C 
BRANCH   8   9
ATOM      9  N   UNL A   1      33.446  24.732  22.571  1.00  0.00    -0.338 N 
ATOM     10  C   UNL A   1      32.963  25.802  21.850  1.00  0.00     0.254 C 
ATOM     11  O   UNL A   1      33.226  25.798  20.649  1.00  0.00    -0.269 OA
ATOM     12  H   UNL A   1      33.890  24.063  22.001  1.00  0.00     0.164 HD
BRANCH  10  13
ATOM     13  C   UNL A   1      32.097  26.887  22.415  1.00  0.00     0.075 A 
ATOM     14  C   UNL A   1      29.655  30.260  23.649  1.00  0.00     0.044 C 
ATOM     15  C   UNL A   1      30.502  29.092  23.239  1.00  0.00    -0.048 A 
ATOM     16  C   UNL A   1      29.978  27.800  23.216  1.00  0.00     0.004 A 
ATOM     17  C   UNL A   1      31.849  29.268  22.920  1.00  0.00     0.043 A 
ATOM     18  C   UNL A   1      30.777  26.710  22.845  1.00  0.00     0.017 A 
ATOM     19  C   UNL A   1      32.626  28.183  22.499  1.00  0.00     0.136 A 
ATOM     20  F   UNL A   1      33.895  28.448  22.155  1.00  0.00    -0.206 F 
ENDBRANCH  10  13
ENDBRANCH   8   9
BRANCH   8  21
ATOM     21  C   UNL A   1      34.734  23.578  24.370  1.00  0.00     0.143 C 
ATOM     22  C   UNL A   1      35.479  24.164  25.568  1.00  0.00     0.041 C 
BRANCH  21  23
ATOM     23  O   UNL A   1      34.411  22.220  24.696  1.00  0.00    -0.391 OA
ATOM     24  H   UNL A   1      35.146  21.823  25.191  1.00  0.00     0.211 HD
ENDBRANCH  21  23
ENDBRANCH   8  21
ENDBRANCH   5   8
ENDBRANCH   3   4
ENDBRANCH   2   3
ENDBRANCH   1   2
BRANCH   1  25
ATOM     25  C   UNL A   1      33.042  27.510  26.039  1.00  0.00     0.002 C 
BRANCH  25  26
ATOM     26  C   UNL A   1      33.646  28.913  26.226  1.00  0.00     0.021 C 
BRANCH  26  27
ATOM     27  C   UNL A   1      34.890  28.869  27.077  1.00  0.00     0.116 C 
BRANCH  27  28
ATOM     28  N   UNL A   1      35.453  30.206  27.256  1.00  0.00    -0.352 N 
ATOM     29  C   UNL A   1      36.572  30.573  27.974  1.00  0.00     0.251 C 
ATOM     30  H   UNL A   1      34.970  30.939  26.809  1.00  0.00     0.163 HD
ATOM     31  O   UNL A   1      36.716  31.708  28.389  1.00  0.00    -0.269 OA
BRANCH  29  32
ATOM     32  C   UNL A   1      37.620  29.560  28.176  1.00  0.00     0.039 A 
ATOM     33  C   UNL A   1      37.589  28.648  29.237  1.00  0.00     0.014 A 
ATOM     34  C   UNL A   1      38.714  29.614  27.323  1.00  0.00     0.014 A 
ATOM     35  C   UNL A   1      38.692  27.824  29.438  1.00  0.00     0.010 A 
ATOM     36  C   UNL A   1      39.635  28.628  27.334  1.00  0.00     0.010 A 
ATOM     37  C   UNL A   1      39.707  27.854  28.481  1.00  0.00    -0.014 A 
BRANCH  37  38
ATOM     38  C   UNL A   1      40.988  27.197  28.579  1.00  0.00     0.031 A 
ATOM     39  C   UNL A   1      41.027  25.765  28.335  1.00  0.00     0.074 A 
ATOM     40  C   UNL A   1      42.047  28.034  28.663  1.00  0.00     0.049 A 
ATOM     41  N   UNL A   1      41.870  24.957  28.859  1.00  0.00    -0.248 NA
ATOM     42  C   UNL A   1      40.034  25.107  27.489  1.00  0.00     0.031 C 
ATOM     43  C   UNL A   1      43.470  27.811  28.492  1.00  0.00     0.029 A 
ATOM     44  N   UNL A   1      41.975  29.385  29.061  1.00  0.00    -0.354 N 
ATOM     45  C   UNL A   1      41.794  23.799  28.117  1.00  0.00     0.074 A 
ATOM     46  C   UNL A   1      40.514  23.861  27.457  1.00  0.00     0.031 C 
ATOM     47  C   UNL A   1      44.128  28.806  29.126  1.00  0.00     0.029 A 
ATOM     48  C   UNL A   1      43.138  29.636  29.806  1.00  0.00     0.049 A 
ATOM     49  H   UNL A   1      41.253  30.024  28.858  1.00  0.00     0.167 HD
ATOM     50  C   UNL A   1      42.936  23.065  27.959  1.00  0.00     0.037 A 
ATOM     51  C   UNL A   1      42.964  29.765  31.158  1.00  0.00     0.037 A 
ATOM     52  C   UNL A   1      44.045  23.733  28.664  1.00  0.00     0.049 A 
ATOM     53  C   UNL A   1      43.403  28.522  31.900  1.00  0.00     0.074 A 
ATOM     54  C   UNL A   1      45.072  24.568  28.253  1.00  0.00     0.029 A 
ATOM     55  N   UNL A   1      43.946  23.913  30.033  1.00  0.00    -0.354 N 
ATOM     56  N   UNL A   1      43.749  27.408  31.310  1.00  0.00    -0.248 NA
ATOM     57  C   UNL A   1      43.480  28.423  33.354  1.00  0.00     0.031 C 
ATOM     58  C   UNL A   1      45.531  25.302  29.395  1.00  0.00     0.029 A 
ATOM     59  C   UNL A   1      44.786  24.910  30.494  1.00  0.00     0.049 A 
ATOM     60  H   UNL A   1      43.345  23.392  30.613  1.00  0.00     0.167 HD
ATOM     61  C   UNL A   1      44.162  26.499  32.234  1.00  0.00     0.074 A 
ATOM     62  C   UNL A   1      43.923  27.162  33.508  1.00  0.00     0.031 C 
ATOM     63  C   UNL A   1      44.701  25.288  31.898  1.00  0.00     0.037 A 
BRANCH  50  64
ATOM     64  C   UNL A   1      43.141  21.959  26.944  1.00  0.00     0.064 A 
ATOM     65  C   UNL A   1      42.414  20.755  27.063  1.00  0.00     0.173 A 
ATOM     66  C   UNL A   1      44.029  21.993  25.850  1.00  0.00     0.173 A 
ATOM     67  F   UNL A   1      41.450  20.608  27.982  1.00  0.00    -0.203 F 
ATOM     68  C   UNL A   1      42.632  19.654  26.228  1.00  0.00     0.198 A 
ATOM     69  C   UNL A   1      44.276  20.880  25.037  1.00  0.00     0.198 A 
ATOM     70  F   UNL A   1      44.645  23.115  25.469  1.00  0.00    -0.203 F 
ATOM     71  F   UNL A   1      41.908  18.539  26.400  1.00  0.00    -0.200 F 
ATOM     72  C   UNL A   1      43.582  19.706  25.232  1.00  0.00     0.200 A 
ATOM     73  F   UNL A   1      45.181  20.966  24.051  1.00  0.00    -0.200 F 
ATOM     74  F   UNL A   1      43.804  18.647  24.443  1.00  0.00    -0.200 F 
ENDBRANCH  50  64
BRANCH  51  75
ATOM     75  C   UNL A   1      41.773  30.636  31.451  1.00  0.00     0.064 A 
ATOM     76  C   UNL A   1      41.843  31.969  30.983  1.00  0.00     0.173 A 
ATOM     77  C   UNL A   1      40.493  30.109  31.672  1.00  0.00     0.173 A 
ATOM     78  F   UNL A   1      43.041  32.546  30.788  1.00  0.00    -0.203 F 
ATOM     79  C   UNL A   1      40.708  32.649  30.546  1.00  0.00     0.198 A 
ATOM     80  C   UNL A   1      39.351  30.821  31.284  1.00  0.00     0.198 A 
ATOM     81  F   UNL A   1      40.345  28.863  32.146  1.00  0.00    -0.203 F 
ATOM     82  F   UNL A   1      40.834  33.833  29.928  1.00  0.00    -0.200 F 
ATOM     83  C   UNL A   1      39.465  32.056  30.659  1.00  0.00     0.200 A 
ATOM     84  F   UNL A   1      38.137  30.273  31.442  1.00  0.00    -0.200 F 
ATOM     85  F   UNL A   1      38.391  32.659  30.130  1.00  0.00    -0.200 F 
ENDBRANCH  51  75
BRANCH  63  86
ATOM     86  C   UNL A   1      45.231  24.345  32.931  1.00  0.00     0.064 A 
ATOM     87  C   UNL A   1      44.473  23.262  33.396  1.00  0.00     0.173 A 
ATOM     88  C   UNL A   1      46.472  24.560  33.565  1.00  0.00     0.173 A 
ATOM     89  F   UNL A   1      43.235  23.036  32.930  1.00  0.00    -0.203 F 
ATOM     90  C   UNL A   1      44.970  22.390  34.362  1.00  0.00     0.198 A 
ATOM     91  C   UNL A   1      46.930  23.734  34.582  1.00  0.00     0.198 A 
ATOM     92  F   UNL A   1      47.293  25.553  33.197  1.00  0.00    -0.203 F 
ATOM     93  F   UNL A   1      44.256  21.311  34.710  1.00  0.00    -0.200 F 
ATOM     94  C   UNL A   1      46.194  22.631  34.960  1.00  0.00     0.200 A 
ATOM     95  F   UNL A   1      48.098  24.007  35.182  1.00  0.00    -0.200 F 
ATOM     96  F   UNL A   1      46.667  21.797  35.895  1.00  0.00    -0.200 F 
ENDBRANCH  63  86
ENDBRANCH  37  38
ENDBRANCH  29  32
ENDBRANCH  27  28
ENDBRANCH  26  27
ENDBRANCH  25  26
ENDBRANCH   1  25
TORSDOF 17
ENDMDL
