MODEL 1
REMARK VINA RESULT:     -12.6      0.000      0.000
REMARK SMILES NC(=O)[C@@H]1CCC[N@@H+]1[C@@H](C(=O)NCCCCCCNC(=O)c1ccc(-c2c3nc(c(-c4c(F)c(F)c(F)c(F)c4F)c4ccc([nH]4)c(-c4c(F)c(F)c(F)c(F)c4F)c4nc(c(-c5c(F)c(F)c(F)c(F)c5F)c5ccc2[nH]5)C=C4)C=C3)cc1)c1c[nH]c2cc(OCc3ccccc3)ccc12
REMARK SMILES IDX 14 1 13 2 12 3 10 4 11 5 9 7 8 8 4 9 5 10 6 11 7 12 2 14
REMARK SMILES IDX 1 15 3 18 85 19 86 20 101 21 87 22 88 23 100 24 89 26 99 27
REMARK SMILES IDX 90 28 91 29 92 30 93 31 94 32 98 33 95 34 97 35 96 36 15 37
REMARK SMILES IDX 16 38 17 39 18 40 19 41 20 42 21 44 22 45 23 46 84 47 24 48
REMARK SMILES IDX 83 49 25 50 26 51 27 52 77 53 28 54 82 55 76 56 78 57 29 58
REMARK SMILES IDX 81 59 75 60 74 61 30 63 62 64 42 65 61 66 43 67 46 68 60 69
REMARK SMILES IDX 79 70 44 71 45 72 59 74 80 75 47 76 31 77 32 78 40 79 33 80
REMARK SMILES IDX 34 81 38 82 41 83 35 84 36 85 39 86 37 87 63 88 64 89 72 90
REMARK SMILES IDX 65 91 66 92 70 93 73 94 67 95 68 96 71 97 69 98 48 99 49 100
REMARK SMILES IDX 57 101 50 102 51 103 55 104 58 105 52 106 53 107 56 108
REMARK SMILES IDX 54 109
REMARK H PARENT 12 6 8 13 1 16 1 17 87 25 19 43 78 62 46 73
REMARK Flexibility Score: inf
ROOT
ATOM      1  C   UNL A   1      36.933  23.116  25.628  1.00  0.00     0.021 C 
ENDROOT
BRANCH   1   2
ATOM      2  C   UNL A   1      35.455  23.566  25.643  1.00  0.00     0.116 C 
BRANCH   2   3
ATOM      3  N   UNL A   1      35.093  24.351  24.479  1.00  0.00    -0.351 N 
ATOM      4  C   UNL A   1      33.947  24.877  23.965  1.00  0.00     0.283 C 
ATOM      5  O   UNL A   1      34.125  25.304  22.818  1.00  0.00    -0.268 OA
ATOM      6  H   UNL A   1      35.875  24.557  23.918  1.00  0.00     0.163 HD
BRANCH   4   7
ATOM      7  C   UNL A   1      32.575  24.914  24.705  1.00  0.00     0.308 C 
BRANCH   7   8
ATOM      8  N   UNL A   1      31.580  23.860  24.251  1.00  0.00    -0.311 N 
ATOM      9  C   UNL A   1      31.167  22.770  25.148  1.00  0.00     0.275 C 
ATOM     10  C   UNL A   1      32.231  21.694  24.961  1.00  0.00     0.081 C 
ATOM     11  C   UNL A   1      32.671  21.855  23.514  1.00  0.00     0.068 C 
ATOM     12  C   UNL A   1      31.952  23.104  23.043  1.00  0.00     0.264 C 
ATOM     13  H   UNL A   1      30.823  24.536  24.145  1.00  0.00     0.349 HD
BRANCH   9  14
ATOM     14  C   UNL A   1      30.675  23.152  26.541  1.00  0.00     0.275 C 
ATOM     15  N   UNL A   1      29.530  22.513  26.939  1.00  0.00    -0.365 N 
ATOM     16  H   UNL A   1      29.144  22.700  27.825  1.00  0.00     0.159 HD
ATOM     17  H   UNL A   1      29.095  21.864  26.341  1.00  0.00     0.159 HD
ATOM     18  O   UNL A   1      31.152  24.025  27.259  1.00  0.00    -0.268 OA
ENDBRANCH   9  14
ENDBRANCH   7   8
BRANCH   7  19
ATOM     19  C   UNL A   1      31.785  26.267  24.545  1.00  0.00     0.044 A 
ATOM     20  C   UNL A   1      31.600  26.886  23.308  1.00  0.00     0.094 A 
ATOM     21  C   UNL A   1      31.600  27.341  25.499  1.00  0.00     0.009 A 
ATOM     22  N   UNL A   1      32.004  28.193  23.496  1.00  0.00    -0.361 N 
ATOM     23  C   UNL A   1      32.160  28.436  24.838  1.00  0.00     0.050 A 
ATOM     24  C   UNL A   1      31.401  27.458  26.891  1.00  0.00     0.015 A 
ATOM     25  H   UNL A   1      32.155  28.850  22.778  1.00  0.00     0.166 HD
ATOM     26  C   UNL A   1      32.880  29.418  25.529  1.00  0.00     0.073 A 
ATOM     27  C   UNL A   1      32.025  28.495  27.602  1.00  0.00     0.047 A 
ATOM     28  C   UNL A   1      32.851  29.388  26.929  1.00  0.00     0.121 A 
BRANCH  28  29
ATOM     29  O   UNL A   1      33.814  30.129  27.564  1.00  0.00    -0.489 OA
BRANCH  29  30
ATOM     30  C   UNL A   1      33.626  31.547  27.569  1.00  0.00     0.265 C 
BRANCH  30  31
ATOM     31  C   UNL A   1      34.661  32.254  28.418  1.00  0.00    -0.011 A 
ATOM     32  C   UNL A   1      34.424  32.443  29.785  1.00  0.00     0.007 A 
ATOM     33  C   UNL A   1      35.867  32.727  27.879  1.00  0.00     0.007 A 
ATOM     34  C   UNL A   1      35.346  33.138  30.571  1.00  0.00     0.000 A 
ATOM     35  C   UNL A   1      36.772  33.446  28.653  1.00  0.00     0.000 A 
ATOM     36  C   UNL A   1      36.508  33.656  30.001  1.00  0.00     0.000 A 
ENDBRANCH  30  31
ENDBRANCH  29  30
ENDBRANCH  28  29
ENDBRANCH   7  19
ENDBRANCH   4   7
ENDBRANCH   2   3
ENDBRANCH   1   2
BRANCH   1  37
ATOM     37  C   UNL A   1      37.287  22.097  24.530  1.00  0.00     0.002 C 
BRANCH  37  38
ATOM     38  C   UNL A   1      36.985  20.648  24.922  1.00  0.00     0.002 C 
BRANCH  38  39
ATOM     39  C   UNL A   1      38.197  19.715  24.980  1.00  0.00     0.021 C 
BRANCH  39  40
ATOM     40  C   UNL A   1      39.257  20.105  26.006  1.00  0.00     0.116 C 
BRANCH  40  41
ATOM     41  N   UNL A   1      40.375  19.172  26.012  1.00  0.00    -0.352 N 
ATOM     42  C   UNL A   1      41.723  19.441  26.026  1.00  0.00     0.251 C 
ATOM     43  H   UNL A   1      40.132  18.219  26.006  1.00  0.00     0.163 HD
ATOM     44  O   UNL A   1      42.541  18.565  25.782  1.00  0.00    -0.269 OA
BRANCH  42  45
ATOM     45  C   UNL A   1      42.181  20.809  26.340  1.00  0.00     0.039 A 
ATOM     46  C   UNL A   1      42.461  21.151  27.666  1.00  0.00     0.014 A 
ATOM     47  C   UNL A   1      42.318  21.754  25.320  1.00  0.00     0.014 A 
ATOM     48  C   UNL A   1      42.929  22.433  27.962  1.00  0.00     0.010 A 
ATOM     49  C   UNL A   1      42.843  23.009  25.607  1.00  0.00     0.010 A 
ATOM     50  C   UNL A   1      43.144  23.364  26.931  1.00  0.00    -0.014 A 
BRANCH  50  51
ATOM     51  C   UNL A   1      43.658  24.727  27.216  1.00  0.00     0.031 A 
ATOM     52  C   UNL A   1      42.730  25.775  27.762  1.00  0.00     0.074 A 
ATOM     53  C   UNL A   1      44.935  25.037  26.925  1.00  0.00     0.049 A 
ATOM     54  N   UNL A   1      42.959  27.042  28.003  1.00  0.00    -0.248 NA
ATOM     55  C   UNL A   1      41.353  25.348  28.050  1.00  0.00     0.031 C 
ATOM     56  C   UNL A   1      45.922  24.115  26.362  1.00  0.00     0.029 A 
ATOM     57  N   UNL A   1      45.619  26.220  27.056  1.00  0.00    -0.354 N 
ATOM     58  C   UNL A   1      41.753  27.561  28.457  1.00  0.00     0.074 A 
ATOM     59  C   UNL A   1      40.782  26.490  28.402  1.00  0.00     0.031 C 
ATOM     60  C   UNL A   1      47.090  24.761  26.216  1.00  0.00     0.029 A 
ATOM     61  C   UNL A   1      46.927  26.147  26.644  1.00  0.00     0.049 A 
ATOM     62  H   UNL A   1      45.211  27.041  27.412  1.00  0.00     0.167 HD
ATOM     63  C   UNL A   1      41.486  28.812  28.902  1.00  0.00     0.037 A 
ATOM     64  C   UNL A   1      47.883  27.095  26.612  1.00  0.00     0.037 A 
ATOM     65  C   UNL A   1      42.460  29.869  28.974  1.00  0.00     0.049 A 
ATOM     66  C   UNL A   1      47.556  28.483  27.092  1.00  0.00     0.074 A 
ATOM     67  C   UNL A   1      42.304  31.158  29.454  1.00  0.00     0.029 A 
ATOM     68  N   UNL A   1      43.777  29.756  28.552  1.00  0.00    -0.354 N 
ATOM     69  N   UNL A   1      46.428  28.950  27.570  1.00  0.00    -0.248 NA
ATOM     70  C   UNL A   1      48.639  29.476  27.031  1.00  0.00     0.031 C 
ATOM     71  C   UNL A   1      43.515  31.837  29.285  1.00  0.00     0.029 A 
ATOM     72  C   UNL A   1      44.440  30.957  28.742  1.00  0.00     0.049 A 
ATOM     73  H   UNL A   1      44.182  28.942  28.173  1.00  0.00     0.167 HD
ATOM     74  C   UNL A   1      46.672  30.278  27.896  1.00  0.00     0.074 A 
ATOM     75  C   UNL A   1      48.058  30.540  27.569  1.00  0.00     0.031 C 
ATOM     76  C   UNL A   1      45.824  31.196  28.420  1.00  0.00     0.037 A 
BRANCH  63  77
ATOM     77  C   UNL A   1      40.081  29.099  29.347  1.00  0.00     0.064 A 
ATOM     78  C   UNL A   1      39.735  29.139  30.707  1.00  0.00     0.173 A 
ATOM     79  C   UNL A   1      39.071  29.349  28.406  1.00  0.00     0.173 A 
ATOM     80  F   UNL A   1      40.661  28.894  31.646  1.00  0.00    -0.203 F 
ATOM     81  C   UNL A   1      38.423  29.380  31.106  1.00  0.00     0.198 A 
ATOM     82  C   UNL A   1      37.766  29.621  28.810  1.00  0.00     0.198 A 
ATOM     83  F   UNL A   1      39.347  29.328  27.094  1.00  0.00    -0.203 F 
ATOM     84  F   UNL A   1      38.106  29.354  32.408  1.00  0.00    -0.200 F 
ATOM     85  C   UNL A   1      37.441  29.626  30.159  1.00  0.00     0.200 A 
ATOM     86  F   UNL A   1      36.820  29.870  27.894  1.00  0.00    -0.200 F 
ATOM     87  F   UNL A   1      36.179  29.858  30.545  1.00  0.00    -0.200 F 
ENDBRANCH  63  77
BRANCH  64  88
ATOM     88  C   UNL A   1      49.250  26.753  26.144  1.00  0.00     0.064 A 
ATOM     89  C   UNL A   1      50.198  26.226  27.032  1.00  0.00     0.173 A 
ATOM     90  C   UNL A   1      49.637  26.938  24.809  1.00  0.00     0.173 A 
ATOM     91  F   UNL A   1      49.880  26.050  28.323  1.00  0.00    -0.203 F 
ATOM     92  C   UNL A   1      51.486  25.909  26.606  1.00  0.00     0.198 A 
ATOM     93  C   UNL A   1      50.918  26.598  24.379  1.00  0.00     0.198 A 
ATOM     94  F   UNL A   1      48.765  27.435  23.919  1.00  0.00    -0.203 F 
ATOM     95  F   UNL A   1      52.384  25.442  27.484  1.00  0.00    -0.200 F 
ATOM     96  C   UNL A   1      51.844  26.090  25.278  1.00  0.00     0.200 A 
ATOM     97  F   UNL A   1      51.255  26.760  23.092  1.00  0.00    -0.200 F 
ATOM     98  F   UNL A   1      53.080  25.779  24.867  1.00  0.00    -0.200 F 
ENDBRANCH  64  88
BRANCH  76  99
ATOM     99  C   UNL A   1      46.381  32.559  28.710  1.00  0.00     0.064 A 
ATOM    100  C   UNL A   1      46.986  32.862  29.938  1.00  0.00     0.173 A 
ATOM    101  C   UNL A   1      46.348  33.561  27.727  1.00  0.00     0.173 A 
ATOM    102  F   UNL A   1      47.027  31.943  30.915  1.00  0.00    -0.203 F 
ATOM    103  C   UNL A   1      47.519  34.124  30.180  1.00  0.00     0.198 A 
ATOM    104  C   UNL A   1      46.908  34.814  27.963  1.00  0.00     0.198 A 
ATOM    105  F   UNL A   1      45.786  33.319  26.534  1.00  0.00    -0.203 F 
ATOM    106  F   UNL A   1      48.054  34.405  31.376  1.00  0.00    -0.200 F 
ATOM    107  C   UNL A   1      47.486  35.097  29.191  1.00  0.00     0.200 A 
ATOM    108  F   UNL A   1      46.887  35.746  27.001  1.00  0.00    -0.200 F 
ATOM    109  F   UNL A   1      48.008  36.308  29.422  1.00  0.00    -0.200 F 
ENDBRANCH  76  99
ENDBRANCH  50  51
ENDBRANCH  42  45
ENDBRANCH  40  41
ENDBRANCH  39  40
ENDBRANCH  38  39
ENDBRANCH  37  38
ENDBRANCH   1  37
TORSDOF 19
ENDMDL
MODEL 2
REMARK VINA RESULT:     -12.4      4.599      9.870
REMARK SMILES NC(=O)[C@@H]1CCC[N@@H+]1[C@@H](C(=O)NCCCCCCNC(=O)c1ccc(-c2c3nc(c(-c4c(F)c(F)c(F)c(F)c4F)c4ccc([nH]4)c(-c4c(F)c(F)c(F)c(F)c4F)c4nc(c(-c5c(F)c(F)c(F)c(F)c5F)c5ccc2[nH]5)C=C4)C=C3)cc1)c1c[nH]c2cc(OCc3ccccc3)ccc12
REMARK SMILES IDX 14 1 13 2 12 3 10 4 11 5 9 7 8 8 4 9 5 10 6 11 7 12 2 14
REMARK SMILES IDX 1 15 3 18 85 19 86 20 101 21 87 22 88 23 100 24 89 26 99 27
REMARK SMILES IDX 90 28 91 29 92 30 93 31 94 32 98 33 95 34 97 35 96 36 15 37
REMARK SMILES IDX 16 38 17 39 18 40 19 41 20 42 21 44 22 45 23 46 84 47 24 48
REMARK SMILES IDX 83 49 25 50 26 51 27 52 77 53 28 54 82 55 76 56 78 57 29 58
REMARK SMILES IDX 81 59 75 60 74 61 30 63 62 64 42 65 61 66 43 67 46 68 60 69
REMARK SMILES IDX 79 70 44 71 45 72 59 74 80 75 47 76 31 77 32 78 40 79 33 80
REMARK SMILES IDX 34 81 38 82 41 83 35 84 36 85 39 86 37 87 63 88 64 89 72 90
REMARK SMILES IDX 65 91 66 92 70 93 73 94 67 95 68 96 71 97 69 98 48 99 49 100
REMARK SMILES IDX 57 101 50 102 51 103 55 104 58 105 52 106 53 107 56 108
REMARK SMILES IDX 54 109
REMARK H PARENT 12 6 8 13 1 16 1 17 87 25 19 43 78 62 46 73
REMARK Flexibility Score: inf
ROOT
ATOM      1  C   UNL A   1      33.783  29.191  26.682  1.00  0.00     0.021 C 
ENDROOT
BRANCH   1   2
ATOM      2  C   UNL A   1      33.642  27.997  25.713  1.00  0.00     0.116 C 
BRANCH   2   3
ATOM      3  N   UNL A   1      33.018  26.842  26.329  1.00  0.00    -0.351 N 
ATOM      4  C   UNL A   1      32.522  25.647  25.903  1.00  0.00     0.283 C 
ATOM      5  O   UNL A   1      31.896  25.075  26.803  1.00  0.00    -0.268 OA
ATOM      6  H   UNL A   1      32.931  26.948  27.304  1.00  0.00     0.163 HD
BRANCH   4   7
ATOM      7  C   UNL A   1      32.689  25.078  24.461  1.00  0.00     0.308 C 
BRANCH   7   8
ATOM      8  N   UNL A   1      31.461  25.215  23.577  1.00  0.00    -0.311 N 
ATOM      9  C   UNL A   1      31.467  26.101  22.403  1.00  0.00     0.275 C 
ATOM     10  C   UNL A   1      31.092  27.473  22.955  1.00  0.00     0.081 C 
ATOM     11  C   UNL A   1      30.174  27.164  24.128  1.00  0.00     0.068 C 
ATOM     12  C   UNL A   1      30.229  25.654  24.255  1.00  0.00     0.264 C 
ATOM     13  H   UNL A   1      31.491  24.239  23.283  1.00  0.00     0.349 HD
BRANCH   9  14
ATOM     14  C   UNL A   1      32.610  25.942  21.406  1.00  0.00     0.275 C 
ATOM     15  N   UNL A   1      32.224  25.558  20.149  1.00  0.00    -0.365 N 
ATOM     16  H   UNL A   1      32.899  25.433  19.444  1.00  0.00     0.159 HD
ATOM     17  H   UNL A   1      31.272  25.408  19.950  1.00  0.00     0.159 HD
ATOM     18  O   UNL A   1      33.806  26.033  21.662  1.00  0.00    -0.268 OA
ENDBRANCH   9  14
ENDBRANCH   7   8
BRANCH   7  19
ATOM     19  C   UNL A   1      33.021  23.540  24.402  1.00  0.00     0.044 A 
ATOM     20  C   UNL A   1      32.410  22.607  25.242  1.00  0.00     0.094 A 
ATOM     21  C   UNL A   1      34.240  22.879  23.983  1.00  0.00     0.009 A 
ATOM     22  N   UNL A   1      33.448  21.888  25.798  1.00  0.00    -0.361 N 
ATOM     23  C   UNL A   1      34.612  22.171  25.127  1.00  0.00     0.050 A 
ATOM     24  C   UNL A   1      35.224  23.068  22.990  1.00  0.00     0.015 A 
ATOM     25  H   UNL A   1      33.366  21.267  26.557  1.00  0.00     0.166 HD
ATOM     26  C   UNL A   1      35.956  22.025  25.492  1.00  0.00     0.073 A 
ATOM     27  C   UNL A   1      36.574  22.830  23.291  1.00  0.00     0.047 A 
ATOM     28  C   UNL A   1      36.932  22.428  24.572  1.00  0.00     0.121 A 
BRANCH  28  29
ATOM     29  O   UNL A   1      38.198  22.590  25.073  1.00  0.00    -0.489 OA
BRANCH  29  30
ATOM     30  C   UNL A   1      38.538  21.797  26.213  1.00  0.00     0.265 C 
BRANCH  30  31
ATOM     31  C   UNL A   1      39.960  21.284  26.144  1.00  0.00    -0.011 A 
ATOM     32  C   UNL A   1      40.197  19.906  26.077  1.00  0.00     0.007 A 
ATOM     33  C   UNL A   1      41.064  22.151  26.140  1.00  0.00     0.007 A 
ATOM     34  C   UNL A   1      41.504  19.414  26.064  1.00  0.00     0.000 A 
ATOM     35  C   UNL A   1      42.367  21.662  26.159  1.00  0.00     0.000 A 
ATOM     36  C   UNL A   1      42.586  20.291  26.126  1.00  0.00     0.000 A 
ENDBRANCH  30  31
ENDBRANCH  29  30
ENDBRANCH  28  29
ENDBRANCH   7  19
ENDBRANCH   4   7
ENDBRANCH   2   3
ENDBRANCH   1   2
BRANCH   1  37
ATOM     37  C   UNL A   1      32.456  29.710  27.266  1.00  0.00     0.002 C 
BRANCH  37  38
ATOM     38  C   UNL A   1      31.669  30.596  26.298  1.00  0.00     0.002 C 
BRANCH  38  39
ATOM     39  C   UNL A   1      31.532  32.063  26.710  1.00  0.00     0.021 C 
BRANCH  39  40
ATOM     40  C   UNL A   1      32.844  32.751  27.077  1.00  0.00     0.116 C 
BRANCH  40  41
ATOM     41  N   UNL A   1      32.626  34.093  27.597  1.00  0.00    -0.352 N 
ATOM     42  C   UNL A   1      33.158  34.681  28.721  1.00  0.00     0.251 C 
ATOM     43  H   UNL A   1      32.015  34.658  27.072  1.00  0.00     0.163 HD
ATOM     44  O   UNL A   1      32.696  35.723  29.163  1.00  0.00    -0.269 OA
BRANCH  42  45
ATOM     45  C   UNL A   1      34.303  34.037  29.396  1.00  0.00     0.039 A 
ATOM     46  C   UNL A   1      34.066  33.113  30.417  1.00  0.00     0.014 A 
ATOM     47  C   UNL A   1      35.610  34.363  29.024  1.00  0.00     0.014 A 
ATOM     48  C   UNL A   1      35.145  32.475  31.032  1.00  0.00     0.010 A 
ATOM     49  C   UNL A   1      36.680  33.683  29.594  1.00  0.00     0.010 A 
ATOM     50  C   UNL A   1      36.459  32.740  30.610  1.00  0.00    -0.014 A 
BRANCH  50  51
ATOM     51  C   UNL A   1      37.623  32.063  31.234  1.00  0.00     0.031 A 
ATOM     52  C   UNL A   1      38.079  32.477  32.604  1.00  0.00     0.074 A 
ATOM     53  C   UNL A   1      38.303  31.127  30.547  1.00  0.00     0.049 A 
ATOM     54  N   UNL A   1      39.117  32.070  33.292  1.00  0.00    -0.248 NA
ATOM     55  C   UNL A   1      37.277  33.507  33.281  1.00  0.00     0.031 C 
ATOM     56  C   UNL A   1      37.976  30.663  29.198  1.00  0.00     0.029 A 
ATOM     57  N   UNL A   1      39.417  30.402  30.888  1.00  0.00    -0.354 N 
ATOM     58  C   UNL A   1      39.097  32.803  34.471  1.00  0.00     0.074 A 
ATOM     59  C   UNL A   1      37.982  33.720  34.382  1.00  0.00     0.031 C 
ATOM     60  C   UNL A   1      38.856  29.717  28.835  1.00  0.00     0.029 A 
ATOM     61  C   UNL A   1      39.827  29.531  29.909  1.00  0.00     0.049 A 
ATOM     62  H   UNL A   1      39.878  30.497  31.752  1.00  0.00     0.167 HD
ATOM     63  C   UNL A   1      39.920  32.702  35.542  1.00  0.00     0.037 A 
ATOM     64  C   UNL A   1      40.872  28.681  29.883  1.00  0.00     0.037 A 
ATOM     65  C   UNL A   1      41.016  31.775  35.635  1.00  0.00     0.049 A 
ATOM     66  C   UNL A   1      41.785  28.603  31.076  1.00  0.00     0.074 A 
ATOM     67  C   UNL A   1      41.881  31.560  36.694  1.00  0.00     0.029 A 
ATOM     68  N   UNL A   1      41.398  30.904  34.624  1.00  0.00    -0.354 N 
ATOM     69  N   UNL A   1      41.726  29.261  32.209  1.00  0.00    -0.248 NA
ATOM     70  C   UNL A   1      42.909  27.660  30.989  1.00  0.00     0.031 C 
ATOM     71  C   UNL A   1      42.811  30.588  36.310  1.00  0.00     0.029 A 
ATOM     72  C   UNL A   1      42.497  30.164  35.027  1.00  0.00     0.049 A 
ATOM     73  H   UNL A   1      40.953  30.823  33.750  1.00  0.00     0.167 HD
ATOM     74  C   UNL A   1      42.781  28.791  32.979  1.00  0.00     0.074 A 
ATOM     75  C   UNL A   1      43.460  27.786  32.188  1.00  0.00     0.031 C 
ATOM     76  C   UNL A   1      43.153  29.158  34.230  1.00  0.00     0.037 A 
BRANCH  63  77
ATOM     77  C   UNL A   1      39.660  33.623  36.699  1.00  0.00     0.064 A 
ATOM     78  C   UNL A   1      40.243  34.898  36.769  1.00  0.00     0.173 A 
ATOM     79  C   UNL A   1      38.809  33.234  37.744  1.00  0.00     0.173 A 
ATOM     80  F   UNL A   1      41.075  35.314  35.802  1.00  0.00    -0.203 F 
ATOM     81  C   UNL A   1      40.015  35.733  37.860  1.00  0.00     0.198 A 
ATOM     82  C   UNL A   1      38.558  34.084  38.819  1.00  0.00     0.198 A 
ATOM     83  F   UNL A   1      38.221  32.029  37.726  1.00  0.00    -0.203 F 
ATOM     84  F   UNL A   1      40.631  36.921  37.933  1.00  0.00    -0.200 F 
ATOM     85  C   UNL A   1      39.169  35.327  38.881  1.00  0.00     0.200 A 
ATOM     86  F   UNL A   1      37.731  33.696  39.799  1.00  0.00    -0.200 F 
ATOM     87  F   UNL A   1      38.950  36.132  39.930  1.00  0.00    -0.200 F 
ENDBRANCH  63  77
BRANCH  64  88
ATOM     88  C   UNL A   1      41.087  27.808  28.700  1.00  0.00     0.064 A 
ATOM     89  C   UNL A   1      40.337  26.637  28.532  1.00  0.00     0.173 A 
ATOM     90  C   UNL A   1      42.036  28.124  27.718  1.00  0.00     0.173 A 
ATOM     91  F   UNL A   1      39.432  26.283  29.456  1.00  0.00    -0.203 F 
ATOM     92  C   UNL A   1      40.536  25.806  27.431  1.00  0.00     0.198 A 
ATOM     93  C   UNL A   1      42.217  27.306  26.605  1.00  0.00     0.198 A 
ATOM     94  F   UNL A   1      42.777  29.237  27.831  1.00  0.00    -0.203 F 
ATOM     95  F   UNL A   1      39.831  24.672  27.313  1.00  0.00    -0.200 F 
ATOM     96  C   UNL A   1      41.472  26.144  26.465  1.00  0.00     0.200 A 
ATOM     97  F   UNL A   1      43.112  27.643  25.666  1.00  0.00    -0.200 F 
ATOM     98  F   UNL A   1      41.659  25.349  25.403  1.00  0.00    -0.200 F 
ENDBRANCH  64  88
BRANCH  76  99
ATOM     99  C   UNL A   1      44.324  28.443  34.836  1.00  0.00     0.064 A 
ATOM    100  C   UNL A   1      45.630  28.944  34.727  1.00  0.00     0.173 A 
ATOM    101  C   UNL A   1      44.130  27.266  35.575  1.00  0.00     0.173 A 
ATOM    102  F   UNL A   1      45.869  30.057  34.017  1.00  0.00    -0.203 F 
ATOM    103  C   UNL A   1      46.701  28.279  35.318  1.00  0.00     0.198 A 
ATOM    104  C   UNL A   1      45.200  26.620  36.188  1.00  0.00     0.198 A 
ATOM    105  F   UNL A   1      42.899  26.751  35.714  1.00  0.00    -0.203 F 
ATOM    106  F   UNL A   1      47.945  28.752  35.164  1.00  0.00    -0.200 F 
ATOM    107  C   UNL A   1      46.485  27.123  36.053  1.00  0.00     0.200 A 
ATOM    108  F   UNL A   1      44.987  25.511  36.909  1.00  0.00    -0.200 F 
ATOM    109  F   UNL A   1      47.516  26.491  36.629  1.00  0.00    -0.200 F 
ENDBRANCH  76  99
ENDBRANCH  50  51
ENDBRANCH  42  45
ENDBRANCH  40  41
ENDBRANCH  39  40
ENDBRANCH  38  39
ENDBRANCH  37  38
ENDBRANCH   1  37
TORSDOF 19
ENDMDL
MODEL 3
REMARK VINA RESULT:     -12.3      4.936     10.372
REMARK SMILES NC(=O)[C@@H]1CCC[N@@H+]1[C@@H](C(=O)NCCCCCCNC(=O)c1ccc(-c2c3nc(c(-c4c(F)c(F)c(F)c(F)c4F)c4ccc([nH]4)c(-c4c(F)c(F)c(F)c(F)c4F)c4nc(c(-c5c(F)c(F)c(F)c(F)c5F)c5ccc2[nH]5)C=C4)C=C3)cc1)c1c[nH]c2cc(OCc3ccccc3)ccc12
REMARK SMILES IDX 14 1 13 2 12 3 10 4 11 5 9 7 8 8 4 9 5 10 6 11 7 12 2 14
REMARK SMILES IDX 1 15 3 18 85 19 86 20 101 21 87 22 88 23 100 24 89 26 99 27
REMARK SMILES IDX 90 28 91 29 92 30 93 31 94 32 98 33 95 34 97 35 96 36 15 37
REMARK SMILES IDX 16 38 17 39 18 40 19 41 20 42 21 44 22 45 23 46 84 47 24 48
REMARK SMILES IDX 83 49 25 50 26 51 27 52 77 53 28 54 82 55 76 56 78 57 29 58
REMARK SMILES IDX 81 59 75 60 74 61 30 63 62 64 42 65 61 66 43 67 46 68 60 69
REMARK SMILES IDX 79 70 44 71 45 72 59 74 80 75 47 76 31 77 32 78 40 79 33 80
REMARK SMILES IDX 34 81 38 82 41 83 35 84 36 85 39 86 37 87 63 88 64 89 72 90
REMARK SMILES IDX 65 91 66 92 70 93 73 94 67 95 68 96 71 97 69 98 48 99 49 100
REMARK SMILES IDX 57 101 50 102 51 103 55 104 58 105 52 106 53 107 56 108
REMARK SMILES IDX 54 109
REMARK H PARENT 12 6 8 13 1 16 1 17 87 25 19 43 78 62 46 73
REMARK Flexibility Score: inf
ROOT
ATOM      1  C   UNL A   1      33.685  28.792  25.630  1.00  0.00     0.021 C 
ENDROOT
BRANCH   1   2
ATOM      2  C   UNL A   1      33.648  27.248  25.650  1.00  0.00     0.116 C 
BRANCH   2   3
ATOM      3  N   UNL A   1      33.945  26.660  24.359  1.00  0.00    -0.351 N 
ATOM      4  C   UNL A   1      34.091  25.401  23.862  1.00  0.00     0.283 C 
ATOM      5  O   UNL A   1      34.553  25.423  22.714  1.00  0.00    -0.268 OA
ATOM      6  H   UNL A   1      34.072  27.345  23.664  1.00  0.00     0.163 HD
BRANCH   4   7
ATOM      7  C   UNL A   1      33.755  24.092  24.640  1.00  0.00     0.308 C 
BRANCH   7   8
ATOM      8  N   UNL A   1      34.617  22.896  24.273  1.00  0.00    -0.311 N 
ATOM      9  C   UNL A   1      35.158  22.005  25.311  1.00  0.00     0.275 C 
ATOM     10  C   UNL A   1      36.458  22.673  25.751  1.00  0.00     0.081 C 
ATOM     11  C   UNL A   1      36.957  23.375  24.497  1.00  0.00     0.068 C 
ATOM     12  C   UNL A   1      35.833  23.194  23.497  1.00  0.00     0.264 C 
ATOM     13  H   UNL A   1      33.861  22.432  23.769  1.00  0.00     0.349 HD
BRANCH   9  14
ATOM     14  C   UNL A   1      34.180  21.442  26.337  1.00  0.00     0.275 C 
ATOM     15  N   UNL A   1      34.402  21.854  27.626  1.00  0.00    -0.365 N 
ATOM     16  H   UNL A   1      33.816  21.538  28.351  1.00  0.00     0.159 HD
ATOM     17  H   UNL A   1      35.146  22.466  27.826  1.00  0.00     0.159 HD
ATOM     18  O   UNL A   1      33.308  20.607  26.119  1.00  0.00    -0.268 OA
ENDBRANCH   9  14
ENDBRANCH   7   8
BRANCH   7  19
ATOM     19  C   UNL A   1      32.284  23.570  24.430  1.00  0.00     0.044 A 
ATOM     20  C   UNL A   1      31.942  22.676  23.415  1.00  0.00     0.094 A 
ATOM     21  C   UNL A   1      31.027  24.207  24.765  1.00  0.00     0.009 A 
ATOM     22  N   UNL A   1      30.864  23.253  22.774  1.00  0.00    -0.361 N 
ATOM     23  C   UNL A   1      30.392  24.301  23.526  1.00  0.00     0.050 A 
ATOM     24  C   UNL A   1      30.529  25.014  25.810  1.00  0.00     0.015 A 
ATOM     25  H   UNL A   1      30.491  22.958  21.912  1.00  0.00     0.166 HD
ATOM     26  C   UNL A   1      29.606  25.409  23.188  1.00  0.00     0.073 A 
ATOM     27  C   UNL A   1      29.654  26.072  25.519  1.00  0.00     0.047 A 
ATOM     28  C   UNL A   1      29.300  26.328  24.200  1.00  0.00     0.121 A 
BRANCH  28  29
ATOM     29  O   UNL A   1      28.832  27.547  23.781  1.00  0.00    -0.489 OA
BRANCH  29  30
ATOM     30  C   UNL A   1      29.648  28.255  22.844  1.00  0.00     0.265 C 
BRANCH  30  31
ATOM     31  C   UNL A   1      29.159  29.670  22.621  1.00  0.00    -0.011 A 
ATOM     32  C   UNL A   1      29.270  30.612  23.651  1.00  0.00     0.007 A 
ATOM     33  C   UNL A   1      28.597  30.078  21.402  1.00  0.00     0.007 A 
ATOM     34  C   UNL A   1      28.779  31.907  23.478  1.00  0.00     0.000 A 
ATOM     35  C   UNL A   1      28.078  31.359  21.239  1.00  0.00     0.000 A 
ATOM     36  C   UNL A   1      28.165  32.273  22.281  1.00  0.00     0.000 A 
ENDBRANCH  30  31
ENDBRANCH  29  30
ENDBRANCH  28  29
ENDBRANCH   7  19
ENDBRANCH   4   7
ENDBRANCH   2   3
ENDBRANCH   1   2
BRANCH   1  37
ATOM     37  C   UNL A   1      32.339  29.466  25.313  1.00  0.00     0.002 C 
BRANCH  37  38
ATOM     38  C   UNL A   1      31.649  30.062  26.542  1.00  0.00     0.002 C 
BRANCH  38  39
ATOM     39  C   UNL A   1      31.511  31.587  26.545  1.00  0.00     0.021 C 
BRANCH  39  40
ATOM     40  C   UNL A   1      32.793  32.345  26.876  1.00  0.00     0.116 C 
BRANCH  40  41
ATOM     41  N   UNL A   1      32.522  33.711  27.300  1.00  0.00    -0.352 N 
ATOM     42  C   UNL A   1      33.032  34.399  28.376  1.00  0.00     0.251 C 
ATOM     43  H   UNL A   1      31.887  34.211  26.739  1.00  0.00     0.163 HD
ATOM     44  O   UNL A   1      32.528  35.450  28.745  1.00  0.00    -0.269 OA
BRANCH  42  45
ATOM     45  C   UNL A   1      34.204  33.853  29.089  1.00  0.00     0.039 A 
ATOM     46  C   UNL A   1      34.013  32.908  30.101  1.00  0.00     0.014 A 
ATOM     47  C   UNL A   1      35.490  34.290  28.761  1.00  0.00     0.014 A 
ATOM     48  C   UNL A   1      35.121  32.363  30.752  1.00  0.00     0.010 A 
ATOM     49  C   UNL A   1      36.595  33.702  29.367  1.00  0.00     0.010 A 
ATOM     50  C   UNL A   1      36.421  32.740  30.374  1.00  0.00    -0.014 A 
BRANCH  50  51
ATOM     51  C   UNL A   1      37.617  32.163  31.038  1.00  0.00     0.031 A 
ATOM     52  C   UNL A   1      38.410  31.092  30.344  1.00  0.00     0.074 A 
ATOM     53  C   UNL A   1      37.948  32.554  32.282  1.00  0.00     0.049 A 
ATOM     54  N   UNL A   1      39.434  30.403  30.782  1.00  0.00    -0.248 NA
ATOM     55  C   UNL A   1      37.975  30.725  28.988  1.00  0.00     0.031 C 
ATOM     56  C   UNL A   1      37.237  33.562  33.070  1.00  0.00     0.029 A 
ATOM     57  N   UNL A   1      38.967  32.144  33.106  1.00  0.00    -0.354 N 
ATOM     58  C   UNL A   1      39.755  29.517  29.761  1.00  0.00     0.074 A 
ATOM     59  C   UNL A   1      38.783  29.714  28.708  1.00  0.00     0.031 C 
ATOM     60  C   UNL A   1      37.854  33.707  34.253  1.00  0.00     0.029 A 
ATOM     61  C   UNL A   1      38.981  32.782  34.322  1.00  0.00     0.049 A 
ATOM     62  H   UNL A   1      39.623  31.458  32.849  1.00  0.00     0.167 HD
ATOM     63  C   UNL A   1      40.783  28.638  29.698  1.00  0.00     0.037 A 
ATOM     64  C   UNL A   1      39.809  32.632  35.373  1.00  0.00     0.037 A 
ATOM     65  C   UNL A   1      41.760  28.460  30.738  1.00  0.00     0.049 A 
ATOM     66  C   UNL A   1      40.931  31.632  35.287  1.00  0.00     0.074 A 
ATOM     67  C   UNL A   1      42.868  27.631  30.754  1.00  0.00     0.029 A 
ATOM     68  N   UNL A   1      41.745  29.129  31.955  1.00  0.00    -0.354 N 
ATOM     69  N   UNL A   1      41.259  30.839  34.296  1.00  0.00    -0.248 NA
ATOM     70  C   UNL A   1      41.801  31.511  36.465  1.00  0.00     0.031 C 
ATOM     71  C   UNL A   1      43.500  27.766  31.994  1.00  0.00     0.029 A 
ATOM     72  C   UNL A   1      42.812  28.716  32.735  1.00  0.00     0.049 A 
ATOM     73  H   UNL A   1      41.075  29.798  32.224  1.00  0.00     0.167 HD
ATOM     74  C   UNL A   1      42.388  30.149  34.717  1.00  0.00     0.074 A 
ATOM     75  C   UNL A   1      42.694  30.623  36.051  1.00  0.00     0.031 C 
ATOM     76  C   UNL A   1      43.107  29.208  34.057  1.00  0.00     0.037 A 
BRANCH  63  77
ATOM     77  C   UNL A   1      40.898  27.803  28.455  1.00  0.00     0.064 A 
ATOM     78  C   UNL A   1      40.228  26.575  28.330  1.00  0.00     0.173 A 
ATOM     79  C   UNL A   1      41.677  28.237  27.372  1.00  0.00     0.173 A 
ATOM     80  F   UNL A   1      39.481  26.108  29.342  1.00  0.00    -0.203 F 
ATOM     81  C   UNL A   1      40.364  25.797  27.184  1.00  0.00     0.198 A 
ATOM     82  C   UNL A   1      41.785  27.471  26.215  1.00  0.00     0.198 A 
ATOM     83  F   UNL A   1      42.335  29.404  27.435  1.00  0.00    -0.203 F 
ATOM     84  F   UNL A   1      39.762  24.601  27.113  1.00  0.00    -0.200 F 
ATOM     85  C   UNL A   1      41.138  26.247  26.125  1.00  0.00     0.200 A 
ATOM     86  F   UNL A   1      42.524  27.912  25.187  1.00  0.00    -0.200 F 
ATOM     87  F   UNL A   1      41.267  25.497  25.022  1.00  0.00    -0.200 F 
ENDBRANCH  63  77
BRANCH  64  88
ATOM     88  C   UNL A   1      39.632  33.476  36.582  1.00  0.00     0.064 A 
ATOM     89  C   UNL A   1      38.796  33.060  37.627  1.00  0.00     0.173 A 
ATOM     90  C   UNL A   1      40.293  34.704  36.723  1.00  0.00     0.173 A 
ATOM     91  F   UNL A   1      38.128  31.902  37.528  1.00  0.00    -0.203 F 
ATOM     92  C   UNL A   1      38.616  33.847  38.762  1.00  0.00     0.198 A 
ATOM     93  C   UNL A   1      40.132  35.479  37.870  1.00  0.00     0.198 A 
ATOM     94  F   UNL A   1      41.108  35.145  35.752  1.00  0.00    -0.203 F 
ATOM     95  F   UNL A   1      37.781  33.444  39.730  1.00  0.00    -0.200 F 
ATOM     96  C   UNL A   1      39.289  35.054  38.886  1.00  0.00     0.200 A 
ATOM     97  F   UNL A   1      40.794  36.638  37.991  1.00  0.00    -0.200 F 
ATOM     98  F   UNL A   1      39.121  35.808  39.980  1.00  0.00    -0.200 F 
ENDBRANCH  64  88
BRANCH  76  99
ATOM     99  C   UNL A   1      44.318  28.657  34.751  1.00  0.00     0.064 A 
ATOM    100  C   UNL A   1      44.247  27.510  35.556  1.00  0.00     0.173 A 
ATOM    101  C   UNL A   1      45.573  29.258  34.570  1.00  0.00     0.173 A 
ATOM    102  F   UNL A   1      43.067  26.910  35.773  1.00  0.00    -0.203 F 
ATOM    103  C   UNL A   1      45.386  26.999  36.172  1.00  0.00     0.198 A 
ATOM    104  C   UNL A   1      46.714  28.727  35.165  1.00  0.00     0.198 A 
ATOM    105  F   UNL A   1      45.694  30.352  33.804  1.00  0.00    -0.203 F 
ATOM    106  F   UNL A   1      45.288  25.928  36.972  1.00  0.00    -0.200 F 
ATOM    107  C   UNL A   1      46.618  27.602  35.971  1.00  0.00     0.200 A 
ATOM    108  F   UNL A   1      47.906  29.303  34.957  1.00  0.00    -0.200 F 
ATOM    109  F   UNL A   1      47.714  27.103  36.557  1.00  0.00    -0.200 F 
ENDBRANCH  76  99
ENDBRANCH  50  51
ENDBRANCH  42  45
ENDBRANCH  40  41
ENDBRANCH  39  40
ENDBRANCH  38  39
ENDBRANCH  37  38
ENDBRANCH   1  37
TORSDOF 19
ENDMDL
