MODEL 1
REMARK VINA RESULT:     -12.6      0.000      0.000
REMARK SMILES Cc1oc(C)c(S(=O)(=O)Nn2c(C)ccc2C)c1C(=O)NCCCCCCNC(=O)c1ccc(-c2c3nc(c(-c4c(F)c(F)c(F)c(F)c4F)c4ccc([nH]4)c(-c4c(F)c(F)c(F)c(F)c4F)c4nc(c(-c5c(F)c(F)c(F)c(F)c5F)c5ccc2[nH]5)C=C4)C=C3)cc1
REMARK SMILES IDX 24 1 23 2 22 3 21 4 19 5 20 6 18 8 1 9 2 10 3 11 4 12 6 13
REMARK SMILES IDX 5 14 7 15 8 16 9 17 10 18 11 20 12 21 16 22 13 23 14 24
REMARK SMILES IDX 15 25 17 26 25 27 26 28 27 29 28 30 29 31 30 33 31 34 32 35
REMARK SMILES IDX 93 36 33 37 92 38 34 39 35 40 36 41 86 42 37 43 91 44 85 45
REMARK SMILES IDX 87 46 38 47 90 48 84 49 83 50 39 52 71 53 51 54 70 55 52 56
REMARK SMILES IDX 55 57 69 58 88 59 53 60 54 61 68 63 89 64 56 65 40 66 41 67
REMARK SMILES IDX 49 68 42 69 43 70 47 71 50 72 44 73 45 74 48 75 46 76 72 77
REMARK SMILES IDX 73 78 81 79 74 80 75 81 79 82 82 83 76 84 77 85 80 86 78 87
REMARK SMILES IDX 57 88 58 89 66 90 59 91 60 92 64 93 67 94 61 95 62 96 65 97
REMARK SMILES IDX 63 98
REMARK H PARENT 21 7 10 19 28 32 87 51 55 62
REMARK Flexibility Score: inf
ROOT
ATOM      1  C   UNL A   1      33.108  29.218  24.337  1.00  0.00     0.002 C 
ENDROOT
BRANCH   1   2
ATOM      2  C   UNL A   1      33.347  28.936  22.856  1.00  0.00     0.021 C 
BRANCH   2   3
ATOM      3  C   UNL A   1      33.805  27.547  22.431  1.00  0.00     0.116 C 
BRANCH   3   4
ATOM      4  N   UNL A   1      33.103  26.923  21.331  1.00  0.00    -0.352 N 
ATOM      5  C   UNL A   1      32.027  26.058  21.344  1.00  0.00     0.256 C 
ATOM      6  O   UNL A   1      31.476  25.787  20.278  1.00  0.00    -0.269 OA
ATOM      7  H   UNL A   1      33.444  27.150  20.436  1.00  0.00     0.163 HD
BRANCH   5   8
ATOM      8  C   UNL A   1      31.562  25.439  22.573  1.00  0.00     0.101 A 
ATOM      9  C   UNL A   1      29.680  27.088  23.487  1.00  0.00     0.088 C 
ATOM     10  C   UNL A   1      30.557  25.898  23.421  1.00  0.00     0.115 A 
ATOM     11  O   UNL A   1      30.309  24.997  24.406  1.00  0.00    -0.464 OA
ATOM     12  C   UNL A   1      31.103  23.923  24.190  1.00  0.00     0.122 A 
ATOM     13  C   UNL A   1      31.928  24.152  23.103  1.00  0.00     0.143 A 
ATOM     14  C   UNL A   1      30.886  22.783  25.108  1.00  0.00     0.089 C 
BRANCH  13  15
ATOM     15  S   UNL A   1      33.084  22.979  22.609  1.00  0.00     0.279 S 
ATOM     16  O   UNL A   1      32.311  21.817  22.322  1.00  0.00    -0.200 OA
ATOM     17  O   UNL A   1      33.773  23.686  21.520  1.00  0.00    -0.200 OA
BRANCH  15  18
ATOM     18  N   UNL A   1      34.303  22.556  23.626  1.00  0.00    -0.216 N 
ATOM     19  H   UNL A   1      35.145  22.287  23.190  1.00  0.00     0.202 HD
BRANCH  18  20
ATOM     20  N   UNL A   1      34.311  22.524  25.012  1.00  0.00    -0.256 N 
ATOM     21  C   UNL A   1      34.443  23.542  25.928  1.00  0.00     0.038 A 
ATOM     22  C   UNL A   1      34.134  21.321  25.669  1.00  0.00     0.038 A 
ATOM     23  C   UNL A   1      34.485  25.000  25.646  1.00  0.00     0.067 C 
ATOM     24  C   UNL A   1      34.468  22.947  27.181  1.00  0.00     0.025 A 
ATOM     25  C   UNL A   1      34.293  21.561  27.018  1.00  0.00     0.025 A 
ATOM     26  C   UNL A   1      33.926  20.006  24.996  1.00  0.00     0.067 C 
ENDBRANCH  18  20
ENDBRANCH  15  18
ENDBRANCH  13  15
ENDBRANCH   5   8
ENDBRANCH   3   4
ENDBRANCH   2   3
ENDBRANCH   1   2
BRANCH   1  27
ATOM     27  C   UNL A   1      32.534  28.112  25.230  1.00  0.00     0.002 C 
BRANCH  27  28
ATOM     28  C   UNL A   1      32.710  28.157  26.765  1.00  0.00     0.021 C 
BRANCH  28  29
ATOM     29  C   UNL A   1      33.998  28.753  27.375  1.00  0.00     0.116 C 
BRANCH  29  30
ATOM     30  N   UNL A   1      33.922  30.170  27.682  1.00  0.00    -0.352 N 
ATOM     31  C   UNL A   1      34.917  31.059  28.054  1.00  0.00     0.251 C 
ATOM     32  H   UNL A   1      33.020  30.560  27.617  1.00  0.00     0.163 HD
ATOM     33  O   UNL A   1      34.627  32.255  28.097  1.00  0.00    -0.269 OA
BRANCH  31  34
ATOM     34  C   UNL A   1      36.300  30.642  28.499  1.00  0.00     0.039 A 
ATOM     35  C   UNL A   1      37.241  30.370  27.514  1.00  0.00     0.014 A 
ATOM     36  C   UNL A   1      36.615  30.183  29.793  1.00  0.00     0.014 A 
ATOM     37  C   UNL A   1      38.472  29.712  27.827  1.00  0.00     0.010 A 
ATOM     38  C   UNL A   1      37.842  29.445  30.093  1.00  0.00     0.010 A 
ATOM     39  C   UNL A   1      38.819  29.161  29.113  1.00  0.00    -0.014 A 
BRANCH  39  40
ATOM     40  C   UNL A   1      39.823  27.895  29.085  1.00  0.00     0.031 A 
ATOM     41  C   UNL A   1      40.721  28.195  30.239  1.00  0.00     0.074 A 
ATOM     42  C   UNL A   1      40.188  26.756  28.359  1.00  0.00     0.049 A 
ATOM     43  N   UNL A   1      41.368  29.329  30.291  1.00  0.00    -0.248 NA
ATOM     44  C   UNL A   1      40.632  27.482  31.515  1.00  0.00     0.031 C 
ATOM     45  C   UNL A   1      39.652  26.291  27.069  1.00  0.00     0.029 A 
ATOM     46  N   UNL A   1      41.145  25.707  28.605  1.00  0.00    -0.354 N 
ATOM     47  C   UNL A   1      42.052  29.306  31.478  1.00  0.00     0.074 A 
ATOM     48  C   UNL A   1      41.349  28.314  32.278  1.00  0.00     0.031 C 
ATOM     49  C   UNL A   1      40.148  25.066  26.717  1.00  0.00     0.029 A 
ATOM     50  C   UNL A   1      41.125  24.581  27.695  1.00  0.00     0.049 A 
ATOM     51  H   UNL A   1      41.783  25.754  29.354  1.00  0.00     0.167 HD
ATOM     52  C   UNL A   1      43.398  29.507  31.371  1.00  0.00     0.037 A 
ATOM     53  C   UNL A   1      41.864  23.394  27.657  1.00  0.00     0.037 A 
ATOM     54  C   UNL A   1      44.153  28.296  31.535  1.00  0.00     0.049 A 
ATOM     55  C   UNL A   1      43.103  23.626  28.407  1.00  0.00     0.074 A 
ATOM     56  C   UNL A   1      44.029  27.198  32.364  1.00  0.00     0.029 A 
ATOM     57  N   UNL A   1      44.920  27.886  30.468  1.00  0.00    -0.354 N 
ATOM     58  N   UNL A   1      44.105  24.243  27.863  1.00  0.00    -0.248 NA
ATOM     59  C   UNL A   1      43.364  23.055  29.724  1.00  0.00     0.031 C 
ATOM     60  C   UNL A   1      44.207  26.090  31.506  1.00  0.00     0.029 A 
ATOM     61  C   UNL A   1      44.789  26.526  30.322  1.00  0.00     0.049 A 
ATOM     62  H   UNL A   1      45.472  28.472  29.902  1.00  0.00     0.167 HD
ATOM     63  C   UNL A   1      44.854  24.604  28.929  1.00  0.00     0.074 A 
ATOM     64  C   UNL A   1      44.550  23.626  29.957  1.00  0.00     0.031 C 
ATOM     65  C   UNL A   1      45.075  25.935  29.040  1.00  0.00     0.037 A 
BRANCH  52  66
ATOM     66  C   UNL A   1      43.770  30.596  30.401  1.00  0.00     0.064 A 
ATOM     67  C   UNL A   1      44.178  31.839  30.888  1.00  0.00     0.173 A 
ATOM     68  C   UNL A   1      43.626  30.460  29.003  1.00  0.00     0.173 A 
ATOM     69  F   UNL A   1      44.408  32.006  32.199  1.00  0.00    -0.203 F 
ATOM     70  C   UNL A   1      44.364  32.918  30.023  1.00  0.00     0.198 A 
ATOM     71  C   UNL A   1      43.743  31.551  28.153  1.00  0.00     0.198 A 
ATOM     72  F   UNL A   1      43.391  29.258  28.450  1.00  0.00    -0.203 F 
ATOM     73  F   UNL A   1      44.793  34.092  30.503  1.00  0.00    -0.200 F 
ATOM     74  C   UNL A   1      44.108  32.783  28.664  1.00  0.00     0.200 A 
ATOM     75  F   UNL A   1      43.512  31.404  26.840  1.00  0.00    -0.200 F 
ATOM     76  F   UNL A   1      44.245  33.834  27.843  1.00  0.00    -0.200 F 
ENDBRANCH  52  66
BRANCH  53  77
ATOM     77  C   UNL A   1      41.985  21.994  26.980  1.00  0.00     0.064 A 
ATOM     78  C   UNL A   1      42.827  21.792  25.825  1.00  0.00     0.173 A 
ATOM     79  C   UNL A   1      41.682  20.805  27.655  1.00  0.00     0.173 A 
ATOM     80  F   UNL A   1      43.177  22.808  25.025  1.00  0.00    -0.203 F 
ATOM     81  C   UNL A   1      43.407  20.561  25.475  1.00  0.00     0.198 A 
ATOM     82  C   UNL A   1      42.230  19.551  27.268  1.00  0.00     0.198 A 
ATOM     83  F   UNL A   1      40.925  20.839  28.758  1.00  0.00    -0.203 F 
ATOM     84  F   UNL A   1      44.295  20.494  24.468  1.00  0.00    -0.200 F 
ATOM     85  C   UNL A   1      43.120  19.438  26.209  1.00  0.00     0.200 A 
ATOM     86  F   UNL A   1      41.948  18.450  27.980  1.00  0.00    -0.200 F 
ATOM     87  F   UNL A   1      43.714  18.270  25.919  1.00  0.00    -0.200 F 
ENDBRANCH  53  77
BRANCH  65  88
ATOM     88  C   UNL A   1      45.381  26.690  27.749  1.00  0.00     0.064 A 
ATOM     89  C   UNL A   1      44.460  27.092  26.746  1.00  0.00     0.173 A 
ATOM     90  C   UNL A   1      46.728  26.958  27.472  1.00  0.00     0.173 A 
ATOM     91  F   UNL A   1      43.133  27.029  26.921  1.00  0.00    -0.203 F 
ATOM     92  C   UNL A   1      44.881  27.614  25.519  1.00  0.00     0.198 A 
ATOM     93  C   UNL A   1      47.140  27.544  26.274  1.00  0.00     0.198 A 
ATOM     94  F   UNL A   1      47.667  26.674  28.388  1.00  0.00    -0.203 F 
ATOM     95  F   UNL A   1      43.980  27.904  24.567  1.00  0.00    -0.200 F 
ATOM     96  C   UNL A   1      46.221  27.841  25.285  1.00  0.00     0.200 A 
ATOM     97  F   UNL A   1      48.437  27.819  26.086  1.00  0.00    -0.200 F 
ATOM     98  F   UNL A   1      46.626  28.368  24.120  1.00  0.00    -0.200 F 
ENDBRANCH  65  88
ENDBRANCH  39  40
ENDBRANCH  31  34
ENDBRANCH  29  30
ENDBRANCH  28  29
ENDBRANCH  27  28
ENDBRANCH   1  27
TORSDOF 16
ENDMDL
MODEL 2
REMARK VINA RESULT:     -12.0      1.413      2.034
REMARK SMILES Cc1oc(C)c(S(=O)(=O)Nn2c(C)ccc2C)c1C(=O)NCCCCCCNC(=O)c1ccc(-c2c3nc(c(-c4c(F)c(F)c(F)c(F)c4F)c4ccc([nH]4)c(-c4c(F)c(F)c(F)c(F)c4F)c4nc(c(-c5c(F)c(F)c(F)c(F)c5F)c5ccc2[nH]5)C=C4)C=C3)cc1
REMARK SMILES IDX 24 1 23 2 22 3 21 4 19 5 20 6 18 8 1 9 2 10 3 11 4 12 6 13
REMARK SMILES IDX 5 14 7 15 8 16 9 17 10 18 11 20 12 21 16 22 13 23 14 24
REMARK SMILES IDX 15 25 17 26 25 27 26 28 27 29 28 30 29 31 30 33 31 34 32 35
REMARK SMILES IDX 93 36 33 37 92 38 34 39 35 40 36 41 86 42 37 43 91 44 85 45
REMARK SMILES IDX 87 46 38 47 90 48 84 49 83 50 39 52 71 53 51 54 70 55 52 56
REMARK SMILES IDX 55 57 69 58 88 59 53 60 54 61 68 63 89 64 56 65 40 66 41 67
REMARK SMILES IDX 49 68 42 69 43 70 47 71 50 72 44 73 45 74 48 75 46 76 72 77
REMARK SMILES IDX 73 78 81 79 74 80 75 81 79 82 82 83 76 84 77 85 80 86 78 87
REMARK SMILES IDX 57 88 58 89 66 90 59 91 60 92 64 93 67 94 61 95 62 96 65 97
REMARK SMILES IDX 63 98
REMARK H PARENT 21 7 10 19 28 32 87 51 55 62
REMARK Flexibility Score: inf
ROOT
ATOM      1  C   UNL A   1      33.288  28.687  23.335  1.00  0.00     0.002 C 
ENDROOT
BRANCH   1   2
ATOM      2  C   UNL A   1      32.307  27.589  22.932  1.00  0.00     0.021 C 
BRANCH   2   3
ATOM      3  C   UNL A   1      32.693  26.133  23.154  1.00  0.00     0.116 C 
BRANCH   3   4
ATOM      4  N   UNL A   1      33.784  25.866  24.066  1.00  0.00    -0.352 N 
ATOM      5  C   UNL A   1      33.808  25.115  25.224  1.00  0.00     0.256 C 
ATOM      6  O   UNL A   1      34.894  24.878  25.750  1.00  0.00    -0.269 OA
ATOM      7  H   UNL A   1      34.642  26.283  23.822  1.00  0.00     0.163 HD
BRANCH   5   8
ATOM      8  C   UNL A   1      32.586  24.637  25.847  1.00  0.00     0.101 A 
ATOM      9  C   UNL A   1      31.174  26.842  26.342  1.00  0.00     0.088 C 
ATOM     10  C   UNL A   1      31.502  25.399  26.273  1.00  0.00     0.115 A 
ATOM     11  O   UNL A   1      30.486  24.601  26.693  1.00  0.00    -0.464 OA
ATOM     12  C   UNL A   1      30.867  23.317  26.500  1.00  0.00     0.122 A 
ATOM     13  C   UNL A   1      32.165  23.272  26.023  1.00  0.00     0.143 A 
ATOM     14  C   UNL A   1      29.833  22.301  26.797  1.00  0.00     0.089 C 
BRANCH  13  15
ATOM     15  S   UNL A   1      32.943  21.768  25.723  1.00  0.00     0.279 S 
ATOM     16  O   UNL A   1      33.895  22.058  24.704  1.00  0.00    -0.200 OA
ATOM     17  O   UNL A   1      33.404  21.403  27.071  1.00  0.00    -0.200 OA
BRANCH  15  18
ATOM     18  N   UNL A   1      32.055  20.469  25.254  1.00  0.00    -0.216 N 
ATOM     19  H   UNL A   1      31.271  20.266  25.814  1.00  0.00     0.202 HD
BRANCH  18  20
ATOM     20  N   UNL A   1      32.257  19.618  24.178  1.00  0.00    -0.256 N 
ATOM     21  C   UNL A   1      32.152  19.847  22.825  1.00  0.00     0.038 A 
ATOM     22  C   UNL A   1      32.659  18.315  24.403  1.00  0.00     0.038 A 
ATOM     23  C   UNL A   1      31.909  21.150  22.155  1.00  0.00     0.067 C 
ATOM     24  C   UNL A   1      32.378  18.631  22.198  1.00  0.00     0.025 A 
ATOM     25  C   UNL A   1      32.678  17.671  23.183  1.00  0.00     0.025 A 
ATOM     26  C   UNL A   1      32.908  17.722  25.750  1.00  0.00     0.067 C 
ENDBRANCH  18  20
ENDBRANCH  15  18
ENDBRANCH  13  15
ENDBRANCH   5   8
ENDBRANCH   3   4
ENDBRANCH   2   3
ENDBRANCH   1   2
BRANCH   1  27
ATOM     27  C   UNL A   1      33.289  29.201  24.779  1.00  0.00     0.002 C 
BRANCH  27  28
ATOM     28  C   UNL A   1      34.245  28.604  25.836  1.00  0.00     0.021 C 
BRANCH  28  29
ATOM     29  C   UNL A   1      34.021  28.907  27.335  1.00  0.00     0.116 C 
BRANCH  29  30
ATOM     30  N   UNL A   1      33.971  30.320  27.664  1.00  0.00    -0.352 N 
ATOM     31  C   UNL A   1      34.975  31.176  28.086  1.00  0.00     0.251 C 
ATOM     32  H   UNL A   1      33.082  30.735  27.573  1.00  0.00     0.163 HD
ATOM     33  O   UNL A   1      34.715  32.379  28.140  1.00  0.00    -0.269 OA
BRANCH  31  34
ATOM     34  C   UNL A   1      36.329  30.715  28.574  1.00  0.00     0.039 A 
ATOM     35  C   UNL A   1      37.317  30.493  27.622  1.00  0.00     0.014 A 
ATOM     36  C   UNL A   1      36.574  30.171  29.850  1.00  0.00     0.014 A 
ATOM     37  C   UNL A   1      38.524  29.801  27.954  1.00  0.00     0.010 A 
ATOM     38  C   UNL A   1      37.777  29.401  30.164  1.00  0.00     0.010 A 
ATOM     39  C   UNL A   1      38.799  29.167  29.219  1.00  0.00    -0.014 A 
BRANCH  39  40
ATOM     40  C   UNL A   1      39.792  27.892  29.162  1.00  0.00     0.031 A 
ATOM     41  C   UNL A   1      40.713  28.175  30.302  1.00  0.00     0.074 A 
ATOM     42  C   UNL A   1      40.134  26.757  28.420  1.00  0.00     0.049 A 
ATOM     43  N   UNL A   1      41.370  29.302  30.353  1.00  0.00    -0.248 NA
ATOM     44  C   UNL A   1      40.640  27.451  31.573  1.00  0.00     0.031 C 
ATOM     45  C   UNL A   1      39.572  26.308  27.135  1.00  0.00     0.029 A 
ATOM     46  N   UNL A   1      41.086  25.698  28.639  1.00  0.00    -0.354 N 
ATOM     47  C   UNL A   1      42.075  29.262  31.528  1.00  0.00     0.074 A 
ATOM     48  C   UNL A   1      41.378  28.269  32.331  1.00  0.00     0.031 C 
ATOM     49  C   UNL A   1      40.051  25.083  26.764  1.00  0.00     0.029 A 
ATOM     50  C   UNL A   1      41.041  24.580  27.720  1.00  0.00     0.049 A 
ATOM     51  H   UNL A   1      41.737  25.732  29.377  1.00  0.00     0.167 HD
ATOM     52  C   UNL A   1      43.421  29.453  31.399  1.00  0.00     0.037 A 
ATOM     53  C   UNL A   1      41.768  23.387  27.658  1.00  0.00     0.037 A 
ATOM     54  C   UNL A   1      44.168  28.234  31.539  1.00  0.00     0.049 A 
ATOM     55  C   UNL A   1      43.022  23.602  28.388  1.00  0.00     0.074 A 
ATOM     56  C   UNL A   1      44.048  27.130  32.360  1.00  0.00     0.029 A 
ATOM     57  N   UNL A   1      44.912  27.827  30.454  1.00  0.00    -0.354 N 
ATOM     58  N   UNL A   1      44.020  24.216  27.832  1.00  0.00    -0.248 NA
ATOM     59  C   UNL A   1      43.301  23.017  29.695  1.00  0.00     0.031 C 
ATOM     60  C   UNL A   1      44.202  26.028  31.489  1.00  0.00     0.029 A 
ATOM     61  C   UNL A   1      44.766  26.470  30.299  1.00  0.00     0.049 A 
ATOM     62  H   UNL A   1      45.459  28.414  29.884  1.00  0.00     0.167 HD
ATOM     63  C   UNL A   1      44.791  24.560  28.888  1.00  0.00     0.074 A 
ATOM     64  C   UNL A   1      44.496  23.576  29.912  1.00  0.00     0.031 C 
ATOM     65  C   UNL A   1      45.025  25.888  29.007  1.00  0.00     0.037 A 
BRANCH  52  66
ATOM     66  C   UNL A   1      43.785  30.547  30.433  1.00  0.00     0.064 A 
ATOM     67  C   UNL A   1      44.164  31.798  30.922  1.00  0.00     0.173 A 
ATOM     68  C   UNL A   1      43.661  30.407  29.032  1.00  0.00     0.173 A 
ATOM     69  F   UNL A   1      44.374  31.970  32.236  1.00  0.00    -0.203 F 
ATOM     70  C   UNL A   1      44.341  32.879  30.058  1.00  0.00     0.198 A 
ATOM     71  C   UNL A   1      43.768  31.500  28.183  1.00  0.00     0.198 A 
ATOM     72  F   UNL A   1      43.455  29.201  28.478  1.00  0.00    -0.203 F 
ATOM     73  F   UNL A   1      44.743  34.062  30.543  1.00  0.00    -0.200 F 
ATOM     74  C   UNL A   1      44.105  32.738  28.697  1.00  0.00     0.200 A 
ATOM     75  F   UNL A   1      43.557  31.347  26.867  1.00  0.00    -0.200 F 
ATOM     76  F   UNL A   1      44.233  33.791  27.876  1.00  0.00    -0.200 F 
ENDBRANCH  52  66
BRANCH  53  77
ATOM     77  C   UNL A   1      41.865  21.993  26.966  1.00  0.00     0.064 A 
ATOM     78  C   UNL A   1      42.706  21.787  25.812  1.00  0.00     0.173 A 
ATOM     79  C   UNL A   1      41.538  20.802  27.628  1.00  0.00     0.173 A 
ATOM     80  F   UNL A   1      43.077  22.805  25.023  1.00  0.00    -0.203 F 
ATOM     81  C   UNL A   1      43.264  20.549  25.450  1.00  0.00     0.198 A 
ATOM     82  C   UNL A   1      42.064  19.543  27.229  1.00  0.00     0.198 A 
ATOM     83  F   UNL A   1      40.779  20.839  28.730  1.00  0.00    -0.203 F 
ATOM     84  F   UNL A   1      44.153  20.477  24.444  1.00  0.00    -0.200 F 
ATOM     85  C   UNL A   1      42.955  19.424  26.171  1.00  0.00     0.200 A 
ATOM     86  F   UNL A   1      41.760  18.440  27.929  1.00  0.00    -0.200 F 
ATOM     87  F   UNL A   1      43.528  18.248  25.870  1.00  0.00    -0.200 F 
ENDBRANCH  53  77
BRANCH  65  88
ATOM     88  C   UNL A   1      45.315  26.653  27.717  1.00  0.00     0.064 A 
ATOM     89  C   UNL A   1      44.387  27.030  26.711  1.00  0.00     0.173 A 
ATOM     90  C   UNL A   1      46.655  26.957  27.445  1.00  0.00     0.173 A 
ATOM     91  F   UNL A   1      43.062  26.931  26.882  1.00  0.00    -0.203 F 
ATOM     92  C   UNL A   1      44.797  27.565  25.486  1.00  0.00     0.198 A 
ATOM     93  C   UNL A   1      47.055  27.555  26.249  1.00  0.00     0.198 A 
ATOM     94  F   UNL A   1      47.598  26.698  28.364  1.00  0.00    -0.203 F 
ATOM     95  F   UNL A   1      43.892  27.831  24.531  1.00  0.00    -0.200 F 
ATOM     96  C   UNL A   1      46.132  27.828  25.257  1.00  0.00     0.200 A 
ATOM     97  F   UNL A   1      48.345  27.865  26.066  1.00  0.00    -0.200 F 
ATOM     98  F   UNL A   1      46.526  28.366  24.094  1.00  0.00    -0.200 F 
ENDBRANCH  65  88
ENDBRANCH  39  40
ENDBRANCH  31  34
ENDBRANCH  29  30
ENDBRANCH  28  29
ENDBRANCH  27  28
ENDBRANCH   1  27
TORSDOF 16
ENDMDL
MODEL 3
REMARK VINA RESULT:     -12.0      1.312      1.884
REMARK SMILES Cc1oc(C)c(S(=O)(=O)Nn2c(C)ccc2C)c1C(=O)NCCCCCCNC(=O)c1ccc(-c2c3nc(c(-c4c(F)c(F)c(F)c(F)c4F)c4ccc([nH]4)c(-c4c(F)c(F)c(F)c(F)c4F)c4nc(c(-c5c(F)c(F)c(F)c(F)c5F)c5ccc2[nH]5)C=C4)C=C3)cc1
REMARK SMILES IDX 24 1 23 2 22 3 21 4 19 5 20 6 18 8 1 9 2 10 3 11 4 12 6 13
REMARK SMILES IDX 5 14 7 15 8 16 9 17 10 18 11 20 12 21 16 22 13 23 14 24
REMARK SMILES IDX 15 25 17 26 25 27 26 28 27 29 28 30 29 31 30 33 31 34 32 35
REMARK SMILES IDX 93 36 33 37 92 38 34 39 35 40 36 41 86 42 37 43 91 44 85 45
REMARK SMILES IDX 87 46 38 47 90 48 84 49 83 50 39 52 71 53 51 54 70 55 52 56
REMARK SMILES IDX 55 57 69 58 88 59 53 60 54 61 68 63 89 64 56 65 40 66 41 67
REMARK SMILES IDX 49 68 42 69 43 70 47 71 50 72 44 73 45 74 48 75 46 76 72 77
REMARK SMILES IDX 73 78 81 79 74 80 75 81 79 82 82 83 76 84 77 85 80 86 78 87
REMARK SMILES IDX 57 88 58 89 66 90 59 91 60 92 64 93 67 94 61 95 62 96 65 97
REMARK SMILES IDX 63 98
REMARK H PARENT 21 7 10 19 28 32 87 51 55 62
REMARK Flexibility Score: inf
ROOT
ATOM      1  C   UNL A   1      32.434  30.825  26.993  1.00  0.00     0.002 C 
ENDROOT
BRANCH   1   2
ATOM      2  C   UNL A   1      32.218  29.323  27.159  1.00  0.00     0.021 C 
BRANCH   2   3
ATOM      3  C   UNL A   1      33.297  28.362  26.681  1.00  0.00     0.116 C 
BRANCH   3   4
ATOM      4  N   UNL A   1      33.890  28.618  25.386  1.00  0.00    -0.352 N 
ATOM      5  C   UNL A   1      33.452  28.266  24.125  1.00  0.00     0.256 C 
ATOM      6  O   UNL A   1      34.025  28.742  23.148  1.00  0.00    -0.269 OA
ATOM      7  H   UNL A   1      34.736  29.122  25.408  1.00  0.00     0.163 HD
BRANCH   5   8
ATOM      8  C   UNL A   1      32.362  27.325  23.933  1.00  0.00     0.101 A 
ATOM      9  C   UNL A   1      30.215  28.851  23.535  1.00  0.00     0.088 C 
ATOM     10  C   UNL A   1      31.029  27.621  23.663  1.00  0.00     0.115 A 
ATOM     11  O   UNL A   1      30.322  26.487  23.422  1.00  0.00    -0.464 OA
ATOM     12  C   UNL A   1      31.185  25.445  23.479  1.00  0.00     0.122 A 
ATOM     13  C   UNL A   1      32.446  25.891  23.833  1.00  0.00     0.143 A 
ATOM     14  C   UNL A   1      30.609  24.129  23.126  1.00  0.00     0.089 C 
BRANCH  13  15
ATOM     15  S   UNL A   1      33.749  24.787  24.030  1.00  0.00     0.279 S 
ATOM     16  O   UNL A   1      34.347  24.709  22.739  1.00  0.00    -0.200 OA
ATOM     17  O   UNL A   1      34.489  25.401  25.142  1.00  0.00    -0.200 OA
BRANCH  15  18
ATOM     18  N   UNL A   1      33.453  23.261  24.559  1.00  0.00    -0.216 N 
ATOM     19  H   UNL A   1      33.278  22.594  23.855  1.00  0.00     0.202 HD
BRANCH  18  20
ATOM     20  N   UNL A   1      33.414  22.781  25.859  1.00  0.00    -0.256 N 
ATOM     21  C   UNL A   1      32.519  23.026  26.875  1.00  0.00     0.038 A 
ATOM     22  C   UNL A   1      34.372  21.881  26.284  1.00  0.00     0.038 A 
ATOM     23  C   UNL A   1      31.254  23.798  26.786  1.00  0.00     0.067 C 
ATOM     24  C   UNL A   1      32.996  22.357  27.993  1.00  0.00     0.025 A 
ATOM     25  C   UNL A   1      34.161  21.657  27.629  1.00  0.00     0.025 A 
ATOM     26  C   UNL A   1      35.485  21.358  25.438  1.00  0.00     0.067 C 
ENDBRANCH  18  20
ENDBRANCH  15  18
ENDBRANCH  13  15
ENDBRANCH   5   8
ENDBRANCH   3   4
ENDBRANCH   2   3
ENDBRANCH   1   2
BRANCH   1  27
ATOM     27  C   UNL A   1      33.684  31.475  27.596  1.00  0.00     0.002 C 
BRANCH  27  28
ATOM     28  C   UNL A   1      33.671  32.951  28.057  1.00  0.00     0.021 C 
BRANCH  28  29
ATOM     29  C   UNL A   1      34.776  33.471  29.003  1.00  0.00     0.116 C 
BRANCH  29  30
ATOM     30  N   UNL A   1      34.835  32.800  30.289  1.00  0.00    -0.352 N 
ATOM     31  C   UNL A   1      35.748  31.878  30.775  1.00  0.00     0.251 C 
ATOM     32  H   UNL A   1      34.112  33.037  30.914  1.00  0.00     0.163 HD
ATOM     33  O   UNL A   1      35.678  31.579  31.967  1.00  0.00    -0.269 OA
BRANCH  31  34
ATOM     34  C   UNL A   1      36.754  31.150  29.913  1.00  0.00     0.039 A 
ATOM     35  C   UNL A   1      36.432  29.868  29.486  1.00  0.00     0.014 A 
ATOM     36  C   UNL A   1      38.109  31.515  29.790  1.00  0.00     0.014 A 
ATOM     37  C   UNL A   1      37.419  29.009  28.909  1.00  0.00     0.010 A 
ATOM     38  C   UNL A   1      39.129  30.606  29.267  1.00  0.00     0.010 A 
ATOM     39  C   UNL A   1      38.828  29.301  28.819  1.00  0.00    -0.014 A 
BRANCH  39  40
ATOM     40  C   UNL A   1      39.811  28.019  28.840  1.00  0.00     0.031 A 
ATOM     41  C   UNL A   1      40.693  28.333  30.004  1.00  0.00     0.074 A 
ATOM     42  C   UNL A   1      40.172  26.856  28.150  1.00  0.00     0.049 A 
ATOM     43  N   UNL A   1      41.357  29.457  30.041  1.00  0.00    -0.248 NA
ATOM     44  C   UNL A   1      40.568  27.653  31.295  1.00  0.00     0.031 C 
ATOM     45  C   UNL A   1      39.652  26.369  26.862  1.00  0.00     0.029 A 
ATOM     46  N   UNL A   1      41.107  25.799  28.439  1.00  0.00    -0.354 N 
ATOM     47  C   UNL A   1      42.018  29.452  31.241  1.00  0.00     0.074 A 
ATOM     48  C   UNL A   1      41.284  28.492  32.052  1.00  0.00     0.031 C 
ATOM     49  C   UNL A   1      40.135  25.127  26.549  1.00  0.00     0.029 A 
ATOM     50  C   UNL A   1      41.085  24.651  27.557  1.00  0.00     0.049 A 
ATOM     51  H   UNL A   1      41.731  25.854  29.199  1.00  0.00     0.167 HD
ATOM     52  C   UNL A   1      43.369  29.630  31.155  1.00  0.00     0.037 A 
ATOM     53  C   UNL A   1      41.805  23.452  27.563  1.00  0.00     0.037 A 
ATOM     54  C   UNL A   1      44.101  28.411  31.363  1.00  0.00     0.049 A 
ATOM     55  C   UNL A   1      43.033  23.683  28.330  1.00  0.00     0.074 A 
ATOM     56  C   UNL A   1      43.943  27.336  32.216  1.00  0.00     0.029 A 
ATOM     57  N   UNL A   1      44.881  27.963  30.321  1.00  0.00    -0.354 N 
ATOM     58  N   UNL A   1      44.055  24.270  27.790  1.00  0.00    -0.248 NA
ATOM     59  C   UNL A   1      43.260  23.141  29.665  1.00  0.00     0.031 C 
ATOM     60  C   UNL A   1      44.119  26.205  31.389  1.00  0.00     0.029 A 
ATOM     61  C   UNL A   1      44.730  26.602  30.206  1.00  0.00     0.049 A 
ATOM     62  H   UNL A   1      45.453  28.526  29.752  1.00  0.00     0.167 HD
ATOM     63  C   UNL A   1      44.790  24.645  28.862  1.00  0.00     0.074 A 
ATOM     64  C   UNL A   1      44.451  23.698  29.907  1.00  0.00     0.031 C 
ATOM     65  C   UNL A   1      45.030  25.975  28.945  1.00  0.00     0.037 A 
BRANCH  52  66
ATOM     66  C   UNL A   1      43.777  30.688  30.167  1.00  0.00     0.064 A 
ATOM     67  C   UNL A   1      44.179  31.942  30.630  1.00  0.00     0.173 A 
ATOM     68  C   UNL A   1      43.673  30.514  28.769  1.00  0.00     0.173 A 
ATOM     69  F   UNL A   1      44.373  32.144  31.942  1.00  0.00    -0.203 F 
ATOM     70  C   UNL A   1      44.399  32.995  29.740  1.00  0.00     0.198 A 
ATOM     71  C   UNL A   1      43.821  31.580  27.893  1.00  0.00     0.198 A 
ATOM     72  F   UNL A   1      43.445  29.298  28.243  1.00  0.00    -0.203 F 
ATOM     73  F   UNL A   1      44.823  34.179  30.200  1.00  0.00    -0.200 F 
ATOM     74  C   UNL A   1      44.181  32.823  28.380  1.00  0.00     0.200 A 
ATOM     75  F   UNL A   1      43.628  31.397  26.578  1.00  0.00    -0.200 F 
ATOM     76  F   UNL A   1      44.350  33.849  27.533  1.00  0.00    -0.200 F 
ENDBRANCH  52  66
BRANCH  53  77
ATOM     77  C   UNL A   1      41.916  22.034  26.922  1.00  0.00     0.064 A 
ATOM     78  C   UNL A   1      42.767  21.792  25.782  1.00  0.00     0.173 A 
ATOM     79  C   UNL A   1      41.591  20.866  27.623  1.00  0.00     0.173 A 
ATOM     80  F   UNL A   1      43.138  22.784  24.960  1.00  0.00    -0.203 F 
ATOM     81  C   UNL A   1      43.336  20.546  25.469  1.00  0.00     0.198 A 
ATOM     82  C   UNL A   1      42.128  19.596  27.274  1.00  0.00     0.198 A 
ATOM     83  F   UNL A   1      40.823  20.937  28.717  1.00  0.00    -0.203 F 
ATOM     84  F   UNL A   1      44.233  20.443  24.474  1.00  0.00    -0.200 F 
ATOM     85  C   UNL A   1      43.028  19.446  26.227  1.00  0.00     0.200 A 
ATOM     86  F   UNL A   1      41.825  18.518  28.010  1.00  0.00    -0.200 F 
ATOM     87  F   UNL A   1      43.610  18.263  25.973  1.00  0.00    -0.200 F 
ENDBRANCH  53  77
BRANCH  65  88
ATOM     88  C   UNL A   1      45.373  26.693  27.642  1.00  0.00     0.064 A 
ATOM     89  C   UNL A   1      44.481  27.070  26.604  1.00  0.00     0.173 A 
ATOM     90  C   UNL A   1      46.729  26.949  27.393  1.00  0.00     0.173 A 
ATOM     91  F   UNL A   1      43.149  27.016  26.746  1.00  0.00    -0.203 F 
ATOM     92  C   UNL A   1      44.935  27.557  25.375  1.00  0.00     0.198 A 
ATOM     93  C   UNL A   1      47.173  27.500  26.190  1.00  0.00     0.198 A 
ATOM     94  F   UNL A   1      47.642  26.688  28.341  1.00  0.00    -0.203 F 
ATOM     95  F   UNL A   1      44.061  27.823  24.391  1.00  0.00    -0.200 F 
ATOM     96  C   UNL A   1      46.282  27.773  25.169  1.00  0.00     0.200 A 
ATOM     97  F   UNL A   1      48.476  27.765  26.029  1.00  0.00    -0.200 F 
ATOM     98  F   UNL A   1      46.719  28.266  24.002  1.00  0.00    -0.200 F 
ENDBRANCH  65  88
ENDBRANCH  39  40
ENDBRANCH  31  34
ENDBRANCH  29  30
ENDBRANCH  28  29
ENDBRANCH  27  28
ENDBRANCH   1  27
TORSDOF 16
ENDMDL
