MODEL 1
REMARK VINA RESULT:     -14.0      0.000      0.000
REMARK SMILES O=C(NCCCCCCNC(=O)[C@H]1CC=CC[C@H]1C(=O)Nc1ccc(S(=O)(=O)N2CCc3ccccc32)cc1)c1ccc(-c2c3nc(c(-c4c(F)c(F)c(F)c(F)c4F)c4ccc([nH]4)c(-c4c(F)c(F)c(F)c(F)c4F)c4nc(c(-c5c(F)c(F)c(F)c(F)c5F)c5ccc2[nH]5)C=C4)C=C3)cc1
REMARK SMILES IDX 7 1 6 2 5 3 4 4 3 5 1 6 2 7 40 9 41 10 102 11 42 12 101 13
REMARK SMILES IDX 43 14 44 15 45 16 95 17 46 18 100 19 94 20 96 21 47 22 99 23
REMARK SMILES IDX 93 24 92 25 48 27 80 28 60 29 79 30 61 31 64 32 78 33 97 34
REMARK SMILES IDX 62 35 63 36 77 38 98 39 65 40 49 41 50 42 58 43 51 44 52 45
REMARK SMILES IDX 56 46 59 47 53 48 54 49 57 50 55 51 81 52 82 53 90 54 83 55
REMARK SMILES IDX 84 56 88 57 91 58 85 59 86 60 89 61 87 62 66 63 67 64 75 65
REMARK SMILES IDX 68 66 69 67 73 68 76 69 70 70 71 71 74 72 72 73 8 74 9 75
REMARK SMILES IDX 10 76 11 77 12 79 13 80 14 81 18 82 15 83 17 84 16 85 19 86
REMARK SMILES IDX 20 87 21 88 22 90 23 91 39 92 24 93 38 94 25 95 26 96 27 97
REMARK SMILES IDX 28 98 29 99 30 100 37 101 31 102 32 103 36 104 33 105 35 106
REMARK SMILES IDX 34 107
REMARK H PARENT 3 8 96 26 64 37 10 78 21 89
REMARK Flexibility Score: inf
ROOT
ATOM      1  C   UNL A   1      32.939  30.055  26.930  1.00  0.00     0.002 C 
ENDROOT
BRANCH   1   2
ATOM      2  C   UNL A   1      31.583  30.644  26.526  1.00  0.00     0.002 C 
BRANCH   2   3
ATOM      3  C   UNL A   1      31.455  32.160  26.599  1.00  0.00     0.021 C 
BRANCH   3   4
ATOM      4  C   UNL A   1      32.632  32.845  27.259  1.00  0.00     0.116 C 
BRANCH   4   5
ATOM      5  N   UNL A   1      32.332  34.207  27.663  1.00  0.00    -0.352 N 
ATOM      6  O   UNL A   1      32.556  36.039  28.975  1.00  0.00    -0.269 OA
ATOM      7  C   UNL A   1      32.963  34.950  28.634  1.00  0.00     0.251 C 
ATOM      8  H   UNL A   1      31.593  34.649  27.189  1.00  0.00     0.163 HD
BRANCH   7   9
ATOM      9  C   UNL A   1      34.155  34.353  29.268  1.00  0.00     0.039 A 
ATOM     10  C   UNL A   1      34.005  33.559  30.409  1.00  0.00     0.014 A 
ATOM     11  C   UNL A   1      35.417  34.642  28.749  1.00  0.00     0.014 A 
ATOM     12  C   UNL A   1      35.128  33.136  31.097  1.00  0.00     0.010 A 
ATOM     13  C   UNL A   1      36.545  34.131  29.388  1.00  0.00     0.010 A 
ATOM     14  C   UNL A   1      36.404  33.375  30.564  1.00  0.00    -0.014 A 
BRANCH  14  15
ATOM     15  C   UNL A   1      37.561  32.670  31.152  1.00  0.00     0.031 A 
ATOM     16  C   UNL A   1      38.233  31.537  30.444  1.00  0.00     0.074 A 
ATOM     17  C   UNL A   1      37.972  33.079  32.368  1.00  0.00     0.049 A 
ATOM     18  N   UNL A   1      39.216  30.781  30.862  1.00  0.00    -0.248 NA
ATOM     19  C   UNL A   1      37.741  31.195  29.100  1.00  0.00     0.031 C 
ATOM     20  C   UNL A   1      37.355  34.165  33.140  1.00  0.00     0.029 A 
ATOM     21  N   UNL A   1      38.990  32.644  33.171  1.00  0.00    -0.354 N 
ATOM     22  C   UNL A   1      39.442  29.858  29.851  1.00  0.00     0.074 A 
ATOM     23  C   UNL A   1      38.493  30.143  28.795  1.00  0.00     0.031 C 
ATOM     24  C   UNL A   1      38.024  34.328  34.287  1.00  0.00     0.029 A 
ATOM     25  C   UNL A   1      39.058  33.308  34.370  1.00  0.00     0.049 A 
ATOM     26  H   UNL A   1      39.612  31.925  32.913  1.00  0.00     0.167 HD
ATOM     27  C   UNL A   1      40.361  28.866  29.824  1.00  0.00     0.037 A 
ATOM     28  C   UNL A   1      39.838  33.089  35.443  1.00  0.00     0.037 A 
ATOM     29  C   UNL A   1      41.313  28.624  30.879  1.00  0.00     0.049 A 
ATOM     30  C   UNL A   1      40.826  31.964  35.384  1.00  0.00     0.074 A 
ATOM     31  C   UNL A   1      42.346  27.704  30.913  1.00  0.00     0.029 A 
ATOM     32  N   UNL A   1      41.339  29.299  32.091  1.00  0.00    -0.354 N 
ATOM     33  N   UNL A   1      41.074  31.137  34.399  1.00  0.00    -0.248 NA
ATOM     34  C   UNL A   1      41.632  31.730  36.588  1.00  0.00     0.031 C 
ATOM     35  C   UNL A   1      42.960  27.783  32.167  1.00  0.00     0.029 A 
ATOM     36  C   UNL A   1      42.342  28.784  32.897  1.00  0.00     0.049 A 
ATOM     37  H   UNL A   1      40.735  30.035  32.341  1.00  0.00     0.167 HD
ATOM     38  C   UNL A   1      42.061  30.282  34.861  1.00  0.00     0.074 A 
ATOM     39  C   UNL A   1      42.392  30.715  36.204  1.00  0.00     0.031 C 
ATOM     40  C   UNL A   1      42.636  29.226  34.236  1.00  0.00     0.037 A 
BRANCH  27  41
ATOM     41  C   UNL A   1      40.386  27.945  28.641  1.00  0.00     0.064 A 
ATOM     42  C   UNL A   1      41.127  28.242  27.488  1.00  0.00     0.173 A 
ATOM     43  C   UNL A   1      39.741  26.701  28.705  1.00  0.00     0.173 A 
ATOM     44  F   UNL A   1      41.755  29.421  27.374  1.00  0.00    -0.203 F 
ATOM     45  C   UNL A   1      41.218  27.326  26.442  1.00  0.00     0.198 A 
ATOM     46  C   UNL A   1      39.851  25.780  27.667  1.00  0.00     0.198 A 
ATOM     47  F   UNL A   1      39.023  26.367  29.789  1.00  0.00    -0.203 F 
ATOM     48  F   UNL A   1      41.920  27.635  25.342  1.00  0.00    -0.200 F 
ATOM     49  C   UNL A   1      40.590  26.092  26.536  1.00  0.00     0.200 A 
ATOM     50  F   UNL A   1      39.253  24.585  27.766  1.00  0.00    -0.200 F 
ATOM     51  F   UNL A   1      40.699  25.204  25.539  1.00  0.00    -0.200 F 
ENDBRANCH  27  41
BRANCH  28  52
ATOM     52  C   UNL A   1      39.664  33.914  36.664  1.00  0.00     0.064 A 
ATOM     53  C   UNL A   1      40.304  35.152  36.799  1.00  0.00     0.173 A 
ATOM     54  C   UNL A   1      38.840  33.486  37.717  1.00  0.00     0.173 A 
ATOM     55  F   UNL A   1      41.112  35.597  35.826  1.00  0.00    -0.203 F 
ATOM     56  C   UNL A   1      40.143  35.922  37.950  1.00  0.00     0.198 A 
ATOM     57  C   UNL A   1      38.654  34.271  38.852  1.00  0.00     0.198 A 
ATOM     58  F   UNL A   1      38.197  32.312  37.633  1.00  0.00    -0.203 F 
ATOM     59  F   UNL A   1      40.802  37.081  38.074  1.00  0.00    -0.200 F 
ATOM     60  C   UNL A   1      39.313  35.483  38.972  1.00  0.00     0.200 A 
ATOM     61  F   UNL A   1      37.834  33.853  39.825  1.00  0.00    -0.200 F 
ATOM     62  F   UNL A   1      39.154  36.228  40.074  1.00  0.00    -0.200 F 
ENDBRANCH  28  52
BRANCH  40  63
ATOM     63  C   UNL A   1      43.671  28.471  35.011  1.00  0.00     0.064 A 
ATOM     64  C   UNL A   1      45.024  28.838  34.963  1.00  0.00     0.173 A 
ATOM     65  C   UNL A   1      43.305  27.391  35.826  1.00  0.00     0.173 A 
ATOM     66  F   UNL A   1      45.422  29.849  34.177  1.00  0.00    -0.203 F 
ATOM     67  C   UNL A   1      45.978  28.134  35.691  1.00  0.00     0.198 A 
ATOM     68  C   UNL A   1      44.259  26.709  36.575  1.00  0.00     0.198 A 
ATOM     69  F   UNL A   1      42.022  27.006  35.904  1.00  0.00    -0.203 F 
ATOM     70  F   UNL A   1      47.272  28.470  35.595  1.00  0.00    -0.200 F 
ATOM     71  C   UNL A   1      45.594  27.075  36.502  1.00  0.00     0.200 A 
ATOM     72  F   UNL A   1      43.885  25.694  37.367  1.00  0.00    -0.200 F 
ATOM     73  F   UNL A   1      46.513  26.404  37.207  1.00  0.00    -0.200 F 
ENDBRANCH  40  63
ENDBRANCH  14  15
ENDBRANCH   7   9
ENDBRANCH   4   5
ENDBRANCH   3   4
ENDBRANCH   2   3
ENDBRANCH   1   2
BRANCH   1  74
ATOM     74  C   UNL A   1      32.888  28.610  27.428  1.00  0.00     0.021 C 
BRANCH  74  75
ATOM     75  C   UNL A   1      32.590  27.593  26.336  1.00  0.00     0.116 C 
BRANCH  75  76
ATOM     76  N   UNL A   1      31.385  26.852  26.595  1.00  0.00    -0.356 N 
ATOM     77  C   UNL A   1      30.590  26.112  25.797  1.00  0.00     0.224 C 
ATOM     78  H   UNL A   1      31.085  26.892  27.531  1.00  0.00     0.163 HD
ATOM     79  O   UNL A   1      29.669  25.519  26.384  1.00  0.00    -0.275 OA
BRANCH  77  80
ATOM     80  C   UNL A   1      30.667  25.984  24.271  1.00  0.00     0.095 C 
ATOM     81  C   UNL A   1      29.191  25.966  23.802  1.00  0.00     0.041 C 
ATOM     82  C   UNL A   1      31.478  26.847  23.294  1.00  0.00     0.095 C 
ATOM     83  C   UNL A   1      28.633  27.355  23.718  1.00  0.00    -0.030 C 
ATOM     84  C   UNL A   1      30.837  28.216  22.923  1.00  0.00     0.041 C 
ATOM     85  C   UNL A   1      29.392  28.381  23.317  1.00  0.00    -0.030 C 
BRANCH  82  86
ATOM     86  C   UNL A   1      33.004  26.954  23.184  1.00  0.00     0.228 C 
ATOM     87  O   UNL A   1      33.467  28.097  23.003  1.00  0.00    -0.274 OA
ATOM     88  N   UNL A   1      33.968  26.034  23.381  1.00  0.00    -0.326 N 
ATOM     89  H   UNL A   1      34.868  26.425  23.299  1.00  0.00     0.169 HD
BRANCH  88  90
ATOM     90  C   UNL A   1      34.024  24.676  23.670  1.00  0.00     0.041 A 
ATOM     91  C   UNL A   1      34.322  24.358  24.994  1.00  0.00     0.027 A 
ATOM     92  C   UNL A   1      33.839  23.648  22.758  1.00  0.00     0.027 A 
ATOM     93  C   UNL A   1      34.180  23.051  25.445  1.00  0.00     0.024 A 
ATOM     94  C   UNL A   1      33.725  22.319  23.203  1.00  0.00     0.024 A 
ATOM     95  C   UNL A   1      33.798  22.038  24.563  1.00  0.00     0.088 A 
BRANCH  95  96
ATOM     96  S   UNL A   1      33.709  20.393  25.217  1.00  0.00     0.264 S 
ATOM     97  O   UNL A   1      34.869  19.704  24.690  1.00  0.00    -0.201 OA
ATOM     98  O   UNL A   1      33.541  20.570  26.651  1.00  0.00    -0.201 OA
BRANCH  96  99
ATOM     99  N   UNL A   1      32.231  19.592  24.633  1.00  0.00    -0.266 N 
ATOM    100  C   UNL A   1      31.926  19.840  23.166  1.00  0.00     0.140 C 
ATOM    101  C   UNL A   1      32.556  18.171  24.632  1.00  0.00     0.055 A 
ATOM    102  C   UNL A   1      32.787  18.845  22.361  1.00  0.00     0.060 C 
ATOM    103  C   UNL A   1      33.098  17.812  23.397  1.00  0.00    -0.022 A 
ATOM    104  C   UNL A   1      32.725  17.394  25.765  1.00  0.00     0.027 A 
ATOM    105  C   UNL A   1      34.000  16.764  23.318  1.00  0.00     0.006 A 
ATOM    106  C   UNL A   1      33.612  16.323  25.686  1.00  0.00     0.002 A 
ATOM    107  C   UNL A   1      34.282  16.044  24.484  1.00  0.00     0.000 A 
ENDBRANCH  96  99
ENDBRANCH  95  96
ENDBRANCH  88  90
ENDBRANCH  82  86
ENDBRANCH  77  80
ENDBRANCH  75  76
ENDBRANCH  74  75
ENDBRANCH   1  74
TORSDOF 17
ENDMDL
MODEL 2
REMARK VINA RESULT:     -13.8      1.918      5.455
REMARK SMILES O=C(NCCCCCCNC(=O)[C@H]1CC=CC[C@H]1C(=O)Nc1ccc(S(=O)(=O)N2CCc3ccccc32)cc1)c1ccc(-c2c3nc(c(-c4c(F)c(F)c(F)c(F)c4F)c4ccc([nH]4)c(-c4c(F)c(F)c(F)c(F)c4F)c4nc(c(-c5c(F)c(F)c(F)c(F)c5F)c5ccc2[nH]5)C=C4)C=C3)cc1
REMARK SMILES IDX 7 1 6 2 5 3 4 4 3 5 1 6 2 7 40 9 41 10 102 11 42 12 101 13
REMARK SMILES IDX 43 14 44 15 45 16 95 17 46 18 100 19 94 20 96 21 47 22 99 23
REMARK SMILES IDX 93 24 92 25 48 27 80 28 60 29 79 30 61 31 64 32 78 33 97 34
REMARK SMILES IDX 62 35 63 36 77 38 98 39 65 40 49 41 50 42 58 43 51 44 52 45
REMARK SMILES IDX 56 46 59 47 53 48 54 49 57 50 55 51 81 52 82 53 90 54 83 55
REMARK SMILES IDX 84 56 88 57 91 58 85 59 86 60 89 61 87 62 66 63 67 64 75 65
REMARK SMILES IDX 68 66 69 67 73 68 76 69 70 70 71 71 74 72 72 73 8 74 9 75
REMARK SMILES IDX 10 76 11 77 12 79 13 80 14 81 18 82 15 83 17 84 16 85 19 86
REMARK SMILES IDX 20 87 21 88 22 90 23 91 39 92 24 93 38 94 25 95 26 96 27 97
REMARK SMILES IDX 28 98 29 99 30 100 37 101 31 102 32 103 36 104 33 105 35 106
REMARK SMILES IDX 34 107
REMARK H PARENT 3 8 96 26 64 37 10 78 21 89
REMARK Flexibility Score: inf
ROOT
ATOM      1  C   UNL A   1      32.146  28.583  26.299  1.00  0.00     0.002 C 
ENDROOT
BRANCH   1   2
ATOM      2  C   UNL A   1      31.955  29.729  27.299  1.00  0.00     0.002 C 
BRANCH   2   3
ATOM      3  C   UNL A   1      31.727  31.113  26.707  1.00  0.00     0.021 C 
BRANCH   3   4
ATOM      4  C   UNL A   1      32.891  32.062  26.895  1.00  0.00     0.116 C 
BRANCH   4   5
ATOM      5  N   UNL A   1      32.468  33.393  27.292  1.00  0.00    -0.352 N 
ATOM      6  O   UNL A   1      32.505  35.233  28.612  1.00  0.00    -0.269 OA
ATOM      7  C   UNL A   1      33.009  34.183  28.281  1.00  0.00     0.251 C 
ATOM      8  H   UNL A   1      31.707  33.774  26.799  1.00  0.00     0.163 HD
BRANCH   7   9
ATOM      9  C   UNL A   1      34.230  33.684  28.945  1.00  0.00     0.039 A 
ATOM     10  C   UNL A   1      34.120  32.745  29.975  1.00  0.00     0.014 A 
ATOM     11  C   UNL A   1      35.468  34.205  28.572  1.00  0.00     0.014 A 
ATOM     12  C   UNL A   1      35.242  32.401  30.707  1.00  0.00     0.010 A 
ATOM     13  C   UNL A   1      36.612  33.783  29.245  1.00  0.00     0.010 A 
ATOM     14  C   UNL A   1      36.502  32.877  30.314  1.00  0.00    -0.014 A 
BRANCH  14  15
ATOM     15  C   UNL A   1      37.707  32.273  30.919  1.00  0.00     0.031 A 
ATOM     16  C   UNL A   1      38.473  31.189  30.229  1.00  0.00     0.074 A 
ATOM     17  C   UNL A   1      38.075  32.728  32.132  1.00  0.00     0.049 A 
ATOM     18  N   UNL A   1      39.509  30.519  30.663  1.00  0.00    -0.248 NA
ATOM     19  C   UNL A   1      38.020  30.794  28.886  1.00  0.00     0.031 C 
ATOM     20  C   UNL A   1      37.368  33.770  32.888  1.00  0.00     0.029 A 
ATOM     21  N   UNL A   1      39.119  32.384  32.948  1.00  0.00    -0.354 N 
ATOM     22  C   UNL A   1      39.816  29.605  29.664  1.00  0.00     0.074 A 
ATOM     23  C   UNL A   1      38.855  29.802  28.599  1.00  0.00     0.031 C 
ATOM     24  C   UNL A   1      38.013  33.999  34.037  1.00  0.00     0.029 A 
ATOM     25  C   UNL A   1      39.124  33.065  34.139  1.00  0.00     0.049 A 
ATOM     26  H   UNL A   1      39.798  31.714  32.703  1.00  0.00     0.167 HD
ATOM     27  C   UNL A   1      40.811  28.689  29.656  1.00  0.00     0.037 A 
ATOM     28  C   UNL A   1      39.910  32.921  35.220  1.00  0.00     0.037 A 
ATOM     29  C   UNL A   1      41.771  28.535  30.721  1.00  0.00     0.049 A 
ATOM     30  C   UNL A   1      40.985  31.878  35.182  1.00  0.00     0.074 A 
ATOM     31  C   UNL A   1      42.874  27.701  30.773  1.00  0.00     0.029 A 
ATOM     32  N   UNL A   1      41.734  29.224  31.925  1.00  0.00    -0.354 N 
ATOM     33  N   UNL A   1      41.306  31.062  34.208  1.00  0.00    -0.248 NA
ATOM     34  C   UNL A   1      41.797  31.722  36.394  1.00  0.00     0.031 C 
ATOM     35  C   UNL A   1      43.470  27.843  32.030  1.00  0.00     0.029 A 
ATOM     36  C   UNL A   1      42.768  28.800  32.744  1.00  0.00     0.049 A 
ATOM     37  H   UNL A   1      41.071  29.913  32.162  1.00  0.00     0.167 HD
ATOM     38  C   UNL A   1      42.354  30.293  34.687  1.00  0.00     0.074 A 
ATOM     39  C   UNL A   1      42.638  30.766  36.027  1.00  0.00     0.031 C 
ATOM     40  C   UNL A   1      43.016  29.279  34.079  1.00  0.00     0.037 A 
BRANCH  27  41
ATOM     41  C   UNL A   1      40.918  27.760  28.484  1.00  0.00     0.064 A 
ATOM     42  C   UNL A   1      40.166  26.580  28.404  1.00  0.00     0.173 A 
ATOM     43  C   UNL A   1      41.709  28.111  27.380  1.00  0.00     0.173 A 
ATOM     44  F   UNL A   1      39.400  26.195  29.435  1.00  0.00    -0.203 F 
ATOM     45  C   UNL A   1      40.204  25.785  27.261  1.00  0.00     0.198 A 
ATOM     46  C   UNL A   1      41.730  27.325  26.231  1.00  0.00     0.198 A 
ATOM     47  F   UNL A   1      42.444  29.233  27.405  1.00  0.00    -0.203 F 
ATOM     48  F   UNL A   1      39.488  24.651  27.209  1.00  0.00    -0.200 F 
ATOM     49  C   UNL A   1      40.976  26.162  26.172  1.00  0.00     0.200 A 
ATOM     50  F   UNL A   1      42.467  27.699  25.176  1.00  0.00    -0.200 F 
ATOM     51  F   UNL A   1      40.993  25.407  25.064  1.00  0.00    -0.200 F 
ENDBRANCH  27  41
BRANCH  28  52
ATOM     52  C   UNL A   1      39.662  33.744  36.430  1.00  0.00     0.064 A 
ATOM     53  C   UNL A   1      40.242  35.010  36.576  1.00  0.00     0.173 A 
ATOM     54  C   UNL A   1      38.826  33.284  37.460  1.00  0.00     0.173 A 
ATOM     55  F   UNL A   1      41.059  35.486  35.626  1.00  0.00    -0.203 F 
ATOM     56  C   UNL A   1      40.011  35.777  37.717  1.00  0.00     0.198 A 
ATOM     57  C   UNL A   1      38.570  34.066  38.583  1.00  0.00     0.198 A 
ATOM     58  F   UNL A   1      38.239  32.082  37.364  1.00  0.00    -0.203 F 
ATOM     59  F   UNL A   1      40.613  36.966  37.854  1.00  0.00    -0.200 F 
ATOM     60  C   UNL A   1      39.170  35.307  38.715  1.00  0.00     0.200 A 
ATOM     61  F   UNL A   1      37.739  33.616  39.534  1.00  0.00    -0.200 F 
ATOM     62  F   UNL A   1      38.944  36.049  39.807  1.00  0.00    -0.200 F 
ENDBRANCH  28  52
BRANCH  40  63
ATOM     63  C   UNL A   1      44.102  28.618  34.870  1.00  0.00     0.064 A 
ATOM     64  C   UNL A   1      43.844  27.478  35.644  1.00  0.00     0.173 A 
ATOM     65  C   UNL A   1      45.413  29.112  34.832  1.00  0.00     0.173 A 
ATOM     66  F   UNL A   1      42.598  26.986  35.728  1.00  0.00    -0.203 F 
ATOM     67  C   UNL A   1      44.860  26.867  36.371  1.00  0.00     0.198 A 
ATOM     68  C   UNL A   1      46.433  28.480  35.538  1.00  0.00     0.198 A 
ATOM     69  F   UNL A   1      45.707  30.199  34.103  1.00  0.00    -0.203 F 
ATOM     70  F   UNL A   1      44.583  25.807  37.143  1.00  0.00    -0.200 F 
ATOM     71  C   UNL A   1      46.154  27.363  36.312  1.00  0.00     0.200 A 
ATOM     72  F   UNL A   1      47.685  28.953  35.470  1.00  0.00    -0.200 F 
ATOM     73  F   UNL A   1      47.133  26.769  37.007  1.00  0.00    -0.200 F 
ENDBRANCH  40  63
ENDBRANCH  14  15
ENDBRANCH   7   9
ENDBRANCH   4   5
ENDBRANCH   3   4
ENDBRANCH   2   3
ENDBRANCH   1   2
BRANCH   1  74
ATOM     74  C   UNL A   1      33.488  28.587  25.566  1.00  0.00     0.021 C 
BRANCH  74  75
ATOM     75  C   UNL A   1      33.858  27.245  24.953  1.00  0.00     0.116 C 
BRANCH  75  76
ATOM     76  N   UNL A   1      33.513  26.140  25.807  1.00  0.00    -0.356 N 
ATOM     77  C   UNL A   1      33.774  24.821  25.728  1.00  0.00     0.224 C 
ATOM     78  H   UNL A   1      32.985  26.396  26.598  1.00  0.00     0.163 HD
ATOM     79  O   UNL A   1      33.401  24.156  26.710  1.00  0.00    -0.275 OA
BRANCH  77  80
ATOM     80  C   UNL A   1      34.412  24.069  24.553  1.00  0.00     0.095 C 
ATOM     81  C   UNL A   1      35.919  23.992  24.906  1.00  0.00     0.041 C 
ATOM     82  C   UNL A   1      33.983  22.723  23.953  1.00  0.00     0.095 C 
ATOM     83  C   UNL A   1      36.195  22.866  25.856  1.00  0.00    -0.030 C 
ATOM     84  C   UNL A   1      34.463  21.463  24.730  1.00  0.00     0.041 C 
ATOM     85  C   UNL A   1      35.524  21.711  25.771  1.00  0.00    -0.030 C 
BRANCH  82  86
ATOM     86  C   UNL A   1      32.675  22.400  23.220  1.00  0.00     0.228 C 
ATOM     87  O   UNL A   1      32.465  21.197  22.968  1.00  0.00    -0.274 OA
ATOM     88  N   UNL A   1      31.626  23.183  22.904  1.00  0.00    -0.326 N 
ATOM     89  H   UNL A   1      30.899  22.666  22.487  1.00  0.00     0.169 HD
BRANCH  88  90
ATOM     90  C   UNL A   1      31.301  24.529  23.013  1.00  0.00     0.041 A 
ATOM     91  C   UNL A   1      31.917  25.370  22.087  1.00  0.00     0.027 A 
ATOM     92  C   UNL A   1      30.458  25.082  23.965  1.00  0.00     0.027 A 
ATOM     93  C   UNL A   1      31.495  26.688  21.955  1.00  0.00     0.024 A 
ATOM     94  C   UNL A   1      30.051  26.423  23.857  1.00  0.00     0.024 A 
ATOM     95  C   UNL A   1      30.496  27.196  22.790  1.00  0.00     0.088 A 
BRANCH  95  96
ATOM     96  S   UNL A   1      30.074  28.906  22.591  1.00  0.00     0.264 S 
ATOM     97  O   UNL A   1      30.141  29.478  23.919  1.00  0.00    -0.201 OA
ATOM     98  O   UNL A   1      30.949  29.385  21.533  1.00  0.00    -0.201 OA
BRANCH  96  99
ATOM     99  N   UNL A   1      28.411  29.046  21.971  1.00  0.00    -0.266 N 
ATOM    100  C   UNL A   1      27.351  28.475  22.895  1.00  0.00     0.140 C 
ATOM    101  C   UNL A   1      28.116  30.474  22.026  1.00  0.00     0.055 A 
ATOM    102  C   UNL A   1      27.053  29.561  23.950  1.00  0.00     0.060 C 
ATOM    103  C   UNL A   1      27.557  30.791  23.264  1.00  0.00    -0.022 A 
ATOM    104  C   UNL A   1      28.679  31.433  21.203  1.00  0.00     0.027 A 
ATOM    105  C   UNL A   1      27.734  32.057  23.797  1.00  0.00     0.006 A 
ATOM    106  C   UNL A   1      28.839  32.715  21.724  1.00  0.00     0.002 A 
ATOM    107  C   UNL A   1      28.415  33.009  23.030  1.00  0.00     0.000 A 
ENDBRANCH  96  99
ENDBRANCH  95  96
ENDBRANCH  88  90
ENDBRANCH  82  86
ENDBRANCH  77  80
ENDBRANCH  75  76
ENDBRANCH  74  75
ENDBRANCH   1  74
TORSDOF 17
ENDMDL
MODEL 3
REMARK VINA RESULT:     -13.8      5.314     11.259
REMARK SMILES O=C(NCCCCCCNC(=O)[C@H]1CC=CC[C@H]1C(=O)Nc1ccc(S(=O)(=O)N2CCc3ccccc32)cc1)c1ccc(-c2c3nc(c(-c4c(F)c(F)c(F)c(F)c4F)c4ccc([nH]4)c(-c4c(F)c(F)c(F)c(F)c4F)c4nc(c(-c5c(F)c(F)c(F)c(F)c5F)c5ccc2[nH]5)C=C4)C=C3)cc1
REMARK SMILES IDX 7 1 6 2 5 3 4 4 3 5 1 6 2 7 40 9 41 10 102 11 42 12 101 13
REMARK SMILES IDX 43 14 44 15 45 16 95 17 46 18 100 19 94 20 96 21 47 22 99 23
REMARK SMILES IDX 93 24 92 25 48 27 80 28 60 29 79 30 61 31 64 32 78 33 97 34
REMARK SMILES IDX 62 35 63 36 77 38 98 39 65 40 49 41 50 42 58 43 51 44 52 45
REMARK SMILES IDX 56 46 59 47 53 48 54 49 57 50 55 51 81 52 82 53 90 54 83 55
REMARK SMILES IDX 84 56 88 57 91 58 85 59 86 60 89 61 87 62 66 63 67 64 75 65
REMARK SMILES IDX 68 66 69 67 73 68 76 69 70 70 71 71 74 72 72 73 8 74 9 75
REMARK SMILES IDX 10 76 11 77 12 79 13 80 14 81 18 82 15 83 17 84 16 85 19 86
REMARK SMILES IDX 20 87 21 88 22 90 23 91 39 92 24 93 38 94 25 95 26 96 27 97
REMARK SMILES IDX 28 98 29 99 30 100 37 101 31 102 32 103 36 104 33 105 35 106
REMARK SMILES IDX 34 107
REMARK H PARENT 3 8 96 26 64 37 10 78 21 89
REMARK Flexibility Score: inf
ROOT
ATOM      1  C   UNL A   1      37.899  22.118  25.458  1.00  0.00     0.002 C 
ENDROOT
BRANCH   1   2
ATOM      2  C   UNL A   1      37.510  20.808  24.763  1.00  0.00     0.002 C 
BRANCH   2   3
ATOM      3  C   UNL A   1      38.402  19.605  25.038  1.00  0.00     0.021 C 
BRANCH   3   4
ATOM      4  C   UNL A   1      39.533  19.887  26.003  1.00  0.00     0.116 C 
BRANCH   4   5
ATOM      5  N   UNL A   1      40.589  18.893  25.932  1.00  0.00    -0.352 N 
ATOM      6  O   UNL A   1      42.749  18.215  25.876  1.00  0.00    -0.269 OA
ATOM      7  C   UNL A   1      41.942  19.098  26.070  1.00  0.00     0.251 C 
ATOM      8  H   UNL A   1      40.304  17.966  25.767  1.00  0.00     0.163 HD
BRANCH   7   9
ATOM      9  C   UNL A   1      42.380  20.457  26.445  1.00  0.00     0.039 A 
ATOM     10  C   UNL A   1      42.878  21.317  25.462  1.00  0.00     0.014 A 
ATOM     11  C   UNL A   1      42.345  20.836  27.787  1.00  0.00     0.014 A 
ATOM     12  C   UNL A   1      43.440  22.525  25.835  1.00  0.00     0.010 A 
ATOM     13  C   UNL A   1      42.821  22.095  28.148  1.00  0.00     0.010 A 
ATOM     14  C   UNL A   1      43.368  22.944  27.172  1.00  0.00    -0.014 A 
BRANCH  14  15
ATOM     15  C   UNL A   1      43.705  24.346  27.494  1.00  0.00     0.031 A 
ATOM     16  C   UNL A   1      42.658  25.330  27.911  1.00  0.00     0.074 A 
ATOM     17  C   UNL A   1      44.997  24.707  27.374  1.00  0.00     0.049 A 
ATOM     18  N   UNL A   1      42.791  26.606  28.162  1.00  0.00    -0.248 NA
ATOM     19  C   UNL A   1      41.283  24.828  28.058  1.00  0.00     0.031 C 
ATOM     20  C   UNL A   1      46.082  23.812  26.950  1.00  0.00     0.029 A 
ATOM     21  N   UNL A   1      45.625  25.903  27.591  1.00  0.00    -0.354 N 
ATOM     22  C   UNL A   1      41.519  27.069  28.468  1.00  0.00     0.074 A 
ATOM     23  C   UNL A   1      40.622  25.937  28.369  1.00  0.00     0.031 C 
ATOM     24  C   UNL A   1      47.240  24.482  26.965  1.00  0.00     0.029 A 
ATOM     25  C   UNL A   1      46.970  25.868  27.316  1.00  0.00     0.049 A 
ATOM     26  H   UNL A   1      45.158  26.708  27.912  1.00  0.00     0.167 HD
ATOM     27  C   UNL A   1      41.151  28.329  28.794  1.00  0.00     0.037 A 
ATOM     28  C   UNL A   1      47.881  26.856  27.301  1.00  0.00     0.037 A 
ATOM     29  C   UNL A   1      42.073  29.430  28.913  1.00  0.00     0.049 A 
ATOM     30  C   UNL A   1      47.428  28.243  27.645  1.00  0.00     0.074 A 
ATOM     31  C   UNL A   1      41.819  30.726  29.326  1.00  0.00     0.029 A 
ATOM     32  N   UNL A   1      43.425  29.367  28.604  1.00  0.00    -0.354 N 
ATOM     33  N   UNL A   1      46.235  28.657  27.993  1.00  0.00    -0.248 NA
ATOM     34  C   UNL A   1      48.441  29.303  27.579  1.00  0.00     0.031 C 
ATOM     35  C   UNL A   1      43.004  31.461  29.214  1.00  0.00     0.029 A 
ATOM     36  C   UNL A   1      44.007  30.613  28.775  1.00  0.00     0.049 A 
ATOM     37  H   UNL A   1      43.900  28.557  28.307  1.00  0.00     0.167 HD
ATOM     38  C   UNL A   1      46.349  30.024  28.186  1.00  0.00     0.074 A 
ATOM     39  C   UNL A   1      47.738  30.363  27.951  1.00  0.00     0.031 C 
ATOM     40  C   UNL A   1      45.390  30.922  28.518  1.00  0.00     0.037 A 
BRANCH  27  41
ATOM     41  C   UNL A   1      39.697  28.611  29.031  1.00  0.00     0.064 A 
ATOM     42  C   UNL A   1      39.100  28.415  30.284  1.00  0.00     0.173 A 
ATOM     43  C   UNL A   1      38.918  29.182  28.013  1.00  0.00     0.173 A 
ATOM     44  F   UNL A   1      39.799  27.866  31.288  1.00  0.00    -0.203 F 
ATOM     45  C   UNL A   1      37.775  28.781  30.508  1.00  0.00     0.198 A 
ATOM     46  C   UNL A   1      37.600  29.564  28.246  1.00  0.00     0.198 A 
ATOM     47  F   UNL A   1      39.445  29.393  26.797  1.00  0.00    -0.203 F 
ATOM     48  F   UNL A   1      37.217  28.573  31.710  1.00  0.00    -0.200 F 
ATOM     49  C   UNL A   1      37.029  29.364  29.494  1.00  0.00     0.200 A 
ATOM     50  F   UNL A   1      36.886  30.138  27.267  1.00  0.00    -0.200 F 
ATOM     51  F   UNL A   1      35.761  29.735  29.718  1.00  0.00    -0.200 F 
ENDBRANCH  27  41
BRANCH  28  52
ATOM     52  C   UNL A   1      49.278  26.569  26.893  1.00  0.00     0.064 A 
ATOM     53  C   UNL A   1      50.255  26.238  27.840  1.00  0.00     0.173 A 
ATOM     54  C   UNL A   1      49.661  26.603  25.543  1.00  0.00     0.173 A 
ATOM     55  F   UNL A   1      49.941  26.206  29.143  1.00  0.00    -0.203 F 
ATOM     56  C   UNL A   1      51.568  25.974  27.453  1.00  0.00     0.198 A 
ATOM     57  C   UNL A   1      50.964  26.307  25.156  1.00  0.00     0.198 A 
ATOM     58  F   UNL A   1      48.760  26.905  24.596  1.00  0.00    -0.203 F 
ATOM     59  F   UNL A   1      52.496  25.705  28.383  1.00  0.00    -0.200 F 
ATOM     60  C   UNL A   1      51.919  26.002  26.112  1.00  0.00     0.200 A 
ATOM     61  F   UNL A   1      51.293  26.313  23.857  1.00  0.00    -0.200 F 
ATOM     62  F   UNL A   1      53.180  25.740  25.742  1.00  0.00    -0.200 F 
ENDBRANCH  28  52
BRANCH  40  63
ATOM     63  C   UNL A   1      45.821  32.351  28.633  1.00  0.00     0.064 A 
ATOM     64  C   UNL A   1      45.743  33.223  27.539  1.00  0.00     0.173 A 
ATOM     65  C   UNL A   1      46.290  32.858  29.854  1.00  0.00     0.173 A 
ATOM     66  F   UNL A   1      45.323  32.775  26.346  1.00  0.00    -0.203 F 
ATOM     67  C   UNL A   1      46.140  34.552  27.657  1.00  0.00     0.198 A 
ATOM     68  C   UNL A   1      46.658  34.194  29.975  1.00  0.00     0.198 A 
ATOM     69  F   UNL A   1      46.380  32.061  30.929  1.00  0.00    -0.203 F 
ATOM     70  F   UNL A   1      46.103  35.357  26.586  1.00  0.00    -0.200 F 
ATOM     71  C   UNL A   1      46.590  35.038  28.876  1.00  0.00     0.200 A 
ATOM     72  F   UNL A   1      47.082  34.666  31.156  1.00  0.00    -0.200 F 
ATOM     73  F   UNL A   1      46.966  36.318  28.990  1.00  0.00    -0.200 F 
ENDBRANCH  40  63
ENDBRANCH  14  15
ENDBRANCH   7   9
ENDBRANCH   4   5
ENDBRANCH   3   4
ENDBRANCH   2   3
ENDBRANCH   1   2
BRANCH   1  74
ATOM     74  C   UNL A   1      36.974  23.300  25.165  1.00  0.00     0.021 C 
BRANCH  74  75
ATOM     75  C   UNL A   1      35.519  22.907  24.964  1.00  0.00     0.116 C 
BRANCH  75  76
ATOM     76  N   UNL A   1      35.099  23.047  23.595  1.00  0.00    -0.356 N 
ATOM     77  C   UNL A   1      33.882  23.036  23.017  1.00  0.00     0.224 C 
ATOM     78  H   UNL A   1      35.841  23.175  22.961  1.00  0.00     0.163 HD
ATOM     79  O   UNL A   1      33.881  23.289  21.800  1.00  0.00    -0.275 OA
BRANCH  77  80
ATOM     80  C   UNL A   1      32.543  22.688  23.679  1.00  0.00     0.095 C 
ATOM     81  C   UNL A   1      31.829  21.764  22.660  1.00  0.00     0.041 C 
ATOM     82  C   UNL A   1      32.307  22.132  25.089  1.00  0.00     0.095 C 
ATOM     83  C   UNL A   1      32.322  20.353  22.773  1.00  0.00    -0.030 C 
ATOM     84  C   UNL A   1      32.529  20.600  25.248  1.00  0.00     0.041 C 
ATOM     85  C   UNL A   1      32.642  19.826  23.961  1.00  0.00    -0.030 C 
BRANCH  82  86
ATOM     86  C   UNL A   1      32.585  22.827  26.428  1.00  0.00     0.228 C 
ATOM     87  O   UNL A   1      33.090  22.121  27.324  1.00  0.00    -0.274 OA
ATOM     88  N   UNL A   1      32.500  24.124  26.781  1.00  0.00    -0.326 N 
ATOM     89  H   UNL A   1      32.811  24.271  27.704  1.00  0.00     0.169 HD
BRANCH  88  90
ATOM     90  C   UNL A   1      32.089  25.309  26.183  1.00  0.00     0.041 A 
ATOM     91  C   UNL A   1      33.051  25.951  25.405  1.00  0.00     0.027 A 
ATOM     92  C   UNL A   1      30.839  25.893  26.324  1.00  0.00     0.027 A 
ATOM     93  C   UNL A   1      32.687  27.010  24.582  1.00  0.00     0.024 A 
ATOM     94  C   UNL A   1      30.474  26.985  25.517  1.00  0.00     0.024 A 
ATOM     95  C   UNL A   1      31.371  27.478  24.575  1.00  0.00     0.088 A 
BRANCH  95  96
ATOM     96  S   UNL A   1      31.019  28.876  23.544  1.00  0.00     0.264 S 
ATOM     97  O   UNL A   1      30.509  29.896  24.436  1.00  0.00    -0.201 OA
ATOM     98  O   UNL A   1      32.241  29.097  22.787  1.00  0.00    -0.201 OA
BRANCH  96  99
ATOM     99  N   UNL A   1      29.763  28.448  22.357  1.00  0.00    -0.266 N 
ATOM    100  C   UNL A   1      28.707  27.493  22.885  1.00  0.00     0.140 C 
ATOM    101  C   UNL A   1      28.992  29.672  22.178  1.00  0.00     0.055 A 
ATOM    102  C   UNL A   1      27.686  28.348  23.662  1.00  0.00     0.060 C 
ATOM    103  C   UNL A   1      27.944  29.710  23.098  1.00  0.00    -0.022 A 
ATOM    104  C   UNL A   1      29.446  30.809  21.531  1.00  0.00     0.027 A 
ATOM    105  C   UNL A   1      27.463  30.928  23.546  1.00  0.00     0.006 A 
ATOM    106  C   UNL A   1      28.948  32.037  21.959  1.00  0.00     0.002 A 
ATOM    107  C   UNL A   1      28.000  32.096  22.995  1.00  0.00     0.000 A 
ENDBRANCH  96  99
ENDBRANCH  95  96
ENDBRANCH  88  90
ENDBRANCH  82  86
ENDBRANCH  77  80
ENDBRANCH  75  76
ENDBRANCH  74  75
ENDBRANCH   1  74
TORSDOF 17
ENDMDL
