MODEL 1
REMARK VINA RESULT:     -11.2      0.000      0.000
REMARK SMILES O=C(NCCCCCCNC(=O)[C@@H](CCCCO)c1cccc(Cl)c1)c1ccc(-c2c3nc(c(-c4c(F)c(F)c(F)c(F)c4F)c4ccc([nH]4)c(-c4c(F)c(F)c(F)c(F)c4F)c4nc(c(-c5c(F)c(F)c(F)c(F)c5F)c5ccc2[nH]5)C=C4)C=C3)cc1
REMARK SMILES IDX 8 1 7 2 6 3 5 4 4 5 3 6 1 7 2 8 26 10 27 11 88 12 28 13
REMARK SMILES IDX 87 14 29 15 30 16 31 17 81 18 32 19 86 20 80 21 82 22 33 23
REMARK SMILES IDX 85 24 79 25 78 26 34 28 66 29 46 30 65 31 47 32 50 33 64 34
REMARK SMILES IDX 83 35 48 36 49 37 63 39 84 40 51 41 35 42 36 43 44 44 37 45
REMARK SMILES IDX 38 46 42 47 45 48 39 49 40 50 43 51 41 52 67 53 68 54 76 55
REMARK SMILES IDX 69 56 70 57 74 58 77 59 71 60 72 61 75 62 73 63 52 64 53 65
REMARK SMILES IDX 61 66 54 67 55 68 59 69 62 70 56 71 57 72 60 73 58 74 9 75
REMARK SMILES IDX 10 76 11 77 12 79 13 80 14 81 15 82 16 83 17 84 18 85 19 87
REMARK SMILES IDX 20 88 25 89 21 90 23 91 22 92 24 93
REMARK H PARENT 3 9 82 27 50 38 10 78 18 86
REMARK Flexibility Score: inf
ROOT
ATOM      1  C   UNL A   1      31.812  28.596  27.408  1.00  0.00     0.021 C 
ENDROOT
BRANCH   1   2
ATOM      2  C   UNL A   1      32.433  29.903  26.911  1.00  0.00     0.002 C 
BRANCH   2   3
ATOM      3  C   UNL A   1      31.489  30.800  26.104  1.00  0.00     0.002 C 
BRANCH   3   4
ATOM      4  C   UNL A   1      31.331  32.225  26.636  1.00  0.00     0.021 C 
BRANCH   4   5
ATOM      5  C   UNL A   1      32.613  32.848  27.177  1.00  0.00     0.116 C 
BRANCH   5   6
ATOM      6  N   UNL A   1      32.420  34.228  27.600  1.00  0.00    -0.352 N 
ATOM      7  O   UNL A   1      32.581  36.019  28.960  1.00  0.00    -0.269 OA
ATOM      8  C   UNL A   1      33.019  34.930  28.617  1.00  0.00     0.251 C 
ATOM      9  H   UNL A   1      31.758  34.734  27.076  1.00  0.00     0.163 HD
BRANCH   8  10
ATOM     10  C   UNL A   1      34.189  34.353  29.313  1.00  0.00     0.039 A 
ATOM     11  C   UNL A   1      35.485  34.703  28.929  1.00  0.00     0.014 A 
ATOM     12  C   UNL A   1      33.987  33.454  30.363  1.00  0.00     0.014 A 
ATOM     13  C   UNL A   1      36.570  34.029  29.475  1.00  0.00     0.010 A 
ATOM     14  C   UNL A   1      35.086  32.850  30.980  1.00  0.00     0.010 A 
ATOM     15  C   UNL A   1      36.385  33.100  30.511  1.00  0.00    -0.014 A 
BRANCH  15  16
ATOM     16  C   UNL A   1      37.572  32.427  31.101  1.00  0.00     0.031 A 
ATOM     17  C   UNL A   1      38.049  32.766  32.485  1.00  0.00     0.074 A 
ATOM     18  C   UNL A   1      38.195  31.470  30.386  1.00  0.00     0.049 A 
ATOM     19  N   UNL A   1      39.040  32.247  33.167  1.00  0.00    -0.248 NA
ATOM     20  C   UNL A   1      37.329  33.833  33.197  1.00  0.00     0.031 C 
ATOM     21  C   UNL A   1      37.828  31.060  29.028  1.00  0.00     0.029 A 
ATOM     22  N   UNL A   1      39.249  30.653  30.705  1.00  0.00    -0.354 N 
ATOM     23  C   UNL A   1      39.078  32.939  34.372  1.00  0.00     0.074 A 
ATOM     24  C   UNL A   1      38.029  33.934  34.317  1.00  0.00     0.031 C 
ATOM     25  C   UNL A   1      38.603  30.033  28.654  1.00  0.00     0.029 A 
ATOM     26  C   UNL A   1      39.564  29.754  29.715  1.00  0.00     0.049 A 
ATOM     27  H   UNL A   1      39.732  30.704  31.561  1.00  0.00     0.167 HD
ATOM     28  C   UNL A   1      39.908  32.752  35.428  1.00  0.00     0.037 A 
ATOM     29  C   UNL A   1      40.527  28.817  29.662  1.00  0.00     0.037 A 
ATOM     30  C   UNL A   1      40.937  31.744  35.482  1.00  0.00     0.049 A 
ATOM     31  C   UNL A   1      41.443  28.647  30.841  1.00  0.00     0.074 A 
ATOM     32  C   UNL A   1      41.801  31.447  36.522  1.00  0.00     0.029 A 
ATOM     33  N   UNL A   1      41.245  30.872  34.447  1.00  0.00    -0.354 N 
ATOM     34  N   UNL A   1      41.441  29.277  31.990  1.00  0.00    -0.248 NA
ATOM     35  C   UNL A   1      42.495  27.631  30.713  1.00  0.00     0.031 C 
ATOM     36  C   UNL A   1      42.669  30.435  36.096  1.00  0.00     0.029 A 
ATOM     37  C   UNL A   1      42.304  30.055  34.815  1.00  0.00     0.049 A 
ATOM     38  H   UNL A   1      40.782  30.839  33.579  1.00  0.00     0.167 HD
ATOM     39  C   UNL A   1      42.466  28.712  32.735  1.00  0.00     0.074 A 
ATOM     40  C   UNL A   1      43.059  27.678  31.912  1.00  0.00     0.031 C 
ATOM     41  C   UNL A   1      42.877  29.021  33.990  1.00  0.00     0.037 A 
BRANCH  28  42
ATOM     42  C   UNL A   1      39.759  33.675  36.606  1.00  0.00     0.064 A 
ATOM     43  C   UNL A   1      40.450  34.893  36.691  1.00  0.00     0.173 A 
ATOM     44  C   UNL A   1      38.879  33.349  37.651  1.00  0.00     0.173 A 
ATOM     45  F   UNL A   1      41.310  35.250  35.726  1.00  0.00    -0.203 F 
ATOM     46  C   UNL A   1      40.290  35.734  37.791  1.00  0.00     0.198 A 
ATOM     47  C   UNL A   1      38.698  34.208  38.733  1.00  0.00     0.198 A 
ATOM     48  F   UNL A   1      38.186  32.201  37.619  1.00  0.00    -0.203 F 
ATOM     49  F   UNL A   1      41.000  36.868  37.873  1.00  0.00    -0.200 F 
ATOM     50  C   UNL A   1      39.409  35.394  38.806  1.00  0.00     0.200 A 
ATOM     51  F   UNL A   1      37.834  33.884  39.706  1.00  0.00    -0.200 F 
ATOM     52  F   UNL A   1      39.252  36.208  39.860  1.00  0.00    -0.200 F 
ENDBRANCH  28  42
BRANCH  29  53
ATOM     53  C   UNL A   1      40.661  27.960  28.456  1.00  0.00     0.064 A 
ATOM     54  C   UNL A   1      40.034  26.708  28.388  1.00  0.00     0.173 A 
ATOM     55  C   UNL A   1      41.414  28.372  27.347  1.00  0.00     0.173 A 
ATOM     56  F   UNL A   1      39.317  26.261  29.431  1.00  0.00    -0.203 F 
ATOM     57  C   UNL A   1      40.172  25.893  27.267  1.00  0.00     0.198 A 
ATOM     58  C   UNL A   1      41.523  27.572  26.213  1.00  0.00     0.198 A 
ATOM     59  F   UNL A   1      42.028  29.565  27.358  1.00  0.00    -0.203 F 
ATOM     60  F   UNL A   1      39.602  24.681  27.248  1.00  0.00    -0.200 F 
ATOM     61  C   UNL A   1      40.911  26.329  26.177  1.00  0.00     0.200 A 
ATOM     62  F   UNL A   1      42.223  28.006  25.155  1.00  0.00    -0.200 F 
ATOM     63  F   UNL A   1      41.038  25.548  25.096  1.00  0.00    -0.200 F 
ENDBRANCH  29  53
BRANCH  41  64
ATOM     64  C   UNL A   1      43.985  28.189  34.571  1.00  0.00     0.064 A 
ATOM     65  C   UNL A   1      43.734  26.995  35.264  1.00  0.00     0.173 A 
ATOM     66  C   UNL A   1      45.322  28.589  34.418  1.00  0.00     0.173 A 
ATOM     67  F   UNL A   1      42.473  26.577  35.453  1.00  0.00    -0.203 F 
ATOM     68  C   UNL A   1      44.776  26.254  35.813  1.00  0.00     0.198 A 
ATOM     69  C   UNL A   1      46.363  27.826  34.937  1.00  0.00     0.198 A 
ATOM     70  F   UNL A   1      45.618  29.719  33.757  1.00  0.00    -0.203 F 
ATOM     71  F   UNL A   1      44.508  25.151  36.526  1.00  0.00    -0.200 F 
ATOM     72  C   UNL A   1      46.090  26.666  35.644  1.00  0.00     0.200 A 
ATOM     73  F   UNL A   1      47.632  28.219  34.758  1.00  0.00    -0.200 F 
ATOM     74  F   UNL A   1      47.092  25.950  36.171  1.00  0.00    -0.200 F 
ENDBRANCH  41  64
ENDBRANCH  15  16
ENDBRANCH   8  10
ENDBRANCH   5   6
ENDBRANCH   4   5
ENDBRANCH   3   4
ENDBRANCH   2   3
ENDBRANCH   1   2
BRANCH   1  75
ATOM     75  C   UNL A   1      32.294  27.346  26.666  1.00  0.00     0.116 C 
BRANCH  75  76
ATOM     76  N   UNL A   1      31.172  26.579  26.180  1.00  0.00    -0.356 N 
ATOM     77  C   UNL A   1      30.474  26.674  25.018  1.00  0.00     0.227 C 
ATOM     78  H   UNL A   1      30.862  25.870  26.790  1.00  0.00     0.163 HD
ATOM     79  O   UNL A   1      29.532  25.885  24.874  1.00  0.00    -0.274 OA
BRANCH  77  80
ATOM     80  C   UNL A   1      30.815  27.682  23.903  1.00  0.00     0.108 C 
BRANCH  80  81
ATOM     81  C   UNL A   1      31.791  27.167  22.807  1.00  0.00     0.018 C 
BRANCH  81  82
ATOM     82  C   UNL A   1      31.646  25.807  22.104  1.00  0.00     0.004 C 
BRANCH  82  83
ATOM     83  C   UNL A   1      32.455  24.603  22.605  1.00  0.00     0.028 C 
BRANCH  83  84
ATOM     84  C   UNL A   1      31.624  23.493  23.246  1.00  0.00     0.156 C 
BRANCH  84  85
ATOM     85  O   UNL A   1      30.239  23.729  23.043  1.00  0.00    -0.396 OA
ATOM     86  H   UNL A   1      29.725  23.191  23.668  1.00  0.00     0.210 HD
ENDBRANCH  84  85
ENDBRANCH  83  84
ENDBRANCH  82  83
ENDBRANCH  81  82
ENDBRANCH  80  81
BRANCH  80  87
ATOM     87  C   UNL A   1      29.678  28.642  23.559  1.00  0.00    -0.034 A 
ATOM     88  C   UNL A   1      28.411  28.116  23.236  1.00  0.00     0.004 A 
ATOM     89  C   UNL A   1      29.791  30.033  23.625  1.00  0.00     0.025 A 
ATOM     90  C   UNL A   1      27.323  28.951  22.958  1.00  0.00     0.002 A 
ATOM     91  C   UNL A   1      28.719  30.869  23.309  1.00  0.00     0.041 A 
ATOM     92  C   UNL A   1      27.481  30.334  22.978  1.00  0.00     0.020 A 
ATOM     93  Cl  UNL A   1      28.943  32.575  23.338  1.00  0.00    -0.084 Cl
ENDBRANCH  80  87
ENDBRANCH  77  80
ENDBRANCH  75  76
ENDBRANCH   1  75
TORSDOF 19
ENDMDL
MODEL 2
REMARK VINA RESULT:     -11.1      0.536      7.461
REMARK SMILES O=C(NCCCCCCNC(=O)[C@@H](CCCCO)c1cccc(Cl)c1)c1ccc(-c2c3nc(c(-c4c(F)c(F)c(F)c(F)c4F)c4ccc([nH]4)c(-c4c(F)c(F)c(F)c(F)c4F)c4nc(c(-c5c(F)c(F)c(F)c(F)c5F)c5ccc2[nH]5)C=C4)C=C3)cc1
REMARK SMILES IDX 8 1 7 2 6 3 5 4 4 5 3 6 1 7 2 8 26 10 27 11 88 12 28 13
REMARK SMILES IDX 87 14 29 15 30 16 31 17 81 18 32 19 86 20 80 21 82 22 33 23
REMARK SMILES IDX 85 24 79 25 78 26 34 28 66 29 46 30 65 31 47 32 50 33 64 34
REMARK SMILES IDX 83 35 48 36 49 37 63 39 84 40 51 41 35 42 36 43 44 44 37 45
REMARK SMILES IDX 38 46 42 47 45 48 39 49 40 50 43 51 41 52 67 53 68 54 76 55
REMARK SMILES IDX 69 56 70 57 74 58 77 59 71 60 72 61 75 62 73 63 52 64 53 65
REMARK SMILES IDX 61 66 54 67 55 68 59 69 62 70 56 71 57 72 60 73 58 74 9 75
REMARK SMILES IDX 10 76 11 77 12 79 13 80 14 81 15 82 16 83 17 84 18 85 19 87
REMARK SMILES IDX 20 88 25 89 21 90 23 91 22 92 24 93
REMARK H PARENT 3 9 82 27 50 38 10 78 18 86
REMARK Flexibility Score: inf
ROOT
ATOM      1  C   UNL A   1      31.774  28.681  27.408  1.00  0.00     0.021 C 
ENDROOT
BRANCH   1   2
ATOM      2  C   UNL A   1      32.426  29.982  26.935  1.00  0.00     0.002 C 
BRANCH   2   3
ATOM      3  C   UNL A   1      31.512  30.906  26.125  1.00  0.00     0.002 C 
BRANCH   3   4
ATOM      4  C   UNL A   1      31.351  32.320  26.686  1.00  0.00     0.021 C 
BRANCH   4   5
ATOM      5  C   UNL A   1      32.626  32.922  27.268  1.00  0.00     0.116 C 
BRANCH   5   6
ATOM      6  N   UNL A   1      32.453  34.316  27.649  1.00  0.00    -0.352 N 
ATOM      7  O   UNL A   1      32.608  36.136  28.971  1.00  0.00    -0.269 OA
ATOM      8  C   UNL A   1      33.031  35.028  28.671  1.00  0.00     0.251 C 
ATOM      9  H   UNL A   1      31.825  34.825  27.088  1.00  0.00     0.163 HD
BRANCH   8  10
ATOM     10  C   UNL A   1      34.158  34.439  29.427  1.00  0.00     0.039 A 
ATOM     11  C   UNL A   1      35.468  34.577  28.966  1.00  0.00     0.014 A 
ATOM     12  C   UNL A   1      33.899  33.743  30.611  1.00  0.00     0.014 A 
ATOM     13  C   UNL A   1      36.494  33.879  29.590  1.00  0.00     0.010 A 
ATOM     14  C   UNL A   1      34.949  33.124  31.294  1.00  0.00     0.010 A 
ATOM     15  C   UNL A   1      36.249  33.150  30.765  1.00  0.00    -0.014 A 
BRANCH  15  16
ATOM     16  C   UNL A   1      37.378  32.448  31.430  1.00  0.00     0.031 A 
ATOM     17  C   UNL A   1      38.130  31.350  30.731  1.00  0.00     0.074 A 
ATOM     18  C   UNL A   1      37.748  32.841  32.664  1.00  0.00     0.049 A 
ATOM     19  N   UNL A   1      39.164  30.662  31.148  1.00  0.00    -0.248 NA
ATOM     20  C   UNL A   1      37.657  30.964  29.392  1.00  0.00     0.031 C 
ATOM     21  C   UNL A   1      37.089  33.890  33.446  1.00  0.00     0.029 A 
ATOM     22  N   UNL A   1      38.778  32.427  33.468  1.00  0.00    -0.354 N 
ATOM     23  C   UNL A   1      39.448  29.749  30.139  1.00  0.00     0.074 A 
ATOM     24  C   UNL A   1      38.460  29.951  29.101  1.00  0.00     0.031 C 
ATOM     25  C   UNL A   1      37.762  34.076  34.589  1.00  0.00     0.029 A 
ATOM     26  C   UNL A   1      38.861  33.118  34.652  1.00  0.00     0.049 A 
ATOM     27  H   UNL A   1      39.399  31.705  33.221  1.00  0.00     0.167 HD
ATOM     28  C   UNL A   1      40.447  28.834  30.084  1.00  0.00     0.037 A 
ATOM     29  C   UNL A   1      39.718  32.989  35.680  1.00  0.00     0.037 A 
ATOM     30  C   UNL A   1      41.439  28.654  31.114  1.00  0.00     0.049 A 
ATOM     31  C   UNL A   1      40.803  31.953  35.597  1.00  0.00     0.074 A 
ATOM     32  C   UNL A   1      42.517  27.785  31.132  1.00  0.00     0.029 A 
ATOM     33  N   UNL A   1      41.472  29.354  32.312  1.00  0.00    -0.354 N 
ATOM     34  N   UNL A   1      41.087  31.127  34.620  1.00  0.00    -0.248 NA
ATOM     35  C   UNL A   1      41.689  31.836  36.762  1.00  0.00     0.031 C 
ATOM     36  C   UNL A   1      43.166  27.917  32.365  1.00  0.00     0.029 A 
ATOM     37  C   UNL A   1      42.535  28.917  33.088  1.00  0.00     0.049 A 
ATOM     38  H   UNL A   1      40.834  30.057  32.573  1.00  0.00     0.167 HD
ATOM     39  C   UNL A   1      42.203  30.415  35.037  1.00  0.00     0.074 A 
ATOM     40  C   UNL A   1      42.552  30.919  36.349  1.00  0.00     0.031 C 
ATOM     41  C   UNL A   1      42.879  29.435  34.388  1.00  0.00     0.037 A 
BRANCH  28  42
ATOM     42  C   UNL A   1      40.504  27.934  28.881  1.00  0.00     0.064 A 
ATOM     43  C   UNL A   1      39.796  26.724  28.820  1.00  0.00     0.173 A 
ATOM     44  C   UNL A   1      41.253  28.309  27.753  1.00  0.00     0.173 A 
ATOM     45  F   UNL A   1      39.072  26.312  29.872  1.00  0.00    -0.203 F 
ATOM     46  C   UNL A   1      39.861  25.909  27.691  1.00  0.00     0.198 A 
ATOM     47  C   UNL A   1      41.289  27.507  26.614  1.00  0.00     0.198 A 
ATOM     48  F   UNL A   1      41.944  29.458  27.751  1.00  0.00    -0.203 F 
ATOM     49  F   UNL A   1      39.217  24.734  27.679  1.00  0.00    -0.200 F 
ATOM     50  C   UNL A   1      40.600  26.305  26.588  1.00  0.00     0.200 A 
ATOM     51  F   UNL A   1      41.992  27.899  25.542  1.00  0.00    -0.200 F 
ATOM     52  F   UNL A   1      40.655  25.523  25.500  1.00  0.00    -0.200 F 
ENDBRANCH  28  42
BRANCH  29  53
ATOM     53  C   UNL A   1      39.591  33.875  36.866  1.00  0.00     0.064 A 
ATOM     54  C   UNL A   1      38.836  33.484  37.981  1.00  0.00     0.173 A 
ATOM     55  C   UNL A   1      40.222  35.127  36.913  1.00  0.00     0.173 A 
ATOM     56  F   UNL A   1      38.199  32.303  37.977  1.00  0.00    -0.203 F 
ATOM     57  C   UNL A   1      38.699  34.320  39.086  1.00  0.00     0.198 A 
ATOM     58  C   UNL A   1      40.112  35.947  38.033  1.00  0.00     0.198 A 
ATOM     59  F   UNL A   1      40.962  35.546  35.875  1.00  0.00    -0.203 F 
ATOM     60  F   UNL A   1      37.932  33.942  40.118  1.00  0.00    -0.200 F 
ATOM     61  C   UNL A   1      39.343  35.548  39.114  1.00  0.00     0.200 A 
ATOM     62  F   UNL A   1      40.752  37.124  38.062  1.00  0.00    -0.200 F 
ATOM     63  F   UNL A   1      39.217  36.348  40.181  1.00  0.00    -0.200 F 
ENDBRANCH  29  53
BRANCH  41  64
ATOM     64  C   UNL A   1      44.101  28.883  35.065  1.00  0.00     0.064 A 
ATOM     65  C   UNL A   1      45.372  29.450  34.883  1.00  0.00     0.173 A 
ATOM     66  C   UNL A   1      43.994  27.777  35.923  1.00  0.00     0.173 A 
ATOM     67  F   UNL A   1      45.532  30.497  34.061  1.00  0.00    -0.203 F 
ATOM     68  C   UNL A   1      46.493  28.906  35.503  1.00  0.00     0.198 A 
ATOM     69  C   UNL A   1      45.112  27.260  36.570  1.00  0.00     0.198 A 
ATOM     70  F   UNL A   1      42.801  27.202  36.139  1.00  0.00    -0.203 F 
ATOM     71  F   UNL A   1      47.706  29.425  35.264  1.00  0.00    -0.200 F 
ATOM     72  C   UNL A   1      46.362  27.817  36.351  1.00  0.00     0.200 A 
ATOM     73  F   UNL A   1      44.978  26.217  37.401  1.00  0.00    -0.200 F 
ATOM     74  F   UNL A   1      47.442  27.296  36.950  1.00  0.00    -0.200 F 
ENDBRANCH  41  64
ENDBRANCH  15  16
ENDBRANCH   8  10
ENDBRANCH   5   6
ENDBRANCH   4   5
ENDBRANCH   3   4
ENDBRANCH   2   3
ENDBRANCH   1   2
BRANCH   1  75
ATOM     75  C   UNL A   1      32.284  27.425  26.697  1.00  0.00     0.116 C 
BRANCH  75  76
ATOM     76  N   UNL A   1      31.181  26.626  26.219  1.00  0.00    -0.356 N 
ATOM     77  C   UNL A   1      30.491  26.683  25.049  1.00  0.00     0.227 C 
ATOM     78  H   UNL A   1      30.879  25.926  26.842  1.00  0.00     0.163 HD
ATOM     79  O   UNL A   1      29.565  25.874  24.916  1.00  0.00    -0.274 OA
BRANCH  77  80
ATOM     80  C   UNL A   1      30.822  27.673  23.915  1.00  0.00     0.108 C 
BRANCH  80  81
ATOM     81  C   UNL A   1      31.810  27.149  22.834  1.00  0.00     0.018 C 
BRANCH  81  82
ATOM     82  C   UNL A   1      31.664  25.791  22.128  1.00  0.00     0.004 C 
BRANCH  82  83
ATOM     83  C   UNL A   1      32.437  24.574  22.654  1.00  0.00     0.028 C 
BRANCH  83  84
ATOM     84  C   UNL A   1      31.569  23.481  23.275  1.00  0.00     0.156 C 
BRANCH  84  85
ATOM     85  O   UNL A   1      30.194  23.749  23.048  1.00  0.00    -0.396 OA
ATOM     86  H   UNL A   1      29.656  23.222  23.661  1.00  0.00     0.210 HD
ENDBRANCH  84  85
ENDBRANCH  83  84
ENDBRANCH  82  83
ENDBRANCH  81  82
ENDBRANCH  80  81
BRANCH  80  87
ATOM     87  C   UNL A   1      29.673  28.609  23.547  1.00  0.00    -0.034 A 
ATOM     88  C   UNL A   1      28.420  28.057  23.213  1.00  0.00     0.004 A 
ATOM     89  C   UNL A   1      29.762  30.002  23.599  1.00  0.00     0.025 A 
ATOM     90  C   UNL A   1      27.322  28.871  22.912  1.00  0.00     0.002 A 
ATOM     91  C   UNL A   1      28.679  30.816  23.260  1.00  0.00     0.041 A 
ATOM     92  C   UNL A   1      27.455  30.256  22.919  1.00  0.00     0.020 A 
ATOM     93  Cl  UNL A   1      28.873  32.526  23.273  1.00  0.00    -0.084 Cl
ENDBRANCH  80  87
ENDBRANCH  77  80
ENDBRANCH  75  76
ENDBRANCH   1  75
TORSDOF 19
ENDMDL
MODEL 3
REMARK VINA RESULT:     -10.8      2.974      5.014
REMARK SMILES O=C(NCCCCCCNC(=O)[C@@H](CCCCO)c1cccc(Cl)c1)c1ccc(-c2c3nc(c(-c4c(F)c(F)c(F)c(F)c4F)c4ccc([nH]4)c(-c4c(F)c(F)c(F)c(F)c4F)c4nc(c(-c5c(F)c(F)c(F)c(F)c5F)c5ccc2[nH]5)C=C4)C=C3)cc1
REMARK SMILES IDX 8 1 7 2 6 3 5 4 4 5 3 6 1 7 2 8 26 10 27 11 88 12 28 13
REMARK SMILES IDX 87 14 29 15 30 16 31 17 81 18 32 19 86 20 80 21 82 22 33 23
REMARK SMILES IDX 85 24 79 25 78 26 34 28 66 29 46 30 65 31 47 32 50 33 64 34
REMARK SMILES IDX 83 35 48 36 49 37 63 39 84 40 51 41 35 42 36 43 44 44 37 45
REMARK SMILES IDX 38 46 42 47 45 48 39 49 40 50 43 51 41 52 67 53 68 54 76 55
REMARK SMILES IDX 69 56 70 57 74 58 77 59 71 60 72 61 75 62 73 63 52 64 53 65
REMARK SMILES IDX 61 66 54 67 55 68 59 69 62 70 56 71 57 72 60 73 58 74 9 75
REMARK SMILES IDX 10 76 11 77 12 79 13 80 14 81 15 82 16 83 17 84 18 85 19 87
REMARK SMILES IDX 20 88 25 89 21 90 23 91 22 92 24 93
REMARK H PARENT 3 9 82 27 50 38 10 78 18 86
REMARK Flexibility Score: inf
ROOT
ATOM      1  C   UNL A   1      31.811  24.381  26.487  1.00  0.00     0.021 C 
ENDROOT
BRANCH   1   2
ATOM      2  C   UNL A   1      31.785  25.686  25.689  1.00  0.00     0.002 C 
BRANCH   2   3
ATOM      3  C   UNL A   1      32.721  26.781  26.211  1.00  0.00     0.002 C 
BRANCH   3   4
ATOM      4  C   UNL A   1      32.139  28.195  26.202  1.00  0.00     0.021 C 
BRANCH   4   5
ATOM      5  C   UNL A   1      33.075  29.264  25.648  1.00  0.00     0.116 C 
BRANCH   5   6
ATOM      6  N   UNL A   1      32.697  30.603  26.078  1.00  0.00    -0.352 N 
ATOM      7  O   UNL A   1      32.666  32.416  27.418  1.00  0.00    -0.269 OA
ATOM      8  C   UNL A   1      33.245  31.404  27.050  1.00  0.00     0.251 C 
ATOM      9  H   UNL A   1      31.932  30.993  25.598  1.00  0.00     0.163 HD
BRANCH   8  10
ATOM     10  C   UNL A   1      34.534  31.025  27.669  1.00  0.00     0.039 A 
ATOM     11  C   UNL A   1      34.754  29.716  28.102  1.00  0.00     0.014 A 
ATOM     12  C   UNL A   1      35.534  31.990  27.814  1.00  0.00     0.014 A 
ATOM     13  C   UNL A   1      35.898  29.416  28.830  1.00  0.00     0.010 A 
ATOM     14  C   UNL A   1      36.727  31.660  28.460  1.00  0.00     0.010 A 
ATOM     15  C   UNL A   1      36.901  30.381  29.013  1.00  0.00    -0.014 A 
BRANCH  15  16
ATOM     16  C   UNL A   1      38.130  30.014  29.763  1.00  0.00     0.031 A 
ATOM     17  C   UNL A   1      38.357  30.498  31.169  1.00  0.00     0.074 A 
ATOM     18  C   UNL A   1      39.029  29.201  29.176  1.00  0.00     0.049 A 
ATOM     19  N   UNL A   1      39.352  30.240  31.981  1.00  0.00    -0.248 NA
ATOM     20  C   UNL A   1      37.340  31.396  31.737  1.00  0.00     0.031 C 
ATOM     21  C   UNL A   1      38.923  28.674  27.812  1.00  0.00     0.029 A 
ATOM     22  N   UNL A   1      40.193  28.655  29.652  1.00  0.00    -0.354 N 
ATOM     23  C   UNL A   1      39.095  30.960  33.141  1.00  0.00     0.074 A 
ATOM     24  C   UNL A   1      37.865  31.689  32.918  1.00  0.00     0.031 C 
ATOM     25  C   UNL A   1      39.944  27.838  27.582  1.00  0.00     0.029 A 
ATOM     26  C   UNL A   1      40.813  27.819  28.754  1.00  0.00     0.049 A 
ATOM     27  H   UNL A   1      40.550  28.842  30.549  1.00  0.00     0.167 HD
ATOM     28  C   UNL A   1      39.817  31.001  34.288  1.00  0.00     0.037 A 
ATOM     29  C   UNL A   1      41.959  27.123  28.858  1.00  0.00     0.037 A 
ATOM     30  C   UNL A   1      41.030  30.255  34.509  1.00  0.00     0.049 A 
ATOM     31  C   UNL A   1      42.746  27.203  30.135  1.00  0.00     0.074 A 
ATOM     32  C   UNL A   1      41.811  30.195  35.651  1.00  0.00     0.029 A 
ATOM     33  N   UNL A   1      41.642  29.442  33.565  1.00  0.00    -0.354 N 
ATOM     34  N   UNL A   1      42.471  27.854  31.239  1.00  0.00    -0.248 NA
ATOM     35  C   UNL A   1      44.004  26.448  30.178  1.00  0.00     0.031 C 
ATOM     36  C   UNL A   1      42.926  29.393  35.378  1.00  0.00     0.029 A 
ATOM     37  C   UNL A   1      42.805  28.898  34.090  1.00  0.00     0.049 A 
ATOM     38  H   UNL A   1      41.302  29.276  32.656  1.00  0.00     0.167 HD
ATOM     39  C   UNL A   1      43.502  27.560  32.120  1.00  0.00     0.074 A 
ATOM     40  C   UNL A   1      44.400  26.661  31.425  1.00  0.00     0.031 C 
ATOM     41  C   UNL A   1      43.685  27.995  33.392  1.00  0.00     0.037 A 
BRANCH  28  42
ATOM     42  C   UNL A   1      39.331  31.904  35.388  1.00  0.00     0.064 A 
ATOM     43  C   UNL A   1      38.448  31.457  36.383  1.00  0.00     0.173 A 
ATOM     44  C   UNL A   1      39.787  33.230  35.467  1.00  0.00     0.173 A 
ATOM     45  F   UNL A   1      37.974  30.203  36.351  1.00  0.00    -0.203 F 
ATOM     46  C   UNL A   1      38.017  32.312  37.397  1.00  0.00     0.198 A 
ATOM     47  C   UNL A   1      39.379  34.071  36.500  1.00  0.00     0.198 A 
ATOM     48  F   UNL A   1      40.638  33.709  34.547  1.00  0.00    -0.203 F 
ATOM     49  F   UNL A   1      37.133  31.876  38.306  1.00  0.00    -0.200 F 
ATOM     50  C   UNL A   1      38.488  33.614  37.457  1.00  0.00     0.200 A 
ATOM     51  F   UNL A   1      39.847  35.325  36.565  1.00  0.00    -0.200 F 
ATOM     52  F   UNL A   1      38.076  34.432  38.437  1.00  0.00    -0.200 F 
ENDBRANCH  28  42
BRANCH  29  53
ATOM     53  C   UNL A   1      42.418  26.280  27.724  1.00  0.00     0.064 A 
ATOM     54  C   UNL A   1      43.336  26.771  26.785  1.00  0.00     0.173 A 
ATOM     55  C   UNL A   1      41.953  24.967  27.555  1.00  0.00     0.173 A 
ATOM     56  F   UNL A   1      43.796  28.027  26.893  1.00  0.00    -0.203 F 
ATOM     57  C   UNL A   1      43.754  25.990  25.710  1.00  0.00     0.198 A 
ATOM     58  C   UNL A   1      42.398  24.175  26.500  1.00  0.00     0.198 A 
ATOM     59  F   UNL A   1      41.079  24.447  28.430  1.00  0.00    -0.203 F 
ATOM     60  F   UNL A   1      44.595  26.501  24.801  1.00  0.00    -0.200 F 
ATOM     61  C   UNL A   1      43.290  24.691  25.573  1.00  0.00     0.200 A 
ATOM     62  F   UNL A   1      41.961  22.914  26.382  1.00  0.00    -0.200 F 
ATOM     63  F   UNL A   1      43.698  23.937  24.542  1.00  0.00    -0.200 F 
ENDBRANCH  29  53
BRANCH  41  64
ATOM     64  C   UNL A   1      44.874  27.455  34.134  1.00  0.00     0.064 A 
ATOM     65  C   UNL A   1      46.115  28.111  34.129  1.00  0.00     0.173 A 
ATOM     66  C   UNL A   1      44.765  26.266  34.872  1.00  0.00     0.173 A 
ATOM     67  F   UNL A   1      46.277  29.242  33.426  1.00  0.00    -0.203 F 
ATOM     68  C   UNL A   1      47.208  27.579  34.805  1.00  0.00     0.198 A 
ATOM     69  C   UNL A   1      45.851  25.756  35.577  1.00  0.00     0.198 A 
ATOM     70  F   UNL A   1      43.600  25.603  34.916  1.00  0.00    -0.203 F 
ATOM     71  F   UNL A   1      48.400  28.190  34.735  1.00  0.00    -0.200 F 
ATOM     72  C   UNL A   1      47.074  26.406  35.534  1.00  0.00     0.200 A 
ATOM     73  F   UNL A   1      45.714  24.632  36.292  1.00  0.00    -0.200 F 
ATOM     74  F   UNL A   1      48.128  25.895  36.186  1.00  0.00    -0.200 F 
ENDBRANCH  41  64
ENDBRANCH  15  16
ENDBRANCH   8  10
ENDBRANCH   5   6
ENDBRANCH   4   5
ENDBRANCH   3   4
ENDBRANCH   2   3
ENDBRANCH   1   2
BRANCH   1  75
ATOM     75  C   UNL A   1      31.249  23.171  25.736  1.00  0.00     0.116 C 
BRANCH  75  76
ATOM     76  N   UNL A   1      31.987  22.940  24.517  1.00  0.00    -0.356 N 
ATOM     77  C   UNL A   1      33.094  22.188  24.284  1.00  0.00     0.227 C 
ATOM     78  H   UNL A   1      31.629  23.404  23.725  1.00  0.00     0.163 HD
ATOM     79  O   UNL A   1      33.528  22.190  23.126  1.00  0.00    -0.274 OA
BRANCH  77  80
ATOM     80  C   UNL A   1      33.792  21.346  25.370  1.00  0.00     0.108 C 
BRANCH  80  81
ATOM     81  C   UNL A   1      33.119  19.982  25.699  1.00  0.00     0.018 C 
BRANCH  81  82
ATOM     82  C   UNL A   1      32.633  18.989  24.630  1.00  0.00     0.004 C 
BRANCH  82  83
ATOM     83  C   UNL A   1      33.631  18.016  23.987  1.00  0.00     0.028 C 
BRANCH  83  84
ATOM     84  C   UNL A   1      33.165  17.395  22.671  1.00  0.00     0.156 C 
BRANCH  84  85
ATOM     85  O   UNL A   1      31.918  17.944  22.276  1.00  0.00    -0.396 OA
ATOM     86  H   UNL A   1      31.591  17.473  21.493  1.00  0.00     0.210 HD
ENDBRANCH  84  85
ENDBRANCH  83  84
ENDBRANCH  82  83
ENDBRANCH  81  82
ENDBRANCH  80  81
BRANCH  80  87
ATOM     87  C   UNL A   1      35.311  21.504  25.405  1.00  0.00    -0.034 A 
ATOM     88  C   UNL A   1      36.121  20.441  24.956  1.00  0.00     0.004 A 
ATOM     89  C   UNL A   1      35.958  22.683  25.781  1.00  0.00     0.025 A 
ATOM     90  C   UNL A   1      37.516  20.551  24.924  1.00  0.00     0.002 A 
ATOM     91  C   UNL A   1      37.351  22.781  25.788  1.00  0.00     0.041 A 
ATOM     92  C   UNL A   1      38.135  21.720  25.357  1.00  0.00     0.020 A 
ATOM     93  Cl  UNL A   1      38.090  24.237  26.332  1.00  0.00    -0.084 Cl
ENDBRANCH  80  87
ENDBRANCH  77  80
ENDBRANCH  75  76
ENDBRANCH   1  75
TORSDOF 19
ENDMDL
