MODEL 1
REMARK VINA RESULT:     -12.6      0.000      0.000
REMARK SMILES O=C(C[C@@H](NC(=O)c1cc(-c2ccc(F)cc2)on1)c1cccc(Br)c1)NCCCCCCNC(=O)c1ccc(-c2c3nc(c(-c4c(F)c(F)c(F)c(F)c4F)c4ccc([nH]4)c(-c4c(F)c(F)c(F)c(F)c4F)c4nc(c(-c5c(F)c(F)c(F)c(F)c5F)c5ccc2[nH]5)C=C4)C=C3)cc1
REMARK SMILES IDX 29 1 28 2 27 3 1 4 2 5 3 7 4 8 5 9 6 10 7 12 8 13 9 14 19 15
REMARK SMILES IDX 10 16 18 17 11 18 12 19 17 20 13 21 16 22 14 23 15 24 20 25
REMARK SMILES IDX 21 26 26 27 22 28 24 29 23 30 25 31 30 32 31 33 32 34 33 35
REMARK SMILES IDX 34 36 35 37 36 39 37 40 38 41 99 42 39 43 98 44 40 45 41 46
REMARK SMILES IDX 42 47 92 48 43 49 97 50 91 51 93 52 44 53 96 54 90 55 89 56
REMARK SMILES IDX 45 58 77 59 57 60 76 61 58 62 61 63 75 64 94 65 59 66 60 67
REMARK SMILES IDX 74 69 95 70 62 71 46 72 47 73 55 74 48 75 49 76 53 77 56 78
REMARK SMILES IDX 50 79 51 80 54 81 52 82 78 83 79 84 87 85 80 86 81 87 85 88
REMARK SMILES IDX 88 89 82 90 83 91 86 92 84 93 63 94 64 95 72 96 65 97 66 98
REMARK SMILES IDX 70 99 73 100 67 101 68 102 71 103 69 104
REMARK H PARENT 27 6 5 11 34 38 93 57 61 68
REMARK Flexibility Score: inf
ROOT
ATOM      1  C   UNL A   1      35.874  32.074  27.952  1.00  0.00     0.021 C 
ENDROOT
BRANCH   1   2
ATOM      2  C   UNL A   1      34.850  30.951  28.104  1.00  0.00     0.116 C 
BRANCH   2   3
ATOM      3  N   UNL A   1      34.568  30.377  26.807  1.00  0.00    -0.356 N 
ATOM      4  O   UNL A   1      32.286  30.542  26.926  1.00  0.00    -0.275 OA
ATOM      5  C   UNL A   1      33.296  30.136  26.362  1.00  0.00     0.222 C 
ATOM      6  H   UNL A   1      35.323  30.149  26.218  1.00  0.00     0.163 HD
BRANCH   5   7
ATOM      7  C   UNL A   1      33.243  29.288  25.116  1.00  0.00     0.129 C 
BRANCH   7   8
ATOM      8  C   UNL A   1      32.049  28.316  25.130  1.00  0.00     0.122 C 
BRANCH   8   9
ATOM      9  N   UNL A   1      31.237  28.390  23.897  1.00  0.00    -0.343 N 
ATOM     10  C   UNL A   1      31.235  27.758  22.673  1.00  0.00     0.273 C 
ATOM     11  H   UNL A   1      30.518  29.059  23.968  1.00  0.00     0.164 HD
ATOM     12  O   UNL A   1      30.366  28.100  21.870  1.00  0.00    -0.267 OA
BRANCH  10  13
ATOM     13  C   UNL A   1      32.135  26.652  22.399  1.00  0.00     0.171 A 
ATOM     14  C   UNL A   1      31.876  25.277  22.643  1.00  0.00     0.088 A 
ATOM     15  N   UNL A   1      33.357  26.828  21.876  1.00  0.00    -0.074 NA
ATOM     16  C   UNL A   1      33.098  24.667  22.473  1.00  0.00     0.167 A 
ATOM     17  O   UNL A   1      33.959  25.577  21.926  1.00  0.00    -0.355 OA
BRANCH  16  18
ATOM     18  C   UNL A   1      33.670  23.400  22.928  1.00  0.00     0.020 A 
ATOM     19  C   UNL A   1      32.829  22.328  23.281  1.00  0.00     0.015 A 
ATOM     20  C   UNL A   1      35.039  23.301  23.235  1.00  0.00     0.015 A 
ATOM     21  C   UNL A   1      33.325  21.239  24.004  1.00  0.00     0.040 A 
ATOM     22  C   UNL A   1      35.533  22.216  23.964  1.00  0.00     0.040 A 
ATOM     23  C   UNL A   1      34.667  21.207  24.363  1.00  0.00     0.123 A 
ATOM     24  F   UNL A   1      35.122  20.209  25.130  1.00  0.00    -0.207 F 
ENDBRANCH  16  18
ENDBRANCH  10  13
ENDBRANCH   8   9
BRANCH   8  25
ATOM     25  C   UNL A   1      32.417  26.925  25.606  1.00  0.00    -0.024 A 
ATOM     26  C   UNL A   1      33.770  26.553  25.661  1.00  0.00     0.006 A 
ATOM     27  C   UNL A   1      31.445  25.969  25.954  1.00  0.00     0.021 A 
ATOM     28  C   UNL A   1      34.137  25.256  26.024  1.00  0.00     0.002 A 
ATOM     29  C   UNL A   1      31.815  24.670  26.292  1.00  0.00     0.018 A 
ATOM     30  C   UNL A   1      33.158  24.308  26.320  1.00  0.00     0.016 A 
ATOM     31  Br  UNL A   1      30.485  23.399  26.721  1.00  0.00    -0.051 Br
ENDBRANCH   8  25
ENDBRANCH   7   8
ENDBRANCH   5   7
ENDBRANCH   2   3
ENDBRANCH   1   2
BRANCH   1  32
ATOM     32  C   UNL A   1      35.481  33.373  28.671  1.00  0.00     0.002 C 
BRANCH  32  33
ATOM     33  C   UNL A   1      34.043  33.405  29.195  1.00  0.00     0.002 C 
BRANCH  33  34
ATOM     34  C   UNL A   1      33.240  34.631  28.759  1.00  0.00     0.021 C 
BRANCH  34  35
ATOM     35  C   UNL A   1      33.499  35.878  29.596  1.00  0.00     0.116 C 
BRANCH  35  36
ATOM     36  N   UNL A   1      32.542  36.016  30.683  1.00  0.00    -0.352 N 
ATOM     37  C   UNL A   1      32.603  35.518  31.957  1.00  0.00     0.251 C 
ATOM     38  H   UNL A   1      31.738  36.544  30.473  1.00  0.00     0.163 HD
ATOM     39  O   UNL A   1      31.616  35.568  32.689  1.00  0.00    -0.269 OA
BRANCH  37  40
ATOM     40  C   UNL A   1      33.848  34.891  32.443  1.00  0.00     0.039 A 
ATOM     41  C   UNL A   1      33.797  33.582  32.925  1.00  0.00     0.014 A 
ATOM     42  C   UNL A   1      35.063  35.585  32.417  1.00  0.00     0.014 A 
ATOM     43  C   UNL A   1      34.972  32.948  33.325  1.00  0.00     0.010 A 
ATOM     44  C   UNL A   1      36.244  34.925  32.740  1.00  0.00     0.010 A 
ATOM     45  C   UNL A   1      36.212  33.600  33.198  1.00  0.00    -0.014 A 
BRANCH  45  46
ATOM     46  C   UNL A   1      37.476  32.892  33.516  1.00  0.00     0.031 A 
ATOM     47  C   UNL A   1      38.229  33.191  34.779  1.00  0.00     0.074 A 
ATOM     48  C   UNL A   1      37.965  31.996  32.635  1.00  0.00     0.049 A 
ATOM     49  N   UNL A   1      39.346  32.667  35.218  1.00  0.00    -0.248 NA
ATOM     50  C   UNL A   1      37.669  34.231  35.656  1.00  0.00     0.031 C 
ATOM     51  C   UNL A   1      37.351  31.660  31.350  1.00  0.00     0.029 A 
ATOM     52  N   UNL A   1      39.084  31.204  32.688  1.00  0.00    -0.354 N 
ATOM     53  C   UNL A   1      39.619  33.310  36.418  1.00  0.00     0.074 A 
ATOM     54  C   UNL A   1      38.590  34.308  36.606  1.00  0.00     0.031 C 
ATOM     55  C   UNL A   1      38.074  30.698  30.757  1.00  0.00     0.029 A 
ATOM     56  C   UNL A   1      39.226  30.381  31.597  1.00  0.00     0.049 A 
ATOM     57  H   UNL A   1      39.723  31.222  33.436  1.00  0.00     0.167 HD
ATOM     58  C   UNL A   1      40.622  33.067  37.294  1.00  0.00     0.037 A 
ATOM     59  C   UNL A   1      40.173  29.470  31.305  1.00  0.00     0.037 A 
ATOM     60  C   UNL A   1      41.638  32.064  37.104  1.00  0.00     0.049 A 
ATOM     61  C   UNL A   1      41.291  29.235  32.282  1.00  0.00     0.074 A 
ATOM     62  C   UNL A   1      42.664  31.705  37.961  1.00  0.00     0.029 A 
ATOM     63  N   UNL A   1      41.762  31.266  35.976  1.00  0.00    -0.354 N 
ATOM     64  N   UNL A   1      41.502  29.800  33.445  1.00  0.00    -0.248 NA
ATOM     65  C   UNL A   1      42.300  28.236  31.907  1.00  0.00     0.031 C 
ATOM     66  C   UNL A   1      43.444  30.734  37.326  1.00  0.00     0.029 A 
ATOM     67  C   UNL A   1      42.869  30.440  36.100  1.00  0.00     0.049 A 
ATOM     68  H   UNL A   1      41.155  31.283  35.202  1.00  0.00     0.167 HD
ATOM     69  C   UNL A   1      42.657  29.219  33.951  1.00  0.00     0.074 A 
ATOM     70  C   UNL A   1      43.089  28.240  32.974  1.00  0.00     0.031 C 
ATOM     71  C   UNL A   1      43.300  29.478  35.116  1.00  0.00     0.037 A 
BRANCH  58  72
ATOM     72  C   UNL A   1      40.669  33.895  38.548  1.00  0.00     0.064 A 
ATOM     73  C   UNL A   1      39.898  33.540  39.666  1.00  0.00     0.173 A 
ATOM     74  C   UNL A   1      41.431  35.070  38.626  1.00  0.00     0.173 A 
ATOM     75  F   UNL A   1      39.144  32.430  39.646  1.00  0.00    -0.203 F 
ATOM     76  C   UNL A   1      39.883  34.336  40.810  1.00  0.00     0.198 A 
ATOM     77  C   UNL A   1      41.440  35.845  39.783  1.00  0.00     0.198 A 
ATOM     78  F   UNL A   1      42.194  35.450  37.590  1.00  0.00    -0.203 F 
ATOM     79  F   UNL A   1      39.113  33.994  41.852  1.00  0.00    -0.200 F 
ATOM     80  C   UNL A   1      40.660  35.483  40.869  1.00  0.00     0.200 A 
ATOM     81  F   UNL A   1      42.214  36.937  39.849  1.00  0.00    -0.200 F 
ATOM     82  F   UNL A   1      40.658  36.238  41.977  1.00  0.00    -0.200 F 
ENDBRANCH  58  72
BRANCH  59  83
ATOM     83  C   UNL A   1      40.068  28.691  30.045  1.00  0.00     0.064 A 
ATOM     84  C   UNL A   1      39.437  27.438  30.012  1.00  0.00     0.173 A 
ATOM     85  C   UNL A   1      40.657  29.156  28.862  1.00  0.00     0.173 A 
ATOM     86  F   UNL A   1      38.864  26.944  31.120  1.00  0.00    -0.203 F 
ATOM     87  C   UNL A   1      39.427  26.668  28.851  1.00  0.00     0.198 A 
ATOM     88  C   UNL A   1      40.622  28.397  27.694  1.00  0.00     0.198 A 
ATOM     89  F   UNL A   1      41.256  30.356  28.840  1.00  0.00    -0.203 F 
ATOM     90  F   UNL A   1      38.860  25.454  28.860  1.00  0.00    -0.200 F 
ATOM     91  C   UNL A   1      40.018  27.149  27.692  1.00  0.00     0.200 A 
ATOM     92  F   UNL A   1      41.176  28.874  26.571  1.00  0.00    -0.200 F 
ATOM     93  F   UNL A   1      40.008  26.408  26.576  1.00  0.00    -0.200 F 
ENDBRANCH  59  83
BRANCH  71  94
ATOM     94  C   UNL A   1      44.547  28.693  35.410  1.00  0.00     0.064 A 
ATOM     95  C   UNL A   1      45.798  29.150  34.968  1.00  0.00     0.173 A 
ATOM     96  C   UNL A   1      44.496  27.454  36.065  1.00  0.00     0.173 A 
ATOM     97  F   UNL A   1      45.903  30.325  34.328  1.00  0.00    -0.203 F 
ATOM     98  C   UNL A   1      46.949  28.388  35.156  1.00  0.00     0.198 A 
ATOM     99  C   UNL A   1      45.652  26.710  36.282  1.00  0.00     0.198 A 
ATOM    100  F   UNL A   1      43.326  26.978  36.519  1.00  0.00    -0.203 F 
ATOM    101  F   UNL A   1      48.126  28.827  34.691  1.00  0.00    -0.200 F 
ATOM    102  C   UNL A   1      46.875  27.171  35.818  1.00  0.00     0.200 A 
ATOM    103  F   UNL A   1      45.584  25.548  36.946  1.00  0.00    -0.200 F 
ATOM    104  F   UNL A   1      47.985  26.445  36.012  1.00  0.00    -0.200 F 
ENDBRANCH  71  94
ENDBRANCH  45  46
ENDBRANCH  37  40
ENDBRANCH  35  36
ENDBRANCH  34  35
ENDBRANCH  33  34
ENDBRANCH  32  33
ENDBRANCH   1  32
TORSDOF 18
ENDMDL
MODEL 2
REMARK VINA RESULT:     -12.3      0.375      6.874
REMARK SMILES O=C(C[C@@H](NC(=O)c1cc(-c2ccc(F)cc2)on1)c1cccc(Br)c1)NCCCCCCNC(=O)c1ccc(-c2c3nc(c(-c4c(F)c(F)c(F)c(F)c4F)c4ccc([nH]4)c(-c4c(F)c(F)c(F)c(F)c4F)c4nc(c(-c5c(F)c(F)c(F)c(F)c5F)c5ccc2[nH]5)C=C4)C=C3)cc1
REMARK SMILES IDX 29 1 28 2 27 3 1 4 2 5 3 7 4 8 5 9 6 10 7 12 8 13 9 14 19 15
REMARK SMILES IDX 10 16 18 17 11 18 12 19 17 20 13 21 16 22 14 23 15 24 20 25
REMARK SMILES IDX 21 26 26 27 22 28 24 29 23 30 25 31 30 32 31 33 32 34 33 35
REMARK SMILES IDX 34 36 35 37 36 39 37 40 38 41 99 42 39 43 98 44 40 45 41 46
REMARK SMILES IDX 42 47 92 48 43 49 97 50 91 51 93 52 44 53 96 54 90 55 89 56
REMARK SMILES IDX 45 58 77 59 57 60 76 61 58 62 61 63 75 64 94 65 59 66 60 67
REMARK SMILES IDX 74 69 95 70 62 71 46 72 47 73 55 74 48 75 49 76 53 77 56 78
REMARK SMILES IDX 50 79 51 80 54 81 52 82 78 83 79 84 87 85 80 86 81 87 85 88
REMARK SMILES IDX 88 89 82 90 83 91 86 92 84 93 63 94 64 95 72 96 65 97 66 98
REMARK SMILES IDX 70 99 73 100 67 101 68 102 71 103 69 104
REMARK H PARENT 27 6 5 11 34 38 93 57 61 68
REMARK Flexibility Score: inf
ROOT
ATOM      1  C   UNL A   1      35.496  32.394  27.899  1.00  0.00     0.021 C 
ENDROOT
BRANCH   1   2
ATOM      2  C   UNL A   1      34.349  31.394  28.036  1.00  0.00     0.116 C 
BRANCH   2   3
ATOM      3  N   UNL A   1      34.224  30.633  26.812  1.00  0.00    -0.356 N 
ATOM      4  O   UNL A   1      31.935  30.552  26.775  1.00  0.00    -0.275 OA
ATOM      5  C   UNL A   1      33.020  30.196  26.329  1.00  0.00     0.222 C 
ATOM      6  H   UNL A   1      35.040  30.421  26.303  1.00  0.00     0.163 HD
BRANCH   5   7
ATOM      7  C   UNL A   1      33.148  29.197  25.206  1.00  0.00     0.129 C 
BRANCH   7   8
ATOM      8  C   UNL A   1      31.964  28.213  25.172  1.00  0.00     0.122 C 
BRANCH   8   9
ATOM      9  N   UNL A   1      31.192  28.293  23.914  1.00  0.00    -0.343 N 
ATOM     10  C   UNL A   1      31.240  27.678  22.682  1.00  0.00     0.273 C 
ATOM     11  H   UNL A   1      30.459  28.948  23.971  1.00  0.00     0.164 HD
ATOM     12  O   UNL A   1      30.392  28.017  21.855  1.00  0.00    -0.267 OA
BRANCH  10  13
ATOM     13  C   UNL A   1      32.167  26.591  22.423  1.00  0.00     0.171 A 
ATOM     14  C   UNL A   1      31.925  25.208  22.642  1.00  0.00     0.088 A 
ATOM     15  N   UNL A   1      33.401  26.794  21.940  1.00  0.00    -0.074 NA
ATOM     16  C   UNL A   1      33.161  24.622  22.502  1.00  0.00     0.167 A 
ATOM     17  O   UNL A   1      34.023  25.553  21.993  1.00  0.00    -0.355 OA
BRANCH  16  18
ATOM     18  C   UNL A   1      33.741  23.358  22.959  1.00  0.00     0.020 A 
ATOM     19  C   UNL A   1      32.906  22.285  23.322  1.00  0.00     0.015 A 
ATOM     20  C   UNL A   1      35.112  23.267  23.258  1.00  0.00     0.015 A 
ATOM     21  C   UNL A   1      33.411  21.202  24.048  1.00  0.00     0.040 A 
ATOM     22  C   UNL A   1      35.615  22.186  23.989  1.00  0.00     0.040 A 
ATOM     23  C   UNL A   1      34.755  21.176  24.398  1.00  0.00     0.123 A 
ATOM     24  F   UNL A   1      35.218  20.184  25.167  1.00  0.00    -0.207 F 
ENDBRANCH  16  18
ENDBRANCH  10  13
ENDBRANCH   8   9
BRANCH   8  25
ATOM     25  C   UNL A   1      32.330  26.822  25.646  1.00  0.00    -0.024 A 
ATOM     26  C   UNL A   1      33.683  26.454  25.719  1.00  0.00     0.006 A 
ATOM     27  C   UNL A   1      31.357  25.861  25.975  1.00  0.00     0.021 A 
ATOM     28  C   UNL A   1      34.050  25.157  26.081  1.00  0.00     0.002 A 
ATOM     29  C   UNL A   1      31.727  24.561  26.312  1.00  0.00     0.018 A 
ATOM     30  C   UNL A   1      33.070  24.204  26.357  1.00  0.00     0.016 A 
ATOM     31  Br  UNL A   1      30.395  23.283  26.714  1.00  0.00    -0.051 Br
ENDBRANCH   8  25
ENDBRANCH   7   8
ENDBRANCH   5   7
ENDBRANCH   2   3
ENDBRANCH   1   2
BRANCH   1  32
ATOM     32  C   UNL A   1      35.143  33.812  28.372  1.00  0.00     0.002 C 
BRANCH  32  33
ATOM     33  C   UNL A   1      33.884  33.902  29.239  1.00  0.00     0.002 C 
BRANCH  33  34
ATOM     34  C   UNL A   1      32.987  35.100  28.925  1.00  0.00     0.021 C 
BRANCH  34  35
ATOM     35  C   UNL A   1      33.293  36.343  29.751  1.00  0.00     0.116 C 
BRANCH  35  36
ATOM     36  N   UNL A   1      32.475  36.418  30.951  1.00  0.00    -0.352 N 
ATOM     37  C   UNL A   1      32.622  35.755  32.141  1.00  0.00     0.251 C 
ATOM     38  H   UNL A   1      31.708  37.033  30.902  1.00  0.00     0.163 HD
ATOM     39  O   UNL A   1      31.728  35.791  32.985  1.00  0.00    -0.269 OA
BRANCH  37  40
ATOM     40  C   UNL A   1      33.845  34.969  32.398  1.00  0.00     0.039 A 
ATOM     41  C   UNL A   1      35.086  35.571  32.183  1.00  0.00     0.014 A 
ATOM     42  C   UNL A   1      33.772  33.650  32.855  1.00  0.00     0.014 A 
ATOM     43  C   UNL A   1      36.254  34.870  32.484  1.00  0.00     0.010 A 
ATOM     44  C   UNL A   1      34.934  32.982  33.231  1.00  0.00     0.010 A 
ATOM     45  C   UNL A   1      36.186  33.584  33.048  1.00  0.00    -0.014 A 
BRANCH  45  46
ATOM     46  C   UNL A   1      37.420  32.880  33.475  1.00  0.00     0.031 A 
ATOM     47  C   UNL A   1      38.048  31.832  32.602  1.00  0.00     0.074 A 
ATOM     48  C   UNL A   1      37.955  33.163  34.679  1.00  0.00     0.049 A 
ATOM     49  N   UNL A   1      39.127  31.120  32.814  1.00  0.00    -0.248 NA
ATOM     50  C   UNL A   1      37.368  31.527  31.335  1.00  0.00     0.031 C 
ATOM     51  C   UNL A   1      37.405  34.123  35.637  1.00  0.00     0.029 A 
ATOM     52  N   UNL A   1      39.079  32.680  35.299  1.00  0.00    -0.354 N 
ATOM     53  C   UNL A   1      39.252  30.287  31.710  1.00  0.00     0.074 A 
ATOM     54  C   UNL A   1      38.106  30.534  30.862  1.00  0.00     0.031 C 
ATOM     55  C   UNL A   1      38.216  34.191  36.703  1.00  0.00     0.029 A 
ATOM     56  C   UNL A   1      39.319  33.251  36.525  1.00  0.00     0.049 A 
ATOM     57  H   UNL A   1      39.659  31.990  34.903  1.00  0.00     0.167 HD
ATOM     58  C   UNL A   1      40.248  29.418  31.420  1.00  0.00     0.037 A 
ATOM     59  C   UNL A   1      40.315  33.045  37.407  1.00  0.00     0.037 A 
ATOM     60  C   UNL A   1      41.392  29.185  32.265  1.00  0.00     0.049 A 
ATOM     61  C   UNL A   1      41.398  32.057  37.073  1.00  0.00     0.074 A 
ATOM     62  C   UNL A   1      42.482  28.365  32.031  1.00  0.00     0.029 A 
ATOM     63  N   UNL A   1      41.588  29.765  33.509  1.00  0.00    -0.354 N 
ATOM     64  N   UNL A   1      41.543  31.325  35.996  1.00  0.00    -0.248 NA
ATOM     65  C   UNL A   1      42.454  31.867  38.076  1.00  0.00     0.031 C 
ATOM     66  C   UNL A   1      43.306  28.401  33.160  1.00  0.00     0.029 A 
ATOM     67  C   UNL A   1      42.764  29.294  34.071  1.00  0.00     0.049 A 
ATOM     68  H   UNL A   1      40.982  30.416  33.932  1.00  0.00     0.167 HD
ATOM     69  C   UNL A   1      42.712  30.598  36.181  1.00  0.00     0.074 A 
ATOM     70  C   UNL A   1      43.248  30.995  37.467  1.00  0.00     0.031 C 
ATOM     71  C   UNL A   1      43.283  29.684  35.359  1.00  0.00     0.037 A 
BRANCH  58  72
ATOM     72  C   UNL A   1      40.156  28.656  30.127  1.00  0.00     0.064 A 
ATOM     73  C   UNL A   1      39.510  27.411  30.077  1.00  0.00     0.173 A 
ATOM     74  C   UNL A   1      40.755  29.129  28.950  1.00  0.00     0.173 A 
ATOM     75  F   UNL A   1      38.926  26.906  31.174  1.00  0.00    -0.203 F 
ATOM     76  C   UNL A   1      39.476  26.666  28.900  1.00  0.00     0.198 A 
ATOM     77  C   UNL A   1      40.689  28.399  27.766  1.00  0.00     0.198 A 
ATOM     78  F   UNL A   1      41.377  30.318  28.939  1.00  0.00    -0.203 F 
ATOM     79  F   UNL A   1      38.882  25.466  28.886  1.00  0.00    -0.200 F 
ATOM     80  C   UNL A   1      40.059  27.164  27.745  1.00  0.00     0.200 A 
ATOM     81  F   UNL A   1      41.228  28.894  26.644  1.00  0.00    -0.200 F 
ATOM     82  F   UNL A   1      40.010  26.455  26.609  1.00  0.00    -0.200 F 
ENDBRANCH  58  72
BRANCH  59  83
ATOM     83  C   UNL A   1      40.342  33.829  38.668  1.00  0.00     0.064 A 
ATOM     84  C   UNL A   1      39.615  33.423  39.797  1.00  0.00     0.173 A 
ATOM     85  C   UNL A   1      41.045  35.040  38.744  1.00  0.00     0.173 A 
ATOM     86  F   UNL A   1      38.920  32.276  39.772  1.00  0.00    -0.203 F 
ATOM     87  C   UNL A   1      39.566  34.214  40.943  1.00  0.00     0.198 A 
ATOM     88  C   UNL A   1      41.017  35.816  39.901  1.00  0.00     0.198 A 
ATOM     89  F   UNL A   1      41.768  35.460  37.697  1.00  0.00    -0.203 F 
ATOM     90  F   UNL A   1      38.824  33.826  41.990  1.00  0.00    -0.200 F 
ATOM     91  C   UNL A   1      40.268  35.408  40.995  1.00  0.00     0.200 A 
ATOM     92  F   UNL A   1      41.713  36.959  39.955  1.00  0.00    -0.200 F 
ATOM     93  F   UNL A   1      40.220  36.168  42.098  1.00  0.00    -0.200 F 
ENDBRANCH  59  83
BRANCH  71  94
ATOM     94  C   UNL A   1      44.560  29.039  35.819  1.00  0.00     0.064 A 
ATOM     95  C   UNL A   1      45.803  29.599  35.484  1.00  0.00     0.173 A 
ATOM     96  C   UNL A   1      44.556  27.830  36.530  1.00  0.00     0.173 A 
ATOM     97  F   UNL A   1      45.864  30.750  34.797  1.00  0.00    -0.203 F 
ATOM     98  C   UNL A   1      46.993  28.963  35.828  1.00  0.00     0.198 A 
ATOM     99  C   UNL A   1      45.747  27.214  36.902  1.00  0.00     0.198 A 
ATOM    100  F   UNL A   1      43.395  27.261  36.887  1.00  0.00    -0.203 F 
ATOM    101  F   UNL A   1      48.166  29.496  35.463  1.00  0.00    -0.200 F 
ATOM    102  C   UNL A   1      46.964  27.774  36.542  1.00  0.00     0.200 A 
ATOM    103  F   UNL A   1      45.718  26.080  37.616  1.00  0.00    -0.200 F 
ATOM    104  F   UNL A   1      48.110  27.170  36.885  1.00  0.00    -0.200 F 
ENDBRANCH  71  94
ENDBRANCH  45  46
ENDBRANCH  37  40
ENDBRANCH  35  36
ENDBRANCH  34  35
ENDBRANCH  33  34
ENDBRANCH  32  33
ENDBRANCH   1  32
TORSDOF 18
ENDMDL
MODEL 3
REMARK VINA RESULT:     -12.1      2.745      4.939
REMARK SMILES O=C(C[C@@H](NC(=O)c1cc(-c2ccc(F)cc2)on1)c1cccc(Br)c1)NCCCCCCNC(=O)c1ccc(-c2c3nc(c(-c4c(F)c(F)c(F)c(F)c4F)c4ccc([nH]4)c(-c4c(F)c(F)c(F)c(F)c4F)c4nc(c(-c5c(F)c(F)c(F)c(F)c5F)c5ccc2[nH]5)C=C4)C=C3)cc1
REMARK SMILES IDX 29 1 28 2 27 3 1 4 2 5 3 7 4 8 5 9 6 10 7 12 8 13 9 14 19 15
REMARK SMILES IDX 10 16 18 17 11 18 12 19 17 20 13 21 16 22 14 23 15 24 20 25
REMARK SMILES IDX 21 26 26 27 22 28 24 29 23 30 25 31 30 32 31 33 32 34 33 35
REMARK SMILES IDX 34 36 35 37 36 39 37 40 38 41 99 42 39 43 98 44 40 45 41 46
REMARK SMILES IDX 42 47 92 48 43 49 97 50 91 51 93 52 44 53 96 54 90 55 89 56
REMARK SMILES IDX 45 58 77 59 57 60 76 61 58 62 61 63 75 64 94 65 59 66 60 67
REMARK SMILES IDX 74 69 95 70 62 71 46 72 47 73 55 74 48 75 49 76 53 77 56 78
REMARK SMILES IDX 50 79 51 80 54 81 52 82 78 83 79 84 87 85 80 86 81 87 85 88
REMARK SMILES IDX 88 89 82 90 83 91 86 92 84 93 63 94 64 95 72 96 65 97 66 98
REMARK SMILES IDX 70 99 73 100 67 101 68 102 71 103 69 104
REMARK H PARENT 27 6 5 11 34 38 93 57 61 68
REMARK Flexibility Score: inf
ROOT
ATOM      1  C   UNL A   1      31.470  28.826  22.903  1.00  0.00     0.021 C 
ENDROOT
BRANCH   1   2
ATOM      2  C   UNL A   1      32.784  28.255  22.373  1.00  0.00     0.116 C 
BRANCH   2   3
ATOM      3  N   UNL A   1      33.080  27.014  23.055  1.00  0.00    -0.356 N 
ATOM      4  O   UNL A   1      33.330  25.725  21.179  1.00  0.00    -0.275 OA
ATOM      5  C   UNL A   1      33.241  25.825  22.397  1.00  0.00     0.222 C 
ATOM      6  H   UNL A   1      33.171  27.026  24.036  1.00  0.00     0.163 HD
BRANCH   5   7
ATOM      7  C   UNL A   1      33.266  24.627  23.314  1.00  0.00     0.129 C 
BRANCH   7   8
ATOM      8  C   UNL A   1      34.093  24.892  24.586  1.00  0.00     0.122 C 
BRANCH   8   9
ATOM      9  N   UNL A   1      33.265  24.915  25.810  1.00  0.00    -0.343 N 
ATOM     10  C   UNL A   1      32.417  24.037  26.449  1.00  0.00     0.273 C 
ATOM     11  H   UNL A   1      33.337  25.773  26.289  1.00  0.00     0.164 HD
ATOM     12  O   UNL A   1      31.890  24.428  27.492  1.00  0.00    -0.267 OA
BRANCH  10  13
ATOM     13  C   UNL A   1      32.259  22.672  25.980  1.00  0.00     0.171 A 
ATOM     14  C   UNL A   1      33.274  21.679  25.923  1.00  0.00     0.088 A 
ATOM     15  N   UNL A   1      31.092  22.195  25.524  1.00  0.00    -0.074 NA
ATOM     16  C   UNL A   1      32.715  20.666  25.179  1.00  0.00     0.167 A 
ATOM     17  O   UNL A   1      31.384  20.935  25.019  1.00  0.00    -0.355 OA
BRANCH  16  18
ATOM     18  C   UNL A   1      33.268  19.556  24.401  1.00  0.00     0.020 A 
ATOM     19  C   UNL A   1      32.488  18.925  23.413  1.00  0.00     0.015 A 
ATOM     20  C   UNL A   1      34.485  18.959  24.772  1.00  0.00     0.015 A 
ATOM     21  C   UNL A   1      32.868  17.687  22.888  1.00  0.00     0.040 A 
ATOM     22  C   UNL A   1      34.862  17.718  24.251  1.00  0.00     0.040 A 
ATOM     23  C   UNL A   1      34.037  17.082  23.332  1.00  0.00     0.123 A 
ATOM     24  F   UNL A   1      34.355  15.858  22.895  1.00  0.00    -0.207 F 
ENDBRANCH  16  18
ENDBRANCH  10  13
ENDBRANCH   8   9
BRANCH   8  25
ATOM     25  C   UNL A   1      35.364  24.071  24.653  1.00  0.00    -0.024 A 
ATOM     26  C   UNL A   1      35.511  22.961  23.805  1.00  0.00     0.006 A 
ATOM     27  C   UNL A   1      36.392  24.353  25.572  1.00  0.00     0.021 A 
ATOM     28  C   UNL A   1      36.638  22.141  23.895  1.00  0.00     0.002 A 
ATOM     29  C   UNL A   1      37.502  23.518  25.674  1.00  0.00     0.018 A 
ATOM     30  C   UNL A   1      37.624  22.408  24.845  1.00  0.00     0.016 A 
ATOM     31  Br  UNL A   1      38.849  23.903  26.942  1.00  0.00    -0.051 Br
ENDBRANCH   8  25
ENDBRANCH   7   8
ENDBRANCH   5   7
ENDBRANCH   2   3
ENDBRANCH   1   2
BRANCH   1  32
ATOM     32  C   UNL A   1      30.901  28.061  24.108  1.00  0.00     0.002 C 
BRANCH  32  33
ATOM     33  C   UNL A   1      31.061  28.776  25.452  1.00  0.00     0.002 C 
BRANCH  33  34
ATOM     34  C   UNL A   1      32.374  28.473  26.175  1.00  0.00     0.021 C 
BRANCH  34  35
ATOM     35  C   UNL A   1      33.496  29.457  25.873  1.00  0.00     0.116 C 
BRANCH  35  36
ATOM     36  N   UNL A   1      33.187  30.800  26.340  1.00  0.00    -0.352 N 
ATOM     37  C   UNL A   1      33.796  31.535  27.322  1.00  0.00     0.251 C 
ATOM     38  H   UNL A   1      32.435  31.243  25.886  1.00  0.00     0.163 HD
ATOM     39  O   UNL A   1      33.285  32.580  27.721  1.00  0.00    -0.269 OA
BRANCH  37  40
ATOM     40  C   UNL A   1      35.056  31.056  27.925  1.00  0.00     0.039 A 
ATOM     41  C   UNL A   1      36.143  31.930  27.990  1.00  0.00     0.014 A 
ATOM     42  C   UNL A   1      35.165  29.757  28.430  1.00  0.00     0.014 A 
ATOM     43  C   UNL A   1      37.320  31.520  28.616  1.00  0.00     0.010 A 
ATOM     44  C   UNL A   1      36.310  29.378  29.125  1.00  0.00     0.010 A 
ATOM     45  C   UNL A   1      37.399  30.254  29.224  1.00  0.00    -0.014 A 
BRANCH  45  46
ATOM     46  C   UNL A   1      38.607  29.857  29.988  1.00  0.00     0.031 A 
ATOM     47  C   UNL A   1      38.859  30.399  31.365  1.00  0.00     0.074 A 
ATOM     48  C   UNL A   1      39.502  29.026  29.416  1.00  0.00     0.049 A 
ATOM     49  N   UNL A   1      39.858  30.158  32.176  1.00  0.00    -0.248 NA
ATOM     50  C   UNL A   1      37.874  31.354  31.894  1.00  0.00     0.031 C 
ATOM     51  C   UNL A   1      39.393  28.476  28.065  1.00  0.00     0.029 A 
ATOM     52  N   UNL A   1      40.672  28.497  29.899  1.00  0.00    -0.354 N 
ATOM     53  C   UNL A   1      39.620  30.928  33.307  1.00  0.00     0.074 A 
ATOM     54  C   UNL A   1      38.420  31.694  33.052  1.00  0.00     0.031 C 
ATOM     55  C   UNL A   1      40.427  27.652  27.842  1.00  0.00     0.029 A 
ATOM     56  C   UNL A   1      41.295  27.649  29.017  1.00  0.00     0.049 A 
ATOM     57  H   UNL A   1      41.031  28.705  30.791  1.00  0.00     0.167 HD
ATOM     58  C   UNL A   1      40.325  30.968  34.462  1.00  0.00     0.037 A 
ATOM     59  C   UNL A   1      42.436  26.943  29.138  1.00  0.00     0.037 A 
ATOM     60  C   UNL A   1      41.514  30.195  34.713  1.00  0.00     0.049 A 
ATOM     61  C   UNL A   1      43.214  27.022  30.422  1.00  0.00     0.074 A 
ATOM     62  C   UNL A   1      42.267  30.125  35.872  1.00  0.00     0.029 A 
ATOM     63  N   UNL A   1      42.128  29.363  33.787  1.00  0.00    -0.354 N 
ATOM     64  N   UNL A   1      42.944  27.700  31.509  1.00  0.00    -0.248 NA
ATOM     65  C   UNL A   1      44.454  26.238  30.494  1.00  0.00     0.031 C 
ATOM     66  C   UNL A   1      43.370  29.301  35.627  1.00  0.00     0.029 A 
ATOM     67  C   UNL A   1      43.271  28.804  34.337  1.00  0.00     0.049 A 
ATOM     68  H   UNL A   1      41.801  29.195  32.874  1.00  0.00     0.167 HD
ATOM     69  C   UNL A   1      43.969  27.417  32.403  1.00  0.00     0.074 A 
ATOM     70  C   UNL A   1      44.855  26.486  31.735  1.00  0.00     0.031 C 
ATOM     71  C   UNL A   1      44.156  27.889  33.660  1.00  0.00     0.037 A 
BRANCH  58  72
ATOM     72  C   UNL A   1      39.825  31.873  35.554  1.00  0.00     0.064 A 
ATOM     73  C   UNL A   1      38.799  31.454  36.414  1.00  0.00     0.173 A 
ATOM     74  C   UNL A   1      40.320  33.177  35.713  1.00  0.00     0.173 A 
ATOM     75  F   UNL A   1      38.283  30.221  36.304  1.00  0.00    -0.203 F 
ATOM     76  C   UNL A   1      38.283  32.309  37.387  1.00  0.00     0.198 A 
ATOM     77  C   UNL A   1      39.827  34.016  36.707  1.00  0.00     0.198 A 
ATOM     78  F   UNL A   1      41.308  33.625  34.923  1.00  0.00    -0.203 F 
ATOM     79  F   UNL A   1      37.281  31.897  38.175  1.00  0.00    -0.200 F 
ATOM     80  C   UNL A   1      38.803  33.586  37.536  1.00  0.00     0.200 A 
ATOM     81  F   UNL A   1      40.349  35.240  36.870  1.00  0.00    -0.200 F 
ATOM     82  F   UNL A   1      38.317  34.401  38.484  1.00  0.00    -0.200 F 
ENDBRANCH  58  72
BRANCH  59  83
ATOM     83  C   UNL A   1      42.873  26.072  28.018  1.00  0.00     0.064 A 
ATOM     84  C   UNL A   1      43.686  26.563  26.985  1.00  0.00     0.173 A 
ATOM     85  C   UNL A   1      42.429  24.746  27.924  1.00  0.00     0.173 A 
ATOM     86  F   UNL A   1      44.132  27.827  27.023  1.00  0.00    -0.203 F 
ATOM     87  C   UNL A   1      44.012  25.769  25.887  1.00  0.00     0.198 A 
ATOM     88  C   UNL A   1      42.778  23.945  26.839  1.00  0.00     0.198 A 
ATOM     89  F   UNL A   1      41.664  24.227  28.896  1.00  0.00    -0.203 F 
ATOM     90  F   UNL A   1      44.750  26.278  24.890  1.00  0.00    -0.200 F 
ATOM     91  C   UNL A   1      43.560  24.460  25.816  1.00  0.00     0.200 A 
ATOM     92  F   UNL A   1      42.357  22.674  26.784  1.00  0.00    -0.200 F 
ATOM     93  F   UNL A   1      43.873  23.697  24.760  1.00  0.00    -0.200 F 
ENDBRANCH  59  83
BRANCH  71  94
ATOM     94  C   UNL A   1      45.369  27.412  34.407  1.00  0.00     0.064 A 
ATOM     95  C   UNL A   1      45.304  26.267  35.216  1.00  0.00     0.173 A 
ATOM     96  C   UNL A   1      46.574  28.128  34.380  1.00  0.00     0.173 A 
ATOM     97  F   UNL A   1      44.172  25.550  35.285  1.00  0.00    -0.203 F 
ATOM     98  C   UNL A   1      46.396  25.866  35.982  1.00  0.00     0.198 A 
ATOM     99  C   UNL A   1      47.675  27.706  35.121  1.00  0.00     0.198 A 
ATOM    100  F   UNL A   1      46.693  29.222  33.612  1.00  0.00    -0.203 F 
ATOM    101  F   UNL A   1      46.297  24.793  36.776  1.00  0.00    -0.200 F 
ATOM    102  C   UNL A   1      47.582  26.583  35.929  1.00  0.00     0.200 A 
ATOM    103  F   UNL A   1      48.829  28.384  35.047  1.00  0.00    -0.200 F 
ATOM    104  F   UNL A   1      48.636  26.189  36.656  1.00  0.00    -0.200 F 
ENDBRANCH  71  94
ENDBRANCH  45  46
ENDBRANCH  37  40
ENDBRANCH  35  36
ENDBRANCH  34  35
ENDBRANCH  33  34
ENDBRANCH  32  33
ENDBRANCH   1  32
TORSDOF 18
ENDMDL
