MODEL 1
REMARK VINA RESULT:     -11.6      0.000      0.000
REMARK SMILES C[C@@H]1CN(C(=O)C[NH+]2CCC(CC(=O)NCCCCCCNC(=O)c3ccc(-c4c5nc(c(-c6c(F)c(F)c(F)c(F)c6F)c6ccc([nH]6)c(-c6c(F)c(F)c(F)c(F)c6F)c6nc(c(-c7c(F)c(F)c(F)c(F)c7F)c7ccc4[nH]7)C=C6)C=C5)cc3)CC2)C[C@@H](C)O1
REMARK SMILES IDX 18 1 17 2 16 3 15 4 13 5 14 6 12 8 11 9 8 10 9 11 89 12
REMARK SMILES IDX 10 14 88 15 7 16 5 17 1 18 2 19 3 20 93 21 4 22 91 23 90 24
REMARK SMILES IDX 92 25 6 26 19 27 20 28 21 29 22 30 23 31 24 33 25 34 26 35
REMARK SMILES IDX 87 36 27 37 86 38 28 39 29 40 30 41 80 42 31 43 85 44 79 45
REMARK SMILES IDX 81 46 32 47 84 48 78 49 77 50 33 52 65 53 45 54 64 55 46 56
REMARK SMILES IDX 49 57 63 58 82 59 47 60 48 61 62 63 83 64 50 65 34 66 35 67
REMARK SMILES IDX 43 68 36 69 37 70 41 71 44 72 38 73 39 74 42 75 40 76 66 77
REMARK SMILES IDX 67 78 75 79 68 80 69 81 73 82 76 83 70 84 71 85 74 86 72 87
REMARK SMILES IDX 51 88 52 89 60 90 53 91 54 92 58 93 61 94 55 95 56 96 59 97
REMARK SMILES IDX 57 98
REMARK H PARENT 15 7 8 13 22 32 81 51 49 62
REMARK Flexibility Score: inf
ROOT
ATOM      1  C   UNL A   1      35.143  33.684  29.226  1.00  0.00     0.002 C 
ENDROOT
BRANCH   1   2
ATOM      2  C   UNL A   1      34.536  32.284  29.145  1.00  0.00     0.021 C 
BRANCH   2   3
ATOM      3  C   UNL A   1      33.987  31.910  27.764  1.00  0.00     0.116 C 
BRANCH   3   4
ATOM      4  N   UNL A   1      34.519  30.627  27.338  1.00  0.00    -0.356 N 
ATOM      5  C   UNL A   1      33.903  29.428  27.142  1.00  0.00     0.220 C 
ATOM      6  O   UNL A   1      34.610  28.446  26.907  1.00  0.00    -0.275 OA
ATOM      7  H   UNL A   1      35.487  30.624  27.162  1.00  0.00     0.163 HD
BRANCH   5   8
ATOM      8  C   UNL A   1      32.392  29.298  27.181  1.00  0.00     0.104 C 
BRANCH   8   9
ATOM      9  C   UNL A   1      31.738  28.968  25.819  1.00  0.00     0.009 C 
ATOM     10  N   UNL A   1      32.454  27.215  23.511  1.00  0.00    -0.327 N 
ATOM     11  C   UNL A   1      31.286  26.893  24.349  1.00  0.00     0.262 C 
ATOM     12  C   UNL A   1      32.502  28.667  23.354  1.00  0.00     0.262 C 
ATOM     13  H   UNL A   1      32.383  26.809  22.577  1.00  0.00     0.348 HD
ATOM     14  C   UNL A   1      31.373  27.469  25.767  1.00  0.00     0.066 C 
ATOM     15  C   UNL A   1      32.652  29.412  24.668  1.00  0.00     0.066 C 
BRANCH  10  16
ATOM     16  C   UNL A   1      33.681  26.617  24.092  1.00  0.00     0.363 C 
BRANCH  16  17
ATOM     17  C   UNL A   1      33.913  25.135  23.785  1.00  0.00     0.277 C 
ATOM     18  C   UNL A   1      31.193  23.226  25.152  1.00  0.00     0.040 C 
ATOM     19  C   UNL A   1      32.350  23.134  26.148  1.00  0.00     0.135 C 
ATOM     20  C   UNL A   1      33.310  24.344  26.086  1.00  0.00     0.151 C 
ATOM     21  O   UNL A   1      33.066  21.891  25.985  1.00  0.00    -0.372 OA
ATOM     22  N   UNL A   1      34.097  24.284  24.858  1.00  0.00    -0.333 N 
ATOM     23  C   UNL A   1      33.853  21.831  24.777  1.00  0.00     0.135 C 
ATOM     24  C   UNL A   1      34.813  23.024  24.684  1.00  0.00     0.151 C 
ATOM     25  C   UNL A   1      34.633  20.522  24.806  1.00  0.00     0.040 C 
ATOM     26  O   UNL A   1      34.054  24.752  22.620  1.00  0.00    -0.268 OA
ENDBRANCH  16  17
ENDBRANCH  10  16
ENDBRANCH   8   9
ENDBRANCH   5   8
ENDBRANCH   3   4
ENDBRANCH   2   3
ENDBRANCH   1   2
BRANCH   1  27
ATOM     27  C   UNL A   1      34.526  34.710  28.273  1.00  0.00     0.002 C 
BRANCH  27  28
ATOM     28  C   UNL A   1      33.249  35.389  28.776  1.00  0.00     0.021 C 
BRANCH  28  29
ATOM     29  C   UNL A   1      33.461  36.455  29.850  1.00  0.00     0.116 C 
BRANCH  29  30
ATOM     30  N   UNL A   1      32.483  36.352  30.922  1.00  0.00    -0.352 N 
ATOM     31  C   UNL A   1      32.507  35.586  32.061  1.00  0.00     0.251 C 
ATOM     32  H   UNL A   1      31.685  36.917  30.815  1.00  0.00     0.163 HD
ATOM     33  O   UNL A   1      31.494  35.460  32.741  1.00  0.00    -0.269 OA
BRANCH  31  34
ATOM     34  C   UNL A   1      33.751  34.901  32.469  1.00  0.00     0.039 A 
ATOM     35  C   UNL A   1      33.681  33.574  32.899  1.00  0.00     0.014 A 
ATOM     36  C   UNL A   1      34.976  35.575  32.463  1.00  0.00     0.014 A 
ATOM     37  C   UNL A   1      34.847  32.904  33.274  1.00  0.00     0.010 A 
ATOM     38  C   UNL A   1      36.147  34.887  32.771  1.00  0.00     0.010 A 
ATOM     39  C   UNL A   1      36.094  33.548  33.187  1.00  0.00    -0.014 A 
BRANCH  39  40
ATOM     40  C   UNL A   1      37.347  32.832  33.528  1.00  0.00     0.031 A 
ATOM     41  C   UNL A   1      38.079  33.146  34.803  1.00  0.00     0.074 A 
ATOM     42  C   UNL A   1      37.863  31.945  32.655  1.00  0.00     0.049 A 
ATOM     43  N   UNL A   1      39.210  32.660  35.250  1.00  0.00    -0.248 NA
ATOM     44  C   UNL A   1      37.474  34.162  35.678  1.00  0.00     0.031 C 
ATOM     45  C   UNL A   1      37.280  31.604  31.357  1.00  0.00     0.029 A 
ATOM     46  N   UNL A   1      39.001  31.181  32.720  1.00  0.00    -0.354 N 
ATOM     47  C   UNL A   1      39.461  33.324  36.444  1.00  0.00     0.074 A 
ATOM     48  C   UNL A   1      38.391  34.281  36.627  1.00  0.00     0.031 C 
ATOM     49  C   UNL A   1      38.055  30.687  30.755  1.00  0.00     0.029 A 
ATOM     50  C   UNL A   1      39.204  30.400  31.610  1.00  0.00     0.049 A 
ATOM     51  H   UNL A   1      39.613  31.191  33.492  1.00  0.00     0.167 HD
ATOM     52  C   UNL A   1      40.480  33.137  37.316  1.00  0.00     0.037 A 
ATOM     53  C   UNL A   1      40.206  29.553  31.311  1.00  0.00     0.037 A 
ATOM     54  C   UNL A   1      41.525  32.163  37.143  1.00  0.00     0.049 A 
ATOM     55  C   UNL A   1      41.311  29.342  32.308  1.00  0.00     0.074 A 
ATOM     56  C   UNL A   1      42.553  31.835  38.009  1.00  0.00     0.029 A 
ATOM     57  N   UNL A   1      41.681  31.363  36.019  1.00  0.00    -0.354 N 
ATOM     58  N   UNL A   1      41.490  29.909  33.476  1.00  0.00    -0.248 NA
ATOM     59  C   UNL A   1      42.348  28.364  31.950  1.00  0.00     0.031 C 
ATOM     60  C   UNL A   1      43.359  30.874  37.389  1.00  0.00     0.029 A 
ATOM     61  C   UNL A   1      42.803  30.563  36.158  1.00  0.00     0.049 A 
ATOM     62  H   UNL A   1      41.080  31.364  35.238  1.00  0.00     0.167 HD
ATOM     63  C   UNL A   1      42.644  29.345  34.003  1.00  0.00     0.074 A 
ATOM     64  C   UNL A   1      43.113  28.376  33.033  1.00  0.00     0.031 C 
ATOM     65  C   UNL A   1      43.260  29.607  35.181  1.00  0.00     0.037 A 
BRANCH  52  66
ATOM     66  C   UNL A   1      40.515  34.009  38.540  1.00  0.00     0.064 A 
ATOM     67  C   UNL A   1      39.854  33.649  39.724  1.00  0.00     0.173 A 
ATOM     68  C   UNL A   1      41.243  35.209  38.536  1.00  0.00     0.173 A 
ATOM     69  F   UNL A   1      39.136  32.517  39.778  1.00  0.00    -0.203 F 
ATOM     70  C   UNL A   1      39.891  34.473  40.845  1.00  0.00     0.198 A 
ATOM     71  C   UNL A   1      41.304  36.015  39.669  1.00  0.00     0.198 A 
ATOM     72  F   UNL A   1      41.901  35.598  37.433  1.00  0.00    -0.203 F 
ATOM     73  F   UNL A   1      39.206  34.134  41.947  1.00  0.00    -0.200 F 
ATOM     74  C   UNL A   1      40.621  35.652  40.820  1.00  0.00     0.200 A 
ATOM     75  F   UNL A   1      42.022  37.147  39.647  1.00  0.00    -0.200 F 
ATOM     76  F   UNL A   1      40.659  36.443  41.901  1.00  0.00    -0.200 F 
ENDBRANCH  52  66
BRANCH  53  77
ATOM     77  C   UNL A   1      40.189  28.822  30.017  1.00  0.00     0.064 A 
ATOM     78  C   UNL A   1      40.845  29.336  28.891  1.00  0.00     0.173 A 
ATOM     79  C   UNL A   1      39.534  27.589  29.887  1.00  0.00     0.173 A 
ATOM     80  F   UNL A   1      41.469  30.520  28.962  1.00  0.00    -0.203 F 
ATOM     81  C   UNL A   1      40.834  28.651  27.677  1.00  0.00     0.198 A 
ATOM     82  C   UNL A   1      39.547  26.891  28.681  1.00  0.00     0.198 A 
ATOM     83  F   UNL A   1      38.898  27.051  30.938  1.00  0.00    -0.203 F 
ATOM     84  F   UNL A   1      41.437  29.183  26.605  1.00  0.00    -0.200 F 
ATOM     85  C   UNL A   1      40.191  27.426  27.575  1.00  0.00     0.200 A 
ATOM     86  F   UNL A   1      38.939  25.701  28.591  1.00  0.00    -0.200 F 
ATOM     87  F   UNL A   1      40.190  26.763  26.410  1.00  0.00    -0.200 F 
ENDBRANCH  53  77
BRANCH  65  88
ATOM     88  C   UNL A   1      44.499  28.818  35.498  1.00  0.00     0.064 A 
ATOM     89  C   UNL A   1      44.438  27.604  36.196  1.00  0.00     0.173 A 
ATOM     90  C   UNL A   1      45.757  29.268  35.068  1.00  0.00     0.173 A 
ATOM     91  F   UNL A   1      43.261  27.139  36.642  1.00  0.00    -0.203 F 
ATOM     92  C   UNL A   1      45.595  26.881  36.476  1.00  0.00     0.198 A 
ATOM     93  C   UNL A   1      46.908  28.527  35.323  1.00  0.00     0.198 A 
ATOM     94  F   UNL A   1      45.869  30.420  34.391  1.00  0.00    -0.203 F 
ATOM     95  F   UNL A   1      45.518  25.748  37.189  1.00  0.00    -0.200 F 
ATOM     96  C   UNL A   1      46.826  27.339  36.033  1.00  0.00     0.200 A 
ATOM     97  F   UNL A   1      48.095  28.964  34.883  1.00  0.00    -0.200 F 
ATOM     98  F   UNL A   1      47.938  26.639  36.299  1.00  0.00    -0.200 F 
ENDBRANCH  65  88
ENDBRANCH  39  40
ENDBRANCH  31  34
ENDBRANCH  29  30
ENDBRANCH  28  29
ENDBRANCH  27  28
ENDBRANCH   1  27
TORSDOF 16
ENDMDL
MODEL 2
REMARK VINA RESULT:     -11.6      0.047      1.103
REMARK SMILES C[C@@H]1CN(C(=O)C[NH+]2CCC(CC(=O)NCCCCCCNC(=O)c3ccc(-c4c5nc(c(-c6c(F)c(F)c(F)c(F)c6F)c6ccc([nH]6)c(-c6c(F)c(F)c(F)c(F)c6F)c6nc(c(-c7c(F)c(F)c(F)c(F)c7F)c7ccc4[nH]7)C=C6)C=C5)cc3)CC2)C[C@@H](C)O1
REMARK SMILES IDX 18 1 17 2 16 3 15 4 13 5 14 6 12 8 11 9 8 10 9 11 89 12
REMARK SMILES IDX 10 14 88 15 7 16 5 17 1 18 2 19 3 20 93 21 4 22 91 23 90 24
REMARK SMILES IDX 92 25 6 26 19 27 20 28 21 29 22 30 23 31 24 33 25 34 26 35
REMARK SMILES IDX 87 36 27 37 86 38 28 39 29 40 30 41 80 42 31 43 85 44 79 45
REMARK SMILES IDX 81 46 32 47 84 48 78 49 77 50 33 52 65 53 45 54 64 55 46 56
REMARK SMILES IDX 49 57 63 58 82 59 47 60 48 61 62 63 83 64 50 65 34 66 35 67
REMARK SMILES IDX 43 68 36 69 37 70 41 71 44 72 38 73 39 74 42 75 40 76 66 77
REMARK SMILES IDX 67 78 75 79 68 80 69 81 73 82 76 83 70 84 71 85 74 86 72 87
REMARK SMILES IDX 51 88 52 89 60 90 53 91 54 92 58 93 61 94 55 95 56 96 59 97
REMARK SMILES IDX 57 98
REMARK H PARENT 15 7 8 13 22 32 81 51 49 62
REMARK Flexibility Score: inf
ROOT
ATOM      1  C   UNL A   1      35.162  33.695  29.200  1.00  0.00     0.002 C 
ENDROOT
BRANCH   1   2
ATOM      2  C   UNL A   1      34.619  32.267  29.128  1.00  0.00     0.021 C 
BRANCH   2   3
ATOM      3  C   UNL A   1      34.010  31.889  27.774  1.00  0.00     0.116 C 
BRANCH   3   4
ATOM      4  N   UNL A   1      34.523  30.605  27.329  1.00  0.00    -0.356 N 
ATOM      5  C   UNL A   1      33.890  29.420  27.108  1.00  0.00     0.220 C 
ATOM      6  O   UNL A   1      34.582  28.431  26.860  1.00  0.00    -0.275 OA
ATOM      7  H   UNL A   1      35.492  30.590  27.158  1.00  0.00     0.163 HD
BRANCH   5   8
ATOM      8  C   UNL A   1      32.376  29.314  27.136  1.00  0.00     0.104 C 
BRANCH   8   9
ATOM      9  C   UNL A   1      31.727  28.987  25.771  1.00  0.00     0.009 C 
ATOM     10  N   UNL A   1      32.446  27.228  23.468  1.00  0.00    -0.327 N 
ATOM     11  C   UNL A   1      31.271  26.913  24.300  1.00  0.00     0.262 C 
ATOM     12  C   UNL A   1      32.502  28.679  23.310  1.00  0.00     0.262 C 
ATOM     13  H   UNL A   1      32.377  26.821  22.534  1.00  0.00     0.348 HD
ATOM     14  C   UNL A   1      31.355  27.490  25.718  1.00  0.00     0.066 C 
ATOM     15  C   UNL A   1      32.650  29.424  24.625  1.00  0.00     0.066 C 
BRANCH  10  16
ATOM     16  C   UNL A   1      33.665  26.623  24.056  1.00  0.00     0.363 C 
BRANCH  16  17
ATOM     17  C   UNL A   1      33.887  25.137  23.758  1.00  0.00     0.277 C 
ATOM     18  C   UNL A   1      31.152  23.257  25.133  1.00  0.00     0.040 C 
ATOM     19  C   UNL A   1      32.308  23.162  26.130  1.00  0.00     0.135 C 
ATOM     20  C   UNL A   1      33.277  24.364  26.063  1.00  0.00     0.151 C 
ATOM     21  O   UNL A   1      33.015  21.912  25.975  1.00  0.00    -0.372 OA
ATOM     22  N   UNL A   1      34.064  24.291  24.835  1.00  0.00    -0.333 N 
ATOM     23  C   UNL A   1      33.803  21.840  24.768  1.00  0.00     0.135 C 
ATOM     24  C   UNL A   1      34.771  23.025  24.668  1.00  0.00     0.151 C 
ATOM     25  C   UNL A   1      34.573  20.526  24.805  1.00  0.00     0.040 C 
ATOM     26  O   UNL A   1      34.026  24.747  22.595  1.00  0.00    -0.268 OA
ENDBRANCH  16  17
ENDBRANCH  10  16
ENDBRANCH   8   9
ENDBRANCH   5   8
ENDBRANCH   3   4
ENDBRANCH   2   3
ENDBRANCH   1   2
BRANCH   1  27
ATOM     27  C   UNL A   1      34.500  34.684  28.240  1.00  0.00     0.002 C 
BRANCH  27  28
ATOM     28  C   UNL A   1      33.230  35.362  28.766  1.00  0.00     0.021 C 
BRANCH  28  29
ATOM     29  C   UNL A   1      33.459  36.426  29.838  1.00  0.00     0.116 C 
BRANCH  29  30
ATOM     30  N   UNL A   1      32.486  36.335  30.915  1.00  0.00    -0.352 N 
ATOM     31  C   UNL A   1      32.511  35.579  32.059  1.00  0.00     0.251 C 
ATOM     32  H   UNL A   1      31.689  36.901  30.806  1.00  0.00     0.163 HD
ATOM     33  O   UNL A   1      31.501  35.462  32.744  1.00  0.00    -0.269 OA
BRANCH  31  34
ATOM     34  C   UNL A   1      33.755  34.894  32.468  1.00  0.00     0.039 A 
ATOM     35  C   UNL A   1      33.685  33.566  32.900  1.00  0.00     0.014 A 
ATOM     36  C   UNL A   1      34.980  35.567  32.462  1.00  0.00     0.014 A 
ATOM     37  C   UNL A   1      34.851  32.897  33.275  1.00  0.00     0.010 A 
ATOM     38  C   UNL A   1      36.151  34.879  32.772  1.00  0.00     0.010 A 
ATOM     39  C   UNL A   1      36.097  33.540  33.188  1.00  0.00    -0.014 A 
BRANCH  39  40
ATOM     40  C   UNL A   1      37.351  32.824  33.530  1.00  0.00     0.031 A 
ATOM     41  C   UNL A   1      38.084  33.141  34.803  1.00  0.00     0.074 A 
ATOM     42  C   UNL A   1      37.865  31.934  32.660  1.00  0.00     0.049 A 
ATOM     43  N   UNL A   1      39.215  32.656  35.251  1.00  0.00    -0.248 NA
ATOM     44  C   UNL A   1      37.482  34.161  35.675  1.00  0.00     0.031 C 
ATOM     45  C   UNL A   1      37.280  31.589  31.364  1.00  0.00     0.029 A 
ATOM     46  N   UNL A   1      39.002  31.169  32.726  1.00  0.00    -0.354 N 
ATOM     47  C   UNL A   1      39.468  33.323  36.442  1.00  0.00     0.074 A 
ATOM     48  C   UNL A   1      38.399  34.282  36.624  1.00  0.00     0.031 C 
ATOM     49  C   UNL A   1      38.053  30.670  30.764  1.00  0.00     0.029 A 
ATOM     50  C   UNL A   1      39.203  30.384  31.618  1.00  0.00     0.049 A 
ATOM     51  H   UNL A   1      39.615  31.181  33.497  1.00  0.00     0.167 HD
ATOM     52  C   UNL A   1      40.488  33.138  37.314  1.00  0.00     0.037 A 
ATOM     53  C   UNL A   1      40.203  29.535  31.321  1.00  0.00     0.037 A 
ATOM     54  C   UNL A   1      41.532  32.163  37.142  1.00  0.00     0.049 A 
ATOM     55  C   UNL A   1      41.310  29.326  32.317  1.00  0.00     0.074 A 
ATOM     56  C   UNL A   1      42.561  31.837  38.008  1.00  0.00     0.029 A 
ATOM     57  N   UNL A   1      41.685  31.359  36.021  1.00  0.00    -0.354 N 
ATOM     58  N   UNL A   1      41.491  29.897  33.484  1.00  0.00    -0.248 NA
ATOM     59  C   UNL A   1      42.345  28.346  31.962  1.00  0.00     0.031 C 
ATOM     60  C   UNL A   1      43.365  30.873  37.390  1.00  0.00     0.029 A 
ATOM     61  C   UNL A   1      42.807  30.558  36.162  1.00  0.00     0.049 A 
ATOM     62  H   UNL A   1      41.084  31.358  35.241  1.00  0.00     0.167 HD
ATOM     63  C   UNL A   1      42.645  29.333  34.010  1.00  0.00     0.074 A 
ATOM     64  C   UNL A   1      43.111  28.360  33.043  1.00  0.00     0.031 C 
ATOM     65  C   UNL A   1      43.262  29.599  35.187  1.00  0.00     0.037 A 
BRANCH  52  66
ATOM     66  C   UNL A   1      40.526  34.015  38.535  1.00  0.00     0.064 A 
ATOM     67  C   UNL A   1      39.863  33.660  39.719  1.00  0.00     0.173 A 
ATOM     68  C   UNL A   1      41.256  35.212  38.527  1.00  0.00     0.173 A 
ATOM     69  F   UNL A   1      39.142  32.530  39.778  1.00  0.00    -0.203 F 
ATOM     70  C   UNL A   1      39.903  34.488  40.838  1.00  0.00     0.198 A 
ATOM     71  C   UNL A   1      41.320  36.022  39.658  1.00  0.00     0.198 A 
ATOM     72  F   UNL A   1      41.916  35.596  37.422  1.00  0.00    -0.203 F 
ATOM     73  F   UNL A   1      39.216  34.155  41.941  1.00  0.00    -0.200 F 
ATOM     74  C   UNL A   1      40.635  35.665  40.809  1.00  0.00     0.200 A 
ATOM     75  F   UNL A   1      42.040  37.152  39.631  1.00  0.00    -0.200 F 
ATOM     76  F   UNL A   1      40.676  36.459  41.888  1.00  0.00    -0.200 F 
ENDBRANCH  52  66
BRANCH  53  77
ATOM     77  C   UNL A   1      40.185  28.800  30.029  1.00  0.00     0.064 A 
ATOM     78  C   UNL A   1      40.840  29.309  28.901  1.00  0.00     0.173 A 
ATOM     79  C   UNL A   1      39.528  27.567  29.904  1.00  0.00     0.173 A 
ATOM     80  F   UNL A   1      41.466  30.493  28.967  1.00  0.00    -0.203 F 
ATOM     81  C   UNL A   1      40.827  28.620  27.689  1.00  0.00     0.198 A 
ATOM     82  C   UNL A   1      39.539  26.866  28.700  1.00  0.00     0.198 A 
ATOM     83  F   UNL A   1      38.892  27.034  30.957  1.00  0.00    -0.203 F 
ATOM     84  F   UNL A   1      41.429  29.148  26.615  1.00  0.00    -0.200 F 
ATOM     85  C   UNL A   1      40.182  27.396  27.592  1.00  0.00     0.200 A 
ATOM     86  F   UNL A   1      38.929  25.676  28.615  1.00  0.00    -0.200 F 
ATOM     87  F   UNL A   1      40.179  26.729  26.429  1.00  0.00    -0.200 F 
ENDBRANCH  53  77
BRANCH  65  88
ATOM     88  C   UNL A   1      44.500  28.810  35.506  1.00  0.00     0.064 A 
ATOM     89  C   UNL A   1      45.776  29.266  35.143  1.00  0.00     0.173 A 
ATOM     90  C   UNL A   1      44.411  27.600  36.211  1.00  0.00     0.173 A 
ATOM     91  F   UNL A   1      45.914  30.410  34.454  1.00  0.00    -0.203 F 
ATOM     92  C   UNL A   1      46.915  28.527  35.452  1.00  0.00     0.198 A 
ATOM     93  C   UNL A   1      45.553  26.878  36.544  1.00  0.00     0.198 A 
ATOM     94  F   UNL A   1      43.215  27.122  36.587  1.00  0.00    -0.203 F 
ATOM     95  F   UNL A   1      48.119  28.958  35.051  1.00  0.00    -0.200 F 
ATOM     96  C   UNL A   1      46.803  27.339  36.158  1.00  0.00     0.200 A 
ATOM     97  F   UNL A   1      45.446  25.738  37.238  1.00  0.00    -0.200 F 
ATOM     98  F   UNL A   1      47.901  26.631  36.458  1.00  0.00    -0.200 F 
ENDBRANCH  65  88
ENDBRANCH  39  40
ENDBRANCH  31  34
ENDBRANCH  29  30
ENDBRANCH  28  29
ENDBRANCH  27  28
ENDBRANCH   1  27
TORSDOF 16
ENDMDL
MODEL 3
REMARK VINA RESULT:     -11.4      6.651     12.407
REMARK SMILES C[C@@H]1CN(C(=O)C[NH+]2CCC(CC(=O)NCCCCCCNC(=O)c3ccc(-c4c5nc(c(-c6c(F)c(F)c(F)c(F)c6F)c6ccc([nH]6)c(-c6c(F)c(F)c(F)c(F)c6F)c6nc(c(-c7c(F)c(F)c(F)c(F)c7F)c7ccc4[nH]7)C=C6)C=C5)cc3)CC2)C[C@@H](C)O1
REMARK SMILES IDX 18 1 17 2 16 3 15 4 13 5 14 6 12 8 11 9 8 10 9 11 89 12
REMARK SMILES IDX 10 14 88 15 7 16 5 17 1 18 2 19 3 20 93 21 4 22 91 23 90 24
REMARK SMILES IDX 92 25 6 26 19 27 20 28 21 29 22 30 23 31 24 33 25 34 26 35
REMARK SMILES IDX 87 36 27 37 86 38 28 39 29 40 30 41 80 42 31 43 85 44 79 45
REMARK SMILES IDX 81 46 32 47 84 48 78 49 77 50 33 52 65 53 45 54 64 55 46 56
REMARK SMILES IDX 49 57 63 58 82 59 47 60 48 61 62 63 83 64 50 65 34 66 35 67
REMARK SMILES IDX 43 68 36 69 37 70 41 71 44 72 38 73 39 74 42 75 40 76 66 77
REMARK SMILES IDX 67 78 75 79 68 80 69 81 73 82 76 83 70 84 71 85 74 86 72 87
REMARK SMILES IDX 51 88 52 89 60 90 53 91 54 92 58 93 61 94 55 95 56 96 59 97
REMARK SMILES IDX 57 98
REMARK H PARENT 15 7 8 13 22 32 81 51 49 62
REMARK Flexibility Score: inf
ROOT
ATOM      1  C   UNL A   1      41.373  21.910  26.152  1.00  0.00     0.002 C 
ENDROOT
BRANCH   1   2
ATOM      2  C   UNL A   1      39.997  22.356  26.647  1.00  0.00     0.021 C 
BRANCH   2   3
ATOM      3  C   UNL A   1      38.823  21.814  25.825  1.00  0.00     0.116 C 
BRANCH   3   4
ATOM      4  N   UNL A   1      37.897  22.885  25.498  1.00  0.00    -0.356 N 
ATOM      5  C   UNL A   1      36.698  22.861  24.853  1.00  0.00     0.220 C 
ATOM      6  O   UNL A   1      36.166  23.939  24.579  1.00  0.00    -0.275 OA
ATOM      7  H   UNL A   1      38.186  23.779  25.791  1.00  0.00     0.163 HD
BRANCH   5   8
ATOM      8  C   UNL A   1      36.013  21.553  24.503  1.00  0.00     0.104 C 
BRANCH   8   9
ATOM      9  C   UNL A   1      34.752  21.241  25.343  1.00  0.00     0.009 C 
ATOM     10  N   UNL A   1      32.746  22.888  26.817  1.00  0.00    -0.327 N 
ATOM     11  C   UNL A   1      32.345  22.138  25.614  1.00  0.00     0.262 C 
ATOM     12  C   UNL A   1      33.685  22.057  27.567  1.00  0.00     0.262 C 
ATOM     13  H   UNL A   1      31.954  23.084  27.431  1.00  0.00     0.348 HD
ATOM     14  C   UNL A   1      33.509  21.849  24.659  1.00  0.00     0.066 C 
ATOM     15  C   UNL A   1      34.944  21.717  26.789  1.00  0.00     0.066 C 
BRANCH  10  16
ATOM     16  C   UNL A   1      33.270  24.222  26.437  1.00  0.00     0.363 C 
BRANCH  16  17
ATOM     17  C   UNL A   1      32.219  25.287  26.110  1.00  0.00     0.277 C 
ATOM     18  C   UNL A   1      30.447  24.296  23.146  1.00  0.00     0.040 C 
ATOM     19  C   UNL A   1      31.510  25.308  22.715  1.00  0.00     0.135 C 
ATOM     20  C   UNL A   1      32.734  25.349  23.658  1.00  0.00     0.151 C 
ATOM     21  O   UNL A   1      30.930  26.620  22.555  1.00  0.00    -0.372 OA
ATOM     22  N   UNL A   1      32.360  25.976  24.921  1.00  0.00    -0.333 N 
ATOM     23  C   UNL A   1      30.567  27.249  23.802  1.00  0.00     0.135 C 
ATOM     24  C   UNL A   1      31.762  27.299  24.763  1.00  0.00     0.151 C 
ATOM     25  C   UNL A   1      30.085  28.657  23.478  1.00  0.00     0.040 C 
ATOM     26  O   UNL A   1      31.359  25.593  26.942  1.00  0.00    -0.268 OA
ENDBRANCH  16  17
ENDBRANCH  10  16
ENDBRANCH   8   9
ENDBRANCH   5   8
ENDBRANCH   3   4
ENDBRANCH   2   3
ENDBRANCH   1   2
BRANCH   1  27
ATOM     27  C   UNL A   1      41.981  20.731  26.914  1.00  0.00     0.002 C 
BRANCH  27  28
ATOM     28  C   UNL A   1      42.129  19.435  26.110  1.00  0.00     0.021 C 
BRANCH  28  29
ATOM     29  C   UNL A   1      43.518  18.802  26.153  1.00  0.00     0.116 C 
BRANCH  29  30
ATOM     30  N   UNL A   1      44.091  18.650  24.824  1.00  0.00    -0.352 N 
ATOM     31  C   UNL A   1      44.593  19.600  23.971  1.00  0.00     0.251 C 
ATOM     32  H   UNL A   1      44.123  17.727  24.486  1.00  0.00     0.163 HD
ATOM     33  O   UNL A   1      44.829  19.317  22.801  1.00  0.00    -0.269 OA
BRANCH  31  34
ATOM     34  C   UNL A   1      44.843  20.974  24.455  1.00  0.00     0.039 A 
ATOM     35  C   UNL A   1      44.471  22.053  23.649  1.00  0.00     0.014 A 
ATOM     36  C   UNL A   1      45.476  21.198  25.681  1.00  0.00     0.014 A 
ATOM     37  C   UNL A   1      44.685  23.358  24.095  1.00  0.00     0.010 A 
ATOM     38  C   UNL A   1      45.627  22.499  26.156  1.00  0.00     0.010 A 
ATOM     39  C   UNL A   1      45.240  23.591  25.365  1.00  0.00    -0.014 A 
BRANCH  39  40
ATOM     40  C   UNL A   1      45.422  24.972  25.876  1.00  0.00     0.031 A 
ATOM     41  C   UNL A   1      46.780  25.616  25.859  1.00  0.00     0.074 A 
ATOM     42  C   UNL A   1      44.375  25.622  26.419  1.00  0.00     0.049 A 
ATOM     43  N   UNL A   1      47.145  26.793  26.302  1.00  0.00    -0.248 NA
ATOM     44  C   UNL A   1      47.881  24.820  25.294  1.00  0.00     0.031 C 
ATOM     45  C   UNL A   1      43.023  25.077  26.551  1.00  0.00     0.029 A 
ATOM     46  N   UNL A   1      44.285  26.873  26.973  1.00  0.00    -0.354 N 
ATOM     47  C   UNL A   1      48.515  26.870  26.090  1.00  0.00     0.074 A 
ATOM     48  C   UNL A   1      48.925  25.603  25.522  1.00  0.00     0.031 C 
ATOM     49  C   UNL A   1      42.235  25.995  27.134  1.00  0.00     0.029 A 
ATOM     50  C   UNL A   1      43.033  27.179  27.444  1.00  0.00     0.049 A 
ATOM     51  H   UNL A   1      45.048  27.494  27.027  1.00  0.00     0.167 HD
ATOM     52  C   UNL A   1      49.350  27.910  26.328  1.00  0.00     0.037 A 
ATOM     53  C   UNL A   1      42.579  28.285  28.061  1.00  0.00     0.037 A 
ATOM     54  C   UNL A   1      48.930  29.177  26.864  1.00  0.00     0.049 A 
ATOM     55  C   UNL A   1      43.518  29.437  28.288  1.00  0.00     0.074 A 
ATOM     56  C   UNL A   1      49.680  30.324  27.061  1.00  0.00     0.029 A 
ATOM     57  N   UNL A   1      47.643  29.464  27.299  1.00  0.00    -0.354 N 
ATOM     58  N   UNL A   1      44.794  29.533  27.999  1.00  0.00    -0.248 NA
ATOM     59  C   UNL A   1      42.953  30.639  28.916  1.00  0.00     0.031 C 
ATOM     60  C   UNL A   1      48.861  31.286  27.661  1.00  0.00     0.029 A 
ATOM     61  C   UNL A   1      47.586  30.759  27.788  1.00  0.00     0.049 A 
ATOM     62  H   UNL A   1      46.883  28.839  27.264  1.00  0.00     0.167 HD
ATOM     63  C   UNL A   1      45.179  30.809  28.390  1.00  0.00     0.074 A 
ATOM     64  C   UNL A   1      43.997  31.457  28.919  1.00  0.00     0.031 C 
ATOM     65  C   UNL A   1      46.402  31.389  28.318  1.00  0.00     0.037 A 
BRANCH  52  66
ATOM     66  C   UNL A   1      50.806  27.718  26.010  1.00  0.00     0.064 A 
ATOM     67  C   UNL A   1      51.314  27.923  24.718  1.00  0.00     0.173 A 
ATOM     68  C   UNL A   1      51.710  27.349  27.017  1.00  0.00     0.173 A 
ATOM     69  F   UNL A   1      50.491  28.267  23.715  1.00  0.00    -0.203 F 
ATOM     70  C   UNL A   1      52.665  27.733  24.441  1.00  0.00     0.198 A 
ATOM     71  C   UNL A   1      53.066  27.191  26.743  1.00  0.00     0.198 A 
ATOM     72  F   UNL A   1      51.279  27.147  28.273  1.00  0.00    -0.203 F 
ATOM     73  F   UNL A   1      53.118  27.882  23.187  1.00  0.00    -0.200 F 
ATOM     74  C   UNL A   1      53.541  27.373  25.453  1.00  0.00     0.200 A 
ATOM     75  F   UNL A   1      53.913  26.857  27.727  1.00  0.00    -0.200 F 
ATOM     76  F   UNL A   1      54.842  27.194  25.186  1.00  0.00    -0.200 F 
ENDBRANCH  52  66
BRANCH  53  77
ATOM     77  C   UNL A   1      41.156  28.361  28.482  1.00  0.00     0.064 A 
ATOM     78  C   UNL A   1      40.755  27.921  29.750  1.00  0.00     0.173 A 
ATOM     79  C   UNL A   1      40.173  28.891  27.633  1.00  0.00     0.173 A 
ATOM     80  F   UNL A   1      41.655  27.390  30.590  1.00  0.00    -0.203 F 
ATOM     81  C   UNL A   1      39.421  27.994  30.148  1.00  0.00     0.198 A 
ATOM     82  C   UNL A   1      38.846  28.990  28.042  1.00  0.00     0.198 A 
ATOM     83  F   UNL A   1      40.508  29.333  26.412  1.00  0.00    -0.203 F 
ATOM     84  F   UNL A   1      39.058  27.531  31.353  1.00  0.00    -0.200 F 
ATOM     85  C   UNL A   1      38.469  28.535  29.297  1.00  0.00     0.200 A 
ATOM     86  F   UNL A   1      37.932  29.527  27.223  1.00  0.00    -0.200 F 
ATOM     87  F   UNL A   1      37.189  28.614  29.685  1.00  0.00    -0.200 F 
ENDBRANCH  53  77
BRANCH  65  88
ATOM     88  C   UNL A   1      46.519  32.805  28.804  1.00  0.00     0.064 A 
ATOM     89  C   UNL A   1      46.280  33.895  27.956  1.00  0.00     0.173 A 
ATOM     90  C   UNL A   1      46.841  33.072  30.143  1.00  0.00     0.173 A 
ATOM     91  F   UNL A   1      45.983  33.693  26.663  1.00  0.00    -0.203 F 
ATOM     92  C   UNL A   1      46.385  35.203  28.424  1.00  0.00     0.198 A 
ATOM     93  C   UNL A   1      46.917  34.379  30.616  1.00  0.00     0.198 A 
ATOM     94  F   UNL A   1      47.074  32.065  30.998  1.00  0.00    -0.203 F 
ATOM     95  F   UNL A   1      46.201  36.230  27.582  1.00  0.00    -0.200 F 
ATOM     96  C   UNL A   1      46.696  35.443  29.754  1.00  0.00     0.200 A 
ATOM     97  F   UNL A   1      47.203  34.610  31.903  1.00  0.00    -0.200 F 
ATOM     98  F   UNL A   1      46.792  36.702  30.204  1.00  0.00    -0.200 F 
ENDBRANCH  65  88
ENDBRANCH  39  40
ENDBRANCH  31  34
ENDBRANCH  29  30
ENDBRANCH  28  29
ENDBRANCH  27  28
ENDBRANCH   1  27
TORSDOF 16
ENDMDL
