MODEL 1
REMARK VINA RESULT:     -11.0      0.000      0.000
REMARK SMILES CC(C)(C)[NH2+]Cc1cc(C(=O)NCCCCCCNC(=O)c2ccc(-c3c4nc(c(-c5c(F)c(F)c(F)c(F)c5F)c5ccc([nH]5)c(-c5c(F)c(F)c(F)c(F)c5F)c5nc(c(-c6c(F)c(F)c(F)c(F)c6F)c6ccc3[nH]6)C=C5)C=C4)cc2)cs1
REMARK SMILES IDX 15 1 14 2 13 3 12 4 10 5 11 6 9 8 7 9 8 10 86 11 85 12 6 13
REMARK SMILES IDX 5 14 2 17 1 18 3 19 4 20 16 21 17 22 18 23 19 24 20 25 21 27
REMARK SMILES IDX 22 28 23 29 84 30 24 31 83 32 25 33 26 34 27 35 77 36 28 37
REMARK SMILES IDX 82 38 76 39 78 40 29 41 81 42 75 43 74 44 30 46 62 47 42 48
REMARK SMILES IDX 61 49 43 50 46 51 60 52 79 53 44 54 45 55 59 57 80 58 47 59
REMARK SMILES IDX 31 60 32 61 40 62 33 63 34 64 38 65 41 66 35 67 36 68 39 69
REMARK SMILES IDX 37 70 63 71 64 72 72 73 65 74 66 75 70 76 73 77 67 78 68 79
REMARK SMILES IDX 71 80 69 81 48 82 49 83 57 84 50 85 51 86 55 87 58 88 52 89
REMARK SMILES IDX 53 90 56 91 54 92
REMARK H PARENT 12 7 5 15 5 16 19 26 78 45 46 56
REMARK Flexibility Score: inf
ROOT
ATOM      1  C   UNL A   1      33.831  25.673  25.777  1.00  0.00     0.002 C 
ENDROOT
BRANCH   1   2
ATOM      2  C   UNL A   1      32.626  26.297  25.060  1.00  0.00     0.021 C 
BRANCH   2   3
ATOM      3  C   UNL A   1      31.626  25.253  24.562  1.00  0.00     0.116 C 
BRANCH   3   4
ATOM      4  N   UNL A   1      30.697  24.907  25.619  1.00  0.00    -0.352 N 
ATOM      5  C   UNL A   1      30.596  23.814  26.444  1.00  0.00     0.252 C 
ATOM      6  O   UNL A   1      29.667  23.810  27.247  1.00  0.00    -0.269 OA
ATOM      7  H   UNL A   1      30.003  25.588  25.774  1.00  0.00     0.163 HD
BRANCH   5   8
ATOM      8  C   UNL A   1      31.603  22.750  26.431  1.00  0.00     0.051 A 
ATOM      9  C   UNL A   1      33.140  21.196  25.612  1.00  0.00     0.059 A 
ATOM     10  C   UNL A   1      31.875  21.733  25.460  1.00  0.00     0.035 A 
ATOM     11  S   UNL A   1      33.713  21.452  27.200  1.00  0.00    -0.142 S 
ATOM     12  C   UNL A   1      32.490  22.612  27.490  1.00  0.00     0.079 A 
BRANCH   9  13
ATOM     13  C   UNL A   1      33.966  20.491  24.581  1.00  0.00     0.308 C 
BRANCH  13  14
ATOM     14  N   UNL A   1      34.315  19.123  24.994  1.00  0.00    -0.338 N 
ATOM     15  H   UNL A   1      35.269  18.949  24.675  1.00  0.00     0.347 HD
ATOM     16  H   UNL A   1      34.164  19.127  26.003  1.00  0.00     0.347 HD
BRANCH  14  17
ATOM     17  C   UNL A   1      33.489  17.995  24.519  1.00  0.00     0.088 C 
ATOM     18  C   UNL A   1      32.542  17.470  25.610  1.00  0.00     0.078 C 
ATOM     19  C   UNL A   1      34.300  16.827  23.930  1.00  0.00     0.078 C 
ATOM     20  C   UNL A   1      32.631  18.565  23.368  1.00  0.00     0.078 C 
ENDBRANCH  14  17
ENDBRANCH  13  14
ENDBRANCH   9  13
ENDBRANCH   5   8
ENDBRANCH   3   4
ENDBRANCH   2   3
ENDBRANCH   1   2
BRANCH   1  21
ATOM     21  C   UNL A   1      34.621  24.662  24.936  1.00  0.00     0.002 C 
BRANCH  21  22
ATOM     22  C   UNL A   1      35.778  23.979  25.669  1.00  0.00     0.021 C 
BRANCH  22  23
ATOM     23  C   UNL A   1      37.000  23.708  24.797  1.00  0.00     0.116 C 
BRANCH  23  24
ATOM     24  N   UNL A   1      37.846  22.673  25.367  1.00  0.00    -0.352 N 
ATOM     25  C   UNL A   1      38.969  22.790  26.142  1.00  0.00     0.251 C 
ATOM     26  H   UNL A   1      37.572  21.750  25.165  1.00  0.00     0.163 HD
ATOM     27  O   UNL A   1      39.683  21.811  26.337  1.00  0.00    -0.269 OA
BRANCH  25  28
ATOM     28  C   UNL A   1      39.331  24.091  26.746  1.00  0.00     0.039 A 
ATOM     29  C   UNL A   1      40.052  25.009  25.979  1.00  0.00     0.014 A 
ATOM     30  C   UNL A   1      39.019  24.384  28.077  1.00  0.00     0.014 A 
ATOM     31  C   UNL A   1      40.445  26.225  26.539  1.00  0.00     0.010 A 
ATOM     32  C   UNL A   1      39.342  25.629  28.611  1.00  0.00     0.010 A 
ATOM     33  C   UNL A   1      40.086  26.549  27.857  1.00  0.00    -0.014 A 
BRANCH  33  34
ATOM     34  C   UNL A   1      40.528  27.826  28.470  1.00  0.00     0.031 A 
ATOM     35  C   UNL A   1      41.976  28.036  28.817  1.00  0.00     0.074 A 
ATOM     36  C   UNL A   1      39.622  28.787  28.737  1.00  0.00     0.049 A 
ATOM     37  N   UNL A   1      42.559  29.078  29.354  1.00  0.00    -0.248 NA
ATOM     38  C   UNL A   1      42.889  26.913  28.552  1.00  0.00     0.031 C 
ATOM     39  C   UNL A   1      38.182  28.680  28.498  1.00  0.00     0.029 A 
ATOM     40  N   UNL A   1      39.781  30.042  29.267  1.00  0.00    -0.354 N 
ATOM     41  C   UNL A   1      43.896  28.732  29.500  1.00  0.00     0.074 A 
ATOM     42  C   UNL A   1      44.028  27.362  29.056  1.00  0.00     0.031 C 
ATOM     43  C   UNL A   1      37.593  29.834  28.850  1.00  0.00     0.029 A 
ATOM     44  C   UNL A   1      38.608  30.749  29.364  1.00  0.00     0.049 A 
ATOM     45  H   UNL A   1      40.652  30.401  29.551  1.00  0.00     0.167 HD
ATOM     46  C   UNL A   1      44.927  29.496  29.937  1.00  0.00     0.037 A 
ATOM     47  C   UNL A   1      38.381  31.999  29.811  1.00  0.00     0.037 A 
ATOM     48  C   UNL A   1      44.795  30.868  30.353  1.00  0.00     0.049 A 
ATOM     49  C   UNL A   1      39.546  32.835  30.268  1.00  0.00     0.074 A 
ATOM     50  C   UNL A   1      45.781  31.746  30.764  1.00  0.00     0.029 A 
ATOM     51  N   UNL A   1      43.593  31.561  30.411  1.00  0.00    -0.354 N 
ATOM     52  N   UNL A   1      40.817  32.522  30.334  1.00  0.00    -0.248 NA
ATOM     53  C   UNL A   1      39.244  34.207  30.695  1.00  0.00     0.031 C 
ATOM     54  C   UNL A   1      45.172  32.957  31.113  1.00  0.00     0.029 A 
ATOM     55  C   UNL A   1      43.813  32.851  30.865  1.00  0.00     0.049 A 
ATOM     56  H   UNL A   1      42.715  31.190  30.166  1.00  0.00     0.167 HD
ATOM     57  C   UNL A   1      41.470  33.665  30.777  1.00  0.00     0.074 A 
ATOM     58  C   UNL A   1      40.453  34.683  30.945  1.00  0.00     0.031 C 
ATOM     59  C   UNL A   1      42.790  33.856  31.021  1.00  0.00     0.037 A 
BRANCH  46  60
ATOM     60  C   UNL A   1      46.288  28.860  29.982  1.00  0.00     0.064 A 
ATOM     61  C   UNL A   1      46.760  28.210  31.133  1.00  0.00     0.173 A 
ATOM     62  C   UNL A   1      47.123  28.882  28.854  1.00  0.00     0.173 A 
ATOM     63  F   UNL A   1      46.008  28.169  32.243  1.00  0.00    -0.203 F 
ATOM     64  C   UNL A   1      48.031  27.641  31.166  1.00  0.00     0.198 A 
ATOM     65  C   UNL A   1      48.379  28.282  28.880  1.00  0.00     0.198 A 
ATOM     66  F   UNL A   1      46.721  29.486  27.726  1.00  0.00    -0.203 F 
ATOM     67  F   UNL A   1      48.483  27.079  32.296  1.00  0.00    -0.200 F 
ATOM     68  C   UNL A   1      48.837  27.671  30.038  1.00  0.00     0.200 A 
ATOM     69  F   UNL A   1      49.152  28.301  27.784  1.00  0.00    -0.200 F 
ATOM     70  F   UNL A   1      50.058  27.120  30.070  1.00  0.00    -0.200 F 
ENDBRANCH  46  60
BRANCH  47  71
ATOM     71  C   UNL A   1      37.002  32.550  29.801  1.00  0.00     0.064 A 
ATOM     72  C   UNL A   1      36.516  33.257  28.692  1.00  0.00     0.173 A 
ATOM     73  C   UNL A   1      36.142  32.387  30.896  1.00  0.00     0.173 A 
ATOM     74  F   UNL A   1      37.307  33.455  27.626  1.00  0.00    -0.203 F 
ATOM     75  C   UNL A   1      35.233  33.800  28.688  1.00  0.00     0.198 A 
ATOM     76  C   UNL A   1      34.849  32.905  30.880  1.00  0.00     0.198 A 
ATOM     77  F   UNL A   1      36.555  31.711  31.979  1.00  0.00    -0.203 F 
ATOM     78  F   UNL A   1      34.813  34.513  27.635  1.00  0.00    -0.200 F 
ATOM     79  C   UNL A   1      34.399  33.619  29.780  1.00  0.00     0.200 A 
ATOM     80  F   UNL A   1      34.040  32.714  31.931  1.00  0.00    -0.200 F 
ATOM     81  F   UNL A   1      33.163  34.138  29.776  1.00  0.00    -0.200 F 
ENDBRANCH  47  71
BRANCH  59  82
ATOM     82  C   UNL A   1      43.213  35.230  31.453  1.00  0.00     0.064 A 
ATOM     83  C   UNL A   1      43.655  36.193  30.533  1.00  0.00     0.173 A 
ATOM     84  C   UNL A   1      43.166  35.591  32.808  1.00  0.00     0.173 A 
ATOM     85  F   UNL A   1      43.731  35.895  29.228  1.00  0.00    -0.203 F 
ATOM     86  C   UNL A   1      44.076  37.450  30.960  1.00  0.00     0.198 A 
ATOM     87  C   UNL A   1      43.554  36.860  33.228  1.00  0.00     0.198 A 
ATOM     88  F   UNL A   1      42.741  34.711  33.729  1.00  0.00    -0.203 F 
ATOM     89  F   UNL A   1      44.558  38.331  30.072  1.00  0.00    -0.200 F 
ATOM     90  C   UNL A   1      44.020  37.784  32.305  1.00  0.00     0.200 A 
ATOM     91  F   UNL A   1      43.485  37.187  34.525  1.00  0.00    -0.200 F 
ATOM     92  F   UNL A   1      44.428  38.993  32.714  1.00  0.00    -0.200 F 
ENDBRANCH  59  82
ENDBRANCH  33  34
ENDBRANCH  25  28
ENDBRANCH  23  24
ENDBRANCH  22  23
ENDBRANCH  21  22
ENDBRANCH   1  21
TORSDOF 16
ENDMDL
MODEL 2
REMARK VINA RESULT:     -10.9      5.448     10.080
REMARK SMILES CC(C)(C)[NH2+]Cc1cc(C(=O)NCCCCCCNC(=O)c2ccc(-c3c4nc(c(-c5c(F)c(F)c(F)c(F)c5F)c5ccc([nH]5)c(-c5c(F)c(F)c(F)c(F)c5F)c5nc(c(-c6c(F)c(F)c(F)c(F)c6F)c6ccc3[nH]6)C=C5)C=C4)cc2)cs1
REMARK SMILES IDX 15 1 14 2 13 3 12 4 10 5 11 6 9 8 7 9 8 10 86 11 85 12 6 13
REMARK SMILES IDX 5 14 2 17 1 18 3 19 4 20 16 21 17 22 18 23 19 24 20 25 21 27
REMARK SMILES IDX 22 28 23 29 84 30 24 31 83 32 25 33 26 34 27 35 77 36 28 37
REMARK SMILES IDX 82 38 76 39 78 40 29 41 81 42 75 43 74 44 30 46 62 47 42 48
REMARK SMILES IDX 61 49 43 50 46 51 60 52 79 53 44 54 45 55 59 57 80 58 47 59
REMARK SMILES IDX 31 60 32 61 40 62 33 63 34 64 38 65 41 66 35 67 36 68 39 69
REMARK SMILES IDX 37 70 63 71 64 72 72 73 65 74 66 75 70 76 73 77 67 78 68 79
REMARK SMILES IDX 71 80 69 81 48 82 49 83 57 84 50 85 51 86 55 87 58 88 52 89
REMARK SMILES IDX 53 90 56 91 54 92
REMARK H PARENT 12 7 5 15 5 16 19 26 78 45 46 56
REMARK Flexibility Score: inf
ROOT
ATOM      1  C   UNL A   1      35.167  32.676  28.014  1.00  0.00     0.002 C 
ENDROOT
BRANCH   1   2
ATOM      2  C   UNL A   1      33.947  31.784  28.281  1.00  0.00     0.021 C 
BRANCH   2   3
ATOM      3  C   UNL A   1      33.724  30.742  27.185  1.00  0.00     0.116 C 
BRANCH   3   4
ATOM      4  N   UNL A   1      32.964  29.624  27.705  1.00  0.00    -0.352 N 
ATOM      5  C   UNL A   1      32.222  28.642  27.095  1.00  0.00     0.252 C 
ATOM      6  O   UNL A   1      31.673  27.825  27.829  1.00  0.00    -0.269 OA
ATOM      7  H   UNL A   1      32.983  29.555  28.687  1.00  0.00     0.163 HD
BRANCH   5   8
ATOM      8  C   UNL A   1      32.167  28.520  25.636  1.00  0.00     0.051 A 
ATOM      9  C   UNL A   1      31.446  28.825  23.436  1.00  0.00     0.059 A 
ATOM     10  C   UNL A   1      31.053  28.566  24.737  1.00  0.00     0.035 A 
ATOM     11  S   UNL A   1      33.088  28.412  23.213  1.00  0.00    -0.142 S 
ATOM     12  C   UNL A   1      33.330  28.323  24.904  1.00  0.00     0.079 A 
BRANCH   9  13
ATOM     13  C   UNL A   1      30.621  29.399  22.326  1.00  0.00     0.308 C 
BRANCH  13  14
ATOM     14  N   UNL A   1      29.781  30.516  22.784  1.00  0.00    -0.338 N 
ATOM     15  H   UNL A   1      29.967  30.641  23.779  1.00  0.00     0.347 HD
ATOM     16  H   UNL A   1      30.044  31.286  22.169  1.00  0.00     0.347 HD
BRANCH  14  17
ATOM     17  C   UNL A   1      28.315  30.425  22.627  1.00  0.00     0.088 C 
ATOM     18  C   UNL A   1      27.575  31.475  23.470  1.00  0.00     0.078 C 
ATOM     19  C   UNL A   1      27.739  29.027  22.915  1.00  0.00     0.078 C 
ATOM     20  C   UNL A   1      28.039  30.720  21.136  1.00  0.00     0.078 C 
ENDBRANCH  14  17
ENDBRANCH  13  14
ENDBRANCH   9  13
ENDBRANCH   5   8
ENDBRANCH   3   4
ENDBRANCH   2   3
ENDBRANCH   1   2
BRANCH   1  21
ATOM     21  C   UNL A   1      35.062  34.093  28.595  1.00  0.00     0.002 C 
BRANCH  21  22
ATOM     22  C   UNL A   1      33.633  34.613  28.770  1.00  0.00     0.021 C 
BRANCH  22  23
ATOM     23  C   UNL A   1      33.546  36.037  29.310  1.00  0.00     0.116 C 
BRANCH  23  24
ATOM     24  N   UNL A   1      32.646  36.125  30.447  1.00  0.00    -0.352 N 
ATOM     25  C   UNL A   1      32.705  35.492  31.660  1.00  0.00     0.251 C 
ATOM     26  H   UNL A   1      31.880  36.730  30.328  1.00  0.00     0.163 HD
ATOM     27  O   UNL A   1      31.733  35.513  32.409  1.00  0.00    -0.269 OA
BRANCH  25  28
ATOM     28  C   UNL A   1      33.934  34.781  32.075  1.00  0.00     0.039 A 
ATOM     29  C   UNL A   1      35.120  35.508  32.197  1.00  0.00     0.014 A 
ATOM     30  C   UNL A   1      33.938  33.398  32.281  1.00  0.00     0.014 A 
ATOM     31  C   UNL A   1      36.304  34.854  32.542  1.00  0.00     0.010 A 
ATOM     32  C   UNL A   1      35.100  32.758  32.702  1.00  0.00     0.010 A 
ATOM     33  C   UNL A   1      36.302  33.475  32.807  1.00  0.00    -0.014 A 
BRANCH  33  34
ATOM     34  C   UNL A   1      37.562  32.767  33.143  1.00  0.00     0.031 A 
ATOM     35  C   UNL A   1      38.269  33.057  34.439  1.00  0.00     0.074 A 
ATOM     36  C   UNL A   1      38.082  31.881  32.273  1.00  0.00     0.049 A 
ATOM     37  N   UNL A   1      39.375  32.544  34.914  1.00  0.00    -0.248 NA
ATOM     38  C   UNL A   1      37.668  34.085  35.305  1.00  0.00     0.031 C 
ATOM     39  C   UNL A   1      37.519  31.555  30.962  1.00  0.00     0.029 A 
ATOM     40  N   UNL A   1      39.201  31.092  32.362  1.00  0.00    -0.354 N 
ATOM     41  C   UNL A   1      39.606  33.191  36.122  1.00  0.00     0.074 A 
ATOM     42  C   UNL A   1      38.563  34.180  36.276  1.00  0.00     0.031 C 
ATOM     43  C   UNL A   1      38.277  30.611  30.382  1.00  0.00     0.029 A 
ATOM     44  C   UNL A   1      39.392  30.286  31.267  1.00  0.00     0.049 A 
ATOM     45  H   UNL A   1      39.808  31.103  33.136  1.00  0.00     0.167 HD
ATOM     46  C   UNL A   1      40.583  32.962  37.033  1.00  0.00     0.037 A 
ATOM     47  C   UNL A   1      40.356  29.381  31.011  1.00  0.00     0.037 A 
ATOM     48  C   UNL A   1      41.605  31.959  36.886  1.00  0.00     0.049 A 
ATOM     49  C   UNL A   1      41.416  29.129  32.050  1.00  0.00     0.074 A 
ATOM     50  C   UNL A   1      42.609  31.611  37.771  1.00  0.00     0.029 A 
ATOM     51  N   UNL A   1      41.750  31.140  35.774  1.00  0.00    -0.354 N 
ATOM     52  N   UNL A   1      41.583  29.696  33.221  1.00  0.00    -0.248 NA
ATOM     53  C   UNL A   1      42.410  28.094  31.738  1.00  0.00     0.031 C 
ATOM     54  C   UNL A   1      43.390  30.612  37.177  1.00  0.00     0.029 A 
ATOM     55  C   UNL A   1      42.837  30.298  35.946  1.00  0.00     0.049 A 
ATOM     56  H   UNL A   1      41.168  31.156  34.981  1.00  0.00     0.167 HD
ATOM     57  C   UNL A   1      42.678  29.067  33.797  1.00  0.00     0.074 A 
ATOM     58  C   UNL A   1      43.123  28.061  32.854  1.00  0.00     0.031 C 
ATOM     59  C   UNL A   1      43.263  29.298  34.999  1.00  0.00     0.037 A 
BRANCH  46  60
ATOM     60  C   UNL A   1      40.586  33.815  38.270  1.00  0.00     0.064 A 
ATOM     61  C   UNL A   1      41.390  34.962  38.374  1.00  0.00     0.173 A 
ATOM     62  C   UNL A   1      39.762  33.494  39.360  1.00  0.00     0.173 A 
ATOM     63  F   UNL A   1      42.205  35.308  37.367  1.00  0.00    -0.203 F 
ATOM     64  C   UNL A   1      41.396  35.732  39.535  1.00  0.00     0.198 A 
ATOM     65  C   UNL A   1      39.745  34.286  40.505  1.00  0.00     0.198 A 
ATOM     66  F   UNL A   1      38.970  32.412  39.314  1.00  0.00    -0.203 F 
ATOM     67  F   UNL A   1      42.216  36.787  39.632  1.00  0.00    -0.200 F 
ATOM     68  C   UNL A   1      40.569  35.398  40.596  1.00  0.00     0.200 A 
ATOM     69  F   UNL A   1      38.935  33.969  41.526  1.00  0.00    -0.200 F 
ATOM     70  F   UNL A   1      40.573  36.142  41.711  1.00  0.00    -0.200 F 
ENDBRANCH  46  60
BRANCH  47  71
ATOM     71  C   UNL A   1      40.335  28.614  29.740  1.00  0.00     0.064 A 
ATOM     72  C   UNL A   1      39.605  27.422  29.630  1.00  0.00     0.173 A 
ATOM     73  C   UNL A   1      41.042  29.052  28.611  1.00  0.00     0.173 A 
ATOM     74  F   UNL A   1      38.926  26.953  30.688  1.00  0.00    -0.203 F 
ATOM     75  C   UNL A   1      39.604  26.684  28.448  1.00  0.00     0.198 A 
ATOM     76  C   UNL A   1      41.017  28.329  27.421  1.00  0.00     0.198 A 
ATOM     77  F   UNL A   1      41.749  30.190  28.662  1.00  0.00    -0.203 F 
ATOM     78  F   UNL A   1      38.938  25.523  28.387  1.00  0.00    -0.200 F 
ATOM     79  C   UNL A   1      40.305  27.140  27.343  1.00  0.00     0.200 A 
ATOM     80  F   UNL A   1      41.682  28.781  26.350  1.00  0.00    -0.200 F 
ATOM     81  F   UNL A   1      40.302  26.433  26.205  1.00  0.00    -0.200 F 
ENDBRANCH  47  71
BRANCH  59  82
ATOM     82  C   UNL A   1      44.419  28.417  35.377  1.00  0.00     0.064 A 
ATOM     83  C   UNL A   1      45.744  28.756  35.063  1.00  0.00     0.173 A 
ATOM     84  C   UNL A   1      44.196  27.219  36.073  1.00  0.00     0.173 A 
ATOM     85  F   UNL A   1      46.009  29.885  34.388  1.00  0.00    -0.203 F 
ATOM     86  C   UNL A   1      46.796  27.907  35.392  1.00  0.00     0.198 A 
ATOM     87  C   UNL A   1      45.254  26.389  36.431  1.00  0.00     0.198 A 
ATOM     88  F   UNL A   1      42.949  26.851  36.407  1.00  0.00    -0.203 F 
ATOM     89  F   UNL A   1      48.047  28.219  35.023  1.00  0.00    -0.200 F 
ATOM     90  C   UNL A   1      46.552  26.727  36.080  1.00  0.00     0.200 A 
ATOM     91  F   UNL A   1      45.019  25.258  37.109  1.00  0.00    -0.200 F 
ATOM     92  F   UNL A   1      47.567  25.911  36.393  1.00  0.00    -0.200 F 
ENDBRANCH  59  82
ENDBRANCH  33  34
ENDBRANCH  25  28
ENDBRANCH  23  24
ENDBRANCH  22  23
ENDBRANCH  21  22
ENDBRANCH   1  21
TORSDOF 16
ENDMDL
MODEL 3
REMARK VINA RESULT:     -10.8      5.441     10.027
REMARK SMILES CC(C)(C)[NH2+]Cc1cc(C(=O)NCCCCCCNC(=O)c2ccc(-c3c4nc(c(-c5c(F)c(F)c(F)c(F)c5F)c5ccc([nH]5)c(-c5c(F)c(F)c(F)c(F)c5F)c5nc(c(-c6c(F)c(F)c(F)c(F)c6F)c6ccc3[nH]6)C=C5)C=C4)cc2)cs1
REMARK SMILES IDX 15 1 14 2 13 3 12 4 10 5 11 6 9 8 7 9 8 10 86 11 85 12 6 13
REMARK SMILES IDX 5 14 2 17 1 18 3 19 4 20 16 21 17 22 18 23 19 24 20 25 21 27
REMARK SMILES IDX 22 28 23 29 84 30 24 31 83 32 25 33 26 34 27 35 77 36 28 37
REMARK SMILES IDX 82 38 76 39 78 40 29 41 81 42 75 43 74 44 30 46 62 47 42 48
REMARK SMILES IDX 61 49 43 50 46 51 60 52 79 53 44 54 45 55 59 57 80 58 47 59
REMARK SMILES IDX 31 60 32 61 40 62 33 63 34 64 38 65 41 66 35 67 36 68 39 69
REMARK SMILES IDX 37 70 63 71 64 72 72 73 65 74 66 75 70 76 73 77 67 78 68 79
REMARK SMILES IDX 71 80 69 81 48 82 49 83 57 84 50 85 51 86 55 87 58 88 52 89
REMARK SMILES IDX 53 90 56 91 54 92
REMARK H PARENT 12 7 5 15 5 16 19 26 78 45 46 56
REMARK Flexibility Score: inf
ROOT
ATOM      1  C   UNL A   1      35.215  32.673  28.003  1.00  0.00     0.002 C 
ENDROOT
BRANCH   1   2
ATOM      2  C   UNL A   1      34.039  31.756  28.365  1.00  0.00     0.021 C 
BRANCH   2   3
ATOM      3  C   UNL A   1      33.654  30.810  27.227  1.00  0.00     0.116 C 
BRANCH   3   4
ATOM      4  N   UNL A   1      32.950  29.657  27.752  1.00  0.00    -0.352 N 
ATOM      5  C   UNL A   1      32.251  28.643  27.146  1.00  0.00     0.252 C 
ATOM      6  O   UNL A   1      31.744  27.801  27.883  1.00  0.00    -0.269 OA
ATOM      7  H   UNL A   1      32.979  29.590  28.733  1.00  0.00     0.163 HD
BRANCH   5   8
ATOM      8  C   UNL A   1      32.191  28.518  25.688  1.00  0.00     0.051 A 
ATOM      9  C   UNL A   1      31.447  28.795  23.492  1.00  0.00     0.059 A 
ATOM     10  C   UNL A   1      31.071  28.522  24.795  1.00  0.00     0.035 A 
ATOM     11  S   UNL A   1      33.102  28.444  23.260  1.00  0.00    -0.142 S 
ATOM     12  C   UNL A   1      33.357  28.365  24.949  1.00  0.00     0.079 A 
BRANCH   9  13
ATOM     13  C   UNL A   1      30.595  29.337  22.387  1.00  0.00     0.308 C 
BRANCH  13  14
ATOM     14  N   UNL A   1      29.766  30.468  22.832  1.00  0.00    -0.338 N 
ATOM     15  H   UNL A   1      29.849  30.515  23.848  1.00  0.00     0.347 HD
ATOM     16  H   UNL A   1      30.133  31.260  22.306  1.00  0.00     0.347 HD
BRANCH  14  17
ATOM     17  C   UNL A   1      28.324  30.472  22.515  1.00  0.00     0.088 C 
ATOM     18  C   UNL A   1      27.666  29.111  22.788  1.00  0.00     0.078 C 
ATOM     19  C   UNL A   1      27.998  30.928  21.081  1.00  0.00     0.078 C 
ATOM     20  C   UNL A   1      27.694  31.513  23.466  1.00  0.00     0.078 C 
ENDBRANCH  14  17
ENDBRANCH  13  14
ENDBRANCH   9  13
ENDBRANCH   5   8
ENDBRANCH   3   4
ENDBRANCH   2   3
ENDBRANCH   1   2
BRANCH   1  21
ATOM     21  C   UNL A   1      35.074  34.119  28.498  1.00  0.00     0.002 C 
BRANCH  21  22
ATOM     22  C   UNL A   1      33.639  34.559  28.799  1.00  0.00     0.021 C 
BRANCH  22  23
ATOM     23  C   UNL A   1      33.516  35.997  29.293  1.00  0.00     0.116 C 
BRANCH  23  24
ATOM     24  N   UNL A   1      32.625  36.095  30.437  1.00  0.00    -0.352 N 
ATOM     25  C   UNL A   1      32.698  35.480  31.658  1.00  0.00     0.251 C 
ATOM     26  H   UNL A   1      31.853  36.694  30.316  1.00  0.00     0.163 HD
ATOM     27  O   UNL A   1      31.732  35.504  32.415  1.00  0.00    -0.269 OA
BRANCH  25  28
ATOM     28  C   UNL A   1      33.935  34.783  32.073  1.00  0.00     0.039 A 
ATOM     29  C   UNL A   1      35.124  35.513  32.144  1.00  0.00     0.014 A 
ATOM     30  C   UNL A   1      33.943  33.408  32.328  1.00  0.00     0.014 A 
ATOM     31  C   UNL A   1      36.314  34.870  32.488  1.00  0.00     0.010 A 
ATOM     32  C   UNL A   1      35.114  32.783  32.748  1.00  0.00     0.010 A 
ATOM     33  C   UNL A   1      36.317  33.501  32.802  1.00  0.00    -0.014 A 
BRANCH  33  34
ATOM     34  C   UNL A   1      37.584  32.805  33.137  1.00  0.00     0.031 A 
ATOM     35  C   UNL A   1      38.274  33.080  34.445  1.00  0.00     0.074 A 
ATOM     36  C   UNL A   1      38.125  31.942  32.255  1.00  0.00     0.049 A 
ATOM     37  N   UNL A   1      39.383  32.572  34.921  1.00  0.00    -0.248 NA
ATOM     38  C   UNL A   1      37.651  34.082  35.324  1.00  0.00     0.031 C 
ATOM     39  C   UNL A   1      37.579  31.634  30.933  1.00  0.00     0.029 A 
ATOM     40  N   UNL A   1      39.253  31.168  32.340  1.00  0.00    -0.354 N 
ATOM     41  C   UNL A   1      39.593  33.200  36.143  1.00  0.00     0.074 A 
ATOM     42  C   UNL A   1      38.535  34.171  36.305  1.00  0.00     0.031 C 
ATOM     43  C   UNL A   1      38.356  30.712  30.343  1.00  0.00     0.029 A 
ATOM     44  C   UNL A   1      39.467  30.386  31.232  1.00  0.00     0.049 A 
ATOM     45  H   UNL A   1      39.854  31.173  33.120  1.00  0.00     0.167 HD
ATOM     46  C   UNL A   1      40.564  32.967  37.059  1.00  0.00     0.037 A 
ATOM     47  C   UNL A   1      40.446  29.499  30.969  1.00  0.00     0.037 A 
ATOM     48  C   UNL A   1      41.602  31.981  36.903  1.00  0.00     0.049 A 
ATOM     49  C   UNL A   1      41.499  29.242  32.013  1.00  0.00     0.074 A 
ATOM     50  C   UNL A   1      42.602  31.630  37.792  1.00  0.00     0.029 A 
ATOM     51  N   UNL A   1      41.769  31.186  35.777  1.00  0.00    -0.354 N 
ATOM     52  N   UNL A   1      41.647  29.789  33.196  1.00  0.00    -0.248 NA
ATOM     53  C   UNL A   1      42.510  28.227  31.691  1.00  0.00     0.031 C 
ATOM     54  C   UNL A   1      43.403  30.654  37.187  1.00  0.00     0.029 A 
ATOM     55  C   UNL A   1      42.866  30.356  35.944  1.00  0.00     0.049 A 
ATOM     56  H   UNL A   1      41.194  31.209  34.979  1.00  0.00     0.167 HD
ATOM     57  C   UNL A   1      42.745  29.164  33.771  1.00  0.00     0.074 A 
ATOM     58  C   UNL A   1      43.213  28.183  32.813  1.00  0.00     0.031 C 
ATOM     59  C   UNL A   1      43.315  29.380  34.983  1.00  0.00     0.037 A 
BRANCH  46  60
ATOM     60  C   UNL A   1      40.544  33.796  38.312  1.00  0.00     0.064 A 
ATOM     61  C   UNL A   1      39.744  33.450  39.413  1.00  0.00     0.173 A 
ATOM     62  C   UNL A   1      41.350  34.940  38.424  1.00  0.00     0.173 A 
ATOM     63  F   UNL A   1      38.947  32.373  39.356  1.00  0.00    -0.203 F 
ATOM     64  C   UNL A   1      39.723  34.238  40.561  1.00  0.00     0.198 A 
ATOM     65  C   UNL A   1      41.351  35.706  39.587  1.00  0.00     0.198 A 
ATOM     66  F   UNL A   1      42.137  35.316  37.405  1.00  0.00    -0.203 F 
ATOM     67  F   UNL A   1      38.905  33.921  41.575  1.00  0.00    -0.200 F 
ATOM     68  C   UNL A   1      40.531  35.362  40.650  1.00  0.00     0.200 A 
ATOM     69  F   UNL A   1      42.143  36.785  39.676  1.00  0.00    -0.200 F 
ATOM     70  F   UNL A   1      40.512  36.117  41.757  1.00  0.00    -0.200 F 
ENDBRANCH  46  60
BRANCH  47  71
ATOM     71  C   UNL A   1      40.447  28.756  29.683  1.00  0.00     0.064 A 
ATOM     72  C   UNL A   1      41.186  29.218  28.585  1.00  0.00     0.173 A 
ATOM     73  C   UNL A   1      39.710  27.575  29.521  1.00  0.00     0.173 A 
ATOM     74  F   UNL A   1      41.894  30.354  28.684  1.00  0.00    -0.203 F 
ATOM     75  C   UNL A   1      41.169  28.541  27.368  1.00  0.00     0.198 A 
ATOM     76  C   UNL A   1      39.716  26.882  28.313  1.00  0.00     0.198 A 
ATOM     77  F   UNL A   1      38.993  27.086  30.544  1.00  0.00    -0.203 F 
ATOM     78  F   UNL A   1      41.845  29.032  26.320  1.00  0.00    -0.200 F 
ATOM     79  C   UNL A   1      40.438  27.371  27.233  1.00  0.00     0.200 A 
ATOM     80  F   UNL A   1      39.022  25.742  28.192  1.00  0.00    -0.200 F 
ATOM     81  F   UNL A   1      40.424  26.717  26.064  1.00  0.00    -0.200 F 
ENDBRANCH  47  71
BRANCH  59  82
ATOM     82  C   UNL A   1      44.479  28.508  35.355  1.00  0.00     0.064 A 
ATOM     83  C   UNL A   1      44.307  27.288  36.027  1.00  0.00     0.173 A 
ATOM     84  C   UNL A   1      45.787  28.896  35.026  1.00  0.00     0.173 A 
ATOM     85  F   UNL A   1      43.078  26.878  36.376  1.00  0.00    -0.203 F 
ATOM     86  C   UNL A   1      45.403  26.513  36.395  1.00  0.00     0.198 A 
ATOM     87  C   UNL A   1      46.879  28.101  35.363  1.00  0.00     0.198 A 
ATOM     88  F   UNL A   1      46.008  30.048  34.375  1.00  0.00    -0.203 F 
ATOM     89  F   UNL A   1      45.218  25.384  37.094  1.00  0.00    -0.200 F 
ATOM     90  C   UNL A   1      46.687  26.916  36.058  1.00  0.00     0.200 A 
ATOM     91  F   UNL A   1      48.117  28.484  35.024  1.00  0.00    -0.200 F 
ATOM     92  F   UNL A   1      47.740  26.169  36.414  1.00  0.00    -0.200 F 
ENDBRANCH  59  82
ENDBRANCH  33  34
ENDBRANCH  25  28
ENDBRANCH  23  24
ENDBRANCH  22  23
ENDBRANCH  21  22
ENDBRANCH   1  21
TORSDOF 16
ENDMDL
