MODEL 1
REMARK VINA RESULT:     -12.2      0.000      0.000
REMARK SMILES COc1cccc([C@@H]2CC(c3cccc(C)c3)=NN2C(=O)CCC(=O)NCCCCCCNC(=O)c2ccc(-c3c4nc(c(-c5c(F)c(F)c(F)c(F)c5F)c5ccc([nH]5)c(-c5c(F)c(F)c(F)c(F)c5F)c5nc(c(-c6c(F)c(F)c(F)c(F)c6F)c6ccc3[nH]6)C=C5)C=C4)cc2)c1
REMARK SMILES IDX 28 1 27 2 26 3 24 4 25 5 23 7 22 8 20 9 21 10 19 11 8 12
REMARK SMILES IDX 9 13 10 14 18 15 7 16 3 17 4 18 99 19 5 20 6 21 2 22 1 23
REMARK SMILES IDX 11 24 12 25 17 26 13 27 15 28 14 29 16 30 29 31 30 32 31 33
REMARK SMILES IDX 32 34 33 35 34 36 35 38 36 39 37 40 98 41 38 42 97 43 39 44
REMARK SMILES IDX 40 45 41 46 91 47 42 48 96 49 90 50 92 51 43 52 95 53 89 54
REMARK SMILES IDX 88 55 44 57 76 58 56 59 75 60 57 61 60 62 74 63 93 64 58 65
REMARK SMILES IDX 59 66 73 68 94 69 61 70 45 71 46 72 54 73 47 74 48 75 52 76
REMARK SMILES IDX 55 77 49 78 50 79 53 80 51 81 77 82 78 83 86 84 79 85 80 86
REMARK SMILES IDX 84 87 87 88 81 89 82 90 85 91 83 92 62 93 63 94 71 95 64 96
REMARK SMILES IDX 65 97 69 98 72 99 66 100 67 101 70 102 68 103
REMARK H PARENT 26 6 33 37 92 56 60 67
REMARK Flexibility Score: inf
ROOT
ATOM      1  C   UNL A   1      30.450  27.367  23.047  1.00  0.00     0.021 C 
ENDROOT
BRANCH   1   2
ATOM      2  C   UNL A   1      31.596  26.615  22.369  1.00  0.00     0.116 C 
BRANCH   2   3
ATOM      3  N   UNL A   1      31.538  25.164  22.369  1.00  0.00    -0.356 N 
ATOM      4  C   UNL A   1      31.708  24.277  23.383  1.00  0.00     0.220 C 
ATOM      5  O   UNL A   1      31.320  23.116  23.223  1.00  0.00    -0.275 OA
ATOM      6  H   UNL A   1      31.346  24.760  21.493  1.00  0.00     0.163 HD
BRANCH   4   7
ATOM      7  C   UNL A   1      32.453  24.679  24.635  1.00  0.00     0.110 C 
BRANCH   7   8
ATOM      8  C   UNL A   1      33.909  25.030  24.326  1.00  0.00     0.112 C 
BRANCH   8   9
ATOM      9  C   UNL A   1      34.645  23.839  23.738  1.00  0.00     0.243 C 
ATOM     10  O   UNL A   1      35.108  23.922  22.599  1.00  0.00    -0.273 OA
BRANCH   9  11
ATOM     11  N   UNL A   1      34.649  22.678  24.496  1.00  0.00    -0.225 N 
ATOM     12  C   UNL A   1      35.110  22.519  25.880  1.00  0.00     0.147 C 
ATOM     13  C   UNL A   1      34.748  21.076  26.226  1.00  0.00     0.091 C 
ATOM     14  C   UNL A   1      34.335  20.593  24.868  1.00  0.00     0.071 C 
ATOM     15  N   UNL A   1      34.333  21.475  23.921  1.00  0.00    -0.174 NA
BRANCH  12  16
ATOM     16  C   UNL A   1      36.596  22.840  25.933  1.00  0.00    -0.019 A 
ATOM     17  C   UNL A   1      38.884  22.028  26.000  1.00  0.00     0.119 A 
ATOM     18  C   UNL A   1      39.309  23.279  26.451  1.00  0.00     0.046 A 
ATOM     19  C   UNL A   1      37.529  21.810  25.747  1.00  0.00     0.052 A 
ATOM     20  C   UNL A   1      38.400  24.322  26.602  1.00  0.00     0.004 A 
ATOM     21  C   UNL A   1      37.053  24.110  26.328  1.00  0.00     0.006 A 
BRANCH  17  22
ATOM     22  O   UNL A   1      39.868  21.083  25.888  1.00  0.00    -0.497 OA
ATOM     23  C   UNL A   1      40.631  20.839  27.063  1.00  0.00     0.278 C 
ENDBRANCH  17  22
ENDBRANCH  12  16
BRANCH  14  24
ATOM     24  C   UNL A   1      33.946  19.200  24.633  1.00  0.00    -0.002 A 
ATOM     25  C   UNL A   1      32.607  18.933  24.350  1.00  0.00     0.010 A 
ATOM     26  C   UNL A   1      34.865  18.162  24.840  1.00  0.00     0.013 A 
ATOM     27  C   UNL A   1      32.190  17.614  24.217  1.00  0.00     0.001 A 
ATOM     28  C   UNL A   1      34.435  16.831  24.747  1.00  0.00    -0.050 A 
ATOM     29  C   UNL A   1      33.101  16.572  24.403  1.00  0.00     0.003 A 
ATOM     30  C   UNL A   1      35.325  15.687  25.140  1.00  0.00     0.044 C 
ENDBRANCH  14  24
ENDBRANCH   9  11
ENDBRANCH   8   9
ENDBRANCH   7   8
ENDBRANCH   4   7
ENDBRANCH   2   3
ENDBRANCH   1   2
BRANCH   1  31
ATOM     31  C   UNL A   1      30.617  28.844  23.425  1.00  0.00     0.002 C 
BRANCH  31  32
ATOM     32  C   UNL A   1      31.149  29.177  24.822  1.00  0.00     0.002 C 
BRANCH  32  33
ATOM     33  C   UNL A   1      32.611  29.602  24.848  1.00  0.00     0.021 C 
BRANCH  33  34
ATOM     34  C   UNL A   1      33.165  29.726  26.261  1.00  0.00     0.116 C 
BRANCH  34  35
ATOM     35  N   UNL A   1      32.892  31.010  26.903  1.00  0.00    -0.352 N 
ATOM     36  C   UNL A   1      33.761  31.727  27.697  1.00  0.00     0.251 C 
ATOM     37  H   UNL A   1      32.001  31.401  26.755  1.00  0.00     0.163 HD
ATOM     38  O   UNL A   1      33.447  32.748  28.295  1.00  0.00    -0.269 OA
BRANCH  36  39
ATOM     39  C   UNL A   1      35.105  31.163  27.870  1.00  0.00     0.039 A 
ATOM     40  C   UNL A   1      36.184  32.044  27.907  1.00  0.00     0.014 A 
ATOM     41  C   UNL A   1      35.229  29.824  28.248  1.00  0.00     0.014 A 
ATOM     42  C   UNL A   1      37.382  31.607  28.456  1.00  0.00     0.010 A 
ATOM     43  C   UNL A   1      36.393  29.420  28.878  1.00  0.00     0.010 A 
ATOM     44  C   UNL A   1      37.464  30.318  29.007  1.00  0.00    -0.014 A 
BRANCH  44  45
ATOM     45  C   UNL A   1      38.669  29.903  29.750  1.00  0.00     0.031 A 
ATOM     46  C   UNL A   1      38.871  30.407  31.144  1.00  0.00     0.074 A 
ATOM     47  C   UNL A   1      39.584  29.129  29.135  1.00  0.00     0.049 A 
ATOM     48  N   UNL A   1      39.862  30.188  31.965  1.00  0.00    -0.248 NA
ATOM     49  C   UNL A   1      37.835  31.307  31.677  1.00  0.00     0.031 C 
ATOM     50  C   UNL A   1      39.500  28.659  27.748  1.00  0.00     0.029 A 
ATOM     51  N   UNL A   1      40.763  28.600  29.591  1.00  0.00    -0.354 N 
ATOM     52  C   UNL A   1      39.576  30.932  33.100  1.00  0.00     0.074 A 
ATOM     53  C   UNL A   1      38.354  31.659  32.842  1.00  0.00     0.031 C 
ATOM     54  C   UNL A   1      40.563  27.883  27.481  1.00  0.00     0.029 A 
ATOM     55  C   UNL A   1      41.414  27.823  28.663  1.00  0.00     0.049 A 
ATOM     56  H   UNL A   1      41.110  28.762  30.497  1.00  0.00     0.167 HD
ATOM     57  C   UNL A   1      40.263  30.978  34.263  1.00  0.00     0.037 A 
ATOM     58  C   UNL A   1      42.566  27.135  28.772  1.00  0.00     0.037 A 
ATOM     59  C   UNL A   1      41.461  30.221  34.501  1.00  0.00     0.049 A 
ATOM     60  C   UNL A   1      43.285  27.165  30.095  1.00  0.00     0.074 A 
ATOM     61  C   UNL A   1      42.222  30.142  35.652  1.00  0.00     0.029 A 
ATOM     62  N   UNL A   1      42.070  29.404  33.557  1.00  0.00    -0.354 N 
ATOM     63  N   UNL A   1      42.966  27.811  31.192  1.00  0.00    -0.248 NA
ATOM     64  C   UNL A   1      44.511  26.366  30.202  1.00  0.00     0.031 C 
ATOM     65  C   UNL A   1      43.311  29.303  35.392  1.00  0.00     0.029 A 
ATOM     66  C   UNL A   1      43.204  28.824  34.095  1.00  0.00     0.049 A 
ATOM     67  H   UNL A   1      41.742  29.259  32.639  1.00  0.00     0.167 HD
ATOM     68  C   UNL A   1      43.937  27.481  32.126  1.00  0.00     0.074 A 
ATOM     69  C   UNL A   1      44.844  26.559  31.471  1.00  0.00     0.031 C 
ATOM     70  C   UNL A   1      44.073  27.902  33.407  1.00  0.00     0.037 A 
BRANCH  57  71
ATOM     71  C   UNL A   1      39.727  31.867  35.344  1.00  0.00     0.064 A 
ATOM     72  C   UNL A   1      38.759  31.416  36.256  1.00  0.00     0.173 A 
ATOM     73  C   UNL A   1      40.175  33.189  35.468  1.00  0.00     0.173 A 
ATOM     74  F   UNL A   1      38.280  30.165  36.169  1.00  0.00    -0.203 F 
ATOM     75  C   UNL A   1      38.234  32.265  37.227  1.00  0.00     0.198 A 
ATOM     76  C   UNL A   1      39.671  34.028  36.460  1.00  0.00     0.198 A 
ATOM     77  F   UNL A   1      41.096  33.673  34.623  1.00  0.00    -0.203 F 
ATOM     78  F   UNL A   1      37.267  31.828  38.045  1.00  0.00    -0.200 F 
ATOM     79  C   UNL A   1      38.695  33.569  37.332  1.00  0.00     0.200 A 
ATOM     80  F   UNL A   1      40.123  35.285  36.566  1.00  0.00    -0.200 F 
ATOM     81  F   UNL A   1      38.190  34.385  38.266  1.00  0.00    -0.200 F 
ENDBRANCH  57  71
BRANCH  58  82
ATOM     82  C   UNL A   1      43.078  26.338  27.625  1.00  0.00     0.064 A 
ATOM     83  C   UNL A   1      42.673  25.009  27.429  1.00  0.00     0.173 A 
ATOM     84  C   UNL A   1      43.981  26.883  26.700  1.00  0.00     0.173 A 
ATOM     85  F   UNL A   1      41.821  24.435  28.292  1.00  0.00    -0.203 F 
ATOM     86  C   UNL A   1      43.167  24.252  26.368  1.00  0.00     0.198 A 
ATOM     87  C   UNL A   1      44.454  26.133  25.623  1.00  0.00     0.198 A 
ATOM     88  F   UNL A   1      44.396  28.150  26.833  1.00  0.00    -0.203 F 
ATOM     89  F   UNL A   1      42.796  22.971  26.232  1.00  0.00    -0.200 F 
ATOM     90  C   UNL A   1      44.053  24.815  25.463  1.00  0.00     0.200 A 
ATOM     91  F   UNL A   1      45.297  26.686  24.742  1.00  0.00    -0.200 F 
ATOM     92  F   UNL A   1      44.525  24.088  24.442  1.00  0.00    -0.200 F 
ENDBRANCH  58  82
BRANCH  70  93
ATOM     93  C   UNL A   1      45.229  27.348  34.183  1.00  0.00     0.064 A 
ATOM     94  C   UNL A   1      46.465  28.010  34.226  1.00  0.00     0.173 A 
ATOM     95  C   UNL A   1      45.079  26.173  34.934  1.00  0.00     0.173 A 
ATOM     96  F   UNL A   1      46.657  29.129  33.512  1.00  0.00    -0.203 F 
ATOM     97  C   UNL A   1      47.517  27.502  34.980  1.00  0.00     0.198 A 
ATOM     98  C   UNL A   1      46.125  25.685  35.709  1.00  0.00     0.198 A 
ATOM     99  F   UNL A   1      43.913  25.512  34.929  1.00  0.00    -0.203 F 
ATOM    100  F   UNL A   1      48.703  28.126  34.976  1.00  0.00    -0.200 F 
ATOM    101  C   UNL A   1      47.344  26.346  35.727  1.00  0.00     0.200 A 
ATOM    102  F   UNL A   1      45.953  24.576  36.441  1.00  0.00    -0.200 F 
ATOM    103  F   UNL A   1      48.357  25.864  36.460  1.00  0.00    -0.200 F 
ENDBRANCH  70  93
ENDBRANCH  44  45
ENDBRANCH  36  39
ENDBRANCH  34  35
ENDBRANCH  33  34
ENDBRANCH  32  33
ENDBRANCH  31  32
ENDBRANCH   1  31
TORSDOF 19
ENDMDL
MODEL 2
REMARK VINA RESULT:     -12.0      4.585     10.678
REMARK SMILES COc1cccc([C@@H]2CC(c3cccc(C)c3)=NN2C(=O)CCC(=O)NCCCCCCNC(=O)c2ccc(-c3c4nc(c(-c5c(F)c(F)c(F)c(F)c5F)c5ccc([nH]5)c(-c5c(F)c(F)c(F)c(F)c5F)c5nc(c(-c6c(F)c(F)c(F)c(F)c6F)c6ccc3[nH]6)C=C5)C=C4)cc2)c1
REMARK SMILES IDX 28 1 27 2 26 3 24 4 25 5 23 7 22 8 20 9 21 10 19 11 8 12
REMARK SMILES IDX 9 13 10 14 18 15 7 16 3 17 4 18 99 19 5 20 6 21 2 22 1 23
REMARK SMILES IDX 11 24 12 25 17 26 13 27 15 28 14 29 16 30 29 31 30 32 31 33
REMARK SMILES IDX 32 34 33 35 34 36 35 38 36 39 37 40 98 41 38 42 97 43 39 44
REMARK SMILES IDX 40 45 41 46 91 47 42 48 96 49 90 50 92 51 43 52 95 53 89 54
REMARK SMILES IDX 88 55 44 57 76 58 56 59 75 60 57 61 60 62 74 63 93 64 58 65
REMARK SMILES IDX 59 66 73 68 94 69 61 70 45 71 46 72 54 73 47 74 48 75 52 76
REMARK SMILES IDX 55 77 49 78 50 79 53 80 51 81 77 82 78 83 86 84 79 85 80 86
REMARK SMILES IDX 84 87 87 88 81 89 82 90 85 91 83 92 62 93 63 94 71 95 64 96
REMARK SMILES IDX 65 97 69 98 72 99 66 100 67 101 70 102 68 103
REMARK H PARENT 26 6 33 37 92 56 60 67
REMARK Flexibility Score: inf
ROOT
ATOM      1  C   UNL A   1      39.673  22.232  26.699  1.00  0.00     0.021 C 
ENDROOT
BRANCH   1   2
ATOM      2  C   UNL A   1      38.497  22.452  25.749  1.00  0.00     0.116 C 
BRANCH   2   3
ATOM      3  N   UNL A   1      37.459  21.437  25.719  1.00  0.00    -0.356 N 
ATOM      4  C   UNL A   1      36.217  21.465  25.170  1.00  0.00     0.220 C 
ATOM      5  O   UNL A   1      35.622  20.398  25.001  1.00  0.00    -0.275 OA
ATOM      6  H   UNL A   1      37.693  20.594  26.169  1.00  0.00     0.163 HD
BRANCH   4   7
ATOM      7  C   UNL A   1      35.540  22.784  24.876  1.00  0.00     0.110 C 
BRANCH   7   8
ATOM      8  C   UNL A   1      35.425  23.643  26.137  1.00  0.00     0.112 C 
BRANCH   8   9
ATOM      9  C   UNL A   1      34.145  23.332  26.894  1.00  0.00     0.243 C 
ATOM     10  O   UNL A   1      34.157  22.454  27.759  1.00  0.00    -0.273 OA
BRANCH   9  11
ATOM     11  N   UNL A   1      33.001  23.996  26.474  1.00  0.00    -0.225 N 
ATOM     12  C   UNL A   1      31.677  23.417  26.223  1.00  0.00     0.147 C 
ATOM     13  C   UNL A   1      30.796  24.629  25.926  1.00  0.00     0.091 C 
ATOM     14  C   UNL A   1      31.853  25.688  25.841  1.00  0.00     0.071 C 
ATOM     15  N   UNL A   1      33.064  25.312  26.098  1.00  0.00    -0.174 NA
BRANCH  12  16
ATOM     16  C   UNL A   1      31.797  22.413  25.086  1.00  0.00    -0.019 A 
ATOM     17  C   UNL A   1      32.153  20.113  24.392  1.00  0.00     0.119 A 
ATOM     18  C   UNL A   1      32.451  20.555  23.101  1.00  0.00     0.046 A 
ATOM     19  C   UNL A   1      31.832  21.043  25.382  1.00  0.00     0.052 A 
ATOM     20  C   UNL A   1      32.381  21.909  22.784  1.00  0.00     0.004 A 
ATOM     21  C   UNL A   1      32.039  22.832  23.766  1.00  0.00     0.006 A 
BRANCH  17  22
ATOM     22  O   UNL A   1      32.253  18.761  24.582  1.00  0.00    -0.497 OA
ATOM     23  C   UNL A   1      33.262  18.101  23.827  1.00  0.00     0.278 C 
ENDBRANCH  17  22
ENDBRANCH  12  16
BRANCH  14  24
ATOM     24  C   UNL A   1      31.527  27.074  25.496  1.00  0.00    -0.002 A 
ATOM     25  C   UNL A   1      30.935  27.319  24.259  1.00  0.00     0.010 A 
ATOM     26  C   UNL A   1      31.943  28.127  26.323  1.00  0.00     0.013 A 
ATOM     27  C   UNL A   1      30.702  28.632  23.863  1.00  0.00     0.001 A 
ATOM     28  C   UNL A   1      31.746  29.451  25.906  1.00  0.00    -0.050 A 
ATOM     29  C   UNL A   1      31.095  29.688  24.687  1.00  0.00     0.003 A 
ATOM     30  C   UNL A   1      32.334  30.610  26.659  1.00  0.00     0.044 C 
ENDBRANCH  14  24
ENDBRANCH   9  11
ENDBRANCH   8   9
ENDBRANCH   7   8
ENDBRANCH   4   7
ENDBRANCH   2   3
ENDBRANCH   1   2
BRANCH   1  31
ATOM     31  C   UNL A   1      40.904  21.445  26.231  1.00  0.00     0.002 C 
BRANCH  31  32
ATOM     32  C   UNL A   1      41.102  20.024  26.767  1.00  0.00     0.002 C 
BRANCH  32  33
ATOM     33  C   UNL A   1      41.682  19.049  25.751  1.00  0.00     0.021 C 
BRANCH  33  34
ATOM     34  C   UNL A   1      43.067  18.548  26.140  1.00  0.00     0.116 C 
BRANCH  34  35
ATOM     35  N   UNL A   1      44.037  18.554  25.047  1.00  0.00    -0.352 N 
ATOM     36  C   UNL A   1      44.623  19.668  24.482  1.00  0.00     0.251 C 
ATOM     37  H   UNL A   1      44.298  17.680  24.678  1.00  0.00     0.163 HD
ATOM     38  O   UNL A   1      45.352  19.625  23.499  1.00  0.00    -0.269 OA
BRANCH  36  39
ATOM     39  C   UNL A   1      44.269  20.964  25.074  1.00  0.00     0.039 A 
ATOM     40  C   UNL A   1      44.622  21.193  26.403  1.00  0.00     0.014 A 
ATOM     41  C   UNL A   1      43.842  21.993  24.233  1.00  0.00     0.014 A 
ATOM     42  C   UNL A   1      44.670  22.502  26.862  1.00  0.00     0.010 A 
ATOM     43  C   UNL A   1      43.980  23.300  24.665  1.00  0.00     0.010 A 
ATOM     44  C   UNL A   1      44.418  23.560  25.973  1.00  0.00    -0.014 A 
BRANCH  44  45
ATOM     45  C   UNL A   1      44.638  24.956  26.398  1.00  0.00     0.031 A 
ATOM     46  C   UNL A   1      45.999  25.556  26.240  1.00  0.00     0.074 A 
ATOM     47  C   UNL A   1      43.624  25.634  26.969  1.00  0.00     0.049 A 
ATOM     48  N   UNL A   1      46.417  26.750  26.565  1.00  0.00    -0.248 NA
ATOM     49  C   UNL A   1      47.042  24.686  25.670  1.00  0.00     0.031 C 
ATOM     50  C   UNL A   1      42.286  25.094  27.231  1.00  0.00     0.029 A 
ATOM     51  N   UNL A   1      43.556  26.921  27.433  1.00  0.00    -0.354 N 
ATOM     52  C   UNL A   1      47.769  26.766  26.254  1.00  0.00     0.074 A 
ATOM     53  C   UNL A   1      48.118  25.449  25.774  1.00  0.00     0.031 C 
ATOM     54  C   UNL A   1      41.522  26.054  27.775  1.00  0.00     0.029 A 
ATOM     55  C   UNL A   1      42.320  27.265  27.925  1.00  0.00     0.049 A 
ATOM     56  H   UNL A   1      44.321  27.541  27.415  1.00  0.00     0.167 HD
ATOM     57  C   UNL A   1      48.631  27.804  26.337  1.00  0.00     0.037 A 
ATOM     58  C   UNL A   1      41.890  28.437  28.430  1.00  0.00     0.037 A 
ATOM     59  C   UNL A   1      48.248  29.113  26.791  1.00  0.00     0.049 A 
ATOM     60  C   UNL A   1      42.858  29.589  28.466  1.00  0.00     0.074 A 
ATOM     61  C   UNL A   1      49.014  30.259  26.875  1.00  0.00     0.029 A 
ATOM     62  N   UNL A   1      46.974  29.443  27.238  1.00  0.00    -0.354 N 
ATOM     63  N   UNL A   1      44.117  29.621  28.096  1.00  0.00    -0.248 NA
ATOM     64  C   UNL A   1      42.348  30.869  28.974  1.00  0.00     0.031 C 
ATOM     65  C   UNL A   1      48.212  31.276  27.405  1.00  0.00     0.029 A 
ATOM     66  C   UNL A   1      46.934  30.775  27.609  1.00  0.00     0.049 A 
ATOM     67  H   UNL A   1      46.212  28.821  27.284  1.00  0.00     0.167 HD
ATOM     68  C   UNL A   1      44.545  30.923  28.305  1.00  0.00     0.074 A 
ATOM     69  C   UNL A   1      43.403  31.657  28.814  1.00  0.00     0.031 C 
ATOM     70  C   UNL A   1      45.770  31.467  28.102  1.00  0.00     0.037 A 
BRANCH  57  71
ATOM     71  C   UNL A   1      50.051  27.554  25.927  1.00  0.00     0.064 A 
ATOM     72  C   UNL A   1      51.056  27.296  26.873  1.00  0.00     0.173 A 
ATOM     73  C   UNL A   1      50.418  27.583  24.574  1.00  0.00     0.173 A 
ATOM     74  F   UNL A   1      50.763  27.278  28.182  1.00  0.00    -0.203 F 
ATOM     75  C   UNL A   1      52.379  27.112  26.483  1.00  0.00     0.198 A 
ATOM     76  C   UNL A   1      51.738  27.368  24.184  1.00  0.00     0.198 A 
ATOM     77  F   UNL A   1      49.499  27.828  23.629  1.00  0.00    -0.203 F 
ATOM     78  F   UNL A   1      53.330  26.928  27.409  1.00  0.00    -0.200 F 
ATOM     79  C   UNL A   1      52.718  27.142  25.138  1.00  0.00     0.200 A 
ATOM     80  F   UNL A   1      52.063  27.389  22.884  1.00  0.00    -0.200 F 
ATOM     81  F   UNL A   1      53.993  26.965  24.764  1.00  0.00    -0.200 F 
ENDBRANCH  57  71
BRANCH  58  82
ATOM     82  C   UNL A   1      40.484  28.586  28.894  1.00  0.00     0.064 A 
ATOM     83  C   UNL A   1      40.124  28.293  30.218  1.00  0.00     0.173 A 
ATOM     84  C   UNL A   1      39.471  29.025  28.029  1.00  0.00     0.173 A 
ATOM     85  F   UNL A   1      41.051  27.856  31.083  1.00  0.00    -0.203 F 
ATOM     86  C   UNL A   1      38.804  28.412  30.651  1.00  0.00     0.198 A 
ATOM     87  C   UNL A   1      38.156  29.170  28.470  1.00  0.00     0.198 A 
ATOM     88  F   UNL A   1      39.760  29.329  26.756  1.00  0.00    -0.203 F 
ATOM     89  F   UNL A   1      38.481  28.081  31.909  1.00  0.00    -0.200 F 
ATOM     90  C   UNL A   1      37.821  28.854  29.778  1.00  0.00     0.200 A 
ATOM     91  F   UNL A   1      37.213  29.613  27.628  1.00  0.00    -0.200 F 
ATOM     92  F   UNL A   1      36.554  28.971  30.195  1.00  0.00    -0.200 F 
ENDBRANCH  58  82
BRANCH  70  93
ATOM     93  C   UNL A   1      45.923  32.926  28.407  1.00  0.00     0.064 A 
ATOM     94  C   UNL A   1      46.342  33.368  29.670  1.00  0.00     0.173 A 
ATOM     95  C   UNL A   1      45.701  33.885  27.408  1.00  0.00     0.173 A 
ATOM     96  F   UNL A   1      46.551  32.488  30.659  1.00  0.00    -0.203 F 
ATOM     97  C   UNL A   1      46.513  34.725  29.926  1.00  0.00     0.198 A 
ATOM     98  C   UNL A   1      45.902  35.237  27.661  1.00  0.00     0.198 A 
ATOM     99  F   UNL A   1      45.308  33.506  26.183  1.00  0.00    -0.203 F 
ATOM    100  F   UNL A   1      46.873  35.131  31.152  1.00  0.00    -0.200 F 
ATOM    101  C   UNL A   1      46.302  35.656  28.921  1.00  0.00     0.200 A 
ATOM    102  F   UNL A   1      45.712  36.134  26.685  1.00  0.00    -0.200 F 
ATOM    103  F   UNL A   1      46.478  36.961  29.169  1.00  0.00    -0.200 F 
ENDBRANCH  70  93
ENDBRANCH  44  45
ENDBRANCH  36  39
ENDBRANCH  34  35
ENDBRANCH  33  34
ENDBRANCH  32  33
ENDBRANCH  31  32
ENDBRANCH   1  31
TORSDOF 19
ENDMDL
MODEL 3
REMARK VINA RESULT:     -11.9      4.573     10.686
REMARK SMILES COc1cccc([C@@H]2CC(c3cccc(C)c3)=NN2C(=O)CCC(=O)NCCCCCCNC(=O)c2ccc(-c3c4nc(c(-c5c(F)c(F)c(F)c(F)c5F)c5ccc([nH]5)c(-c5c(F)c(F)c(F)c(F)c5F)c5nc(c(-c6c(F)c(F)c(F)c(F)c6F)c6ccc3[nH]6)C=C5)C=C4)cc2)c1
REMARK SMILES IDX 28 1 27 2 26 3 24 4 25 5 23 7 22 8 20 9 21 10 19 11 8 12
REMARK SMILES IDX 9 13 10 14 18 15 7 16 3 17 4 18 99 19 5 20 6 21 2 22 1 23
REMARK SMILES IDX 11 24 12 25 17 26 13 27 15 28 14 29 16 30 29 31 30 32 31 33
REMARK SMILES IDX 32 34 33 35 34 36 35 38 36 39 37 40 98 41 38 42 97 43 39 44
REMARK SMILES IDX 40 45 41 46 91 47 42 48 96 49 90 50 92 51 43 52 95 53 89 54
REMARK SMILES IDX 88 55 44 57 76 58 56 59 75 60 57 61 60 62 74 63 93 64 58 65
REMARK SMILES IDX 59 66 73 68 94 69 61 70 45 71 46 72 54 73 47 74 48 75 52 76
REMARK SMILES IDX 55 77 49 78 50 79 53 80 51 81 77 82 78 83 86 84 79 85 80 86
REMARK SMILES IDX 84 87 87 88 81 89 82 90 85 91 83 92 62 93 63 94 71 95 64 96
REMARK SMILES IDX 65 97 69 98 72 99 66 100 67 101 70 102 68 103
REMARK H PARENT 26 6 33 37 92 56 60 67
REMARK Flexibility Score: inf
ROOT
ATOM      1  C   UNL A   1      39.697  22.552  26.791  1.00  0.00     0.021 C 
ENDROOT
BRANCH   1   2
ATOM      2  C   UNL A   1      38.396  22.874  26.056  1.00  0.00     0.116 C 
BRANCH   2   3
ATOM      3  N   UNL A   1      37.351  21.867  26.068  1.00  0.00    -0.356 N 
ATOM      4  C   UNL A   1      36.204  21.780  25.346  1.00  0.00     0.220 C 
ATOM      5  O   UNL A   1      35.616  20.697  25.299  1.00  0.00    -0.275 OA
ATOM      6  H   UNL A   1      37.497  21.128  26.701  1.00  0.00     0.163 HD
BRANCH   4   7
ATOM      7  C   UNL A   1      35.608  23.013  24.707  1.00  0.00     0.110 C 
BRANCH   7   8
ATOM      8  C   UNL A   1      35.297  24.086  25.752  1.00  0.00     0.112 C 
BRANCH   8   9
ATOM      9  C   UNL A   1      34.035  23.746  26.525  1.00  0.00     0.243 C 
ATOM     10  O   UNL A   1      34.106  22.962  27.475  1.00  0.00    -0.273 OA
BRANCH   9  11
ATOM     11  N   UNL A   1      32.847  24.265  26.032  1.00  0.00    -0.225 N 
ATOM     12  C   UNL A   1      31.565  23.568  25.882  1.00  0.00     0.147 C 
ATOM     13  C   UNL A   1      30.602  24.663  25.429  1.00  0.00     0.091 C 
ATOM     14  C   UNL A   1      31.583  25.769  25.181  1.00  0.00     0.071 C 
ATOM     15  N   UNL A   1      32.819  25.515  25.473  1.00  0.00    -0.174 NA
BRANCH  12  16
ATOM     16  C   UNL A   1      31.749  22.424  24.897  1.00  0.00    -0.019 A 
ATOM     17  C   UNL A   1      32.170  20.059  24.534  1.00  0.00     0.119 A 
ATOM     18  C   UNL A   1      32.517  20.331  23.209  1.00  0.00     0.046 A 
ATOM     19  C   UNL A   1      31.792  21.106  25.376  1.00  0.00     0.052 A 
ATOM     20  C   UNL A   1      32.441  21.628  22.709  1.00  0.00     0.004 A 
ATOM     21  C   UNL A   1      32.043  22.667  23.543  1.00  0.00     0.006 A 
BRANCH  17  22
ATOM     22  O   UNL A   1      32.281  18.747  24.908  1.00  0.00    -0.497 OA
ATOM     23  C   UNL A   1      32.984  17.902  24.006  1.00  0.00     0.278 C 
ENDBRANCH  17  22
ENDBRANCH  12  16
BRANCH  14  24
ATOM     24  C   UNL A   1      31.162  27.067  24.649  1.00  0.00    -0.002 A 
ATOM     25  C   UNL A   1      31.861  28.201  25.059  1.00  0.00     0.010 A 
ATOM     26  C   UNL A   1      29.997  27.172  23.876  1.00  0.00     0.013 A 
ATOM     27  C   UNL A   1      31.426  29.455  24.647  1.00  0.00     0.001 A 
ATOM     28  C   UNL A   1      29.534  28.439  23.496  1.00  0.00    -0.050 A 
ATOM     29  C   UNL A   1      30.277  29.571  23.861  1.00  0.00     0.003 A 
ATOM     30  C   UNL A   1      28.200  28.623  22.830  1.00  0.00     0.044 C 
ENDBRANCH  14  24
ENDBRANCH   9  11
ENDBRANCH   8   9
ENDBRANCH   7   8
ENDBRANCH   4   7
ENDBRANCH   2   3
ENDBRANCH   1   2
BRANCH   1  31
ATOM     31  C   UNL A   1      40.721  21.601  26.161  1.00  0.00     0.002 C 
BRANCH  31  32
ATOM     32  C   UNL A   1      40.823  20.176  26.714  1.00  0.00     0.002 C 
BRANCH  32  33
ATOM     33  C   UNL A   1      41.449  19.176  25.751  1.00  0.00     0.021 C 
BRANCH  33  34
ATOM     34  C   UNL A   1      42.804  18.668  26.226  1.00  0.00     0.116 C 
BRANCH  34  35
ATOM     35  N   UNL A   1      43.827  18.624  25.184  1.00  0.00    -0.352 N 
ATOM     36  C   UNL A   1      44.472  19.707  24.625  1.00  0.00     0.251 C 
ATOM     37  H   UNL A   1      44.081  17.735  24.847  1.00  0.00     0.163 HD
ATOM     38  O   UNL A   1      45.247  19.622  23.681  1.00  0.00    -0.269 OA
BRANCH  36  39
ATOM     39  C   UNL A   1      44.125  21.026  25.170  1.00  0.00     0.039 A 
ATOM     40  C   UNL A   1      44.411  21.273  26.511  1.00  0.00     0.014 A 
ATOM     41  C   UNL A   1      43.778  22.049  24.286  1.00  0.00     0.014 A 
ATOM     42  C   UNL A   1      44.473  22.590  26.947  1.00  0.00     0.010 A 
ATOM     43  C   UNL A   1      43.932  23.360  24.699  1.00  0.00     0.010 A 
ATOM     44  C   UNL A   1      44.305  23.635  26.024  1.00  0.00    -0.014 A 
BRANCH  44  45
ATOM     45  C   UNL A   1      44.544  25.033  26.432  1.00  0.00     0.031 A 
ATOM     46  C   UNL A   1      45.915  25.609  26.277  1.00  0.00     0.074 A 
ATOM     47  C   UNL A   1      43.536  25.734  26.987  1.00  0.00     0.049 A 
ATOM     48  N   UNL A   1      46.350  26.800  26.590  1.00  0.00    -0.248 NA
ATOM     49  C   UNL A   1      46.948  24.715  25.727  1.00  0.00     0.031 C 
ATOM     50  C   UNL A   1      42.188  25.219  27.245  1.00  0.00     0.029 A 
ATOM     51  N   UNL A   1      43.485  27.028  27.434  1.00  0.00    -0.354 N 
ATOM     52  C   UNL A   1      47.704  26.791  26.290  1.00  0.00     0.074 A 
ATOM     53  C   UNL A   1      48.036  25.462  25.830  1.00  0.00     0.031 C 
ATOM     54  C   UNL A   1      41.435  26.199  27.771  1.00  0.00     0.029 A 
ATOM     55  C   UNL A   1      42.251  27.399  27.911  1.00  0.00     0.049 A 
ATOM     56  H   UNL A   1      44.260  27.635  27.414  1.00  0.00     0.167 HD
ATOM     57  C   UNL A   1      48.582  27.816  26.367  1.00  0.00     0.037 A 
ATOM     58  C   UNL A   1      41.836  28.583  28.398  1.00  0.00     0.037 A 
ATOM     59  C   UNL A   1      48.216  29.137  26.801  1.00  0.00     0.049 A 
ATOM     60  C   UNL A   1      42.822  29.720  28.426  1.00  0.00     0.074 A 
ATOM     61  C   UNL A   1      49.000  30.272  26.876  1.00  0.00     0.029 A 
ATOM     62  N   UNL A   1      46.945  29.493  27.234  1.00  0.00    -0.354 N 
ATOM     63  N   UNL A   1      44.084  29.727  28.066  1.00  0.00    -0.248 NA
ATOM     64  C   UNL A   1      42.329  31.015  28.914  1.00  0.00     0.031 C 
ATOM     65  C   UNL A   1      48.211  31.308  27.387  1.00  0.00     0.029 A 
ATOM     66  C   UNL A   1      46.923  30.830  27.587  1.00  0.00     0.049 A 
ATOM     67  H   UNL A   1      46.172  28.883  27.281  1.00  0.00     0.167 HD
ATOM     68  C   UNL A   1      44.531  31.025  28.262  1.00  0.00     0.074 A 
ATOM     69  C   UNL A   1      43.397  31.784  28.752  1.00  0.00     0.031 C 
ATOM     70  C   UNL A   1      45.766  31.547  28.061  1.00  0.00     0.037 A 
BRANCH  57  71
ATOM     71  C   UNL A   1      50.001  27.539  25.971  1.00  0.00     0.064 A 
ATOM     72  C   UNL A   1      50.408  27.563  24.627  1.00  0.00     0.173 A 
ATOM     73  C   UNL A   1      50.965  27.233  26.941  1.00  0.00     0.173 A 
ATOM     74  F   UNL A   1      49.520  27.829  23.656  1.00  0.00    -0.203 F 
ATOM     75  C   UNL A   1      51.718  27.258  24.268  1.00  0.00     0.198 A 
ATOM     76  C   UNL A   1      52.283  26.957  26.581  1.00  0.00     0.198 A 
ATOM     77  F   UNL A   1      50.630  27.193  28.239  1.00  0.00    -0.203 F 
ATOM     78  F   UNL A   1      52.067  27.228  22.974  1.00  0.00    -0.200 F 
ATOM     79  C   UNL A   1      52.656  26.961  25.246  1.00  0.00     0.200 A 
ATOM     80  F   UNL A   1      53.189  26.679  27.527  1.00  0.00    -0.200 F 
ATOM     81  F   UNL A   1      53.916  26.667  24.899  1.00  0.00    -0.200 F 
ENDBRANCH  57  71
BRANCH  58  82
ATOM     82  C   UNL A   1      40.429  28.761  28.848  1.00  0.00     0.064 A 
ATOM     83  C   UNL A   1      39.420  29.122  27.944  1.00  0.00     0.173 A 
ATOM     84  C   UNL A   1      40.060  28.572  30.189  1.00  0.00     0.173 A 
ATOM     85  F   UNL A   1      39.720  29.328  26.653  1.00  0.00    -0.203 F 
ATOM     86  C   UNL A   1      38.105  29.310  28.366  1.00  0.00     0.198 A 
ATOM     87  C   UNL A   1      38.739  28.734  30.605  1.00  0.00     0.198 A 
ATOM     88  F   UNL A   1      40.982  28.216  31.095  1.00  0.00    -0.203 F 
ATOM     89  F   UNL A   1      37.170  29.700  27.487  1.00  0.00    -0.200 F 
ATOM     90  C   UNL A   1      37.764  29.112  29.695  1.00  0.00     0.200 A 
ATOM     91  F   UNL A   1      38.412  28.524  31.887  1.00  0.00    -0.200 F 
ATOM     92  F   UNL A   1      36.499  29.289  30.100  1.00  0.00    -0.200 F 
ENDBRANCH  58  82
BRANCH  70  93
ATOM     93  C   UNL A   1      45.940  33.007  28.349  1.00  0.00     0.064 A 
ATOM     94  C   UNL A   1      46.350  33.459  29.612  1.00  0.00     0.173 A 
ATOM     95  C   UNL A   1      45.748  33.956  27.334  1.00  0.00     0.173 A 
ATOM     96  F   UNL A   1      46.531  32.589  30.615  1.00  0.00    -0.203 F 
ATOM     97  C   UNL A   1      46.542  34.816  29.852  1.00  0.00     0.198 A 
ATOM     98  C   UNL A   1      45.969  35.307  27.572  1.00  0.00     0.198 A 
ATOM     99  F   UNL A   1      45.364  33.567  26.109  1.00  0.00    -0.203 F 
ATOM    100  F   UNL A   1      46.892  35.233  31.076  1.00  0.00    -0.200 F 
ATOM    101  C   UNL A   1      46.359  35.737  28.831  1.00  0.00     0.200 A 
ATOM    102  F   UNL A   1      45.806  36.195  26.581  1.00  0.00    -0.200 F 
ATOM    103  F   UNL A   1      46.554  37.042  29.064  1.00  0.00    -0.200 F 
ENDBRANCH  70  93
ENDBRANCH  44  45
ENDBRANCH  36  39
ENDBRANCH  34  35
ENDBRANCH  33  34
ENDBRANCH  32  33
ENDBRANCH  31  32
ENDBRANCH   1  31
TORSDOF 19
ENDMDL
