MODEL 1
REMARK VINA RESULT:     -10.7      0.000      0.000
REMARK SMILES CC[C@H](C)c1ccc(N2C(=O)NC(=O)/C(=C/c3ccc(-c4ccc(C(=O)NCCCCCCNC(=O)c5ccc(-c6c7nc(c(-c8c(F)c(F)c(F)c(F)c8F)c8ccc([nH]8)c(-c8c(F)c(F)c(F)c(F)c8F)c8nc(c(-c9c(F)c(F)c(F)c(F)c9F)c9ccc6[nH]9)C=C8)C=C7)cc5)cc4)o3)C2=O)cc1
REMARK SMILES IDX 29 1 28 2 27 3 25 4 26 5 24 7 21 8 22 9 101 10 23 11 100 12
REMARK SMILES IDX 20 13 17 14 18 15 102 16 19 17 16 18 9 19 10 20 103 21 11 22
REMARK SMILES IDX 12 23 15 24 104 25 13 26 14 28 8 29 5 30 6 31 106 32 7 33
REMARK SMILES IDX 105 34 3 35 4 36 2 37 1 38 30 39 31 40 32 41 33 42 34 43
REMARK SMILES IDX 35 44 36 46 37 47 38 48 99 49 39 50 98 51 40 52 41 53 42 54
REMARK SMILES IDX 92 55 43 56 97 57 91 58 93 59 44 60 96 61 90 62 89 63 45 65
REMARK SMILES IDX 77 66 57 67 76 68 58 69 61 70 75 71 94 72 59 73 60 74 74 76
REMARK SMILES IDX 95 77 62 78 46 79 47 80 55 81 48 82 49 83 53 84 56 85 50 86
REMARK SMILES IDX 51 87 54 88 52 89 78 90 79 91 87 92 80 93 81 94 85 95 88 96
REMARK SMILES IDX 82 97 83 98 86 99 84 100 63 101 64 102 72 103 65 104 66 105
REMARK SMILES IDX 70 106 73 107 67 108 68 109 71 110 69 111
REMARK H PARENT 27 6 12 27 34 45 93 64 61 75
REMARK Flexibility Score: inf
ROOT
ATOM      1  C   UNL A   1      43.850  24.878  25.204  1.00  0.00     0.021 C 
ENDROOT
BRANCH   1   2
ATOM      2  C   UNL A   1      42.355  25.172  25.342  1.00  0.00     0.116 C 
BRANCH   2   3
ATOM      3  N   UNL A   1      41.698  24.106  26.076  1.00  0.00    -0.352 N 
ATOM      4  C   UNL A   1      40.973  24.108  27.241  1.00  0.00     0.251 C 
ATOM      5  O   UNL A   1      40.492  23.044  27.627  1.00  0.00    -0.269 OA
ATOM      6  H   UNL A   1      41.789  23.218  25.662  1.00  0.00     0.163 HD
BRANCH   4   7
ATOM      7  C   UNL A   1      40.698  25.352  28.010  1.00  0.00     0.039 A 
ATOM      8  C   UNL A   1      40.284  27.597  29.649  1.00  0.00     0.017 A 
ATOM      9  C   UNL A   1      41.569  27.070  29.502  1.00  0.00     0.013 A 
ATOM     10  C   UNL A   1      39.228  27.047  28.920  1.00  0.00     0.013 A 
ATOM     11  C   UNL A   1      41.773  25.947  28.690  1.00  0.00     0.014 A 
ATOM     12  C   UNL A   1      39.441  25.956  28.078  1.00  0.00     0.014 A 
BRANCH   8  13
ATOM     13  C   UNL A   1      40.001  28.656  30.591  1.00  0.00     0.134 A 
ATOM     14  C   UNL A   1      39.389  30.711  31.123  1.00  0.00     0.128 A 
ATOM     15  C   UNL A   1      39.524  29.987  32.304  1.00  0.00     0.051 A 
ATOM     16  O   UNL A   1      39.657  29.864  30.072  1.00  0.00    -0.457 OA
ATOM     17  C   UNL A   1      39.935  28.683  31.964  1.00  0.00     0.051 A 
BRANCH  14  18
ATOM     18  C   UNL A   1      39.033  32.077  30.964  1.00  0.00     0.066 C 
ATOM     19  N   UNL A   1      36.090  32.080  28.723  1.00  0.00    -0.228 N 
ATOM     20  C   UNL A   1      36.138  33.403  28.296  1.00  0.00     0.335 C 
ATOM     21  C   UNL A   1      36.930  31.551  29.709  1.00  0.00     0.272 C 
ATOM     22  O   UNL A   1      35.473  33.895  27.385  1.00  0.00    -0.247 OA
ATOM     23  N   UNL A   1      36.972  34.239  28.992  1.00  0.00    -0.273 N 
ATOM     24  C   UNL A   1      37.959  32.477  30.254  1.00  0.00     0.109 C 
ATOM     25  O   UNL A   1      36.866  30.392  30.115  1.00  0.00    -0.268 OA
ATOM     26  C   UNL A   1      37.855  33.918  29.977  1.00  0.00     0.265 C 
ATOM     27  H   UNL A   1      36.926  35.192  28.749  1.00  0.00     0.175 HD
ATOM     28  O   UNL A   1      38.538  34.773  30.531  1.00  0.00    -0.269 OA
BRANCH  19  29
ATOM     29  C   UNL A   1      35.134  31.184  28.130  1.00  0.00     0.054 A 
ATOM     30  C   UNL A   1      33.346  29.498  26.681  1.00  0.00    -0.045 A 
ATOM     31  C   UNL A   1      34.675  29.124  26.914  1.00  0.00     0.006 A 
ATOM     32  C   UNL A   1      32.908  30.692  27.281  1.00  0.00     0.006 A 
ATOM     33  C   UNL A   1      35.555  29.959  27.605  1.00  0.00     0.027 A 
ATOM     34  C   UNL A   1      33.785  31.520  28.003  1.00  0.00     0.027 A 
BRANCH  30  35
ATOM     35  C   UNL A   1      32.408  28.600  25.872  1.00  0.00     0.016 C 
ATOM     36  C   UNL A   1      31.482  27.719  26.729  1.00  0.00     0.013 C 
BRANCH  35  37
ATOM     37  C   UNL A   1      31.551  29.328  24.797  1.00  0.00     0.004 C 
ATOM     38  C   UNL A   1      30.723  28.417  23.894  1.00  0.00     0.004 C 
ENDBRANCH  35  37
ENDBRANCH  30  35
ENDBRANCH  19  29
ENDBRANCH  14  18
ENDBRANCH   8  13
ENDBRANCH   4   7
ENDBRANCH   2   3
ENDBRANCH   1   2
BRANCH   1  39
ATOM     39  C   UNL A   1      44.482  24.332  26.490  1.00  0.00     0.002 C 
BRANCH  39  40
ATOM     40  C   UNL A   1      45.730  23.467  26.274  1.00  0.00     0.002 C 
BRANCH  40  41
ATOM     41  C   UNL A   1      46.729  24.018  25.254  1.00  0.00     0.021 C 
BRANCH  41  42
ATOM     42  C   UNL A   1      47.577  25.177  25.768  1.00  0.00     0.116 C 
BRANCH  42  43
ATOM     43  N   UNL A   1      47.792  26.180  24.739  1.00  0.00    -0.352 N 
ATOM     44  C   UNL A   1      47.290  27.452  24.648  1.00  0.00     0.251 C 
ATOM     45  H   UNL A   1      48.385  25.907  24.001  1.00  0.00     0.163 HD
ATOM     46  O   UNL A   1      47.391  28.081  23.599  1.00  0.00    -0.269 OA
BRANCH  44  47
ATOM     47  C   UNL A   1      46.623  28.071  25.813  1.00  0.00     0.039 A 
ATOM     48  C   UNL A   1      47.408  28.687  26.790  1.00  0.00     0.014 A 
ATOM     49  C   UNL A   1      45.235  27.999  25.969  1.00  0.00     0.014 A 
ATOM     50  C   UNL A   1      46.800  29.253  27.913  1.00  0.00     0.010 A 
ATOM     51  C   UNL A   1      44.624  28.626  27.051  1.00  0.00     0.010 A 
ATOM     52  C   UNL A   1      45.403  29.236  28.045  1.00  0.00    -0.014 A 
BRANCH  52  53
ATOM     53  C   UNL A   1      44.742  29.799  29.249  1.00  0.00     0.031 A 
ATOM     54  C   UNL A   1      44.336  31.247  29.269  1.00  0.00     0.074 A 
ATOM     55  C   UNL A   1      44.544  29.024  30.332  1.00  0.00     0.049 A 
ATOM     56  N   UNL A   1      43.796  31.946  30.236  1.00  0.00    -0.248 NA
ATOM     57  C   UNL A   1      44.598  32.023  28.047  1.00  0.00     0.031 C 
ATOM     58  C   UNL A   1      44.931  27.618  30.447  1.00  0.00     0.029 A 
ATOM     59  N   UNL A   1      43.972  29.313  31.545  1.00  0.00    -0.354 N 
ATOM     60  C   UNL A   1      43.670  33.239  29.744  1.00  0.00     0.074 A 
ATOM     61  C   UNL A   1      44.244  33.245  28.417  1.00  0.00     0.031 C 
ATOM     62  C   UNL A   1      44.564  27.159  31.656  1.00  0.00     0.029 A 
ATOM     63  C   UNL A   1      43.945  28.246  32.409  1.00  0.00     0.049 A 
ATOM     64  H   UNL A   1      43.615  30.202  31.774  1.00  0.00     0.167 HD
ATOM     65  C   UNL A   1      43.102  34.317  30.335  1.00  0.00     0.037 A 
ATOM     66  C   UNL A   1      43.471  28.159  33.666  1.00  0.00     0.037 A 
ATOM     67  C   UNL A   1      42.506  34.300  31.644  1.00  0.00     0.049 A 
ATOM     68  C   UNL A   1      42.837  29.371  34.295  1.00  0.00     0.074 A 
ATOM     69  C   UNL A   1      41.867  35.326  32.318  1.00  0.00     0.029 A 
ATOM     70  N   UNL A   1      42.470  33.191  32.478  1.00  0.00    -0.354 N 
ATOM     71  N   UNL A   1      42.674  30.574  33.800  1.00  0.00    -0.248 NA
ATOM     72  C   UNL A   1      42.307  29.206  35.656  1.00  0.00     0.031 C 
ATOM     73  C   UNL A   1      41.478  34.850  33.575  1.00  0.00     0.029 A 
ATOM     74  C   UNL A   1      41.830  33.513  33.664  1.00  0.00     0.049 A 
ATOM     75  H   UNL A   1      42.846  32.308  32.260  1.00  0.00     0.167 HD
ATOM     76  C   UNL A   1      41.993  31.298  34.770  1.00  0.00     0.074 A 
ATOM     77  C   UNL A   1      41.761  30.393  35.877  1.00  0.00     0.031 C 
ATOM     78  C   UNL A   1      41.595  32.593  34.748  1.00  0.00     0.037 A 
BRANCH  65  79
ATOM     79  C   UNL A   1      43.093  35.605  29.562  1.00  0.00     0.064 A 
ATOM     80  C   UNL A   1      42.087  35.896  28.628  1.00  0.00     0.173 A 
ATOM     81  C   UNL A   1      44.090  36.571  29.772  1.00  0.00     0.173 A 
ATOM     82  F   UNL A   1      41.118  35.001  28.379  1.00  0.00    -0.203 F 
ATOM     83  C   UNL A   1      42.095  37.091  27.912  1.00  0.00     0.198 A 
ATOM     84  C   UNL A   1      44.076  37.778  29.077  1.00  0.00     0.198 A 
ATOM     85  F   UNL A   1      45.075  36.347  30.655  1.00  0.00    -0.203 F 
ATOM     86  F   UNL A   1      41.153  37.322  26.987  1.00  0.00    -0.200 F 
ATOM     87  C   UNL A   1      43.085  38.033  28.141  1.00  0.00     0.200 A 
ATOM     88  F   UNL A   1      45.027  38.694  29.309  1.00  0.00    -0.200 F 
ATOM     89  F   UNL A   1      43.089  39.184  27.455  1.00  0.00    -0.200 F 
ENDBRANCH  65  79
BRANCH  66  90
ATOM     90  C   UNL A   1      43.543  26.871  34.402  1.00  0.00     0.064 A 
ATOM     91  C   UNL A   1      44.762  26.397  34.905  1.00  0.00     0.173 A 
ATOM     92  C   UNL A   1      42.403  26.079  34.603  1.00  0.00     0.173 A 
ATOM     93  F   UNL A   1      45.884  27.109  34.721  1.00  0.00    -0.203 F 
ATOM     94  C   UNL A   1      44.845  25.168  35.556  1.00  0.00     0.198 A 
ATOM     95  C   UNL A   1      42.481  24.864  35.281  1.00  0.00     0.198 A 
ATOM     96  F   UNL A   1      41.210  26.490  34.148  1.00  0.00    -0.203 F 
ATOM     97  F   UNL A   1      46.033  24.715  35.979  1.00  0.00    -0.200 F 
ATOM     98  C   UNL A   1      43.704  24.404  35.747  1.00  0.00     0.200 A 
ATOM     99  F   UNL A   1      41.373  24.136  35.476  1.00  0.00    -0.200 F 
ATOM    100  F   UNL A   1      43.784  23.223  36.372  1.00  0.00    -0.200 F 
ENDBRANCH  66  90
BRANCH  78 101
ATOM    101  C   UNL A   1      40.823  33.092  35.936  1.00  0.00     0.064 A 
ATOM    102  C   UNL A   1      41.464  33.618  37.067  1.00  0.00     0.173 A 
ATOM    103  C   UNL A   1      39.420  33.060  35.930  1.00  0.00     0.173 A 
ATOM    104  F   UNL A   1      42.803  33.658  37.126  1.00  0.00    -0.203 F 
ATOM    105  C   UNL A   1      40.729  34.060  38.164  1.00  0.00     0.198 A 
ATOM    106  C   UNL A   1      38.687  33.534  37.016  1.00  0.00     0.198 A 
ATOM    107  F   UNL A   1      38.758  32.576  34.869  1.00  0.00    -0.203 F 
ATOM    108  F   UNL A   1      41.364  34.503  39.258  1.00  0.00    -0.200 F 
ATOM    109  C   UNL A   1      39.343  34.022  38.136  1.00  0.00     0.200 A 
ATOM    110  F   UNL A   1      37.349  33.510  36.979  1.00  0.00    -0.200 F 
ATOM    111  F   UNL A   1      38.638  34.449  39.192  1.00  0.00    -0.200 F 
ENDBRANCH  78 101
ENDBRANCH  52  53
ENDBRANCH  44  47
ENDBRANCH  42  43
ENDBRANCH  41  42
ENDBRANCH  40  41
ENDBRANCH  39  40
ENDBRANCH   1  39
TORSDOF 18
ENDMDL
MODEL 2
REMARK VINA RESULT:     -10.2      0.596      6.658
REMARK SMILES CC[C@H](C)c1ccc(N2C(=O)NC(=O)/C(=C/c3ccc(-c4ccc(C(=O)NCCCCCCNC(=O)c5ccc(-c6c7nc(c(-c8c(F)c(F)c(F)c(F)c8F)c8ccc([nH]8)c(-c8c(F)c(F)c(F)c(F)c8F)c8nc(c(-c9c(F)c(F)c(F)c(F)c9F)c9ccc6[nH]9)C=C8)C=C7)cc5)cc4)o3)C2=O)cc1
REMARK SMILES IDX 29 1 28 2 27 3 25 4 26 5 24 7 21 8 22 9 101 10 23 11 100 12
REMARK SMILES IDX 20 13 17 14 18 15 102 16 19 17 16 18 9 19 10 20 103 21 11 22
REMARK SMILES IDX 12 23 15 24 104 25 13 26 14 28 8 29 5 30 6 31 106 32 7 33
REMARK SMILES IDX 105 34 3 35 4 36 2 37 1 38 30 39 31 40 32 41 33 42 34 43
REMARK SMILES IDX 35 44 36 46 37 47 38 48 99 49 39 50 98 51 40 52 41 53 42 54
REMARK SMILES IDX 92 55 43 56 97 57 91 58 93 59 44 60 96 61 90 62 89 63 45 65
REMARK SMILES IDX 77 66 57 67 76 68 58 69 61 70 75 71 94 72 59 73 60 74 74 76
REMARK SMILES IDX 95 77 62 78 46 79 47 80 55 81 48 82 49 83 53 84 56 85 50 86
REMARK SMILES IDX 51 87 54 88 52 89 78 90 79 91 87 92 80 93 81 94 85 95 88 96
REMARK SMILES IDX 82 97 83 98 86 99 84 100 63 101 64 102 72 103 65 104 66 105
REMARK SMILES IDX 70 106 73 107 67 108 68 109 71 110 69 111
REMARK H PARENT 27 6 12 27 34 45 93 64 61 75
REMARK Flexibility Score: inf
ROOT
ATOM      1  C   UNL A   1      44.391  24.930  25.544  1.00  0.00     0.021 C 
ENDROOT
BRANCH   1   2
ATOM      2  C   UNL A   1      42.942  25.360  25.299  1.00  0.00     0.116 C 
BRANCH   2   3
ATOM      3  N   UNL A   1      42.026  24.397  25.882  1.00  0.00    -0.352 N 
ATOM      4  C   UNL A   1      41.164  24.481  26.947  1.00  0.00     0.251 C 
ATOM      5  O   UNL A   1      40.465  23.503  27.206  1.00  0.00    -0.269 OA
ATOM      6  H   UNL A   1      42.022  23.523  25.431  1.00  0.00     0.163 HD
BRANCH   4   7
ATOM      7  C   UNL A   1      41.000  25.725  27.747  1.00  0.00     0.039 A 
ATOM      8  C   UNL A   1      40.735  27.943  29.453  1.00  0.00     0.017 A 
ATOM      9  C   UNL A   1      41.890  27.159  29.504  1.00  0.00     0.013 A 
ATOM     10  C   UNL A   1      39.753  27.659  28.501  1.00  0.00     0.013 A 
ATOM     11  C   UNL A   1      42.018  26.051  28.658  1.00  0.00     0.014 A 
ATOM     12  C   UNL A   1      39.903  26.581  27.630  1.00  0.00     0.014 A 
BRANCH   8  13
ATOM     13  C   UNL A   1      40.493  29.000  30.407  1.00  0.00     0.134 A 
ATOM     14  C   UNL A   1      39.830  31.030  30.976  1.00  0.00     0.128 A 
ATOM     15  C   UNL A   1      40.120  30.332  32.145  1.00  0.00     0.051 A 
ATOM     16  O   UNL A   1      40.035  30.181  29.913  1.00  0.00    -0.457 OA
ATOM     17  C   UNL A   1      40.562  29.045  31.780  1.00  0.00     0.051 A 
BRANCH  14  18
ATOM     18  C   UNL A   1      39.389  32.373  30.840  1.00  0.00     0.066 C 
ATOM     19  N   UNL A   1      36.331  32.205  28.766  1.00  0.00    -0.228 N 
ATOM     20  C   UNL A   1      36.279  33.528  28.339  1.00  0.00     0.335 C 
ATOM     21  C   UNL A   1      37.252  31.727  29.702  1.00  0.00     0.272 C 
ATOM     22  O   UNL A   1      35.538  33.980  27.466  1.00  0.00    -0.247 OA
ATOM     23  N   UNL A   1      37.102  34.411  28.988  1.00  0.00    -0.273 N 
ATOM     24  C   UNL A   1      38.256  32.710  30.191  1.00  0.00     0.109 C 
ATOM     25  O   UNL A   1      37.277  30.566  30.110  1.00  0.00    -0.268 OA
ATOM     26  C   UNL A   1      38.055  34.143  29.922  1.00  0.00     0.265 C 
ATOM     27  H   UNL A   1      36.988  35.360  28.750  1.00  0.00     0.175 HD
ATOM     28  O   UNL A   1      38.718  35.035  30.438  1.00  0.00    -0.269 OA
BRANCH  19  29
ATOM     29  C   UNL A   1      35.395  31.256  28.225  1.00  0.00     0.054 A 
ATOM     30  C   UNL A   1      33.647  29.449  26.876  1.00  0.00    -0.045 A 
ATOM     31  C   UNL A   1      34.984  29.120  27.128  1.00  0.00     0.006 A 
ATOM     32  C   UNL A   1      33.181  30.665  27.409  1.00  0.00     0.006 A 
ATOM     33  C   UNL A   1      35.844  30.013  27.769  1.00  0.00     0.027 A 
ATOM     34  C   UNL A   1      34.039  31.553  28.081  1.00  0.00     0.027 A 
BRANCH  30  35
ATOM     35  C   UNL A   1      32.730  28.487  26.120  1.00  0.00     0.016 C 
ATOM     36  C   UNL A   1      31.542  27.964  26.948  1.00  0.00     0.013 C 
BRANCH  35  37
ATOM     37  C   UNL A   1      32.196  29.007  24.755  1.00  0.00     0.004 C 
ATOM     38  C   UNL A   1      33.194  28.958  23.600  1.00  0.00     0.004 C 
ENDBRANCH  35  37
ENDBRANCH  30  35
ENDBRANCH  19  29
ENDBRANCH  14  18
ENDBRANCH   8  13
ENDBRANCH   4   7
ENDBRANCH   2   3
ENDBRANCH   1   2
BRANCH   1  39
ATOM     39  C   UNL A   1      44.713  24.702  27.027  1.00  0.00     0.002 C 
BRANCH  39  40
ATOM     40  C   UNL A   1      46.146  24.234  27.306  1.00  0.00     0.002 C 
BRANCH  40  41
ATOM     41  C   UNL A   1      47.113  24.374  26.127  1.00  0.00     0.021 C 
BRANCH  41  42
ATOM     42  C   UNL A   1      48.328  25.251  26.413  1.00  0.00     0.116 C 
BRANCH  42  43
ATOM     43  N   UNL A   1      48.567  26.200  25.339  1.00  0.00    -0.352 N 
ATOM     44  C   UNL A   1      48.041  27.453  25.154  1.00  0.00     0.251 C 
ATOM     45  H   UNL A   1      49.197  25.902  24.644  1.00  0.00     0.163 HD
ATOM     46  O   UNL A   1      48.175  28.025  24.077  1.00  0.00    -0.269 OA
BRANCH  44  47
ATOM     47  C   UNL A   1      47.309  28.119  26.252  1.00  0.00     0.039 A 
ATOM     48  C   UNL A   1      48.039  28.737  27.270  1.00  0.00     0.014 A 
ATOM     49  C   UNL A   1      45.912  28.090  26.307  1.00  0.00     0.014 A 
ATOM     50  C   UNL A   1      47.367  29.347  28.332  1.00  0.00     0.010 A 
ATOM     51  C   UNL A   1      45.242  28.761  27.326  1.00  0.00     0.010 A 
ATOM     52  C   UNL A   1      45.964  29.372  28.361  1.00  0.00    -0.014 A 
BRANCH  52  53
ATOM     53  C   UNL A   1      45.234  29.983  29.500  1.00  0.00     0.031 A 
ATOM     54  C   UNL A   1      44.910  29.151  30.711  1.00  0.00     0.074 A 
ATOM     55  C   UNL A   1      44.831  31.265  29.430  1.00  0.00     0.049 A 
ATOM     56  N   UNL A   1      44.237  29.476  31.787  1.00  0.00    -0.248 NA
ATOM     57  C   UNL A   1      45.380  27.757  30.699  1.00  0.00     0.031 C 
ATOM     58  C   UNL A   1      45.050  32.160  28.293  1.00  0.00     0.029 A 
ATOM     59  N   UNL A   1      44.145  32.037  30.335  1.00  0.00    -0.354 N 
ATOM     60  C   UNL A   1      44.192  28.327  32.566  1.00  0.00     0.074 A 
ATOM     61  C   UNL A   1      44.851  27.281  31.817  1.00  0.00     0.031 C 
ATOM     62  C   UNL A   1      44.531  33.366  28.578  1.00  0.00     0.029 A 
ATOM     63  C   UNL A   1      43.917  33.320  29.902  1.00  0.00     0.049 A 
ATOM     64  H   UNL A   1      43.846  31.702  31.211  1.00  0.00     0.167 HD
ATOM     65  C   UNL A   1      43.673  28.166  33.806  1.00  0.00     0.037 A 
ATOM     66  C   UNL A   1      43.283  34.341  30.509  1.00  0.00     0.037 A 
ATOM     67  C   UNL A   1      43.044  29.217  34.561  1.00  0.00     0.049 A 
ATOM     68  C   UNL A   1      42.724  34.137  31.891  1.00  0.00     0.074 A 
ATOM     69  C   UNL A   1      42.522  29.170  35.843  1.00  0.00     0.029 A 
ATOM     70  N   UNL A   1      42.857  30.513  34.101  1.00  0.00    -0.354 N 
ATOM     71  N   UNL A   1      42.735  33.062  32.642  1.00  0.00    -0.248 NA
ATOM     72  C   UNL A   1      42.074  35.298  32.517  1.00  0.00     0.031 C 
ATOM     73  C   UNL A   1      41.986  30.427  36.143  1.00  0.00     0.029 A 
ATOM     74  C   UNL A   1      42.219  31.271  35.069  1.00  0.00     0.049 A 
ATOM     75  H   UNL A   1      43.136  30.844  33.217  1.00  0.00     0.167 HD
ATOM     76  C   UNL A   1      42.130  33.424  33.838  1.00  0.00     0.074 A 
ATOM     77  C   UNL A   1      41.776  34.823  33.718  1.00  0.00     0.031 C 
ATOM     78  C   UNL A   1      41.889  32.667  34.937  1.00  0.00     0.037 A 
BRANCH  65  79
ATOM     79  C   UNL A   1      43.772  26.802  34.427  1.00  0.00     0.064 A 
ATOM     80  C   UNL A   1      42.650  25.968  34.554  1.00  0.00     0.173 A 
ATOM     81  C   UNL A   1      45.006  26.311  34.881  1.00  0.00     0.173 A 
ATOM     82  F   UNL A   1      41.443  26.393  34.149  1.00  0.00    -0.203 F 
ATOM     83  C   UNL A   1      42.754  24.708  35.139  1.00  0.00     0.198 A 
ATOM     84  C   UNL A   1      45.112  25.038  35.435  1.00  0.00     0.198 A 
ATOM     85  F   UNL A   1      46.112  27.064  34.781  1.00  0.00    -0.203 F 
ATOM     86  F   UNL A   1      41.658  23.953  35.299  1.00  0.00    -0.200 F 
ATOM     87  C   UNL A   1      43.985  24.242  35.573  1.00  0.00     0.200 A 
ATOM     88  F   UNL A   1      46.305  24.584  35.844  1.00  0.00    -0.200 F 
ATOM     89  F   UNL A   1      44.085  23.027  36.131  1.00  0.00    -0.200 F 
ENDBRANCH  65  79
BRANCH  66  90
ATOM     90  C   UNL A   1      43.177  35.659  29.833  1.00  0.00     0.064 A 
ATOM     91  C   UNL A   1      44.047  36.709  30.163  1.00  0.00     0.173 A 
ATOM     92  C   UNL A   1      42.198  35.906  28.860  1.00  0.00     0.173 A 
ATOM     93  F   UNL A   1      44.987  36.528  31.102  1.00  0.00    -0.203 F 
ATOM     94  C   UNL A   1      43.924  37.961  29.566  1.00  0.00     0.198 A 
ATOM     95  C   UNL A   1      42.095  37.151  28.241  1.00  0.00     0.198 A 
ATOM     96  F   UNL A   1      41.346  34.934  28.503  1.00  0.00    -0.203 F 
ATOM     97  F   UNL A   1      44.734  38.961  29.940  1.00  0.00    -0.200 F 
ATOM     98  C   UNL A   1      42.951  38.181  28.604  1.00  0.00     0.200 A 
ATOM     99  F   UNL A   1      41.163  37.354  27.301  1.00  0.00    -0.200 F 
ATOM    100  F   UNL A   1      42.833  39.385  28.030  1.00  0.00    -0.200 F 
ENDBRANCH  66  90
BRANCH  78 101
ATOM    101  C   UNL A   1      41.257  33.353  36.114  1.00  0.00     0.064 A 
ATOM    102  C   UNL A   1      42.025  33.983  37.103  1.00  0.00     0.173 A 
ATOM    103  C   UNL A   1      39.859  33.395  36.240  1.00  0.00     0.173 A 
ATOM    104  F   UNL A   1      43.364  33.958  37.035  1.00  0.00    -0.203 F 
ATOM    105  C   UNL A   1      41.419  34.598  38.195  1.00  0.00     0.198 A 
ATOM    106  C   UNL A   1      39.255  34.040  37.316  1.00  0.00     0.198 A 
ATOM    107  F   UNL A   1      39.078  32.816  35.316  1.00  0.00    -0.203 F 
ATOM    108  F   UNL A   1      42.174  35.142  39.159  1.00  0.00    -0.200 F 
ATOM    109  C   UNL A   1      40.036  34.631  38.298  1.00  0.00     0.200 A 
ATOM    110  F   UNL A   1      37.920  34.083  37.405  1.00  0.00    -0.200 F 
ATOM    111  F   UNL A   1      39.454  35.225  39.349  1.00  0.00    -0.200 F 
ENDBRANCH  78 101
ENDBRANCH  52  53
ENDBRANCH  44  47
ENDBRANCH  42  43
ENDBRANCH  41  42
ENDBRANCH  40  41
ENDBRANCH  39  40
ENDBRANCH   1  39
TORSDOF 18
ENDMDL
MODEL 3
REMARK VINA RESULT:     -10.2      4.306      9.963
REMARK SMILES CC[C@H](C)c1ccc(N2C(=O)NC(=O)/C(=C/c3ccc(-c4ccc(C(=O)NCCCCCCNC(=O)c5ccc(-c6c7nc(c(-c8c(F)c(F)c(F)c(F)c8F)c8ccc([nH]8)c(-c8c(F)c(F)c(F)c(F)c8F)c8nc(c(-c9c(F)c(F)c(F)c(F)c9F)c9ccc6[nH]9)C=C8)C=C7)cc5)cc4)o3)C2=O)cc1
REMARK SMILES IDX 29 1 28 2 27 3 25 4 26 5 24 7 21 8 22 9 101 10 23 11 100 12
REMARK SMILES IDX 20 13 17 14 18 15 102 16 19 17 16 18 9 19 10 20 103 21 11 22
REMARK SMILES IDX 12 23 15 24 104 25 13 26 14 28 8 29 5 30 6 31 106 32 7 33
REMARK SMILES IDX 105 34 3 35 4 36 2 37 1 38 30 39 31 40 32 41 33 42 34 43
REMARK SMILES IDX 35 44 36 46 37 47 38 48 99 49 39 50 98 51 40 52 41 53 42 54
REMARK SMILES IDX 92 55 43 56 97 57 91 58 93 59 44 60 96 61 90 62 89 63 45 65
REMARK SMILES IDX 77 66 57 67 76 68 58 69 61 70 75 71 94 72 59 73 60 74 74 76
REMARK SMILES IDX 95 77 62 78 46 79 47 80 55 81 48 82 49 83 53 84 56 85 50 86
REMARK SMILES IDX 51 87 54 88 52 89 78 90 79 91 87 92 80 93 81 94 85 95 88 96
REMARK SMILES IDX 82 97 83 98 86 99 84 100 63 101 64 102 72 103 65 104 66 105
REMARK SMILES IDX 70 106 73 107 67 108 68 109 71 110 69 111
REMARK H PARENT 27 6 12 27 34 45 93 64 61 75
REMARK Flexibility Score: inf
ROOT
ATOM      1  C   UNL A   1      39.467  27.781  29.999  1.00  0.00     0.021 C 
ENDROOT
BRANCH   1   2
ATOM      2  C   UNL A   1      39.327  26.930  28.734  1.00  0.00     0.116 C 
BRANCH   2   3
ATOM      3  N   UNL A   1      40.635  26.639  28.177  1.00  0.00    -0.352 N 
ATOM      4  C   UNL A   1      41.106  25.573  27.453  1.00  0.00     0.251 C 
ATOM      5  O   UNL A   1      42.274  25.602  27.070  1.00  0.00    -0.269 OA
ATOM      6  H   UNL A   1      41.308  27.336  28.349  1.00  0.00     0.163 HD
BRANCH   4   7
ATOM      7  C   UNL A   1      40.241  24.426  27.064  1.00  0.00     0.039 A 
ATOM      8  C   UNL A   1      38.789  22.181  26.195  1.00  0.00     0.017 A 
ATOM      9  C   UNL A   1      40.048  22.015  26.778  1.00  0.00     0.013 A 
ATOM     10  C   UNL A   1      38.233  23.459  26.117  1.00  0.00     0.013 A 
ATOM     11  C   UNL A   1      40.773  23.134  27.205  1.00  0.00     0.014 A 
ATOM     12  C   UNL A   1      38.938  24.569  26.583  1.00  0.00     0.014 A 
BRANCH   8  13
ATOM     13  C   UNL A   1      38.073  21.074  25.605  1.00  0.00     0.134 A 
ATOM     14  C   UNL A   1      36.232  19.980  25.063  1.00  0.00     0.128 A 
ATOM     15  C   UNL A   1      37.309  19.312  24.490  1.00  0.00     0.051 A 
ATOM     16  O   UNL A   1      36.719  21.086  25.722  1.00  0.00    -0.457 OA
ATOM     17  C   UNL A   1      38.485  19.999  24.854  1.00  0.00     0.051 A 
BRANCH  14  18
ATOM     18  C   UNL A   1      34.854  19.640  25.006  1.00  0.00     0.066 C 
ATOM     19  N   UNL A   1      33.046  22.860  24.790  1.00  0.00    -0.228 N 
ATOM     20  C   UNL A   1      31.786  22.434  25.197  1.00  0.00     0.335 C 
ATOM     21  C   UNL A   1      34.123  21.996  24.568  1.00  0.00     0.272 C 
ATOM     22  O   UNL A   1      30.831  23.159  25.475  1.00  0.00    -0.247 OA
ATOM     23  N   UNL A   1      31.586  21.079  25.246  1.00  0.00    -0.273 N 
ATOM     24  C   UNL A   1      33.877  20.559  24.861  1.00  0.00     0.109 C 
ATOM     25  O   UNL A   1      35.228  22.364  24.172  1.00  0.00    -0.268 OA
ATOM     26  C   UNL A   1      32.498  20.086  25.061  1.00  0.00     0.265 C 
ATOM     27  H   UNL A   1      30.665  20.787  25.438  1.00  0.00     0.175 HD
ATOM     28  O   UNL A   1      32.181  18.903  25.120  1.00  0.00    -0.269 OA
BRANCH  19  29
ATOM     29  C   UNL A   1      33.280  24.263  24.582  1.00  0.00     0.054 A 
ATOM     30  C   UNL A   1      33.480  27.097  24.316  1.00  0.00    -0.045 A 
ATOM     31  C   UNL A   1      33.840  26.447  25.503  1.00  0.00     0.006 A 
ATOM     32  C   UNL A   1      33.114  26.280  23.231  1.00  0.00     0.006 A 
ATOM     33  C   UNL A   1      33.723  25.063  25.639  1.00  0.00     0.027 A 
ATOM     34  C   UNL A   1      33.023  24.883  23.357  1.00  0.00     0.027 A 
BRANCH  30  35
ATOM     35  C   UNL A   1      33.558  28.620  24.199  1.00  0.00     0.016 C 
ATOM     36  C   UNL A   1      33.653  29.138  22.753  1.00  0.00     0.013 C 
BRANCH  35  37
ATOM     37  C   UNL A   1      32.437  29.404  24.937  1.00  0.00     0.004 C 
ATOM     38  C   UNL A   1      31.048  29.308  24.309  1.00  0.00     0.004 C 
ENDBRANCH  35  37
ENDBRANCH  30  35
ENDBRANCH  19  29
ENDBRANCH  14  18
ENDBRANCH   8  13
ENDBRANCH   4   7
ENDBRANCH   2   3
ENDBRANCH   1   2
BRANCH   1  39
ATOM     39  C   UNL A   1      38.602  29.047  29.977  1.00  0.00     0.002 C 
BRANCH  39  40
ATOM     40  C   UNL A   1      38.597  29.797  28.639  1.00  0.00     0.002 C 
BRANCH  40  41
ATOM     41  C   UNL A   1      37.209  30.044  28.041  1.00  0.00     0.021 C 
BRANCH  41  42
ATOM     42  C   UNL A   1      36.059  29.853  29.024  1.00  0.00     0.116 C 
BRANCH  42  43
ATOM     43  N   UNL A   1      35.366  31.103  29.287  1.00  0.00    -0.352 N 
ATOM     44  C   UNL A   1      35.455  31.933  30.375  1.00  0.00     0.251 C 
ATOM     45  H   UNL A   1      34.745  31.397  28.583  1.00  0.00     0.163 HD
ATOM     46  O   UNL A   1      34.631  32.828  30.536  1.00  0.00    -0.269 OA
BRANCH  44  47
ATOM     47  C   UNL A   1      36.542  31.751  31.359  1.00  0.00     0.039 A 
ATOM     48  C   UNL A   1      36.312  30.946  32.478  1.00  0.00     0.014 A 
ATOM     49  C   UNL A   1      37.766  32.412  31.209  1.00  0.00     0.014 A 
ATOM     50  C   UNL A   1      37.317  30.785  33.434  1.00  0.00     0.010 A 
ATOM     51  C   UNL A   1      38.791  32.192  32.124  1.00  0.00     0.010 A 
ATOM     52  C   UNL A   1      38.567  31.398  33.258  1.00  0.00    -0.014 A 
BRANCH  52  53
ATOM     53  C   UNL A   1      39.633  31.267  34.282  1.00  0.00     0.031 A 
ATOM     54  C   UNL A   1      40.584  30.102  34.226  1.00  0.00     0.074 A 
ATOM     55  C   UNL A   1      39.722  32.168  35.279  1.00  0.00     0.049 A 
ATOM     56  N   UNL A   1      41.548  29.775  35.050  1.00  0.00    -0.248 NA
ATOM     57  C   UNL A   1      40.409  29.161  33.109  1.00  0.00     0.031 C 
ATOM     58  C   UNL A   1      38.835  33.316  35.463  1.00  0.00     0.029 A 
ATOM     59  N   UNL A   1      40.601  32.254  36.329  1.00  0.00    -0.354 N 
ATOM     60  C   UNL A   1      42.079  28.589  34.559  1.00  0.00     0.074 A 
ATOM     61  C   UNL A   1      41.294  28.220  33.403  1.00  0.00     0.031 C 
ATOM     62  C   UNL A   1      39.229  34.006  36.546  1.00  0.00     0.029 A 
ATOM     63  C   UNL A   1      40.375  33.332  37.148  1.00  0.00     0.049 A 
ATOM     64  H   UNL A   1      41.326  31.604  36.481  1.00  0.00     0.167 HD
ATOM     65  C   UNL A   1      43.143  27.886  35.016  1.00  0.00     0.037 A 
ATOM     66  C   UNL A   1      41.024  33.729  38.260  1.00  0.00     0.037 A 
ATOM     67  C   UNL A   1      43.940  28.273  36.149  1.00  0.00     0.049 A 
ATOM     68  C   UNL A   1      42.208  32.935  38.739  1.00  0.00     0.074 A 
ATOM     69  C   UNL A   1      45.063  27.654  36.669  1.00  0.00     0.029 A 
ATOM     70  N   UNL A   1      43.698  29.389  36.938  1.00  0.00    -0.354 N 
ATOM     71  N   UNL A   1      42.736  31.845  38.236  1.00  0.00    -0.248 NA
ATOM     72  C   UNL A   1      42.897  33.436  39.937  1.00  0.00     0.031 C 
ATOM     73  C   UNL A   1      45.479  28.374  37.795  1.00  0.00     0.029 A 
ATOM     74  C   UNL A   1      44.645  29.470  37.946  1.00  0.00     0.049 A 
ATOM     75  H   UNL A   1      42.961  30.027  36.801  1.00  0.00     0.167 HD
ATOM     76  C   UNL A   1      43.836  31.550  39.030  1.00  0.00     0.074 A 
ATOM     77  C   UNL A   1      43.909  32.585  40.040  1.00  0.00     0.031 C 
ATOM     78  C   UNL A   1      44.709  30.517  38.933  1.00  0.00     0.037 A 
BRANCH  65  79
ATOM     79  C   UNL A   1      43.509  26.629  34.279  1.00  0.00     0.064 A 
ATOM     80  C   UNL A   1      43.047  25.371  34.696  1.00  0.00     0.173 A 
ATOM     81  C   UNL A   1      44.314  26.683  33.131  1.00  0.00     0.173 A 
ATOM     82  F   UNL A   1      42.286  25.262  35.796  1.00  0.00    -0.203 F 
ATOM     83  C   UNL A   1      43.402  24.212  34.009  1.00  0.00     0.198 A 
ATOM     84  C   UNL A   1      44.640  25.525  32.428  1.00  0.00     0.198 A 
ATOM     85  F   UNL A   1      44.781  27.860  32.686  1.00  0.00    -0.203 F 
ATOM     86  F   UNL A   1      42.992  23.018  34.458  1.00  0.00    -0.200 F 
ATOM     87  C   UNL A   1      44.191  24.291  32.873  1.00  0.00     0.200 A 
ATOM     88  F   UNL A   1      45.393  25.604  31.323  1.00  0.00    -0.200 F 
ATOM     89  F   UNL A   1      44.528  23.175  32.210  1.00  0.00    -0.200 F 
ENDBRANCH  65  79
BRANCH  66  90
ATOM     90  C   UNL A   1      40.594  34.958  38.974  1.00  0.00     0.064 A 
ATOM     91  C   UNL A   1      41.231  36.185  38.742  1.00  0.00     0.173 A 
ATOM     92  C   UNL A   1      39.553  34.933  39.914  1.00  0.00     0.173 A 
ATOM     93  F   UNL A   1      42.245  36.257  37.867  1.00  0.00    -0.203 F 
ATOM     94  C   UNL A   1      40.864  37.333  39.442  1.00  0.00     0.198 A 
ATOM     95  C   UNL A   1      39.166  36.088  40.591  1.00  0.00     0.198 A 
ATOM     96  F   UNL A   1      38.906  33.786  40.168  1.00  0.00    -0.203 F 
ATOM     97  F   UNL A   1      41.527  38.479  39.238  1.00  0.00    -0.200 F 
ATOM     98  C   UNL A   1      39.830  37.284  40.362  1.00  0.00     0.200 A 
ATOM     99  F   UNL A   1      38.156  36.039  41.470  1.00  0.00    -0.200 F 
ATOM    100  F   UNL A   1      39.477  38.387  41.036  1.00  0.00    -0.200 F 
ENDBRANCH  66  90
BRANCH  78 101
ATOM    101  C   UNL A   1      45.845  30.487  39.914  1.00  0.00     0.064 A 
ATOM    102  C   UNL A   1      45.726  29.865  41.165  1.00  0.00     0.173 A 
ATOM    103  C   UNL A   1      47.078  31.073  39.586  1.00  0.00     0.173 A 
ATOM    104  F   UNL A   1      44.564  29.303  41.531  1.00  0.00    -0.203 F 
ATOM    105  C   UNL A   1      46.787  29.863  42.067  1.00  0.00     0.198 A 
ATOM    106  C   UNL A   1      48.147  31.041  40.477  1.00  0.00     0.198 A 
ATOM    107  F   UNL A   1      47.248  31.673  38.399  1.00  0.00    -0.203 F 
ATOM    108  F   UNL A   1      46.630  29.316  43.280  1.00  0.00    -0.200 F 
ATOM    109  C   UNL A   1      47.997  30.446  41.721  1.00  0.00     0.200 A 
ATOM    110  F   UNL A   1      49.319  31.591  40.135  1.00  0.00    -0.200 F 
ATOM    111  F   UNL A   1      49.017  30.442  42.589  1.00  0.00    -0.200 F 
ENDBRANCH  78 101
ENDBRANCH  52  53
ENDBRANCH  44  47
ENDBRANCH  42  43
ENDBRANCH  41  42
ENDBRANCH  40  41
ENDBRANCH  39  40
ENDBRANCH   1  39
TORSDOF 18
ENDMDL
