MODEL 1
REMARK VINA RESULT:     -13.6      0.000      0.000
REMARK SMILES CC1(C)Oc2ccc(NC(=O)[C@H]3CC=CC[C@@H]3C(=O)NCCCCCCNC(=O)c3ccc(-c4c5nc(c(-c6c(F)c(F)c(F)c(F)c6F)c6ccc([nH]6)c(-c6c(F)c(F)c(F)c(F)c6F)c6nc(c(-c7c(F)c(F)c(F)c(F)c7F)c7ccc4[nH]7)C=C6)C=C5)cc3)cc2NC1=O
REMARK SMILES IDX 23 1 22 2 21 3 20 4 18 5 19 6 17 8 12 9 13 10 14 11 16 12
REMARK SMILES IDX 15 13 10 14 9 15 11 17 8 18 1 19 2 20 3 21 4 22 96 23 5 24
REMARK SMILES IDX 95 25 97 26 6 27 94 28 7 30 93 31 24 32 25 33 26 34 27 35
REMARK SMILES IDX 28 36 29 38 30 39 31 40 92 41 32 42 91 43 33 44 34 45 35 46
REMARK SMILES IDX 85 47 36 48 90 49 84 50 86 51 37 52 89 53 83 54 82 55 38 57
REMARK SMILES IDX 70 58 50 59 69 60 51 61 54 62 68 63 87 64 52 65 53 66 67 68
REMARK SMILES IDX 88 69 55 70 39 71 40 72 48 73 41 74 42 75 46 76 49 77 43 78
REMARK SMILES IDX 44 79 47 80 45 81 71 82 72 83 80 84 73 85 74 86 78 87 81 88
REMARK SMILES IDX 75 89 76 90 79 91 77 92 56 93 57 94 65 95 58 96 59 97 63 98
REMARK SMILES IDX 66 99 60 100 61 101 64 102 62 103
REMARK H PARENT 20 7 9 16 95 29 27 37 86 56 54 67
REMARK Flexibility Score: inf
ROOT
ATOM      1  C   UNL A   1      31.360  27.093  27.347  1.00  0.00     0.002 C 
ENDROOT
BRANCH   1   2
ATOM      2  C   UNL A   1      30.867  26.529  26.012  1.00  0.00     0.021 C 
BRANCH   2   3
ATOM      3  C   UNL A   1      30.501  25.046  26.022  1.00  0.00     0.116 C 
BRANCH   3   4
ATOM      4  N   UNL A   1      31.497  24.200  26.653  1.00  0.00    -0.356 N 
ATOM      5  C   UNL A   1      32.815  24.005  26.329  1.00  0.00     0.224 C 
ATOM      6  O   UNL A   1      33.488  23.307  27.087  1.00  0.00    -0.275 OA
ATOM      7  H   UNL A   1      31.177  23.688  27.430  1.00  0.00     0.163 HD
BRANCH   5   8
ATOM      8  C   UNL A   1      33.394  24.671  25.071  1.00  0.00     0.095 C 
ATOM      9  C   UNL A   1      32.916  23.979  23.780  1.00  0.00     0.095 C 
ATOM     10  C   UNL A   1      33.597  22.571  23.716  1.00  0.00     0.041 C 
ATOM     11  C   UNL A   1      35.067  22.588  24.036  1.00  0.00    -0.030 C 
ATOM     12  C   UNL A   1      34.923  24.816  25.129  1.00  0.00     0.041 C 
ATOM     13  C   UNL A   1      35.669  23.611  24.653  1.00  0.00    -0.030 C 
BRANCH   9  14
ATOM     14  C   UNL A   1      33.046  24.649  22.381  1.00  0.00     0.228 C 
ATOM     15  N   UNL A   1      32.641  25.883  21.971  1.00  0.00    -0.326 N 
ATOM     16  H   UNL A   1      32.948  26.089  21.059  1.00  0.00     0.169 HD
ATOM     17  O   UNL A   1      33.563  23.989  21.460  1.00  0.00    -0.274 OA
BRANCH  15  18
ATOM     18  C   UNL A   1      31.900  26.929  22.524  1.00  0.00     0.043 A 
ATOM     19  C   UNL A   1      27.746  31.620  23.260  1.00  0.00     0.067 C 
ATOM     20  C   UNL A   1      28.356  30.355  22.656  1.00  0.00     0.182 C 
ATOM     21  C   UNL A   1      28.166  30.402  21.126  1.00  0.00     0.067 C 
ATOM     22  O   UNL A   1      29.746  30.412  23.004  1.00  0.00    -0.476 OA
ATOM     23  C   UNL A   1      27.634  29.079  23.151  1.00  0.00     0.268 C 
ATOM     24  C   UNL A   1      30.392  29.211  22.984  1.00  0.00     0.144 A 
ATOM     25  N   UNL A   1      28.366  27.926  22.959  1.00  0.00    -0.319 N 
ATOM     26  O   UNL A   1      26.480  29.043  23.562  1.00  0.00    -0.270 OA
ATOM     27  C   UNL A   1      31.754  29.229  23.223  1.00  0.00     0.051 A 
ATOM     28  C   UNL A   1      29.753  27.986  22.799  1.00  0.00     0.086 A 
ATOM     29  H   UNL A   1      27.909  27.054  22.935  1.00  0.00     0.170 HD
ATOM     30  C   UNL A   1      32.482  28.050  23.085  1.00  0.00     0.030 A 
ATOM     31  C   UNL A   1      30.504  26.840  22.533  1.00  0.00     0.056 A 
ENDBRANCH  15  18
ENDBRANCH   9  14
ENDBRANCH   5   8
ENDBRANCH   3   4
ENDBRANCH   2   3
ENDBRANCH   1   2
BRANCH   1  32
ATOM     32  C   UNL A   1      32.363  28.247  27.256  1.00  0.00     0.002 C 
BRANCH  32  33
ATOM     33  C   UNL A   1      31.779  29.624  26.938  1.00  0.00     0.021 C 
BRANCH  33  34
ATOM     34  C   UNL A   1      32.740  30.628  26.308  1.00  0.00     0.116 C 
BRANCH  34  35
ATOM     35  N   UNL A   1      32.595  31.982  26.822  1.00  0.00    -0.352 N 
ATOM     36  C   UNL A   1      33.443  32.702  27.633  1.00  0.00     0.251 C 
ATOM     37  H   UNL A   1      31.774  32.451  26.549  1.00  0.00     0.163 HD
ATOM     38  O   UNL A   1      33.119  33.813  28.042  1.00  0.00    -0.269 OA
BRANCH  36  39
ATOM     39  C   UNL A   1      34.730  32.109  28.057  1.00  0.00     0.039 A 
ATOM     40  C   UNL A   1      34.807  30.768  28.435  1.00  0.00     0.014 A 
ATOM     41  C   UNL A   1      35.865  32.922  28.122  1.00  0.00     0.014 A 
ATOM     42  C   UNL A   1      35.959  30.294  29.056  1.00  0.00     0.010 A 
ATOM     43  C   UNL A   1      37.051  32.418  28.665  1.00  0.00     0.010 A 
ATOM     44  C   UNL A   1      37.089  31.118  29.193  1.00  0.00    -0.014 A 
BRANCH  44  45
ATOM     45  C   UNL A   1      38.285  30.606  29.914  1.00  0.00     0.031 A 
ATOM     46  C   UNL A   1      38.548  30.999  31.343  1.00  0.00     0.074 A 
ATOM     47  C   UNL A   1      39.102  29.730  29.298  1.00  0.00     0.049 A 
ATOM     48  N   UNL A   1      39.527  30.632  32.134  1.00  0.00    -0.248 NA
ATOM     49  C   UNL A   1      37.594  31.928  31.968  1.00  0.00     0.031 C 
ATOM     50  C   UNL A   1      38.942  29.258  27.922  1.00  0.00     0.029 A 
ATOM     51  N   UNL A   1      40.210  29.061  29.754  1.00  0.00    -0.354 N 
ATOM     52  C   UNL A   1      39.314  31.293  33.337  1.00  0.00     0.074 A 
ATOM     53  C   UNL A   1      38.134  32.112  33.166  1.00  0.00     0.031 C 
ATOM     54  C   UNL A   1      39.881  28.336  27.663  1.00  0.00     0.029 A 
ATOM     55  C   UNL A   1      40.747  28.198  28.830  1.00  0.00     0.049 A 
ATOM     56  H   UNL A   1      40.582  29.185  30.657  1.00  0.00     0.167 HD
ATOM     57  C   UNL A   1      40.028  31.212  34.485  1.00  0.00     0.037 A 
ATOM     58  C   UNL A   1      41.826  27.396  28.905  1.00  0.00     0.037 A 
ATOM     59  C   UNL A   1      41.190  30.379  34.662  1.00  0.00     0.049 A 
ATOM     60  C   UNL A   1      42.632  27.366  30.173  1.00  0.00     0.074 A 
ATOM     61  C   UNL A   1      41.966  30.212  35.796  1.00  0.00     0.029 A 
ATOM     62  N   UNL A   1      41.742  29.571  33.679  1.00  0.00    -0.354 N 
ATOM     63  N   UNL A   1      42.415  27.990  31.304  1.00  0.00    -0.248 NA
ATOM     64  C   UNL A   1      43.838  26.527  30.170  1.00  0.00     0.031 C 
ATOM     65  C   UNL A   1      43.014  29.342  35.486  1.00  0.00     0.029 A 
ATOM     66  C   UNL A   1      42.863  28.924  34.174  1.00  0.00     0.049 A 
ATOM     67  H   UNL A   1      41.390  29.472  32.765  1.00  0.00     0.167 HD
ATOM     68  C   UNL A   1      43.447  27.615  32.151  1.00  0.00     0.074 A 
ATOM     69  C   UNL A   1      44.280  26.689  31.410  1.00  0.00     0.031 C 
ATOM     70  C   UNL A   1      43.686  28.008  33.426  1.00  0.00     0.037 A 
BRANCH  57  71
ATOM     71  C   UNL A   1      39.583  32.049  35.651  1.00  0.00     0.064 A 
ATOM     72  C   UNL A   1      40.062  33.354  35.845  1.00  0.00     0.173 A 
ATOM     73  C   UNL A   1      38.616  31.566  36.546  1.00  0.00     0.173 A 
ATOM     74  F   UNL A   1      40.995  33.859  35.025  1.00  0.00    -0.203 F 
ATOM     75  C   UNL A   1      39.600  34.137  36.900  1.00  0.00     0.198 A 
ATOM     76  C   UNL A   1      38.135  32.363  37.583  1.00  0.00     0.198 A 
ATOM     77  F   UNL A   1      38.118  30.329  36.401  1.00  0.00    -0.203 F 
ATOM     78  F   UNL A   1      40.098  35.367  37.087  1.00  0.00    -0.200 F 
ATOM     79  C   UNL A   1      38.632  33.645  37.762  1.00  0.00     0.200 A 
ATOM     80  F   UNL A   1      37.189  31.890  38.405  1.00  0.00    -0.200 F 
ATOM     81  F   UNL A   1      38.178  34.406  38.767  1.00  0.00    -0.200 F 
ENDBRANCH  57  71
BRANCH  58  82
ATOM     82  C   UNL A   1      42.192  26.554  27.737  1.00  0.00     0.064 A 
ATOM     83  C   UNL A   1      43.176  26.970  26.832  1.00  0.00     0.173 A 
ATOM     84  C   UNL A   1      41.596  25.302  27.527  1.00  0.00     0.173 A 
ATOM     85  F   UNL A   1      43.759  28.169  26.980  1.00  0.00    -0.203 F 
ATOM     86  C   UNL A   1      43.552  26.164  25.759  1.00  0.00     0.198 A 
ATOM     87  C   UNL A   1      41.995  24.485  26.472  1.00  0.00     0.198 A 
ATOM     88  F   UNL A   1      40.651  24.857  28.368  1.00  0.00    -0.203 F 
ATOM     89  F   UNL A   1      44.479  26.596  24.892  1.00  0.00    -0.200 F 
ATOM     90  C   UNL A   1      42.970  24.918  25.587  1.00  0.00     0.200 A 
ATOM     91  F   UNL A   1      41.442  23.273  26.321  1.00  0.00    -0.200 F 
ATOM     92  F   UNL A   1      43.347  24.135  24.568  1.00  0.00    -0.200 F 
ENDBRANCH  58  82
BRANCH  70  93
ATOM     93  C   UNL A   1      44.892  27.436  34.113  1.00  0.00     0.064 A 
ATOM     94  C   UNL A   1      46.125  28.103  34.100  1.00  0.00     0.173 A 
ATOM     95  C   UNL A   1      44.793  26.247  34.851  1.00  0.00     0.173 A 
ATOM     96  F   UNL A   1      46.272  29.236  33.397  1.00  0.00    -0.203 F 
ATOM     97  C   UNL A   1      47.221  27.591  34.788  1.00  0.00     0.198 A 
ATOM     98  C   UNL A   1      45.885  25.753  35.561  1.00  0.00     0.198 A 
ATOM     99  F   UNL A   1      43.633  25.575  34.900  1.00  0.00    -0.203 F 
ATOM    100  F   UNL A   1      48.400  28.227  34.734  1.00  0.00    -0.200 F 
ATOM    101  C   UNL A   1      47.098  26.423  35.527  1.00  0.00     0.200 A 
ATOM    102  F   UNL A   1      45.759  24.633  36.286  1.00  0.00    -0.200 F 
ATOM    103  F   UNL A   1      48.149  25.942  36.203  1.00  0.00    -0.200 F 
ENDBRANCH  70  93
ENDBRANCH  44  45
ENDBRANCH  36  39
ENDBRANCH  34  35
ENDBRANCH  33  34
ENDBRANCH  32  33
ENDBRANCH   1  32
TORSDOF 15
ENDMDL
MODEL 2
REMARK VINA RESULT:     -13.4      4.337     10.028
REMARK SMILES CC1(C)Oc2ccc(NC(=O)[C@H]3CC=CC[C@@H]3C(=O)NCCCCCCNC(=O)c3ccc(-c4c5nc(c(-c6c(F)c(F)c(F)c(F)c6F)c6ccc([nH]6)c(-c6c(F)c(F)c(F)c(F)c6F)c6nc(c(-c7c(F)c(F)c(F)c(F)c7F)c7ccc4[nH]7)C=C6)C=C5)cc3)cc2NC1=O
REMARK SMILES IDX 23 1 22 2 21 3 20 4 18 5 19 6 17 8 12 9 13 10 14 11 16 12
REMARK SMILES IDX 15 13 10 14 9 15 11 17 8 18 1 19 2 20 3 21 4 22 96 23 5 24
REMARK SMILES IDX 95 25 97 26 6 27 94 28 7 30 93 31 24 32 25 33 26 34 27 35
REMARK SMILES IDX 28 36 29 38 30 39 31 40 92 41 32 42 91 43 33 44 34 45 35 46
REMARK SMILES IDX 85 47 36 48 90 49 84 50 86 51 37 52 89 53 83 54 82 55 38 57
REMARK SMILES IDX 70 58 50 59 69 60 51 61 54 62 68 63 87 64 52 65 53 66 67 68
REMARK SMILES IDX 88 69 55 70 39 71 40 72 48 73 41 74 42 75 46 76 49 77 43 78
REMARK SMILES IDX 44 79 47 80 45 81 71 82 72 83 80 84 73 85 74 86 78 87 81 88
REMARK SMILES IDX 75 89 76 90 79 91 77 92 56 93 57 94 65 95 58 96 59 97 63 98
REMARK SMILES IDX 66 99 60 100 61 101 64 102 62 103
REMARK H PARENT 20 7 9 16 95 29 27 37 86 56 54 67
REMARK Flexibility Score: inf
ROOT
ATOM      1  C   UNL A   1      35.202  23.412  23.521  1.00  0.00     0.002 C 
ENDROOT
BRANCH   1   2
ATOM      2  C   UNL A   1      34.281  23.309  22.302  1.00  0.00     0.021 C 
BRANCH   2   3
ATOM      3  C   UNL A   1      33.066  24.234  22.318  1.00  0.00     0.116 C 
BRANCH   3   4
ATOM      4  N   UNL A   1      33.401  25.641  22.442  1.00  0.00    -0.356 N 
ATOM      5  C   UNL A   1      33.489  26.426  23.563  1.00  0.00     0.224 C 
ATOM      6  O   UNL A   1      33.894  27.579  23.417  1.00  0.00    -0.275 OA
ATOM      7  H   UNL A   1      33.593  26.101  21.593  1.00  0.00     0.163 HD
BRANCH   5   8
ATOM      8  C   UNL A   1      33.106  25.841  24.931  1.00  0.00     0.095 C 
ATOM      9  C   UNL A   1      31.614  25.464  25.001  1.00  0.00     0.095 C 
ATOM     10  C   UNL A   1      30.789  26.794  25.001  1.00  0.00     0.041 C 
ATOM     11  C   UNL A   1      31.322  27.845  25.936  1.00  0.00    -0.030 C 
ATOM     12  C   UNL A   1      33.542  26.738  26.100  1.00  0.00     0.041 C 
ATOM     13  C   UNL A   1      32.557  27.807  26.449  1.00  0.00    -0.030 C 
BRANCH   9  14
ATOM     14  C   UNL A   1      31.043  24.534  26.111  1.00  0.00     0.228 C 
ATOM     15  N   UNL A   1      31.380  23.252  26.424  1.00  0.00    -0.326 N 
ATOM     16  H   UNL A   1      30.932  22.942  27.244  1.00  0.00     0.169 HD
ATOM     17  O   UNL A   1      30.122  24.971  26.826  1.00  0.00    -0.274 OA
BRANCH  15  18
ATOM     18  C   UNL A   1      32.202  22.269  25.870  1.00  0.00     0.043 A 
ATOM     19  C   UNL A   1      34.393  16.718  23.824  1.00  0.00     0.067 C 
ATOM     20  C   UNL A   1      33.355  17.760  24.243  1.00  0.00     0.182 C 
ATOM     21  C   UNL A   1      32.240  17.048  25.037  1.00  0.00     0.067 C 
ATOM     22  O   UNL A   1      34.072  18.680  25.076  1.00  0.00    -0.476 OA
ATOM     23  C   UNL A   1      32.675  18.415  23.018  1.00  0.00     0.268 C 
ATOM     24  C   UNL A   1      33.500  19.913  25.192  1.00  0.00     0.144 A 
ATOM     25  N   UNL A   1      32.038  19.602  23.315  1.00  0.00    -0.319 N 
ATOM     26  O   UNL A   1      32.584  17.899  21.910  1.00  0.00    -0.270 OA
ATOM     27  C   UNL A   1      34.105  20.806  26.058  1.00  0.00     0.051 A 
ATOM     28  C   UNL A   1      32.396  20.332  24.452  1.00  0.00     0.086 A 
ATOM     29  H   UNL A   1      31.328  19.938  22.722  1.00  0.00     0.170 HD
ATOM     30  C   UNL A   1      33.489  22.029  26.311  1.00  0.00     0.030 A 
ATOM     31  C   UNL A   1      31.716  21.498  24.809  1.00  0.00     0.056 A 
ENDBRANCH  15  18
ENDBRANCH   9  14
ENDBRANCH   5   8
ENDBRANCH   3   4
ENDBRANCH   2   3
ENDBRANCH   1   2
BRANCH   1  32
ATOM     32  C   UNL A   1      36.652  22.970  23.303  1.00  0.00     0.002 C 
BRANCH  32  33
ATOM     33  C   UNL A   1      37.062  21.654  23.966  1.00  0.00     0.021 C 
BRANCH  33  34
ATOM     34  C   UNL A   1      37.586  21.760  25.395  1.00  0.00     0.116 C 
BRANCH  34  35
ATOM     35  N   UNL A   1      38.604  20.773  25.722  1.00  0.00    -0.352 N 
ATOM     36  C   UNL A   1      39.798  20.940  26.386  1.00  0.00     0.251 C 
ATOM     37  H   UNL A   1      38.410  19.854  25.427  1.00  0.00     0.163 HD
ATOM     38  O   UNL A   1      40.583  20.002  26.502  1.00  0.00    -0.269 OA
BRANCH  36  39
ATOM     39  C   UNL A   1      40.161  22.272  26.918  1.00  0.00     0.039 A 
ATOM     40  C   UNL A   1      39.565  23.427  26.413  1.00  0.00     0.014 A 
ATOM     41  C   UNL A   1      41.149  22.365  27.903  1.00  0.00     0.014 A 
ATOM     42  C   UNL A   1      40.088  24.673  26.748  1.00  0.00     0.010 A 
ATOM     43  C   UNL A   1      41.611  23.621  28.306  1.00  0.00     0.010 A 
ATOM     44  C   UNL A   1      41.127  24.783  27.687  1.00  0.00    -0.014 A 
BRANCH  44  45
ATOM     45  C   UNL A   1      41.707  26.121  27.982  1.00  0.00     0.031 A 
ATOM     46  C   UNL A   1      43.081  26.490  27.488  1.00  0.00     0.074 A 
ATOM     47  C   UNL A   1      40.965  27.032  28.642  1.00  0.00     0.049 A 
ATOM     48  N   UNL A   1      43.735  27.617  27.630  1.00  0.00    -0.248 NA
ATOM     49  C   UNL A   1      43.820  25.463  26.738  1.00  0.00     0.031 C 
ATOM     50  C   UNL A   1      39.615  26.800  29.156  1.00  0.00     0.029 A 
ATOM     51  N   UNL A   1      41.228  28.338  28.971  1.00  0.00    -0.354 N 
ATOM     52  C   UNL A   1      44.961  27.428  27.005  1.00  0.00     0.074 A 
ATOM     53  C   UNL A   1      44.978  26.069  26.511  1.00  0.00     0.031 C 
ATOM     54  C   UNL A   1      39.146  27.939  29.684  1.00  0.00     0.029 A 
ATOM     55  C   UNL A   1      40.183  28.963  29.606  1.00  0.00     0.049 A 
ATOM     56  H   UNL A   1      42.082  28.784  28.769  1.00  0.00     0.167 HD
ATOM     57  C   UNL A   1      45.974  28.313  26.845  1.00  0.00     0.037 A 
ATOM     58  C   UNL A   1      40.076  30.216  30.088  1.00  0.00     0.037 A 
ATOM     59  C   UNL A   1      45.948  29.674  27.318  1.00  0.00     0.049 A 
ATOM     60  C   UNL A   1      41.235  31.160  29.944  1.00  0.00     0.074 A 
ATOM     61  C   UNL A   1      46.917  30.652  27.182  1.00  0.00     0.029 A 
ATOM     62  N   UNL A   1      44.896  30.248  28.018  1.00  0.00    -0.354 N 
ATOM     63  N   UNL A   1      42.385  30.971  29.344  1.00  0.00    -0.248 NA
ATOM     64  C   UNL A   1      41.085  32.489  30.551  1.00  0.00     0.031 C 
ATOM     65  C   UNL A   1      46.474  31.803  27.839  1.00  0.00     0.029 A 
ATOM     66  C   UNL A   1      45.205  31.559  28.341  1.00  0.00     0.049 A 
ATOM     67  H   UNL A   1      44.056  29.791  28.250  1.00  0.00     0.167 HD
ATOM     68  C   UNL A   1      43.091  32.155  29.492  1.00  0.00     0.074 A 
ATOM     69  C   UNL A   1      42.232  33.067  30.220  1.00  0.00     0.031 C 
ATOM     70  C   UNL A   1      44.343  32.456  29.068  1.00  0.00     0.037 A 
BRANCH  57  71
ATOM     71  C   UNL A   1      47.210  27.845  26.130  1.00  0.00     0.064 A 
ATOM     72  C   UNL A   1      48.341  27.399  26.830  1.00  0.00     0.173 A 
ATOM     73  C   UNL A   1      47.239  27.777  24.728  1.00  0.00     0.173 A 
ATOM     74  F   UNL A   1      48.370  27.453  28.170  1.00  0.00    -0.203 F 
ATOM     75  C   UNL A   1      49.459  26.918  26.154  1.00  0.00     0.198 A 
ATOM     76  C   UNL A   1      48.349  27.270  24.056  1.00  0.00     0.198 A 
ATOM     77  F   UNL A   1      46.182  28.183  24.010  1.00  0.00    -0.203 F 
ATOM     78  F   UNL A   1      50.542  26.531  26.843  1.00  0.00    -0.200 F 
ATOM     79  C   UNL A   1      49.460  26.845  24.769  1.00  0.00     0.200 A 
ATOM     80  F   UNL A   1      48.339  27.187  22.719  1.00  0.00    -0.200 F 
ATOM     81  F   UNL A   1      50.531  26.368  24.122  1.00  0.00    -0.200 F 
ENDBRANCH  57  71
BRANCH  58  82
ATOM     82  C   UNL A   1      38.812  30.639  30.743  1.00  0.00     0.064 A 
ATOM     83  C   UNL A   1      38.666  30.569  32.135  1.00  0.00     0.173 A 
ATOM     84  C   UNL A   1      37.743  31.159  29.999  1.00  0.00     0.173 A 
ATOM     85  F   UNL A   1      39.653  30.061  32.887  1.00  0.00    -0.203 F 
ATOM     86  C   UNL A   1      37.499  31.005  32.757  1.00  0.00     0.198 A 
ATOM     87  C   UNL A   1      36.588  31.621  30.625  1.00  0.00     0.198 A 
ATOM     88  F   UNL A   1      37.835  31.248  28.664  1.00  0.00    -0.203 F 
ATOM     89  F   UNL A   1      37.374  30.905  34.088  1.00  0.00    -0.200 F 
ATOM     90  C   UNL A   1      36.466  31.541  32.003  1.00  0.00     0.200 A 
ATOM     91  F   UNL A   1      35.601  32.155  29.893  1.00  0.00    -0.200 F 
ATOM     92  F   UNL A   1      35.352  31.978  32.605  1.00  0.00    -0.200 F 
ENDBRANCH  58  82
BRANCH  70  93
ATOM     93  C   UNL A   1      44.865  33.831  29.370  1.00  0.00     0.064 A 
ATOM     94  C   UNL A   1      45.608  34.092  30.530  1.00  0.00     0.173 A 
ATOM     95  C   UNL A   1      44.681  34.878  28.455  1.00  0.00     0.173 A 
ATOM     96  F   UNL A   1      45.798  33.127  31.441  1.00  0.00    -0.203 F 
ATOM     97  C   UNL A   1      46.135  35.358  30.770  1.00  0.00     0.198 A 
ATOM     98  C   UNL A   1      45.234  36.135  28.685  1.00  0.00     0.198 A 
ATOM     99  F   UNL A   1      43.984  34.677  27.326  1.00  0.00    -0.203 F 
ATOM    100  F   UNL A   1      46.812  35.595  31.902  1.00  0.00    -0.200 F 
ATOM    101  C   UNL A   1      45.956  36.375  29.844  1.00  0.00     0.200 A 
ATOM    102  F   UNL A   1      45.074  37.112  27.782  1.00  0.00    -0.200 F 
ATOM    103  F   UNL A   1      46.480  37.588  30.069  1.00  0.00    -0.200 F 
ENDBRANCH  70  93
ENDBRANCH  44  45
ENDBRANCH  36  39
ENDBRANCH  34  35
ENDBRANCH  33  34
ENDBRANCH  32  33
ENDBRANCH   1  32
TORSDOF 15
ENDMDL
MODEL 3
REMARK VINA RESULT:     -13.3      2.291      3.249
REMARK SMILES CC1(C)Oc2ccc(NC(=O)[C@H]3CC=CC[C@@H]3C(=O)NCCCCCCNC(=O)c3ccc(-c4c5nc(c(-c6c(F)c(F)c(F)c(F)c6F)c6ccc([nH]6)c(-c6c(F)c(F)c(F)c(F)c6F)c6nc(c(-c7c(F)c(F)c(F)c(F)c7F)c7ccc4[nH]7)C=C6)C=C5)cc3)cc2NC1=O
REMARK SMILES IDX 23 1 22 2 21 3 20 4 18 5 19 6 17 8 12 9 13 10 14 11 16 12
REMARK SMILES IDX 15 13 10 14 9 15 11 17 8 18 1 19 2 20 3 21 4 22 96 23 5 24
REMARK SMILES IDX 95 25 97 26 6 27 94 28 7 30 93 31 24 32 25 33 26 34 27 35
REMARK SMILES IDX 28 36 29 38 30 39 31 40 92 41 32 42 91 43 33 44 34 45 35 46
REMARK SMILES IDX 85 47 36 48 90 49 84 50 86 51 37 52 89 53 83 54 82 55 38 57
REMARK SMILES IDX 70 58 50 59 69 60 51 61 54 62 68 63 87 64 52 65 53 66 67 68
REMARK SMILES IDX 88 69 55 70 39 71 40 72 48 73 41 74 42 75 46 76 49 77 43 78
REMARK SMILES IDX 44 79 47 80 45 81 71 82 72 83 80 84 73 85 74 86 78 87 81 88
REMARK SMILES IDX 75 89 76 90 79 91 77 92 56 93 57 94 65 95 58 96 59 97 63 98
REMARK SMILES IDX 66 99 60 100 61 101 64 102 62 103
REMARK H PARENT 20 7 9 16 95 29 27 37 86 56 54 67
REMARK Flexibility Score: inf
ROOT
ATOM      1  C   UNL A   1      31.029  27.274  27.371  1.00  0.00     0.002 C 
ENDROOT
BRANCH   1   2
ATOM      2  C   UNL A   1      31.042  26.532  26.031  1.00  0.00     0.021 C 
BRANCH   2   3
ATOM      3  C   UNL A   1      30.594  25.073  26.084  1.00  0.00     0.116 C 
BRANCH   3   4
ATOM      4  N   UNL A   1      31.586  24.174  26.644  1.00  0.00    -0.356 N 
ATOM      5  C   UNL A   1      32.885  23.954  26.263  1.00  0.00     0.224 C 
ATOM      6  O   UNL A   1      33.564  23.208  26.967  1.00  0.00    -0.275 OA
ATOM      7  H   UNL A   1      31.280  23.641  27.413  1.00  0.00     0.163 HD
BRANCH   5   8
ATOM      8  C   UNL A   1      33.437  24.652  25.009  1.00  0.00     0.095 C 
ATOM      9  C   UNL A   1      32.980  23.956  23.713  1.00  0.00     0.095 C 
ATOM     10  C   UNL A   1      33.710  22.574  23.634  1.00  0.00     0.041 C 
ATOM     11  C   UNL A   1      35.179  22.640  23.950  1.00  0.00    -0.030 C 
ATOM     12  C   UNL A   1      34.960  24.851  25.065  1.00  0.00     0.041 C 
ATOM     13  C   UNL A   1      35.746  23.678  24.575  1.00  0.00    -0.030 C 
BRANCH   9  14
ATOM     14  C   UNL A   1      33.081  24.644  22.320  1.00  0.00     0.228 C 
ATOM     15  N   UNL A   1      32.656  25.878  21.931  1.00  0.00    -0.326 N 
ATOM     16  H   UNL A   1      32.948  26.098  21.017  1.00  0.00     0.169 HD
ATOM     17  O   UNL A   1      33.595  24.002  21.385  1.00  0.00    -0.274 OA
BRANCH  15  18
ATOM     18  C   UNL A   1      31.908  26.907  22.506  1.00  0.00     0.043 A 
ATOM     19  C   UNL A   1      27.736  31.566  23.337  1.00  0.00     0.067 C 
ATOM     20  C   UNL A   1      28.353  30.318  22.705  1.00  0.00     0.182 C 
ATOM     21  C   UNL A   1      28.171  30.402  21.175  1.00  0.00     0.067 C 
ATOM     22  O   UNL A   1      29.741  30.371  23.061  1.00  0.00    -0.476 OA
ATOM     23  C   UNL A   1      27.633  29.028  23.164  1.00  0.00     0.268 C 
ATOM     24  C   UNL A   1      30.391  29.173  23.015  1.00  0.00     0.144 A 
ATOM     25  N   UNL A   1      28.369  27.882  22.947  1.00  0.00    -0.319 N 
ATOM     26  O   UNL A   1      26.476  28.979  23.568  1.00  0.00    -0.270 OA
ATOM     27  C   UNL A   1      31.752  29.188  23.261  1.00  0.00     0.051 A 
ATOM     28  C   UNL A   1      29.757  27.951  22.796  1.00  0.00     0.086 A 
ATOM     29  H   UNL A   1      27.915  27.010  22.899  1.00  0.00     0.170 HD
ATOM     30  C   UNL A   1      32.484  28.015  23.097  1.00  0.00     0.030 A 
ATOM     31  C   UNL A   1      30.513  26.814  22.505  1.00  0.00     0.056 A 
ENDBRANCH  15  18
ENDBRANCH   9  14
ENDBRANCH   5   8
ENDBRANCH   3   4
ENDBRANCH   2   3
ENDBRANCH   1   2
BRANCH   1  32
ATOM     32  C   UNL A   1      32.218  28.203  27.632  1.00  0.00     0.002 C 
BRANCH  32  33
ATOM     33  C   UNL A   1      33.431  28.019  26.719  1.00  0.00     0.021 C 
BRANCH  33  34
ATOM     34  C   UNL A   1      34.052  29.298  26.167  1.00  0.00     0.116 C 
BRANCH  34  35
ATOM     35  N   UNL A   1      33.885  30.454  27.035  1.00  0.00    -0.352 N 
ATOM     36  C   UNL A   1      34.718  30.932  28.021  1.00  0.00     0.251 C 
ATOM     37  H   UNL A   1      33.057  30.969  26.897  1.00  0.00     0.163 HD
ATOM     38  O   UNL A   1      34.376  31.882  28.720  1.00  0.00    -0.269 OA
BRANCH  36  39
ATOM     39  C   UNL A   1      36.013  30.262  28.274  1.00  0.00     0.039 A 
ATOM     40  C   UNL A   1      36.241  29.580  29.470  1.00  0.00     0.014 A 
ATOM     41  C   UNL A   1      37.028  30.361  27.318  1.00  0.00     0.014 A 
ATOM     42  C   UNL A   1      37.531  29.168  29.791  1.00  0.00     0.010 A 
ATOM     43  C   UNL A   1      38.303  29.866  27.606  1.00  0.00     0.010 A 
ATOM     44  C   UNL A   1      38.581  29.320  28.869  1.00  0.00    -0.014 A 
BRANCH  44  45
ATOM     45  C   UNL A   1      39.961  28.927  29.260  1.00  0.00     0.031 A 
ATOM     46  C   UNL A   1      40.742  29.746  30.253  1.00  0.00     0.074 A 
ATOM     47  C   UNL A   1      40.488  27.789  28.769  1.00  0.00     0.049 A 
ATOM     48  N   UNL A   1      41.946  29.541  30.728  1.00  0.00    -0.248 NA
ATOM     49  C   UNL A   1      40.091  30.955  30.782  1.00  0.00     0.031 C 
ATOM     50  C   UNL A   1      39.823  26.901  27.814  1.00  0.00     0.029 A 
ATOM     51  N   UNL A   1      41.686  27.171  29.021  1.00  0.00    -0.354 N 
ATOM     52  C   UNL A   1      42.200  30.598  31.594  1.00  0.00     0.074 A 
ATOM     53  C   UNL A   1      41.041  31.463  31.556  1.00  0.00     0.031 C 
ATOM     54  C   UNL A   1      40.596  25.826  27.604  1.00  0.00     0.029 A 
ATOM     55  C   UNL A   1      41.838  25.978  28.356  1.00  0.00     0.049 A 
ATOM     56  H   UNL A   1      42.371  27.544  29.622  1.00  0.00     0.167 HD
ATOM     57  C   UNL A   1      43.294  30.817  32.362  1.00  0.00     0.037 A 
ATOM     58  C   UNL A   1      42.867  25.110  28.340  1.00  0.00     0.037 A 
ATOM     59  C   UNL A   1      44.438  29.944  32.416  1.00  0.00     0.049 A 
ATOM     60  C   UNL A   1      44.090  25.405  29.161  1.00  0.00     0.074 A 
ATOM     61  C   UNL A   1      45.584  30.071  33.183  1.00  0.00     0.029 A 
ATOM     62  N   UNL A   1      44.581  28.780  31.675  1.00  0.00    -0.354 N 
ATOM     63  N   UNL A   1      44.314  26.404  29.980  1.00  0.00    -0.248 NA
ATOM     64  C   UNL A   1      45.208  24.459  29.047  1.00  0.00     0.031 C 
ATOM     65  C   UNL A   1      46.440  29.011  32.871  1.00  0.00     0.029 A 
ATOM     66  C   UNL A   1      45.807  28.194  31.948  1.00  0.00     0.049 A 
ATOM     67  H   UNL A   1      43.911  28.423  31.048  1.00  0.00     0.167 HD
ATOM     68  C   UNL A   1      45.589  26.203  30.486  1.00  0.00     0.074 A 
ATOM     69  C   UNL A   1      46.083  24.974  29.899  1.00  0.00     0.031 C 
ATOM     70  C   UNL A   1      46.289  26.973  31.356  1.00  0.00     0.037 A 
BRANCH  57  71
ATOM     71  C   UNL A   1      43.319  32.056  33.212  1.00  0.00     0.064 A 
ATOM     72  C   UNL A   1      43.833  33.270  32.729  1.00  0.00     0.173 A 
ATOM     73  C   UNL A   1      42.760  32.048  34.499  1.00  0.00     0.173 A 
ATOM     74  F   UNL A   1      44.389  33.329  31.509  1.00  0.00    -0.203 F 
ATOM     75  C   UNL A   1      43.801  34.422  33.509  1.00  0.00     0.198 A 
ATOM     76  C   UNL A   1      42.704  33.210  35.266  1.00  0.00     0.198 A 
ATOM     77  F   UNL A   1      42.247  30.917  35.006  1.00  0.00    -0.203 F 
ATOM     78  F   UNL A   1      44.331  35.561  33.041  1.00  0.00    -0.200 F 
ATOM     79  C   UNL A   1      43.229  34.395  34.772  1.00  0.00     0.200 A 
ATOM     80  F   UNL A   1      42.138  33.183  36.480  1.00  0.00    -0.200 F 
ATOM     81  F   UNL A   1      43.186  35.509  35.515  1.00  0.00    -0.200 F 
ENDBRANCH  57  71
BRANCH  58  82
ATOM     82  C   UNL A   1      42.768  23.877  27.518  1.00  0.00     0.064 A 
ATOM     83  C   UNL A   1      43.149  23.879  26.170  1.00  0.00     0.173 A 
ATOM     84  C   UNL A   1      42.332  22.665  28.073  1.00  0.00     0.173 A 
ATOM     85  F   UNL A   1      43.553  25.019  25.590  1.00  0.00    -0.203 F 
ATOM     86  C   UNL A   1      43.097  22.715  25.408  1.00  0.00     0.198 A 
ATOM     87  C   UNL A   1      42.309  21.495  27.317  1.00  0.00     0.198 A 
ATOM     88  F   UNL A   1      41.959  22.610  29.360  1.00  0.00    -0.203 F 
ATOM     89  F   UNL A   1      43.443  22.749  24.113  1.00  0.00    -0.200 F 
ATOM     90  C   UNL A   1      42.689  21.522  25.985  1.00  0.00     0.200 A 
ATOM     91  F   UNL A   1      41.932  20.341  27.885  1.00  0.00    -0.200 F 
ATOM     92  F   UNL A   1      42.660  20.398  25.255  1.00  0.00    -0.200 F 
ENDBRANCH  58  82
BRANCH  70  93
ATOM     93  C   UNL A   1      47.665  26.510  31.736  1.00  0.00     0.064 A 
ATOM     94  C   UNL A   1      47.873  25.652  32.826  1.00  0.00     0.173 A 
ATOM     95  C   UNL A   1      48.777  26.871  30.961  1.00  0.00     0.173 A 
ATOM     96  F   UNL A   1      46.843  25.291  33.606  1.00  0.00    -0.203 F 
ATOM     97  C   UNL A   1      49.147  25.185  33.135  1.00  0.00     0.198 A 
ATOM     98  C   UNL A   1      50.046  26.378  31.256  1.00  0.00     0.198 A 
ATOM     99  F   UNL A   1      48.630  27.684  29.904  1.00  0.00    -0.203 F 
ATOM    100  F   UNL A   1      49.328  24.394  34.201  1.00  0.00    -0.200 F 
ATOM    101  C   UNL A   1      50.230  25.539  32.344  1.00  0.00     0.200 A 
ATOM    102  F   UNL A   1      51.088  26.709  30.482  1.00  0.00    -0.200 F 
ATOM    103  F   UNL A   1      51.453  25.074  32.632  1.00  0.00    -0.200 F 
ENDBRANCH  70  93
ENDBRANCH  44  45
ENDBRANCH  36  39
ENDBRANCH  34  35
ENDBRANCH  33  34
ENDBRANCH  32  33
ENDBRANCH   1  32
TORSDOF 15
ENDMDL
