MODEL 1
REMARK VINA RESULT:     -10.8      0.000      0.000
REMARK SMILES CN(CCOCC1CC1)C(=O)N1[C@@H]2CC[C@H]1[C@H](C(=O)NCCCCCCNC(=O)c1ccc(-c3c4nc(c(-c5c(F)c(F)c(F)c(F)c5F)c5ccc([nH]5)c(-c5c(F)c(F)c(F)c(F)c5F)c5nc(c(-c6c(F)c(F)c(F)c(F)c6F)c6ccc3[nH]6)C=C5)C=C4)cc1)C2
REMARK SMILES IDX 21 1 20 2 18 3 19 4 17 6 12 7 13 8 16 9 14 10 93 11 15 12
REMARK SMILES IDX 10 13 11 14 2 15 1 16 3 17 4 18 5 19 6 20 7 21 8 22 9 23
REMARK SMILES IDX 22 24 23 25 24 26 25 27 26 28 27 29 28 30 29 32 30 33 31 34
REMARK SMILES IDX 92 35 32 36 91 37 33 38 34 39 35 40 85 41 36 42 90 43 84 44
REMARK SMILES IDX 86 45 37 46 89 47 83 48 82 49 38 51 70 52 50 53 69 54 51 55
REMARK SMILES IDX 54 56 68 57 87 58 52 59 53 60 67 62 88 63 55 64 39 65 40 66
REMARK SMILES IDX 48 67 41 68 42 69 46 70 49 71 43 72 44 73 47 74 45 75 71 76
REMARK SMILES IDX 72 77 80 78 73 79 74 80 78 81 81 82 75 83 76 84 79 85 77 86
REMARK SMILES IDX 56 87 57 88 65 89 58 90 59 91 63 92 66 93 60 94 61 95 64 96
REMARK SMILES IDX 62 97
REMARK H PARENT 20 5 27 31 86 50 54 61
REMARK Flexibility Score: inf
ROOT
ATOM      1  C   UNL A   1      33.688  28.242  26.740  1.00  0.00     0.116 C 
ENDROOT
BRANCH   1   2
ATOM      2  N   UNL A   1      32.481  27.436  26.893  1.00  0.00    -0.356 N 
ATOM      3  C   UNL A   1      31.665  26.764  26.042  1.00  0.00     0.225 C 
ATOM      4  O   UNL A   1      30.649  26.277  26.559  1.00  0.00    -0.275 OA
ATOM      5  H   UNL A   1      32.190  27.364  27.830  1.00  0.00     0.163 HD
BRANCH   3   6
ATOM      6  C   UNL A   1      31.837  26.616  24.529  1.00  0.00     0.103 C 
ATOM      7  N   UNL A   1      31.897  24.374  24.045  1.00  0.00    -0.318 N 
ATOM      8  C   UNL A   1      31.008  24.929  23.035  1.00  0.00     0.088 C 
ATOM      9  C   UNL A   1      32.819  25.485  24.173  1.00  0.00     0.099 C 
ATOM     10  C   UNL A   1      32.012  25.212  21.908  1.00  0.00     0.027 C 
ATOM     11  C   UNL A   1      30.608  26.286  23.664  1.00  0.00     0.040 C 
ATOM     12  C   UNL A   1      33.266  25.644  22.699  1.00  0.00     0.028 C 
BRANCH   7  13
ATOM     13  C   UNL A   1      31.856  23.077  24.448  1.00  0.00     0.320 C 
ATOM     14  O   UNL A   1      31.042  22.747  25.318  1.00  0.00    -0.248 OA
BRANCH  13  15
ATOM     15  N   UNL A   1      32.731  22.140  23.930  1.00  0.00    -0.325 N 
ATOM     16  C   UNL A   1      32.257  21.405  22.764  1.00  0.00     0.148 C 
BRANCH  15  17
ATOM     17  C   UNL A   1      34.005  21.697  24.498  1.00  0.00     0.149 C 
BRANCH  17  18
ATOM     18  C   UNL A   1      34.058  20.429  25.367  1.00  0.00     0.181 C 
BRANCH  18  19
ATOM     19  O   UNL A   1      32.887  19.695  25.674  1.00  0.00    -0.379 OA
BRANCH  19  20
ATOM     20  C   UNL A   1      32.751  18.355  25.220  1.00  0.00     0.163 C 
BRANCH  20  21
ATOM     21  C   UNL A   1      33.766  17.823  24.254  1.00  0.00     0.015 C 
ATOM     22  C   UNL A   1      33.850  16.355  23.929  1.00  0.00     0.006 C 
ATOM     23  C   UNL A   1      33.571  17.344  22.831  1.00  0.00     0.006 C 
ENDBRANCH  20  21
ENDBRANCH  19  20
ENDBRANCH  18  19
ENDBRANCH  17  18
ENDBRANCH  15  17
ENDBRANCH  13  15
ENDBRANCH   7  13
ENDBRANCH   3   6
ENDBRANCH   1   2
BRANCH   1  24
ATOM     24  C   UNL A   1      33.404  29.727  26.967  1.00  0.00     0.021 C 
BRANCH  24  25
ATOM     25  C   UNL A   1      31.941  30.124  27.149  1.00  0.00     0.002 C 
BRANCH  25  26
ATOM     26  C   UNL A   1      31.398  31.144  26.144  1.00  0.00     0.002 C 
BRANCH  26  27
ATOM     27  C   UNL A   1      31.384  32.611  26.595  1.00  0.00     0.021 C 
BRANCH  27  28
ATOM     28  C   UNL A   1      32.703  33.162  27.137  1.00  0.00     0.116 C 
BRANCH  28  29
ATOM     29  N   UNL A   1      32.542  34.437  27.814  1.00  0.00    -0.352 N 
ATOM     30  C   UNL A   1      33.150  34.928  28.939  1.00  0.00     0.251 C 
ATOM     31  H   UNL A   1      31.892  35.046  27.397  1.00  0.00     0.163 HD
ATOM     32  O   UNL A   1      32.727  35.969  29.450  1.00  0.00    -0.269 OA
BRANCH  30  33
ATOM     33  C   UNL A   1      34.296  34.234  29.568  1.00  0.00     0.039 A 
ATOM     34  C   UNL A   1      35.581  34.494  29.082  1.00  0.00     0.014 A 
ATOM     35  C   UNL A   1      34.115  33.274  30.567  1.00  0.00     0.014 A 
ATOM     36  C   UNL A   1      36.683  33.824  29.618  1.00  0.00     0.010 A 
ATOM     37  C   UNL A   1      35.222  32.650  31.147  1.00  0.00     0.010 A 
ATOM     38  C   UNL A   1      36.515  32.906  30.666  1.00  0.00    -0.014 A 
BRANCH  38  39
ATOM     39  C   UNL A   1      37.684  32.184  31.236  1.00  0.00     0.031 A 
ATOM     40  C   UNL A   1      38.173  32.503  32.623  1.00  0.00     0.074 A 
ATOM     41  C   UNL A   1      38.328  31.260  30.497  1.00  0.00     0.049 A 
ATOM     42  N   UNL A   1      39.176  31.985  33.290  1.00  0.00    -0.248 NA
ATOM     43  C   UNL A   1      37.454  33.561  33.349  1.00  0.00     0.031 C 
ATOM     44  C   UNL A   1      37.988  30.894  29.123  1.00  0.00     0.029 A 
ATOM     45  N   UNL A   1      39.407  30.466  30.798  1.00  0.00    -0.354 N 
ATOM     46  C   UNL A   1      39.215  32.663  34.501  1.00  0.00     0.074 A 
ATOM     47  C   UNL A   1      38.169  33.661  34.460  1.00  0.00     0.031 C 
ATOM     48  C   UNL A   1      38.827  29.931  28.706  1.00  0.00     0.029 A 
ATOM     49  C   UNL A   1      39.777  29.629  29.774  1.00  0.00     0.049 A 
ATOM     50  H   UNL A   1      39.870  30.493  31.666  1.00  0.00     0.167 HD
ATOM     51  C   UNL A   1      40.034  32.457  35.562  1.00  0.00     0.037 A 
ATOM     52  C   UNL A   1      40.767  28.719  29.706  1.00  0.00     0.037 A 
ATOM     53  C   UNL A   1      41.057  31.445  35.616  1.00  0.00     0.049 A 
ATOM     54  C   UNL A   1      41.644  28.489  30.906  1.00  0.00     0.074 A 
ATOM     55  C   UNL A   1      41.896  31.120  36.667  1.00  0.00     0.029 A 
ATOM     56  N   UNL A   1      41.379  30.594  34.569  1.00  0.00    -0.354 N 
ATOM     57  N   UNL A   1      41.623  29.083  32.074  1.00  0.00    -0.248 NA
ATOM     58  C   UNL A   1      42.675  27.447  30.783  1.00  0.00     0.031 C 
ATOM     59  C   UNL A   1      42.751  30.096  36.244  1.00  0.00     0.029 A 
ATOM     60  C   UNL A   1      42.415  29.753  34.945  1.00  0.00     0.049 A 
ATOM     61  H   UNL A   1      40.938  30.588  33.690  1.00  0.00     0.167 HD
ATOM     62  C   UNL A   1      42.612  28.471  32.832  1.00  0.00     0.074 A 
ATOM     63  C   UNL A   1      43.207  27.450  31.996  1.00  0.00     0.031 C 
ATOM     64  C   UNL A   1      42.991  28.733  34.108  1.00  0.00     0.037 A 
BRANCH  51  65
ATOM     65  C   UNL A   1      39.853  33.349  36.756  1.00  0.00     0.064 A 
ATOM     66  C   UNL A   1      38.934  33.041  37.772  1.00  0.00     0.173 A 
ATOM     67  C   UNL A   1      40.624  34.512  36.901  1.00  0.00     0.173 A 
ATOM     68  F   UNL A   1      38.165  31.945  37.677  1.00  0.00    -0.203 F 
ATOM     69  C   UNL A   1      38.770  33.881  38.870  1.00  0.00     0.198 A 
ATOM     70  C   UNL A   1      40.477  35.335  38.015  1.00  0.00     0.198 A 
ATOM     71  F   UNL A   1      41.522  34.850  35.964  1.00  0.00    -0.203 F 
ATOM     72  F   UNL A   1      37.849  33.593  39.800  1.00  0.00    -0.200 F 
ATOM     73  C   UNL A   1      39.545  35.024  38.993  1.00  0.00     0.200 A 
ATOM     74  F   UNL A   1      41.237  36.433  38.140  1.00  0.00    -0.200 F 
ATOM     75  F   UNL A   1      39.388  35.830  40.052  1.00  0.00    -0.200 F 
ENDBRANCH  51  65
BRANCH  52  76
ATOM     76  C   UNL A   1      40.949  27.921  28.466  1.00  0.00     0.064 A 
ATOM     77  C   UNL A   1      40.271  26.707  28.287  1.00  0.00     0.173 A 
ATOM     78  C   UNL A   1      41.797  28.355  27.438  1.00  0.00     0.173 A 
ATOM     79  F   UNL A   1      39.466  26.242  29.252  1.00  0.00    -0.203 F 
ATOM     80  C   UNL A   1      40.448  25.949  27.132  1.00  0.00     0.198 A 
ATOM     81  C   UNL A   1      41.954  27.608  26.273  1.00  0.00     0.198 A 
ATOM     82  F   UNL A   1      42.466  29.512  27.562  1.00  0.00    -0.203 F 
ATOM     83  F   UNL A   1      39.820  24.773  27.003  1.00  0.00    -0.200 F 
ATOM     84  C   UNL A   1      41.285  26.403  26.124  1.00  0.00     0.200 A 
ATOM     85  F   UNL A   1      42.755  28.055  25.296  1.00  0.00    -0.200 F 
ATOM     86  F   UNL A   1      41.451  25.675  25.011  1.00  0.00    -0.200 F 
ENDBRANCH  52  76
BRANCH  64  87
ATOM     87  C   UNL A   1      44.075  27.875  34.692  1.00  0.00     0.064 A 
ATOM     88  C   UNL A   1      45.429  28.230  34.596  1.00  0.00     0.173 A 
ATOM     89  C   UNL A   1      43.752  26.698  35.384  1.00  0.00     0.173 A 
ATOM     90  F   UNL A   1      45.790  29.338  33.931  1.00  0.00    -0.203 F 
ATOM     91  C   UNL A   1      46.420  27.424  35.147  1.00  0.00     0.198 A 
ATOM     92  C   UNL A   1      44.744  25.909  35.958  1.00  0.00     0.198 A 
ATOM     93  F   UNL A   1      42.471  26.317  35.510  1.00  0.00    -0.203 F 
ATOM     94  F   UNL A   1      47.710  27.757  35.002  1.00  0.00    -0.200 F 
ATOM     95  C   UNL A   1      46.077  26.268  35.833  1.00  0.00     0.200 A 
ATOM     96  F   UNL A   1      44.410  24.798  36.630  1.00  0.00    -0.200 F 
ATOM     97  F   UNL A   1      47.034  25.494  36.365  1.00  0.00    -0.200 F 
ENDBRANCH  64  87
ENDBRANCH  38  39
ENDBRANCH  30  33
ENDBRANCH  28  29
ENDBRANCH  27  28
ENDBRANCH  26  27
ENDBRANCH  25  26
ENDBRANCH  24  25
ENDBRANCH   1  24
TORSDOF 20
ENDMDL
MODEL 2
REMARK VINA RESULT:     -10.8      5.102     11.103
REMARK SMILES CN(CCOCC1CC1)C(=O)N1[C@@H]2CC[C@H]1[C@H](C(=O)NCCCCCCNC(=O)c1ccc(-c3c4nc(c(-c5c(F)c(F)c(F)c(F)c5F)c5ccc([nH]5)c(-c5c(F)c(F)c(F)c(F)c5F)c5nc(c(-c6c(F)c(F)c(F)c(F)c6F)c6ccc3[nH]6)C=C5)C=C4)cc1)C2
REMARK SMILES IDX 21 1 20 2 18 3 19 4 17 6 12 7 13 8 16 9 14 10 93 11 15 12
REMARK SMILES IDX 10 13 11 14 2 15 1 16 3 17 4 18 5 19 6 20 7 21 8 22 9 23
REMARK SMILES IDX 22 24 23 25 24 26 25 27 26 28 27 29 28 30 29 32 30 33 31 34
REMARK SMILES IDX 92 35 32 36 91 37 33 38 34 39 35 40 85 41 36 42 90 43 84 44
REMARK SMILES IDX 86 45 37 46 89 47 83 48 82 49 38 51 70 52 50 53 69 54 51 55
REMARK SMILES IDX 54 56 68 57 87 58 52 59 53 60 67 62 88 63 55 64 39 65 40 66
REMARK SMILES IDX 48 67 41 68 42 69 46 70 49 71 43 72 44 73 47 74 45 75 71 76
REMARK SMILES IDX 72 77 80 78 73 79 74 80 78 81 81 82 75 83 76 84 79 85 77 86
REMARK SMILES IDX 56 87 57 88 65 89 58 90 59 91 63 92 66 93 60 94 61 95 64 96
REMARK SMILES IDX 62 97
REMARK H PARENT 20 5 27 31 86 50 54 61
REMARK Flexibility Score: inf
ROOT
ATOM      1  C   UNL A   1      34.855  22.367  24.037  1.00  0.00     0.116 C 
ENDROOT
BRANCH   1   2
ATOM      2  N   UNL A   1      34.101  23.190  23.097  1.00  0.00    -0.356 N 
ATOM      3  C   UNL A   1      33.778  24.506  23.023  1.00  0.00     0.225 C 
ATOM      4  O   UNL A   1      33.007  24.808  22.099  1.00  0.00    -0.275 OA
ATOM      5  H   UNL A   1      33.743  22.670  22.342  1.00  0.00     0.163 HD
BRANCH   3   6
ATOM      6  C   UNL A   1      34.202  25.612  23.990  1.00  0.00     0.103 C 
ATOM      7  N   UNL A   1      32.313  26.403  25.026  1.00  0.00    -0.318 N 
ATOM      8  C   UNL A   1      33.274  26.255  26.109  1.00  0.00     0.088 C 
ATOM      9  C   UNL A   1      33.221  26.798  23.967  1.00  0.00     0.099 C 
ATOM     10  C   UNL A   1      33.888  27.663  26.126  1.00  0.00     0.027 C 
ATOM     11  C   UNL A   1      34.317  25.293  25.491  1.00  0.00     0.040 C 
ATOM     12  C   UNL A   1      33.893  28.028  24.626  1.00  0.00     0.028 C 
BRANCH   7  13
ATOM     13  C   UNL A   1      30.967  26.373  25.209  1.00  0.00     0.320 C 
ATOM     14  O   UNL A   1      30.520  26.398  26.361  1.00  0.00    -0.248 OA
BRANCH  13  15
ATOM     15  N   UNL A   1      30.102  26.279  24.134  1.00  0.00    -0.325 N 
ATOM     16  C   UNL A   1      29.931  24.945  23.573  1.00  0.00     0.148 C 
BRANCH  15  17
ATOM     17  C   UNL A   1      29.459  27.373  23.406  1.00  0.00     0.149 C 
BRANCH  17  18
ATOM     18  C   UNL A   1      30.248  28.155  22.342  1.00  0.00     0.181 C 
BRANCH  18  19
ATOM     19  O   UNL A   1      29.813  29.421  21.882  1.00  0.00    -0.379 OA
BRANCH  19  20
ATOM     20  C   UNL A   1      28.432  29.757  21.931  1.00  0.00     0.163 C 
BRANCH  20  21
ATOM     21  C   UNL A   1      28.048  31.128  22.398  1.00  0.00     0.015 C 
ATOM     22  C   UNL A   1      27.446  31.355  23.760  1.00  0.00     0.006 C 
ATOM     23  C   UNL A   1      28.744  32.024  23.401  1.00  0.00     0.006 C 
ENDBRANCH  20  21
ENDBRANCH  19  20
ENDBRANCH  18  19
ENDBRANCH  17  18
ENDBRANCH  15  17
ENDBRANCH  13  15
ENDBRANCH   7  13
ENDBRANCH   3   6
ENDBRANCH   1   2
BRANCH   1  24
ATOM     24  C   UNL A   1      36.362  22.496  23.812  1.00  0.00     0.021 C 
BRANCH  24  25
ATOM     25  C   UNL A   1      37.268  21.794  24.821  1.00  0.00     0.002 C 
BRANCH  25  26
ATOM     26  C   UNL A   1      37.136  20.270  24.886  1.00  0.00     0.002 C 
BRANCH  26  27
ATOM     27  C   UNL A   1      38.445  19.471  24.960  1.00  0.00     0.021 C 
BRANCH  27  28
ATOM     28  C   UNL A   1      39.393  19.835  26.102  1.00  0.00     0.116 C 
BRANCH  28  29
ATOM     29  N   UNL A   1      40.651  19.112  26.039  1.00  0.00    -0.352 N 
ATOM     30  C   UNL A   1      41.942  19.567  26.100  1.00  0.00     0.251 C 
ATOM     31  H   UNL A   1      40.562  18.138  25.935  1.00  0.00     0.163 HD
ATOM     32  O   UNL A   1      42.869  18.796  25.838  1.00  0.00    -0.269 OA
BRANCH  30  33
ATOM     33  C   UNL A   1      42.253  20.968  26.460  1.00  0.00     0.039 A 
ATOM     34  C   UNL A   1      42.334  21.918  25.436  1.00  0.00     0.014 A 
ATOM     35  C   UNL A   1      42.547  21.341  27.774  1.00  0.00     0.014 A 
ATOM     36  C   UNL A   1      42.671  23.241  25.731  1.00  0.00     0.010 A 
ATOM     37  C   UNL A   1      42.822  22.677  28.078  1.00  0.00     0.010 A 
ATOM     38  C   UNL A   1      42.905  23.636  27.058  1.00  0.00    -0.014 A 
BRANCH  38  39
ATOM     39  C   UNL A   1      43.271  25.042  27.377  1.00  0.00     0.031 A 
ATOM     40  C   UNL A   1      44.654  25.554  27.078  1.00  0.00     0.074 A 
ATOM     41  C   UNL A   1      42.370  25.854  27.963  1.00  0.00     0.049 A 
ATOM     42  N   UNL A   1      45.162  26.745  27.287  1.00  0.00    -0.248 NA
ATOM     43  C   UNL A   1      45.600  24.594  26.489  1.00  0.00     0.031 C 
ATOM     44  C   UNL A   1      41.014  25.467  28.351  1.00  0.00     0.029 A 
ATOM     45  N   UNL A   1      42.463  27.171  28.339  1.00  0.00    -0.354 N 
ATOM     46  C   UNL A   1      46.484  26.671  26.868  1.00  0.00     0.074 A 
ATOM     47  C   UNL A   1      46.716  25.308  26.441  1.00  0.00     0.031 C 
ATOM     48  C   UNL A   1      40.393  26.530  28.891  1.00  0.00     0.029 A 
ATOM     49  C   UNL A   1      41.315  27.664  28.907  1.00  0.00     0.049 A 
ATOM     50  H   UNL A   1      43.276  27.711  28.213  1.00  0.00     0.167 HD
ATOM     51  C   UNL A   1      47.415  27.654  26.823  1.00  0.00     0.037 A 
ATOM     52  C   UNL A   1      41.034  28.892  29.383  1.00  0.00     0.037 A 
ATOM     53  C   UNL A   1      47.178  29.018  27.222  1.00  0.00     0.049 A 
ATOM     54  C   UNL A   1      42.074  29.974  29.296  1.00  0.00     0.074 A 
ATOM     55  C   UNL A   1      48.040  30.099  27.156  1.00  0.00     0.029 A 
ATOM     56  N   UNL A   1      45.989  29.485  27.761  1.00  0.00    -0.354 N 
ATOM     57  N   UNL A   1      43.297  29.913  28.829  1.00  0.00    -0.248 NA
ATOM     58  C   UNL A   1      41.688  31.305  29.789  1.00  0.00     0.031 C 
ATOM     59  C   UNL A   1      47.384  31.214  27.691  1.00  0.00     0.029 A 
ATOM     60  C   UNL A   1      46.099  30.838  28.047  1.00  0.00     0.049 A 
ATOM     61  H   UNL A   1      45.187  28.939  27.919  1.00  0.00     0.167 HD
ATOM     62  C   UNL A   1      43.816  31.195  28.943  1.00  0.00     0.074 A 
ATOM     63  C   UNL A   1      42.770  32.019  29.513  1.00  0.00     0.031 C 
ATOM     64  C   UNL A   1      45.048  31.649  28.604  1.00  0.00     0.037 A 
BRANCH  51  65
ATOM     65  C   UNL A   1      48.782  27.288  26.322  1.00  0.00     0.064 A 
ATOM     66  C   UNL A   1      49.094  27.315  24.953  1.00  0.00     0.173 A 
ATOM     67  C   UNL A   1      49.799  26.931  27.219  1.00  0.00     0.173 A 
ATOM     68  F   UNL A   1      48.155  27.640  24.053  1.00  0.00    -0.203 F 
ATOM     69  C   UNL A   1      50.364  26.964  24.501  1.00  0.00     0.198 A 
ATOM     70  C   UNL A   1      51.075  26.609  26.764  1.00  0.00     0.198 A 
ATOM     71  F   UNL A   1      49.557  26.896  28.538  1.00  0.00    -0.203 F 
ATOM     72  F   UNL A   1      50.623  26.946  23.186  1.00  0.00    -0.200 F 
ATOM     73  C   UNL A   1      51.354  26.617  25.407  1.00  0.00     0.200 A 
ATOM     74  F   UNL A   1      52.036  26.286  27.642  1.00  0.00    -0.200 F 
ATOM     75  F   UNL A   1      52.576  26.282  24.969  1.00  0.00    -0.200 F 
ENDBRANCH  51  65
BRANCH  52  76
ATOM     76  C   UNL A   1      39.687  29.174  29.943  1.00  0.00     0.064 A 
ATOM     77  C   UNL A   1      38.620  29.524  29.105  1.00  0.00     0.173 A 
ATOM     78  C   UNL A   1      39.440  29.096  31.321  1.00  0.00     0.173 A 
ATOM     79  F   UNL A   1      38.815  29.632  27.784  1.00  0.00    -0.203 F 
ATOM     80  C   UNL A   1      37.358  29.803  29.627  1.00  0.00     0.198 A 
ATOM     81  C   UNL A   1      38.172  29.350  31.838  1.00  0.00     0.198 A 
ATOM     82  F   UNL A   1      40.429  28.761  32.164  1.00  0.00    -0.203 F 
ATOM     83  F   UNL A   1      36.365  30.175  28.808  1.00  0.00    -0.200 F 
ATOM     84  C   UNL A   1      37.134  29.710  30.992  1.00  0.00     0.200 A 
ATOM     85  F   UNL A   1      37.956  29.248  33.157  1.00  0.00    -0.200 F 
ATOM     86  F   UNL A   1      35.919  29.973  31.492  1.00  0.00    -0.200 F 
ENDBRANCH  52  76
BRANCH  64  87
ATOM     87  C   UNL A   1      45.321  33.111  28.804  1.00  0.00     0.064 A 
ATOM     88  C   UNL A   1      45.900  33.598  29.985  1.00  0.00     0.173 A 
ATOM     89  C   UNL A   1      45.026  34.032  27.788  1.00  0.00     0.173 A 
ATOM     90  F   UNL A   1      46.185  32.759  30.992  1.00  0.00    -0.203 F 
ATOM     91  C   UNL A   1      46.149  34.957  30.151  1.00  0.00     0.198 A 
ATOM     92  C   UNL A   1      45.302  35.387  27.947  1.00  0.00     0.198 A 
ATOM     93  F   UNL A   1      44.477  33.617  26.637  1.00  0.00    -0.203 F 
ATOM     94  F   UNL A   1      46.659  35.407  31.307  1.00  0.00    -0.200 F 
ATOM     95  C   UNL A   1      45.856  35.850  29.131  1.00  0.00     0.200 A 
ATOM     96  F   UNL A   1      45.030  36.246  26.955  1.00  0.00    -0.200 F 
ATOM     97  F   UNL A   1      46.099  37.158  29.292  1.00  0.00    -0.200 F 
ENDBRANCH  64  87
ENDBRANCH  38  39
ENDBRANCH  30  33
ENDBRANCH  28  29
ENDBRANCH  27  28
ENDBRANCH  26  27
ENDBRANCH  25  26
ENDBRANCH  24  25
ENDBRANCH   1  24
TORSDOF 20
ENDMDL
MODEL 3
REMARK VINA RESULT:     -10.8      4.999     10.537
REMARK SMILES CN(CCOCC1CC1)C(=O)N1[C@@H]2CC[C@H]1[C@H](C(=O)NCCCCCCNC(=O)c1ccc(-c3c4nc(c(-c5c(F)c(F)c(F)c(F)c5F)c5ccc([nH]5)c(-c5c(F)c(F)c(F)c(F)c5F)c5nc(c(-c6c(F)c(F)c(F)c(F)c6F)c6ccc3[nH]6)C=C5)C=C4)cc1)C2
REMARK SMILES IDX 21 1 20 2 18 3 19 4 17 6 12 7 13 8 16 9 14 10 93 11 15 12
REMARK SMILES IDX 10 13 11 14 2 15 1 16 3 17 4 18 5 19 6 20 7 21 8 22 9 23
REMARK SMILES IDX 22 24 23 25 24 26 25 27 26 28 27 29 28 30 29 32 30 33 31 34
REMARK SMILES IDX 92 35 32 36 91 37 33 38 34 39 35 40 85 41 36 42 90 43 84 44
REMARK SMILES IDX 86 45 37 46 89 47 83 48 82 49 38 51 70 52 50 53 69 54 51 55
REMARK SMILES IDX 54 56 68 57 87 58 52 59 53 60 67 62 88 63 55 64 39 65 40 66
REMARK SMILES IDX 48 67 41 68 42 69 46 70 49 71 43 72 44 73 47 74 45 75 71 76
REMARK SMILES IDX 72 77 80 78 73 79 74 80 78 81 81 82 75 83 76 84 79 85 77 86
REMARK SMILES IDX 56 87 57 88 65 89 58 90 59 91 63 92 66 93 60 94 61 95 64 96
REMARK SMILES IDX 62 97
REMARK H PARENT 20 5 27 31 86 50 54 61
REMARK Flexibility Score: inf
ROOT
ATOM      1  C   UNL A   1      35.154  22.943  24.141  1.00  0.00     0.116 C 
ENDROOT
BRANCH   1   2
ATOM      2  N   UNL A   1      34.528  23.846  23.181  1.00  0.00    -0.356 N 
ATOM      3  C   UNL A   1      34.063  25.121  23.229  1.00  0.00     0.225 C 
ATOM      4  O   UNL A   1      33.484  25.509  22.203  1.00  0.00    -0.275 OA
ATOM      5  H   UNL A   1      34.415  23.436  22.294  1.00  0.00     0.163 HD
BRANCH   3   6
ATOM      6  C   UNL A   1      34.118  26.075  24.423  1.00  0.00     0.103 C 
ATOM      7  N   UNL A   1      32.070  27.095  24.601  1.00  0.00    -0.318 N 
ATOM      8  C   UNL A   1      32.398  26.719  25.969  1.00  0.00     0.088 C 
ATOM      9  C   UNL A   1      33.403  27.405  24.125  1.00  0.00     0.099 C 
ATOM     10  C   UNL A   1      33.093  28.003  26.448  1.00  0.00     0.027 C 
ATOM     11  C   UNL A   1      33.489  25.641  25.759  1.00  0.00     0.040 C 
ATOM     12  C   UNL A   1      33.833  28.460  25.173  1.00  0.00     0.028 C 
BRANCH   7  13
ATOM     13  C   UNL A   1      30.799  27.276  24.159  1.00  0.00     0.320 C 
ATOM     14  O   UNL A   1      30.346  28.424  24.089  1.00  0.00    -0.248 OA
BRANCH  13  15
ATOM     15  N   UNL A   1      29.999  26.197  23.824  1.00  0.00    -0.325 N 
ATOM     16  C   UNL A   1      28.573  26.361  24.081  1.00  0.00     0.148 C 
BRANCH  15  17
ATOM     17  C   UNL A   1      30.429  24.869  23.387  1.00  0.00     0.149 C 
BRANCH  17  18
ATOM     18  C   UNL A   1      30.771  23.791  24.429  1.00  0.00     0.181 C 
BRANCH  18  19
ATOM     19  O   UNL A   1      31.679  22.744  24.138  1.00  0.00    -0.379 OA
BRANCH  19  20
ATOM     20  C   UNL A   1      31.836  21.666  25.051  1.00  0.00     0.163 C 
BRANCH  20  21
ATOM     21  C   UNL A   1      32.804  20.575  24.706  1.00  0.00     0.015 C 
ATOM     22  C   UNL A   1      32.744  19.229  25.378  1.00  0.00     0.006 C 
ATOM     23  C   UNL A   1      32.578  19.323  23.887  1.00  0.00     0.006 C 
ENDBRANCH  20  21
ENDBRANCH  19  20
ENDBRANCH  18  19
ENDBRANCH  17  18
ENDBRANCH  15  17
ENDBRANCH  13  15
ENDBRANCH   7  13
ENDBRANCH   3   6
ENDBRANCH   1   2
BRANCH   1  24
ATOM     24  C   UNL A   1      36.668  22.873  23.941  1.00  0.00     0.021 C 
BRANCH  24  25
ATOM     25  C   UNL A   1      37.438  21.930  24.862  1.00  0.00     0.002 C 
BRANCH  25  26
ATOM     26  C   UNL A   1      37.107  20.442  24.718  1.00  0.00     0.002 C 
BRANCH  26  27
ATOM     27  C   UNL A   1      38.267  19.458  24.927  1.00  0.00     0.021 C 
BRANCH  27  28
ATOM     28  C   UNL A   1      39.258  19.811  26.035  1.00  0.00     0.116 C 
BRANCH  28  29
ATOM     29  N   UNL A   1      40.455  18.988  26.001  1.00  0.00    -0.352 N 
ATOM     30  C   UNL A   1      41.777  19.340  26.046  1.00  0.00     0.251 C 
ATOM     31  H   UNL A   1      40.287  18.021  25.934  1.00  0.00     0.163 HD
ATOM     32  O   UNL A   1      42.639  18.488  25.815  1.00  0.00    -0.269 OA
BRANCH  30  33
ATOM     33  C   UNL A   1      42.201  20.725  26.352  1.00  0.00     0.039 A 
ATOM     34  C   UNL A   1      42.374  21.088  27.692  1.00  0.00     0.014 A 
ATOM     35  C   UNL A   1      42.347  21.687  25.349  1.00  0.00     0.014 A 
ATOM     36  C   UNL A   1      42.728  22.398  28.023  1.00  0.00     0.010 A 
ATOM     37  C   UNL A   1      42.763  22.980  25.676  1.00  0.00     0.010 A 
ATOM     38  C   UNL A   1      42.940  23.354  27.016  1.00  0.00    -0.014 A 
BRANCH  38  39
ATOM     39  C   UNL A   1      43.311  24.752  27.364  1.00  0.00     0.031 A 
ATOM     40  C   UNL A   1      44.716  25.242  27.148  1.00  0.00     0.074 A 
ATOM     41  C   UNL A   1      42.391  25.575  27.903  1.00  0.00     0.049 A 
ATOM     42  N   UNL A   1      45.231  26.423  27.393  1.00  0.00    -0.248 NA
ATOM     43  C   UNL A   1      45.679  24.271  26.608  1.00  0.00     0.031 C 
ATOM     44  C   UNL A   1      41.009  25.209  28.211  1.00  0.00     0.029 A 
ATOM     45  N   UNL A   1      42.484  26.889  28.292  1.00  0.00    -0.354 N 
ATOM     46  C   UNL A   1      46.573  26.330  27.050  1.00  0.00     0.074 A 
ATOM     47  C   UNL A   1      46.807  24.966  26.627  1.00  0.00     0.031 C 
ATOM     48  C   UNL A   1      40.375  26.279  28.721  1.00  0.00     0.029 A 
ATOM     49  C   UNL A   1      41.313  27.397  28.797  1.00  0.00     0.049 A 
ATOM     50  H   UNL A   1      43.311  27.416  28.216  1.00  0.00     0.167 HD
ATOM     51  C   UNL A   1      47.521  27.298  27.064  1.00  0.00     0.037 A 
ATOM     52  C   UNL A   1      41.025  28.627  29.264  1.00  0.00     0.037 A 
ATOM     53  C   UNL A   1      47.284  28.663  27.457  1.00  0.00     0.049 A 
ATOM     54  C   UNL A   1      42.086  29.693  29.243  1.00  0.00     0.074 A 
ATOM     55  C   UNL A   1      48.165  29.731  27.448  1.00  0.00     0.029 A 
ATOM     56  N   UNL A   1      46.074  29.148  27.931  1.00  0.00    -0.354 N 
ATOM     57  N   UNL A   1      43.333  29.614  28.846  1.00  0.00    -0.248 NA
ATOM     58  C   UNL A   1      41.694  31.027  29.721  1.00  0.00     0.031 C 
ATOM     59  C   UNL A   1      47.498  30.853  27.950  1.00  0.00     0.029 A 
ATOM     60  C   UNL A   1      46.190  30.496  28.231  1.00  0.00     0.049 A 
ATOM     61  H   UNL A   1      45.255  28.613  28.039  1.00  0.00     0.167 HD
ATOM     62  C   UNL A   1      43.864  30.887  28.997  1.00  0.00     0.074 A 
ATOM     63  C   UNL A   1      42.801  31.724  29.512  1.00  0.00     0.031 C 
ATOM     64  C   UNL A   1      45.121  31.322  28.732  1.00  0.00     0.037 A 
BRANCH  51  65
ATOM     65  C   UNL A   1      48.908  26.912  26.639  1.00  0.00     0.064 A 
ATOM     66  C   UNL A   1      49.853  26.432  27.559  1.00  0.00     0.173 A 
ATOM     67  C   UNL A   1      49.291  26.999  25.291  1.00  0.00     0.173 A 
ATOM     68  F   UNL A   1      49.541  26.339  28.860  1.00  0.00    -0.203 F 
ATOM     69  C   UNL A   1      51.139  26.085  27.152  1.00  0.00     0.198 A 
ATOM     70  C   UNL A   1      50.569  26.624  24.884  1.00  0.00     0.198 A 
ATOM     71  F   UNL A   1      48.425  27.444  24.369  1.00  0.00    -0.203 F 
ATOM     72  F   UNL A   1      52.040  25.680  28.057  1.00  0.00    -0.200 F 
ATOM     73  C   UNL A   1      51.493  26.177  25.815  1.00  0.00     0.200 A 
ATOM     74  F   UNL A   1      50.907  26.700  23.589  1.00  0.00    -0.200 F 
ATOM     75  F   UNL A   1      52.731  25.841  25.425  1.00  0.00    -0.200 F 
ENDBRANCH  51  65
BRANCH  52  76
ATOM     76  C   UNL A   1      39.654  28.929  29.748  1.00  0.00     0.064 A 
ATOM     77  C   UNL A   1      39.291  28.679  31.079  1.00  0.00     0.173 A 
ATOM     78  C   UNL A   1      38.683  29.473  28.897  1.00  0.00     0.173 A 
ATOM     79  F   UNL A   1      40.180  28.139  31.925  1.00  0.00    -0.203 F 
ATOM     80  C   UNL A   1      38.002  28.948  31.536  1.00  0.00     0.198 A 
ATOM     81  C   UNL A   1      37.402  29.765  29.360  1.00  0.00     0.198 A 
ATOM     82  F   UNL A   1      38.983  29.733  27.615  1.00  0.00    -0.203 F 
ATOM     83  F   UNL A   1      37.669  28.662  32.801  1.00  0.00    -0.200 F 
ATOM     84  C   UNL A   1      37.061  29.495  30.677  1.00  0.00     0.200 A 
ATOM     85  F   UNL A   1      36.498  30.305  28.531  1.00  0.00    -0.200 F 
ATOM     86  F   UNL A   1      35.823  29.758  31.118  1.00  0.00    -0.200 F 
ENDBRANCH  52  76
BRANCH  64  87
ATOM     87  C   UNL A   1      45.406  32.778  28.956  1.00  0.00     0.064 A 
ATOM     88  C   UNL A   1      45.182  33.736  27.956  1.00  0.00     0.173 A 
ATOM     89  C   UNL A   1      45.882  33.223  30.199  1.00  0.00     0.173 A 
ATOM     90  F   UNL A   1      44.743  33.358  26.747  1.00  0.00    -0.203 F 
ATOM     91  C   UNL A   1      45.449  35.083  28.184  1.00  0.00     0.198 A 
ATOM     92  C   UNL A   1      46.121  34.574  30.432  1.00  0.00     0.198 A 
ATOM     93  F   UNL A   1      46.107  32.348  31.190  1.00  0.00    -0.203 F 
ATOM     94  F   UNL A   1      45.273  35.975  27.200  1.00  0.00    -0.200 F 
ATOM     95  C   UNL A   1      45.912  35.502  29.423  1.00  0.00     0.200 A 
ATOM     96  F   UNL A   1      46.558  34.979  31.633  1.00  0.00    -0.200 F 
ATOM     97  F   UNL A   1      46.166  36.800  29.641  1.00  0.00    -0.200 F 
ENDBRANCH  64  87
ENDBRANCH  38  39
ENDBRANCH  30  33
ENDBRANCH  28  29
ENDBRANCH  27  28
ENDBRANCH  26  27
ENDBRANCH  25  26
ENDBRANCH  24  25
ENDBRANCH   1  24
TORSDOF 20
ENDMDL
