MODEL 1
REMARK VINA RESULT:     -11.6      0.000      0.000
REMARK SMILES CCN(c1cccc(F)c1)c1cc(C)c(N)c(C(=O)NCCCCCCNC(=O)c2ccc(-c3c4nc(c(-c5c(F)c(F)c(F)c(F)c5F)c5ccc([nH]5)c(-c5c(F)c(F)c(F)c(F)c5F)c5nc(c(-c6c(F)c(F)c(F)c(F)c6F)c6ccc3[nH]6)C=C5)C=C4)cc2)c1
REMARK SMILES IDX 23 1 22 2 21 3 20 4 18 5 19 6 17 8 11 9 12 10 93 11 13 12
REMARK SMILES IDX 14 13 15 14 3 15 2 16 1 17 4 18 5 19 10 20 6 21 8 22 7 23
REMARK SMILES IDX 9 24 16 25 24 28 25 29 26 30 27 31 28 32 29 34 30 35 31 36
REMARK SMILES IDX 92 37 32 38 91 39 33 40 34 41 35 42 85 43 36 44 90 45 84 46
REMARK SMILES IDX 86 47 37 48 89 49 83 50 82 51 38 53 70 54 50 55 69 56 51 57
REMARK SMILES IDX 54 58 68 59 87 60 52 61 53 62 67 64 88 65 55 66 39 67 40 68
REMARK SMILES IDX 48 69 41 70 42 71 46 72 49 73 43 74 44 75 47 76 45 77 71 78
REMARK SMILES IDX 72 79 80 80 73 81 74 82 78 83 81 84 75 85 76 86 79 87 77 88
REMARK SMILES IDX 56 89 57 90 65 91 58 92 59 93 63 94 66 95 60 96 61 97 64 98
REMARK SMILES IDX 62 99
REMARK H PARENT 20 7 16 26 16 27 27 33 86 52 54 63
REMARK Flexibility Score: inf
ROOT
ATOM      1  C   UNL A   1      33.920  24.450  23.221  1.00  0.00     0.002 C 
ENDROOT
BRANCH   1   2
ATOM      2  C   UNL A   1      33.652  25.723  22.402  1.00  0.00     0.021 C 
BRANCH   2   3
ATOM      3  C   UNL A   1      32.525  25.542  21.381  1.00  0.00     0.116 C 
BRANCH   3   4
ATOM      4  N   UNL A   1      31.654  26.699  21.426  1.00  0.00    -0.352 N 
ATOM      5  C   UNL A   1      30.970  27.339  22.428  1.00  0.00     0.253 C 
ATOM      6  O   UNL A   1      30.178  28.211  22.055  1.00  0.00    -0.269 OA
ATOM      7  H   UNL A   1      31.526  27.118  20.544  1.00  0.00     0.163 HD
BRANCH   5   8
ATOM      8  C   UNL A   1      31.170  27.087  23.895  1.00  0.00     0.065 A 
ATOM      9  C   UNL A   1      31.091  25.591  25.841  1.00  0.00     0.042 A 
ATOM     10  C   UNL A   1      31.755  26.564  26.587  1.00  0.00     0.031 A 
ATOM     11  C   UNL A   1      30.751  25.904  24.517  1.00  0.00     0.042 A 
ATOM     12  C   UNL A   1      32.069  27.821  26.042  1.00  0.00    -0.025 A 
ATOM     13  C   UNL A   1      32.730  28.848  26.924  1.00  0.00     0.047 C 
ATOM     14  C   UNL A   1      31.789  28.090  24.686  1.00  0.00     0.047 A 
BRANCH   9  15
ATOM     15  N   UNL A   1      30.831  24.293  26.342  1.00  0.00    -0.342 N 
BRANCH  15  16
ATOM     16  C   UNL A   1      29.461  24.016  26.817  1.00  0.00     0.119 C 
ATOM     17  C   UNL A   1      29.280  22.604  27.357  1.00  0.00     0.027 C 
ENDBRANCH  15  16
BRANCH  15  18
ATOM     18  C   UNL A   1      31.709  23.200  26.141  1.00  0.00     0.044 A 
ATOM     19  C   UNL A   1      31.659  22.377  25.002  1.00  0.00     0.026 A 
ATOM     20  C   UNL A   1      32.710  22.929  27.089  1.00  0.00     0.065 A 
ATOM     21  C   UNL A   1      32.549  21.309  24.829  1.00  0.00     0.005 A 
ATOM     22  C   UNL A   1      33.589  21.861  26.915  1.00  0.00     0.125 A 
ATOM     23  C   UNL A   1      33.515  21.046  25.795  1.00  0.00     0.039 A 
ATOM     24  F   UNL A   1      34.521  21.614  27.845  1.00  0.00    -0.207 F 
ENDBRANCH  15  18
ENDBRANCH   9  15
BRANCH  14  25
ATOM     25  N   UNL A   1      32.270  29.275  24.114  1.00  0.00    -0.398 N 
ATOM     26  H   UNL A   1      33.201  29.555  24.273  1.00  0.00     0.156 HD
ATOM     27  H   UNL A   1      31.678  29.826  23.553  1.00  0.00     0.156 HD
ENDBRANCH  14  25
ENDBRANCH   5   8
ENDBRANCH   3   4
ENDBRANCH   2   3
ENDBRANCH   1   2
BRANCH   1  28
ATOM     28  C   UNL A   1      34.775  24.670  24.475  1.00  0.00     0.002 C 
BRANCH  28  29
ATOM     29  C   UNL A   1      36.014  23.775  24.568  1.00  0.00     0.021 C 
BRANCH  29  30
ATOM     30  C   UNL A   1      36.647  23.737  25.954  1.00  0.00     0.116 C 
BRANCH  30  31
ATOM     31  N   UNL A   1      37.676  22.713  26.041  1.00  0.00    -0.352 N 
ATOM     32  C   UNL A   1      39.008  22.846  26.335  1.00  0.00     0.251 C 
ATOM     33  H   UNL A   1      37.372  21.793  25.865  1.00  0.00     0.163 HD
ATOM     34  O   UNL A   1      39.787  21.923  26.127  1.00  0.00    -0.269 OA
BRANCH  32  35
ATOM     35  C   UNL A   1      39.507  24.118  26.899  1.00  0.00     0.039 A 
ATOM     36  C   UNL A   1      40.079  25.061  26.041  1.00  0.00     0.014 A 
ATOM     37  C   UNL A   1      39.425  24.368  28.272  1.00  0.00     0.014 A 
ATOM     38  C   UNL A   1      40.527  26.277  26.557  1.00  0.00     0.010 A 
ATOM     39  C   UNL A   1      39.810  25.606  28.773  1.00  0.00     0.010 A 
ATOM     40  C   UNL A   1      40.371  26.570  27.922  1.00  0.00    -0.014 A 
BRANCH  40  41
ATOM     41  C   UNL A   1      40.790  27.879  28.480  1.00  0.00     0.031 A 
ATOM     42  C   UNL A   1      42.231  28.124  28.827  1.00  0.00     0.074 A 
ATOM     43  C   UNL A   1      39.862  28.823  28.724  1.00  0.00     0.049 A 
ATOM     44  N   UNL A   1      42.778  29.174  29.386  1.00  0.00    -0.248 NA
ATOM     45  C   UNL A   1      43.178  27.037  28.533  1.00  0.00     0.031 C 
ATOM     46  C   UNL A   1      38.428  28.684  28.464  1.00  0.00     0.029 A 
ATOM     47  N   UNL A   1      39.984  30.085  29.253  1.00  0.00    -0.354 N 
ATOM     48  C   UNL A   1      44.126  28.869  29.518  1.00  0.00     0.074 A 
ATOM     49  C   UNL A   1      44.307  27.519  29.032  1.00  0.00     0.031 C 
ATOM     50  C   UNL A   1      37.809  29.825  28.805  1.00  0.00     0.029 A 
ATOM     51  C   UNL A   1      38.792  30.759  29.345  1.00  0.00     0.049 A 
ATOM     52  H   UNL A   1      40.845  30.469  29.537  1.00  0.00     0.167 HD
ATOM     53  C   UNL A   1      45.125  29.657  29.981  1.00  0.00     0.037 A 
ATOM     54  C   UNL A   1      38.521  31.992  29.817  1.00  0.00     0.037 A 
ATOM     55  C   UNL A   1      44.942  31.011  30.433  1.00  0.00     0.049 A 
ATOM     56  C   UNL A   1      39.648  32.844  30.334  1.00  0.00     0.074 A 
ATOM     57  C   UNL A   1      45.902  31.910  30.864  1.00  0.00     0.029 A 
ATOM     58  N   UNL A   1      43.719  31.660  30.510  1.00  0.00    -0.354 N 
ATOM     59  N   UNL A   1      40.926  32.565  30.407  1.00  0.00    -0.248 NA
ATOM     60  C   UNL A   1      39.296  34.182  30.829  1.00  0.00     0.031 C 
ATOM     61  C   UNL A   1      45.255  33.087  31.249  1.00  0.00     0.029 A 
ATOM     62  C   UNL A   1      43.898  32.943  31.005  1.00  0.00     0.049 A 
ATOM     63  H   UNL A   1      42.853  31.269  30.253  1.00  0.00     0.167 HD
ATOM     64  C   UNL A   1      41.534  33.695  30.934  1.00  0.00     0.074 A 
ATOM     65  C   UNL A   1      40.487  34.671  31.153  1.00  0.00     0.031 C 
ATOM     66  C   UNL A   1      42.844  33.904  31.213  1.00  0.00     0.037 A 
BRANCH  53  67
ATOM     67  C   UNL A   1      46.512  29.085  30.014  1.00  0.00     0.064 A 
ATOM     68  C   UNL A   1      47.003  28.472  31.177  1.00  0.00     0.173 A 
ATOM     69  C   UNL A   1      47.383  29.208  28.920  1.00  0.00     0.173 A 
ATOM     70  F   UNL A   1      46.213  28.334  32.254  1.00  0.00    -0.203 F 
ATOM     71  C   UNL A   1      48.316  28.016  31.249  1.00  0.00     0.198 A 
ATOM     72  C   UNL A   1      48.686  28.724  28.985  1.00  0.00     0.198 A 
ATOM     73  F   UNL A   1      46.959  29.777  27.782  1.00  0.00    -0.203 F 
ATOM     74  F   UNL A   1      48.772  27.464  32.381  1.00  0.00    -0.200 F 
ATOM     75  C   UNL A   1      49.155  28.139  30.152  1.00  0.00     0.200 A 
ATOM     76  F   UNL A   1      49.489  28.822  27.916  1.00  0.00    -0.200 F 
ATOM     77  F   UNL A   1      50.417  27.691  30.218  1.00  0.00    -0.200 F 
ENDBRANCH  53  67
BRANCH  54  78
ATOM     78  C   UNL A   1      37.125  32.496  29.782  1.00  0.00     0.064 A 
ATOM     79  C   UNL A   1      36.628  33.200  28.675  1.00  0.00     0.173 A 
ATOM     80  C   UNL A   1      36.271  32.318  30.879  1.00  0.00     0.173 A 
ATOM     81  F   UNL A   1      37.408  33.403  27.602  1.00  0.00    -0.203 F 
ATOM     82  C   UNL A   1      35.338  33.726  28.676  1.00  0.00     0.198 A 
ATOM     83  C   UNL A   1      34.972  32.822  30.868  1.00  0.00     0.198 A 
ATOM     84  F   UNL A   1      36.694  31.636  31.953  1.00  0.00    -0.203 F 
ATOM     85  F   UNL A   1      34.902  34.428  27.622  1.00  0.00    -0.200 F 
ATOM     86  C   UNL A   1      34.510  33.533  29.771  1.00  0.00     0.200 A 
ATOM     87  F   UNL A   1      34.167  32.616  31.920  1.00  0.00    -0.200 F 
ATOM     88  F   UNL A   1      33.266  34.034  29.769  1.00  0.00    -0.200 F 
ENDBRANCH  54  78
BRANCH  66  89
ATOM     89  C   UNL A   1      43.236  35.242  31.767  1.00  0.00     0.064 A 
ATOM     90  C   UNL A   1      43.128  35.499  33.143  1.00  0.00     0.173 A 
ATOM     91  C   UNL A   1      43.629  36.295  30.929  1.00  0.00     0.173 A 
ATOM     92  F   UNL A   1      42.746  34.527  33.985  1.00  0.00    -0.203 F 
ATOM     93  C   UNL A   1      43.379  36.768  33.655  1.00  0.00     0.198 A 
ATOM     94  C   UNL A   1      43.908  37.556  31.450  1.00  0.00     0.198 A 
ATOM     95  F   UNL A   1      43.759  36.095  29.609  1.00  0.00    -0.203 F 
ATOM     96  F   UNL A   1      43.230  37.001  34.967  1.00  0.00    -0.200 F 
ATOM     97  C   UNL A   1      43.772  37.795  32.810  1.00  0.00     0.200 A 
ATOM     98  F   UNL A   1      44.309  38.541  30.634  1.00  0.00    -0.200 F 
ATOM     99  F   UNL A   1      44.020  39.014  33.305  1.00  0.00    -0.200 F 
ENDBRANCH  66  89
ENDBRANCH  40  41
ENDBRANCH  32  35
ENDBRANCH  30  31
ENDBRANCH  29  30
ENDBRANCH  28  29
ENDBRANCH   1  28
TORSDOF 17
ENDMDL
MODEL 2
REMARK VINA RESULT:     -11.5      4.042      7.997
REMARK SMILES CCN(c1cccc(F)c1)c1cc(C)c(N)c(C(=O)NCCCCCCNC(=O)c2ccc(-c3c4nc(c(-c5c(F)c(F)c(F)c(F)c5F)c5ccc([nH]5)c(-c5c(F)c(F)c(F)c(F)c5F)c5nc(c(-c6c(F)c(F)c(F)c(F)c6F)c6ccc3[nH]6)C=C5)C=C4)cc2)c1
REMARK SMILES IDX 23 1 22 2 21 3 20 4 18 5 19 6 17 8 11 9 12 10 93 11 13 12
REMARK SMILES IDX 14 13 15 14 3 15 2 16 1 17 4 18 5 19 10 20 6 21 8 22 7 23
REMARK SMILES IDX 9 24 16 25 24 28 25 29 26 30 27 31 28 32 29 34 30 35 31 36
REMARK SMILES IDX 92 37 32 38 91 39 33 40 34 41 35 42 85 43 36 44 90 45 84 46
REMARK SMILES IDX 86 47 37 48 89 49 83 50 82 51 38 53 70 54 50 55 69 56 51 57
REMARK SMILES IDX 54 58 68 59 87 60 52 61 53 62 67 64 88 65 55 66 39 67 40 68
REMARK SMILES IDX 48 69 41 70 42 71 46 72 49 73 43 74 44 75 47 76 45 77 71 78
REMARK SMILES IDX 72 79 80 80 73 81 74 82 78 83 81 84 75 85 76 86 79 87 77 88
REMARK SMILES IDX 56 89 57 90 65 91 58 92 59 93 63 94 66 95 60 96 61 97 64 98
REMARK SMILES IDX 62 99
REMARK H PARENT 20 7 16 26 16 27 27 33 86 52 54 63
REMARK Flexibility Score: inf
ROOT
ATOM      1  C   UNL A   1      32.277  30.069  26.939  1.00  0.00     0.002 C 
ENDROOT
BRANCH   1   2
ATOM      2  C   UNL A   1      33.504  29.430  26.270  1.00  0.00     0.021 C 
BRANCH   2   3
ATOM      3  C   UNL A   1      33.754  27.995  26.744  1.00  0.00     0.116 C 
BRANCH   3   4
ATOM      4  N   UNL A   1      32.481  27.321  26.906  1.00  0.00    -0.352 N 
ATOM      5  C   UNL A   1      31.796  26.387  26.171  1.00  0.00     0.253 C 
ATOM      6  O   UNL A   1      30.638  26.167  26.542  1.00  0.00    -0.269 OA
ATOM      7  H   UNL A   1      32.005  27.594  27.723  1.00  0.00     0.163 HD
BRANCH   5   8
ATOM      8  C   UNL A   1      32.376  25.608  25.026  1.00  0.00     0.065 A 
ATOM      9  C   UNL A   1      33.513  23.614  24.149  1.00  0.00     0.042 A 
ATOM     10  C   UNL A   1      33.257  24.066  22.855  1.00  0.00     0.031 A 
ATOM     11  C   UNL A   1      33.121  24.436  25.216  1.00  0.00     0.042 A 
ATOM     12  C   UNL A   1      32.637  25.305  22.618  1.00  0.00    -0.025 A 
ATOM     13  C   UNL A   1      32.450  25.760  21.194  1.00  0.00     0.047 C 
ATOM     14  C   UNL A   1      32.181  26.084  23.703  1.00  0.00     0.047 A 
BRANCH   9  15
ATOM     15  N   UNL A   1      34.066  22.339  24.415  1.00  0.00    -0.342 N 
BRANCH  15  16
ATOM     16  C   UNL A   1      33.255  21.162  24.044  1.00  0.00     0.119 C 
ATOM     17  C   UNL A   1      32.264  20.744  25.121  1.00  0.00     0.027 C 
ENDBRANCH  15  16
BRANCH  15  18
ATOM     18  C   UNL A   1      35.433  22.143  24.733  1.00  0.00     0.044 A 
ATOM     19  C   UNL A   1      36.294  23.195  25.090  1.00  0.00     0.026 A 
ATOM     20  C   UNL A   1      35.965  20.843  24.737  1.00  0.00     0.065 A 
ATOM     21  C   UNL A   1      37.639  22.965  25.407  1.00  0.00     0.005 A 
ATOM     22  C   UNL A   1      37.306  20.621  25.048  1.00  0.00     0.125 A 
ATOM     23  C   UNL A   1      38.149  21.671  25.379  1.00  0.00     0.039 A 
ATOM     24  F   UNL A   1      37.791  19.373  25.025  1.00  0.00    -0.207 F 
ENDBRANCH  15  18
ENDBRANCH   9  15
BRANCH  14  25
ATOM     25  N   UNL A   1      31.408  27.222  23.445  1.00  0.00    -0.398 N 
ATOM     26  H   UNL A   1      31.796  28.119  23.572  1.00  0.00     0.156 HD
ATOM     27  H   UNL A   1      30.477  27.127  23.138  1.00  0.00     0.156 HD
ENDBRANCH  14  25
ENDBRANCH   5   8
ENDBRANCH   3   4
ENDBRANCH   2   3
ENDBRANCH   1   2
BRANCH   1  28
ATOM     28  C   UNL A   1      31.465  30.996  26.023  1.00  0.00     0.002 C 
BRANCH  28  29
ATOM     29  C   UNL A   1      31.313  32.429  26.539  1.00  0.00     0.021 C 
BRANCH  29  30
ATOM     30  C   UNL A   1      32.511  32.928  27.339  1.00  0.00     0.116 C 
BRANCH  30  31
ATOM     31  N   UNL A   1      32.395  34.346  27.642  1.00  0.00    -0.352 N 
ATOM     32  C   UNL A   1      33.012  35.074  28.626  1.00  0.00     0.251 C 
ATOM     33  H   UNL A   1      31.787  34.855  27.058  1.00  0.00     0.163 HD
ATOM     34  O   UNL A   1      32.622  36.203  28.903  1.00  0.00    -0.269 OA
BRANCH  32  35
ATOM     35  C   UNL A   1      34.152  34.488  29.361  1.00  0.00     0.039 A 
ATOM     36  C   UNL A   1      33.912  33.835  30.573  1.00  0.00     0.014 A 
ATOM     37  C   UNL A   1      35.454  34.601  28.864  1.00  0.00     0.014 A 
ATOM     38  C   UNL A   1      34.976  33.252  31.262  1.00  0.00     0.010 A 
ATOM     39  C   UNL A   1      36.501  33.961  29.517  1.00  0.00     0.010 A 
ATOM     40  C   UNL A   1      36.274  33.287  30.726  1.00  0.00    -0.014 A 
BRANCH  40  41
ATOM     41  C   UNL A   1      37.408  32.626  31.416  1.00  0.00     0.031 A 
ATOM     42  C   UNL A   1      38.101  31.456  30.778  1.00  0.00     0.074 A 
ATOM     43  C   UNL A   1      37.773  33.047  32.642  1.00  0.00     0.049 A 
ATOM     44  N   UNL A   1      39.063  30.706  31.254  1.00  0.00    -0.248 NA
ATOM     45  C   UNL A   1      37.635  31.058  29.440  1.00  0.00     0.031 C 
ATOM     46  C   UNL A   1      37.149  34.147  33.377  1.00  0.00     0.029 A 
ATOM     47  N   UNL A   1      38.755  32.594  33.489  1.00  0.00    -0.354 N 
ATOM     48  C   UNL A   1      39.308  29.747  30.281  1.00  0.00     0.074 A 
ATOM     49  C   UNL A   1      38.360  29.973  29.212  1.00  0.00     0.031 C 
ATOM     50  C   UNL A   1      37.780  34.304  34.551  1.00  0.00     0.029 A 
ATOM     51  C   UNL A   1      38.825  33.291  34.670  1.00  0.00     0.049 A 
ATOM     52  H   UNL A   1      39.351  31.842  33.270  1.00  0.00     0.167 HD
ATOM     53  C   UNL A   1      40.255  28.780  30.273  1.00  0.00     0.037 A 
ATOM     54  C   UNL A   1      39.639  33.129  35.732  1.00  0.00     0.037 A 
ATOM     55  C   UNL A   1      41.215  28.582  31.326  1.00  0.00     0.049 A 
ATOM     56  C   UNL A   1      40.678  32.042  35.701  1.00  0.00     0.074 A 
ATOM     57  C   UNL A   1      42.253  27.667  31.383  1.00  0.00     0.029 A 
ATOM     58  N   UNL A   1      41.257  29.310  32.506  1.00  0.00    -0.354 N 
ATOM     59  N   UNL A   1      40.935  31.173  34.754  1.00  0.00    -0.248 NA
ATOM     60  C   UNL A   1      41.543  31.915  36.883  1.00  0.00     0.031 C 
ATOM     61  C   UNL A   1      42.892  27.809  32.617  1.00  0.00     0.029 A 
ATOM     62  C   UNL A   1      42.289  28.848  33.308  1.00  0.00     0.049 A 
ATOM     63  H   UNL A   1      40.644  30.044  32.740  1.00  0.00     0.167 HD
ATOM     64  C   UNL A   1      42.000  30.412  35.213  1.00  0.00     0.074 A 
ATOM     65  C   UNL A   1      42.352  30.928  36.520  1.00  0.00     0.031 C 
ATOM     66  C   UNL A   1      42.629  29.376  34.605  1.00  0.00     0.037 A 
BRANCH  53  67
ATOM     67  C   UNL A   1      40.315  27.866  29.085  1.00  0.00     0.064 A 
ATOM     68  C   UNL A   1      41.054  28.224  27.947  1.00  0.00     0.173 A 
ATOM     69  C   UNL A   1      39.583  26.669  29.041  1.00  0.00     0.173 A 
ATOM     70  F   UNL A   1      41.769  29.361  27.934  1.00  0.00    -0.203 F 
ATOM     71  C   UNL A   1      41.048  27.426  26.806  1.00  0.00     0.198 A 
ATOM     72  C   UNL A   1      39.603  25.858  27.910  1.00  0.00     0.198 A 
ATOM     73  F   UNL A   1      38.869  26.277  30.106  1.00  0.00    -0.203 F 
ATOM     74  F   UNL A   1      41.736  27.805  25.721  1.00  0.00    -0.200 F 
ATOM     75  C   UNL A   1      40.325  26.243  26.790  1.00  0.00     0.200 A 
ATOM     76  F   UNL A   1      38.924  24.703  27.904  1.00  0.00    -0.200 F 
ATOM     77  F   UNL A   1      40.327  25.470  25.695  1.00  0.00    -0.200 F 
ENDBRANCH  53  67
BRANCH  54  78
ATOM     78  C   UNL A   1      39.518  34.049  36.891  1.00  0.00     0.064 A 
ATOM     79  C   UNL A   1      40.175  35.288  36.914  1.00  0.00     0.173 A 
ATOM     80  C   UNL A   1      38.771  33.685  38.020  1.00  0.00     0.173 A 
ATOM     81  F   UNL A   1      40.908  35.680  35.861  1.00  0.00    -0.203 F 
ATOM     82  C   UNL A   1      40.109  36.117  38.032  1.00  0.00     0.198 A 
ATOM     83  C   UNL A   1      38.685  34.527  39.127  1.00  0.00     0.198 A 
ATOM     84  F   UNL A   1      38.111  32.519  38.038  1.00  0.00    -0.203 F 
ATOM     85  F   UNL A   1      40.778  37.278  38.043  1.00  0.00    -0.200 F 
ATOM     86  C   UNL A   1      39.361  35.737  39.136  1.00  0.00     0.200 A 
ATOM     87  F   UNL A   1      37.944  34.166  40.184  1.00  0.00    -0.200 F 
ATOM     88  F   UNL A   1      39.292  36.538  40.208  1.00  0.00    -0.200 F 
ENDBRANCH  54  78
BRANCH  66  89
ATOM     89  C   UNL A   1      43.778  28.736  35.327  1.00  0.00     0.064 A 
ATOM     90  C   UNL A   1      45.098  29.121  35.043  1.00  0.00     0.173 A 
ATOM     91  C   UNL A   1      43.579  27.681  36.228  1.00  0.00     0.173 A 
ATOM     92  F   UNL A   1      45.341  30.119  34.180  1.00  0.00    -0.203 F 
ATOM     93  C   UNL A   1      46.176  28.459  35.621  1.00  0.00     0.198 A 
ATOM     94  C   UNL A   1      44.660  27.040  36.827  1.00  0.00     0.198 A 
ATOM     95  F   UNL A   1      42.336  27.285  36.541  1.00  0.00    -0.203 F 
ATOM     96  F   UNL A   1      47.428  28.817  35.305  1.00  0.00    -0.200 F 
ATOM     97  C   UNL A   1      45.957  27.421  36.515  1.00  0.00     0.200 A 
ATOM     98  F   UNL A   1      44.447  26.052  37.707  1.00  0.00    -0.200 F 
ATOM     99  F   UNL A   1      46.996  26.787  37.075  1.00  0.00    -0.200 F 
ENDBRANCH  66  89
ENDBRANCH  40  41
ENDBRANCH  32  35
ENDBRANCH  30  31
ENDBRANCH  29  30
ENDBRANCH  28  29
ENDBRANCH   1  28
TORSDOF 17
ENDMDL
MODEL 3
REMARK VINA RESULT:     -11.5      3.440      6.025
REMARK SMILES CCN(c1cccc(F)c1)c1cc(C)c(N)c(C(=O)NCCCCCCNC(=O)c2ccc(-c3c4nc(c(-c5c(F)c(F)c(F)c(F)c5F)c5ccc([nH]5)c(-c5c(F)c(F)c(F)c(F)c5F)c5nc(c(-c6c(F)c(F)c(F)c(F)c6F)c6ccc3[nH]6)C=C5)C=C4)cc2)c1
REMARK SMILES IDX 23 1 22 2 21 3 20 4 18 5 19 6 17 8 11 9 12 10 93 11 13 12
REMARK SMILES IDX 14 13 15 14 3 15 2 16 1 17 4 18 5 19 10 20 6 21 8 22 7 23
REMARK SMILES IDX 9 24 16 25 24 28 25 29 26 30 27 31 28 32 29 34 30 35 31 36
REMARK SMILES IDX 92 37 32 38 91 39 33 40 34 41 35 42 85 43 36 44 90 45 84 46
REMARK SMILES IDX 86 47 37 48 89 49 83 50 82 51 38 53 70 54 50 55 69 56 51 57
REMARK SMILES IDX 54 58 68 59 87 60 52 61 53 62 67 64 88 65 55 66 39 67 40 68
REMARK SMILES IDX 48 69 41 70 42 71 46 72 49 73 43 74 44 75 47 76 45 77 71 78
REMARK SMILES IDX 72 79 80 80 73 81 74 82 78 83 81 84 75 85 76 86 79 87 77 88
REMARK SMILES IDX 56 89 57 90 65 91 58 92 59 93 63 94 66 95 60 96 61 97 64 98
REMARK SMILES IDX 62 99
REMARK H PARENT 20 7 16 26 16 27 27 33 86 52 54 63
REMARK Flexibility Score: inf
ROOT
ATOM      1  C   UNL A   1      39.989  21.745  26.313  1.00  0.00     0.002 C 
ENDROOT
BRANCH   1   2
ATOM      2  C   UNL A   1      39.721  23.029  27.115  1.00  0.00     0.021 C 
BRANCH   2   3
ATOM      3  C   UNL A   1      38.560  23.850  26.546  1.00  0.00     0.116 C 
BRANCH   3   4
ATOM      4  N   UNL A   1      38.075  23.211  25.339  1.00  0.00    -0.352 N 
ATOM      5  C   UNL A   1      36.827  22.955  24.831  1.00  0.00     0.253 C 
ATOM      6  O   UNL A   1      36.800  22.225  23.835  1.00  0.00    -0.269 OA
ATOM      7  H   UNL A   1      38.801  22.891  24.756  1.00  0.00     0.163 HD
BRANCH   5   8
ATOM      8  C   UNL A   1      35.551  23.540  25.366  1.00  0.00     0.065 A 
ATOM      9  C   UNL A   1      33.811  25.274  25.334  1.00  0.00     0.042 A 
ATOM     10  C   UNL A   1      33.059  24.502  26.219  1.00  0.00     0.031 A 
ATOM     11  C   UNL A   1      35.082  24.801  24.976  1.00  0.00     0.042 A 
ATOM     12  C   UNL A   1      33.552  23.296  26.745  1.00  0.00    -0.025 A 
ATOM     13  C   UNL A   1      32.712  22.545  27.745  1.00  0.00     0.047 C 
ATOM     14  C   UNL A   1      34.800  22.797  26.315  1.00  0.00     0.047 A 
BRANCH   9  15
ATOM     15  N   UNL A   1      33.307  26.451  24.733  1.00  0.00    -0.342 N 
BRANCH  15  16
ATOM     16  C   UNL A   1      32.627  26.305  23.430  1.00  0.00     0.119 C 
ATOM     17  C   UNL A   1      33.498  26.692  22.243  1.00  0.00     0.027 C 
ENDBRANCH  15  16
BRANCH  15  18
ATOM     18  C   UNL A   1      33.166  27.674  25.433  1.00  0.00     0.044 A 
ATOM     19  C   UNL A   1      34.031  28.069  26.468  1.00  0.00     0.026 A 
ATOM     20  C   UNL A   1      32.146  28.569  25.069  1.00  0.00     0.065 A 
ATOM     21  C   UNL A   1      33.868  29.290  27.135  1.00  0.00     0.005 A 
ATOM     22  C   UNL A   1      31.984  29.781  25.740  1.00  0.00     0.125 A 
ATOM     23  C   UNL A   1      32.835  30.147  26.772  1.00  0.00     0.039 A 
ATOM     24  F   UNL A   1      30.991  30.606  25.384  1.00  0.00    -0.207 F 
ENDBRANCH  15  18
ENDBRANCH   9  15
BRANCH  14  25
ATOM     25  N   UNL A   1      35.192  21.512  26.709  1.00  0.00    -0.398 N 
ATOM     26  H   UNL A   1      35.395  21.329  27.655  1.00  0.00     0.156 HD
ATOM     27  H   UNL A   1      35.264  20.793  26.041  1.00  0.00     0.156 HD
ENDBRANCH  14  25
ENDBRANCH   5   8
ENDBRANCH   3   4
ENDBRANCH   2   3
ENDBRANCH   1   2
BRANCH   1  28
ATOM     28  C   UNL A   1      41.070  20.836  26.912  1.00  0.00     0.002 C 
BRANCH  28  29
ATOM     29  C   UNL A   1      41.395  19.596  26.076  1.00  0.00     0.021 C 
BRANCH  29  30
ATOM     30  C   UNL A   1      42.709  18.922  26.455  1.00  0.00     0.116 C 
BRANCH  30  31
ATOM     31  N   UNL A   1      43.559  18.720  25.292  1.00  0.00    -0.352 N 
ATOM     32  C   UNL A   1      44.213  19.649  24.525  1.00  0.00     0.251 C 
ATOM     33  H   UNL A   1      43.682  17.782  25.016  1.00  0.00     0.163 HD
ATOM     34  O   UNL A   1      44.685  19.338  23.438  1.00  0.00    -0.269 OA
BRANCH  32  35
ATOM     35  C   UNL A   1      44.340  21.038  25.013  1.00  0.00     0.039 A 
ATOM     36  C   UNL A   1      45.154  21.296  26.119  1.00  0.00     0.014 A 
ATOM     37  C   UNL A   1      43.641  22.077  24.392  1.00  0.00     0.014 A 
ATOM     38  C   UNL A   1      45.305  22.607  26.572  1.00  0.00     0.010 A 
ATOM     39  C   UNL A   1      43.845  23.390  24.802  1.00  0.00     0.010 A 
ATOM     40  C   UNL A   1      44.674  23.667  25.899  1.00  0.00    -0.014 A 
BRANCH  40  41
ATOM     41  C   UNL A   1      44.865  25.072  26.332  1.00  0.00     0.031 A 
ATOM     42  C   UNL A   1      46.224  25.708  26.250  1.00  0.00     0.074 A 
ATOM     43  C   UNL A   1      43.826  25.754  26.850  1.00  0.00     0.049 A 
ATOM     44  N   UNL A   1      46.603  26.899  26.642  1.00  0.00    -0.248 NA
ATOM     45  C   UNL A   1      47.305  24.891  25.676  1.00  0.00     0.031 C 
ATOM     46  C   UNL A   1      42.471  25.228  27.015  1.00  0.00     0.029 A 
ATOM     47  N   UNL A   1      43.749  27.034  27.340  1.00  0.00    -0.354 N 
ATOM     48  C   UNL A   1      47.963  26.967  26.372  1.00  0.00     0.074 A 
ATOM     49  C   UNL A   1      48.356  25.683  25.833  1.00  0.00     0.031 C 
ATOM     50  C   UNL A   1      41.690  26.185  27.540  1.00  0.00     0.029 A 
ATOM     51  C   UNL A   1      42.496  27.377  27.785  1.00  0.00     0.049 A 
ATOM     52  H   UNL A   1      44.518  27.648  27.368  1.00  0.00     0.167 HD
ATOM     53  C   UNL A   1      48.802  28.017  26.538  1.00  0.00     0.037 A 
ATOM     54  C   UNL A   1      42.049  28.523  28.335  1.00  0.00     0.037 A 
ATOM     55  C   UNL A   1      48.397  29.301  27.044  1.00  0.00     0.049 A 
ATOM     56  C   UNL A   1      43.003  29.672  28.516  1.00  0.00     0.074 A 
ATOM     57  C   UNL A   1      49.160  30.446  27.192  1.00  0.00     0.029 A 
ATOM     58  N   UNL A   1      47.118  29.611  27.484  1.00  0.00    -0.354 N 
ATOM     59  N   UNL A   1      44.275  29.743  28.210  1.00  0.00    -0.248 NA
ATOM     60  C   UNL A   1      42.460  30.900  29.113  1.00  0.00     0.031 C 
ATOM     61  C   UNL A   1      48.357  31.434  27.767  1.00  0.00     0.029 A 
ATOM     62  C   UNL A   1      47.078  30.924  27.925  1.00  0.00     0.049 A 
ATOM     63  H   UNL A   1      46.354  28.991  27.483  1.00  0.00     0.167 HD
ATOM     64  C   UNL A   1      44.680  31.024  28.556  1.00  0.00     0.074 A 
ATOM     65  C   UNL A   1      43.515  31.703  29.085  1.00  0.00     0.031 C 
ATOM     66  C   UNL A   1      45.909  31.587  28.445  1.00  0.00     0.037 A 
BRANCH  53  67
ATOM     67  C   UNL A   1      50.241  27.832  26.157  1.00  0.00     0.064 A 
ATOM     68  C   UNL A   1      50.632  27.861  24.810  1.00  0.00     0.173 A 
ATOM     69  C   UNL A   1      51.225  27.554  27.119  1.00  0.00     0.173 A 
ATOM     70  F   UNL A   1      49.729  28.118  23.849  1.00  0.00    -0.203 F 
ATOM     71  C   UNL A   1      51.949  27.605  24.438  1.00  0.00     0.198 A 
ATOM     72  C   UNL A   1      52.547  27.328  26.746  1.00  0.00     0.198 A 
ATOM     73  F   UNL A   1      50.906  27.525  28.421  1.00  0.00    -0.203 F 
ATOM     74  F   UNL A   1      52.290  27.606  23.142  1.00  0.00    -0.200 F 
ATOM     75  C   UNL A   1      52.905  27.342  25.406  1.00  0.00     0.200 A 
ATOM     76  F   UNL A   1      53.476  27.099  27.684  1.00  0.00    -0.200 F 
ATOM     77  F   UNL A   1      54.176  27.106  25.048  1.00  0.00    -0.200 F 
ENDBRANCH  53  67
BRANCH  54  78
ATOM     78  C   UNL A   1      40.618  28.641  28.715  1.00  0.00     0.064 A 
ATOM     79  C   UNL A   1      39.653  29.091  27.803  1.00  0.00     0.173 A 
ATOM     80  C   UNL A   1      40.196  28.341  30.017  1.00  0.00     0.173 A 
ATOM     81  F   UNL A   1      40.008  29.397  26.546  1.00  0.00    -0.203 F 
ATOM     82  C   UNL A   1      38.324  29.260  28.185  1.00  0.00     0.198 A 
ATOM     83  C   UNL A   1      38.862  28.486  30.392  1.00  0.00     0.198 A 
ATOM     84  F   UNL A   1      41.078  27.889  30.920  1.00  0.00    -0.203 F 
ATOM     85  F   UNL A   1      37.430  29.730  27.305  1.00  0.00    -0.200 F 
ATOM     86  C   UNL A   1      37.929  28.954  29.479  1.00  0.00     0.200 A 
ATOM     87  F   UNL A   1      38.479  28.168  31.637  1.00  0.00    -0.200 F 
ATOM     88  F   UNL A   1      36.649  29.110  29.845  1.00  0.00    -0.200 F 
ENDBRANCH  54  78
BRANCH  66  89
ATOM     89  C   UNL A   1      46.066  33.013  28.883  1.00  0.00     0.064 A 
ATOM     90  C   UNL A   1      46.373  33.315  30.219  1.00  0.00     0.173 A 
ATOM     91  C   UNL A   1      45.823  34.079  28.006  1.00  0.00     0.173 A 
ATOM     92  F   UNL A   1      46.605  32.330  31.100  1.00  0.00    -0.203 F 
ATOM     93  C   UNL A   1      46.411  34.633  30.664  1.00  0.00     0.198 A 
ATOM     94  C   UNL A   1      45.890  35.398  28.449  1.00  0.00     0.198 A 
ATOM     95  F   UNL A   1      45.538  33.842  26.717  1.00  0.00    -0.203 F 
ATOM     96  F   UNL A   1      46.666  34.896  31.953  1.00  0.00    -0.200 F 
ATOM     97  C   UNL A   1      46.173  35.674  29.778  1.00  0.00     0.200 A 
ATOM     98  F   UNL A   1      45.681  36.403  27.586  1.00  0.00    -0.200 F 
ATOM     99  F   UNL A   1      46.214  36.942  30.206  1.00  0.00    -0.200 F 
ENDBRANCH  66  89
ENDBRANCH  40  41
ENDBRANCH  32  35
ENDBRANCH  30  31
ENDBRANCH  29  30
ENDBRANCH  28  29
ENDBRANCH   1  28
TORSDOF 17
ENDMDL
