MODEL 1
REMARK VINA RESULT:     -12.4      0.000      0.000
REMARK SMILES COc1ccc2cc([C@H](C)C(=O)NCCCCCCNC(=O)c3ccc(-c4c5nc(c(-c6c(F)c(F)c(F)c(F)c6F)c6ccc([nH]6)c(-c6c(F)c(F)c(F)c(F)c6F)c6nc(c(-c7c(F)c(F)c(F)c(F)c7F)c7ccc4[nH]7)C=C6)C=C5)cc3)ccc2c1
REMARK SMILES IDX 16 1 15 2 14 3 13 4 11 5 12 6 9 8 10 9 8 10 3 11 4 12 89 13
REMARK SMILES IDX 5 14 88 15 6 16 87 17 7 18 86 19 2 20 1 21 17 22 18 23 19 24
REMARK SMILES IDX 20 25 21 26 22 28 23 29 24 30 85 31 25 32 84 33 26 34 27 35
REMARK SMILES IDX 28 36 78 37 29 38 83 39 77 40 79 41 30 42 82 43 76 44 75 45
REMARK SMILES IDX 31 47 63 48 43 49 62 50 44 51 47 52 61 53 80 54 45 55 46 56
REMARK SMILES IDX 60 58 81 59 48 60 32 61 33 62 41 63 34 64 35 65 39 66 42 67
REMARK SMILES IDX 36 68 37 69 40 70 38 71 64 72 65 73 73 74 66 75 67 76 71 77
REMARK SMILES IDX 74 78 68 79 69 80 72 81 70 82 49 83 50 84 58 85 51 86 52 87
REMARK SMILES IDX 56 88 59 89 53 90 54 91 57 92 55 93
REMARK H PARENT 13 7 20 27 79 46 47 57
REMARK Flexibility Score: inf
ROOT
ATOM      1  C   UNL A   1      36.460  22.018  24.314  1.00  0.00     0.002 C 
ENDROOT
BRANCH   1   2
ATOM      2  C   UNL A   1      36.277  23.254  25.191  1.00  0.00     0.021 C 
BRANCH   2   3
ATOM      3  C   UNL A   1      35.019  24.063  24.909  1.00  0.00     0.116 C 
BRANCH   3   4
ATOM      4  N   UNL A   1      34.739  24.200  23.498  1.00  0.00    -0.356 N 
ATOM      5  C   UNL A   1      33.553  24.050  22.839  1.00  0.00     0.227 C 
ATOM      6  O   UNL A   1      33.525  24.326  21.635  1.00  0.00    -0.274 OA
ATOM      7  H   UNL A   1      35.512  24.434  22.932  1.00  0.00     0.163 HD
BRANCH   5   8
ATOM      8  C   UNL A   1      32.289  23.541  23.559  1.00  0.00     0.105 C 
ATOM      9  C   UNL A   1      31.070  24.403  23.203  1.00  0.00     0.023 C 
BRANCH   8  10
ATOM     10  C   UNL A   1      32.174  22.022  23.468  1.00  0.00    -0.035 A 
ATOM     11  C   UNL A   1      33.017  17.102  24.417  1.00  0.00     0.119 A 
ATOM     12  C   UNL A   1      33.054  17.734  25.658  1.00  0.00     0.047 A 
ATOM     13  C   UNL A   1      32.739  17.833  23.264  1.00  0.00     0.055 A 
ATOM     14  C   UNL A   1      32.829  19.111  25.740  1.00  0.00     0.012 A 
ATOM     15  C   UNL A   1      32.478  19.207  23.340  1.00  0.00    -0.015 A 
ATOM     16  C   UNL A   1      32.563  19.865  24.585  1.00  0.00    -0.018 A 
ATOM     17  C   UNL A   1      32.148  19.946  22.199  1.00  0.00     0.009 A 
ATOM     18  C   UNL A   1      32.422  21.264  24.629  1.00  0.00     0.013 A 
ATOM     19  C   UNL A   1      31.963  21.328  22.269  1.00  0.00     0.005 A 
BRANCH  11  20
ATOM     20  O   UNL A   1      33.331  15.782  24.253  1.00  0.00    -0.497 OA
ATOM     21  C   UNL A   1      32.904  14.990  25.359  1.00  0.00     0.278 C 
ENDBRANCH  11  20
ENDBRANCH   8  10
ENDBRANCH   5   8
ENDBRANCH   3   4
ENDBRANCH   2   3
ENDBRANCH   1   2
BRANCH   1  22
ATOM     22  C   UNL A   1      36.535  20.684  25.062  1.00  0.00     0.002 C 
BRANCH  22  23
ATOM     23  C   UNL A   1      37.815  19.872  24.849  1.00  0.00     0.021 C 
BRANCH  23  24
ATOM     24  C   UNL A   1      39.005  20.296  25.704  1.00  0.00     0.116 C 
BRANCH  24  25
ATOM     25  N   UNL A   1      39.995  19.240  25.840  1.00  0.00    -0.352 N 
ATOM     26  C   UNL A   1      41.344  19.331  26.068  1.00  0.00     0.251 C 
ATOM     27  H   UNL A   1      39.645  18.324  25.756  1.00  0.00     0.163 HD
ATOM     28  O   UNL A   1      42.053  18.329  25.980  1.00  0.00    -0.269 OA
BRANCH  26  29
ATOM     29  C   UNL A   1      41.958  20.633  26.398  1.00  0.00     0.039 A 
ATOM     30  C   UNL A   1      42.290  21.502  25.356  1.00  0.00     0.014 A 
ATOM     31  C   UNL A   1      42.215  20.996  27.724  1.00  0.00     0.014 A 
ATOM     32  C   UNL A   1      42.819  22.762  25.646  1.00  0.00     0.010 A 
ATOM     33  C   UNL A   1      42.676  22.277  28.014  1.00  0.00     0.010 A 
ATOM     34  C   UNL A   1      42.979  23.175  26.979  1.00  0.00    -0.014 A 
BRANCH  34  35
ATOM     35  C   UNL A   1      43.448  24.546  27.309  1.00  0.00     0.031 A 
ATOM     36  C   UNL A   1      42.482  25.574  27.829  1.00  0.00     0.074 A 
ATOM     37  C   UNL A   1      44.733  24.882  27.078  1.00  0.00     0.049 A 
ATOM     38  N   UNL A   1      42.681  26.842  28.086  1.00  0.00    -0.248 NA
ATOM     39  C   UNL A   1      41.104  25.121  28.076  1.00  0.00     0.031 C 
ATOM     40  C   UNL A   1      45.758  23.985  26.541  1.00  0.00     0.029 A 
ATOM     41  N   UNL A   1      45.394  26.072  27.251  1.00  0.00    -0.354 N 
ATOM     42  C   UNL A   1      41.458  27.337  28.517  1.00  0.00     0.074 A 
ATOM     43  C   UNL A   1      40.508  26.249  28.435  1.00  0.00     0.031 C 
ATOM     44  C   UNL A   1      46.918  24.652  26.440  1.00  0.00     0.029 A 
ATOM     45  C   UNL A   1      46.711  26.033  26.860  1.00  0.00     0.049 A 
ATOM     46  H   UNL A   1      44.965  26.879  27.619  1.00  0.00     0.167 HD
ATOM     47  C   UNL A   1      41.160  28.581  28.963  1.00  0.00     0.037 A 
ATOM     48  C   UNL A   1      47.641  27.007  26.825  1.00  0.00     0.037 A 
ATOM     49  C   UNL A   1      42.111  29.659  29.054  1.00  0.00     0.049 A 
ATOM     50  C   UNL A   1      47.271  28.391  27.292  1.00  0.00     0.074 A 
ATOM     51  C   UNL A   1      41.914  30.944  29.529  1.00  0.00     0.029 A 
ATOM     52  N   UNL A   1      43.438  29.578  28.660  1.00  0.00    -0.354 N 
ATOM     53  N   UNL A   1      46.125  28.831  27.752  1.00  0.00    -0.248 NA
ATOM     54  C   UNL A   1      48.326  29.411  27.240  1.00  0.00     0.031 C 
ATOM     55  C   UNL A   1      43.107  31.657  29.371  1.00  0.00     0.029 A 
ATOM     56  C   UNL A   1      44.065  30.798  28.857  1.00  0.00     0.049 A 
ATOM     57  H   UNL A   1      43.871  28.773  28.293  1.00  0.00     0.167 HD
ATOM     58  C   UNL A   1      46.330  30.167  28.073  1.00  0.00     0.074 A 
ATOM     59  C   UNL A   1      47.716  30.459  27.774  1.00  0.00     0.031 C 
ATOM     60  C   UNL A   1      45.449  31.071  28.566  1.00  0.00     0.037 A 
BRANCH  47  61
ATOM     61  C   UNL A   1      39.747  28.849  29.399  1.00  0.00     0.064 A 
ATOM     62  C   UNL A   1      38.781  29.328  28.501  1.00  0.00     0.173 A 
ATOM     63  C   UNL A   1      39.339  28.567  30.711  1.00  0.00     0.173 A 
ATOM     64  F   UNL A   1      39.121  29.625  27.238  1.00  0.00    -0.203 F 
ATOM     65  C   UNL A   1      37.465  29.533  28.906  1.00  0.00     0.198 A 
ATOM     66  C   UNL A   1      38.015  28.743  31.104  1.00  0.00     0.198 A 
ATOM     67  F   UNL A   1      40.221  28.102  31.609  1.00  0.00    -0.203 F 
ATOM     68  F   UNL A   1      36.569  30.029  28.041  1.00  0.00    -0.200 F 
ATOM     69  C   UNL A   1      37.080  29.230  30.203  1.00  0.00     0.200 A 
ATOM     70  F   UNL A   1      37.641  28.434  32.354  1.00  0.00    -0.200 F 
ATOM     71  F   UNL A   1      35.810  29.413  30.587  1.00  0.00    -0.200 F 
ENDBRANCH  47  61
BRANCH  48  72
ATOM     72  C   UNL A   1      49.012  26.718  26.325  1.00  0.00     0.064 A 
ATOM     73  C   UNL A   1      49.367  26.984  24.994  1.00  0.00     0.173 A 
ATOM     74  C   UNL A   1      49.983  26.137  27.154  1.00  0.00     0.173 A 
ATOM     75  F   UNL A   1      48.469  27.519  24.156  1.00  0.00    -0.203 F 
ATOM     76  C   UNL A   1      50.628  26.645  24.504  1.00  0.00     0.198 A 
ATOM     77  C   UNL A   1      51.254  25.832  26.672  1.00  0.00     0.198 A 
ATOM     78  F   UNL A   1      49.698  25.866  28.436  1.00  0.00    -0.203 F 
ATOM     79  F   UNL A   1      50.916  26.848  23.212  1.00  0.00    -0.200 F 
ATOM     80  C   UNL A   1      51.571  26.073  25.344  1.00  0.00     0.200 A 
ATOM     81  F   UNL A   1      52.167  25.294  27.491  1.00  0.00    -0.200 F 
ATOM     82  F   UNL A   1      52.780  25.743  24.871  1.00  0.00    -0.200 F 
ENDBRANCH  48  72
BRANCH  60  83
ATOM     83  C   UNL A   1      45.968  32.452  28.855  1.00  0.00     0.064 A 
ATOM     84  C   UNL A   1      45.928  33.473  27.894  1.00  0.00     0.173 A 
ATOM     85  C   UNL A   1      46.480  32.765  30.124  1.00  0.00     0.173 A 
ATOM     86  F   UNL A   1      45.462  33.221  26.662  1.00  0.00    -0.203 F 
ATOM     87  C   UNL A   1      46.412  34.746  28.183  1.00  0.00     0.198 A 
ATOM     88  C   UNL A   1      46.929  34.049  30.420  1.00  0.00     0.198 A 
ATOM     89  F   UNL A   1      46.533  31.828  31.083  1.00  0.00    -0.203 F 
ATOM     90  F   UNL A   1      46.416  35.690  27.231  1.00  0.00    -0.200 F 
ATOM     91  C   UNL A   1      46.903  35.035  29.447  1.00  0.00     0.200 A 
ATOM     92  F   UNL A   1      47.388  34.331  31.648  1.00  0.00    -0.200 F 
ATOM     93  F   UNL A   1      47.360  36.264  29.724  1.00  0.00    -0.200 F 
ENDBRANCH  60  83
ENDBRANCH  34  35
ENDBRANCH  26  29
ENDBRANCH  24  25
ENDBRANCH  23  24
ENDBRANCH  22  23
ENDBRANCH   1  22
TORSDOF 15
ENDMDL
MODEL 2
REMARK VINA RESULT:     -12.2      5.960     11.473
REMARK SMILES COc1ccc2cc([C@H](C)C(=O)NCCCCCCNC(=O)c3ccc(-c4c5nc(c(-c6c(F)c(F)c(F)c(F)c6F)c6ccc([nH]6)c(-c6c(F)c(F)c(F)c(F)c6F)c6nc(c(-c7c(F)c(F)c(F)c(F)c7F)c7ccc4[nH]7)C=C6)C=C5)cc3)ccc2c1
REMARK SMILES IDX 16 1 15 2 14 3 13 4 11 5 12 6 9 8 10 9 8 10 3 11 4 12 89 13
REMARK SMILES IDX 5 14 88 15 6 16 87 17 7 18 86 19 2 20 1 21 17 22 18 23 19 24
REMARK SMILES IDX 20 25 21 26 22 28 23 29 24 30 85 31 25 32 84 33 26 34 27 35
REMARK SMILES IDX 28 36 78 37 29 38 83 39 77 40 79 41 30 42 82 43 76 44 75 45
REMARK SMILES IDX 31 47 63 48 43 49 62 50 44 51 47 52 61 53 80 54 45 55 46 56
REMARK SMILES IDX 60 58 81 59 48 60 32 61 33 62 41 63 34 64 35 65 39 66 42 67
REMARK SMILES IDX 36 68 37 69 40 70 38 71 64 72 65 73 73 74 66 75 67 76 71 77
REMARK SMILES IDX 74 78 68 79 69 80 72 81 70 82 49 83 50 84 58 85 51 86 52 87
REMARK SMILES IDX 56 88 59 89 53 90 54 91 57 92 55 93
REMARK H PARENT 13 7 20 27 79 46 47 57
REMARK Flexibility Score: inf
ROOT
ATOM      1  C   UNL A   1      31.644  29.128  26.554  1.00  0.00     0.002 C 
ENDROOT
BRANCH   1   2
ATOM      2  C   UNL A   1      32.969  28.393  26.750  1.00  0.00     0.021 C 
BRANCH   2   3
ATOM      3  C   UNL A   1      32.987  26.956  26.249  1.00  0.00     0.116 C 
BRANCH   3   4
ATOM      4  N   UNL A   1      31.922  26.150  26.803  1.00  0.00    -0.356 N 
ATOM      5  C   UNL A   1      31.091  25.272  26.168  1.00  0.00     0.227 C 
ATOM      6  O   UNL A   1      30.319  24.606  26.865  1.00  0.00    -0.274 OA
ATOM      7  H   UNL A   1      31.776  26.248  27.773  1.00  0.00     0.163 HD
BRANCH   5   8
ATOM      8  C   UNL A   1      31.096  25.121  24.635  1.00  0.00     0.105 C 
ATOM      9  C   UNL A   1      31.039  23.642  24.229  1.00  0.00     0.023 C 
BRANCH   8  10
ATOM     10  C   UNL A   1      30.133  26.107  23.978  1.00  0.00    -0.035 A 
ATOM     11  C   UNL A   1      28.249  30.475  22.195  1.00  0.00     0.119 A 
ATOM     12  C   UNL A   1      29.605  30.496  21.877  1.00  0.00     0.047 A 
ATOM     13  C   UNL A   1      27.692  29.367  22.830  1.00  0.00     0.055 A 
ATOM     14  C   UNL A   1      30.412  29.406  22.217  1.00  0.00     0.012 A 
ATOM     15  C   UNL A   1      28.485  28.256  23.144  1.00  0.00    -0.015 A 
ATOM     16  C   UNL A   1      29.869  28.287  22.872  1.00  0.00    -0.018 A 
ATOM     17  C   UNL A   1      27.932  27.116  23.736  1.00  0.00     0.009 A 
ATOM     18  C   UNL A   1      30.675  27.219  23.304  1.00  0.00     0.013 A 
ATOM     19  C   UNL A   1      28.740  26.042  24.115  1.00  0.00     0.005 A 
BRANCH  11  20
ATOM     20  O   UNL A   1      27.427  31.547  21.986  1.00  0.00    -0.497 OA
ATOM     21  C   UNL A   1      28.124  32.650  21.410  1.00  0.00     0.278 C 
ENDBRANCH  11  20
ENDBRANCH   8  10
ENDBRANCH   5   8
ENDBRANCH   3   4
ENDBRANCH   2   3
ENDBRANCH   1   2
BRANCH   1  22
ATOM     22  C   UNL A   1      31.724  30.426  25.745  1.00  0.00     0.002 C 
BRANCH  22  23
ATOM     23  C   UNL A   1      31.406  31.710  26.515  1.00  0.00     0.021 C 
BRANCH  23  24
ATOM     24  C   UNL A   1      32.604  32.387  27.174  1.00  0.00     0.116 C 
BRANCH  24  25
ATOM     25  N   UNL A   1      32.356  33.789  27.468  1.00  0.00    -0.352 N 
ATOM     26  C   UNL A   1      32.963  34.612  28.382  1.00  0.00     0.251 C 
ATOM     27  H   UNL A   1      31.648  34.212  26.930  1.00  0.00     0.163 HD
ATOM     28  O   UNL A   1      32.499  35.728  28.609  1.00  0.00    -0.269 OA
BRANCH  26  29
ATOM     29  C   UNL A   1      34.160  34.154  29.116  1.00  0.00     0.039 A 
ATOM     30  C   UNL A   1      33.989  33.452  30.311  1.00  0.00     0.014 A 
ATOM     31  C   UNL A   1      35.447  34.422  28.637  1.00  0.00     0.014 A 
ATOM     32  C   UNL A   1      35.104  32.960  30.993  1.00  0.00     0.010 A 
ATOM     33  C   UNL A   1      36.553  33.872  29.280  1.00  0.00     0.010 A 
ATOM     34  C   UNL A   1      36.394  33.131  30.461  1.00  0.00    -0.014 A 
BRANCH  34  35
ATOM     35  C   UNL A   1      37.583  32.532  31.120  1.00  0.00     0.031 A 
ATOM     36  C   UNL A   1      38.317  31.392  30.470  1.00  0.00     0.074 A 
ATOM     37  C   UNL A   1      37.963  32.975  32.335  1.00  0.00     0.049 A 
ATOM     38  N   UNL A   1      39.315  30.681  30.930  1.00  0.00    -0.248 NA
ATOM     39  C   UNL A   1      37.854  30.983  29.135  1.00  0.00     0.031 C 
ATOM     40  C   UNL A   1      37.310  34.051  33.085  1.00  0.00     0.029 A 
ATOM     41  N   UNL A   1      38.981  32.568  33.161  1.00  0.00    -0.354 N 
ATOM     42  C   UNL A   1      39.595  29.742  29.946  1.00  0.00     0.074 A 
ATOM     43  C   UNL A   1      38.626  29.936  28.888  1.00  0.00     0.031 C 
ATOM     44  C   UNL A   1      37.950  34.225  34.251  1.00  0.00     0.029 A 
ATOM     45  C   UNL A   1      39.026  33.246  34.355  1.00  0.00     0.049 A 
ATOM     46  H   UNL A   1      39.617  31.854  32.921  1.00  0.00     0.167 HD
ATOM     47  C   UNL A   1      40.586  28.818  29.917  1.00  0.00     0.037 A 
ATOM     48  C   UNL A   1      39.833  33.083  35.421  1.00  0.00     0.037 A 
ATOM     49  C   UNL A   1      41.555  28.636  30.967  1.00  0.00     0.049 A 
ATOM     50  C   UNL A   1      40.902  32.022  35.377  1.00  0.00     0.074 A 
ATOM     51  C   UNL A   1      42.619  27.753  31.014  1.00  0.00     0.029 A 
ATOM     52  N   UNL A   1      41.576  29.350  32.156  1.00  0.00    -0.354 N 
ATOM     53  N   UNL A   1      41.192  31.179  34.416  1.00  0.00    -0.248 NA
ATOM     54  C   UNL A   1      41.758  31.895  36.564  1.00  0.00     0.031 C 
ATOM     55  C   UNL A   1      43.252  27.893  32.253  1.00  0.00     0.029 A 
ATOM     56  C   UNL A   1      42.621  28.909  32.953  1.00  0.00     0.049 A 
ATOM     57  H   UNL A   1      40.943  30.065  32.398  1.00  0.00     0.167 HD
ATOM     58  C   UNL A   1      42.281  30.445  34.869  1.00  0.00     0.074 A 
ATOM     59  C   UNL A   1      42.612  30.957  36.181  1.00  0.00     0.031 C 
ATOM     60  C   UNL A   1      42.945  29.436  34.254  1.00  0.00     0.037 A 
BRANCH  47  61
ATOM     61  C   UNL A   1      40.682  27.932  28.708  1.00  0.00     0.064 A 
ATOM     62  C   UNL A   1      39.971  26.726  28.623  1.00  0.00     0.173 A 
ATOM     63  C   UNL A   1      41.444  28.323  27.597  1.00  0.00     0.173 A 
ATOM     64  F   UNL A   1      39.236  26.301  29.662  1.00  0.00    -0.203 F 
ATOM     65  C   UNL A   1      40.035  25.934  27.480  1.00  0.00     0.198 A 
ATOM     66  C   UNL A   1      41.481  27.543  26.443  1.00  0.00     0.198 A 
ATOM     67  F   UNL A   1      42.139  29.470  27.621  1.00  0.00    -0.203 F 
ATOM     68  F   UNL A   1      39.379  24.766  27.438  1.00  0.00    -0.200 F 
ATOM     69  C   UNL A   1      40.781  26.348  26.387  1.00  0.00     0.200 A 
ATOM     70  F   UNL A   1      42.190  27.953  25.381  1.00  0.00    -0.200 F 
ATOM     71  F   UNL A   1      40.830  25.593  25.282  1.00  0.00    -0.200 F 
ENDBRANCH  47  61
BRANCH  48  72
ATOM     72  C   UNL A   1      39.664  33.937  36.628  1.00  0.00     0.064 A 
ATOM     73  C   UNL A   1      40.320  35.172  36.738  1.00  0.00     0.173 A 
ATOM     74  C   UNL A   1      38.875  33.521  37.711  1.00  0.00     0.173 A 
ATOM     75  F   UNL A   1      41.103  35.605  35.740  1.00  0.00    -0.203 F 
ATOM     76  C   UNL A   1      40.222  35.939  37.899  1.00  0.00     0.198 A 
ATOM     77  C   UNL A   1      38.750  34.306  38.855  1.00  0.00     0.198 A 
ATOM     78  F   UNL A   1      38.222  32.350  37.657  1.00  0.00    -0.203 F 
ATOM     79  F   UNL A   1      40.914  37.081  38.002  1.00  0.00    -0.200 F 
ATOM     80  C   UNL A   1      39.434  35.507  38.954  1.00  0.00     0.200 A 
ATOM     81  F   UNL A   1      37.974  33.892  39.867  1.00  0.00    -0.200 F 
ATOM     82  F   UNL A   1      39.345  36.242  40.070  1.00  0.00    -0.200 F 
ENDBRANCH  48  72
BRANCH  60  83
ATOM     83  C   UNL A   1      44.124  28.845  34.976  1.00  0.00     0.064 A 
ATOM     84  C   UNL A   1      43.990  27.740  35.828  1.00  0.00     0.173 A 
ATOM     85  C   UNL A   1      45.410  29.374  34.784  1.00  0.00     0.173 A 
ATOM     86  F   UNL A   1      42.781  27.206  36.057  1.00  0.00    -0.203 F 
ATOM     87  C   UNL A   1      45.095  27.206  36.486  1.00  0.00     0.198 A 
ATOM     88  C   UNL A   1      46.517  28.815  35.415  1.00  0.00     0.198 A 
ATOM     89  F   UNL A   1      45.595  30.427  33.973  1.00  0.00    -0.203 F 
ATOM     90  F   UNL A   1      44.935  26.185  37.340  1.00  0.00    -0.200 F 
ATOM     91  C   UNL A   1      46.357  27.738  36.273  1.00  0.00     0.200 A 
ATOM     92  F   UNL A   1      47.739  29.320  35.195  1.00  0.00    -0.200 F 
ATOM     93  F   UNL A   1      47.420  27.217  36.901  1.00  0.00    -0.200 F 
ENDBRANCH  60  83
ENDBRANCH  34  35
ENDBRANCH  26  29
ENDBRANCH  24  25
ENDBRANCH  23  24
ENDBRANCH  22  23
ENDBRANCH   1  22
TORSDOF 15
ENDMDL
MODEL 3
REMARK VINA RESULT:     -12.1      5.792     10.166
REMARK SMILES COc1ccc2cc([C@H](C)C(=O)NCCCCCCNC(=O)c3ccc(-c4c5nc(c(-c6c(F)c(F)c(F)c(F)c6F)c6ccc([nH]6)c(-c6c(F)c(F)c(F)c(F)c6F)c6nc(c(-c7c(F)c(F)c(F)c(F)c7F)c7ccc4[nH]7)C=C6)C=C5)cc3)ccc2c1
REMARK SMILES IDX 16 1 15 2 14 3 13 4 11 5 12 6 9 8 10 9 8 10 3 11 4 12 89 13
REMARK SMILES IDX 5 14 88 15 6 16 87 17 7 18 86 19 2 20 1 21 17 22 18 23 19 24
REMARK SMILES IDX 20 25 21 26 22 28 23 29 24 30 85 31 25 32 84 33 26 34 27 35
REMARK SMILES IDX 28 36 78 37 29 38 83 39 77 40 79 41 30 42 82 43 76 44 75 45
REMARK SMILES IDX 31 47 63 48 43 49 62 50 44 51 47 52 61 53 80 54 45 55 46 56
REMARK SMILES IDX 60 58 81 59 48 60 32 61 33 62 41 63 34 64 35 65 39 66 42 67
REMARK SMILES IDX 36 68 37 69 40 70 38 71 64 72 65 73 73 74 66 75 67 76 71 77
REMARK SMILES IDX 74 78 68 79 69 80 72 81 70 82 49 83 50 84 58 85 51 86 52 87
REMARK SMILES IDX 56 88 59 89 53 90 54 91 57 92 55 93
REMARK H PARENT 13 7 20 27 79 46 47 57
REMARK Flexibility Score: inf
ROOT
ATOM      1  C   UNL A   1      32.277  29.590  26.781  1.00  0.00     0.002 C 
ENDROOT
BRANCH   1   2
ATOM      2  C   UNL A   1      31.589  28.330  27.300  1.00  0.00     0.021 C 
BRANCH   2   3
ATOM      3  C   UNL A   1      32.189  27.020  26.807  1.00  0.00     0.116 C 
BRANCH   3   4
ATOM      4  N   UNL A   1      31.267  25.910  26.888  1.00  0.00    -0.356 N 
ATOM      5  C   UNL A   1      30.895  25.029  25.913  1.00  0.00     0.227 C 
ATOM      6  O   UNL A   1      30.171  24.083  26.240  1.00  0.00    -0.274 OA
ATOM      7  H   UNL A   1      30.849  25.768  27.770  1.00  0.00     0.163 HD
BRANCH   5   8
ATOM      8  C   UNL A   1      31.345  25.207  24.450  1.00  0.00     0.105 C 
ATOM      9  C   UNL A   1      30.977  23.978  23.609  1.00  0.00     0.023 C 
BRANCH   8  10
ATOM     10  C   UNL A   1      30.990  26.597  23.928  1.00  0.00    -0.035 A 
ATOM     11  C   UNL A   1      28.365  30.342  21.716  1.00  0.00     0.119 A 
ATOM     12  C   UNL A   1      27.425  29.591  22.417  1.00  0.00     0.047 A 
ATOM     13  C   UNL A   1      29.716  30.008  21.773  1.00  0.00     0.055 A 
ATOM     14  C   UNL A   1      27.841  28.485  23.164  1.00  0.00     0.012 A 
ATOM     15  C   UNL A   1      30.147  28.923  22.547  1.00  0.00    -0.015 A 
ATOM     16  C   UNL A   1      29.198  28.125  23.219  1.00  0.00    -0.018 A 
ATOM     17  C   UNL A   1      31.506  28.606  22.655  1.00  0.00     0.009 A 
ATOM     18  C   UNL A   1      29.631  26.968  23.889  1.00  0.00     0.013 A 
ATOM     19  C   UNL A   1      31.922  27.478  23.366  1.00  0.00     0.005 A 
BRANCH  11  20
ATOM     20  O   UNL A   1      28.015  31.369  20.884  1.00  0.00    -0.497 OA
ATOM     21  C   UNL A   1      28.113  32.636  21.529  1.00  0.00     0.278 C 
ENDBRANCH  11  20
ENDBRANCH   8  10
ENDBRANCH   5   8
ENDBRANCH   3   4
ENDBRANCH   2   3
ENDBRANCH   1   2
BRANCH   1  22
ATOM     22  C   UNL A   1      31.422  30.484  25.877  1.00  0.00     0.002 C 
BRANCH  22  23
ATOM     23  C   UNL A   1      31.341  31.957  26.284  1.00  0.00     0.021 C 
BRANCH  23  24
ATOM     24  C   UNL A   1      32.463  32.444  27.195  1.00  0.00     0.116 C 
BRANCH  24  25
ATOM     25  N   UNL A   1      32.343  33.857  27.517  1.00  0.00    -0.352 N 
ATOM     26  C   UNL A   1      33.039  34.608  28.429  1.00  0.00     0.251 C 
ATOM     27  H   UNL A   1      31.663  34.348  27.002  1.00  0.00     0.163 HD
ATOM     28  O   UNL A   1      32.678  35.756  28.685  1.00  0.00    -0.269 OA
BRANCH  26  29
ATOM     29  C   UNL A   1      34.208  34.036  29.127  1.00  0.00     0.039 A 
ATOM     30  C   UNL A   1      33.993  33.146  30.181  1.00  0.00     0.014 A 
ATOM     31  C   UNL A   1      35.512  34.381  28.754  1.00  0.00     0.014 A 
ATOM     32  C   UNL A   1      35.083  32.549  30.819  1.00  0.00     0.010 A 
ATOM     33  C   UNL A   1      36.594  33.733  29.343  1.00  0.00     0.010 A 
ATOM     34  C   UNL A   1      36.392  32.807  30.378  1.00  0.00    -0.014 A 
BRANCH  34  35
ATOM     35  C   UNL A   1      37.558  32.109  30.978  1.00  0.00     0.031 A 
ATOM     36  C   UNL A   1      38.081  32.525  32.325  1.00  0.00     0.074 A 
ATOM     37  C   UNL A   1      38.183  31.141  30.280  1.00  0.00     0.049 A 
ATOM     38  N   UNL A   1      39.138  32.100  32.970  1.00  0.00    -0.248 NA
ATOM     39  C   UNL A   1      37.328  33.573  33.032  1.00  0.00     0.031 C 
ATOM     40  C   UNL A   1      37.794  30.672  28.949  1.00  0.00     0.029 A 
ATOM     41  N   UNL A   1      39.289  30.386  30.585  1.00  0.00    -0.354 N 
ATOM     42  C   UNL A   1      39.179  32.829  34.150  1.00  0.00     0.074 A 
ATOM     43  C   UNL A   1      38.075  33.763  34.110  1.00  0.00     0.031 C 
ATOM     44  C   UNL A   1      38.637  29.704  28.558  1.00  0.00     0.029 A 
ATOM     45  C   UNL A   1      39.653  29.515  29.586  1.00  0.00     0.049 A 
ATOM     46  H   UNL A   1      39.776  30.463  31.438  1.00  0.00     0.167 HD
ATOM     47  C   UNL A   1      40.046  32.713  35.185  1.00  0.00     0.037 A 
ATOM     48  C   UNL A   1      40.702  28.673  29.502  1.00  0.00     0.037 A 
ATOM     49  C   UNL A   1      41.138  31.775  35.227  1.00  0.00     0.049 A 
ATOM     50  C   UNL A   1      41.671  28.592  30.652  1.00  0.00     0.074 A 
ATOM     51  C   UNL A   1      42.048  31.555  36.247  1.00  0.00     0.029 A 
ATOM     52  N   UNL A   1      41.468  30.901  34.202  1.00  0.00    -0.354 N 
ATOM     53  N   UNL A   1      41.666  29.246  31.788  1.00  0.00    -0.248 NA
ATOM     54  C   UNL A   1      42.791  27.651  30.510  1.00  0.00     0.031 C 
ATOM     55  C   UNL A   1      42.962  30.587  35.818  1.00  0.00     0.029 A 
ATOM     56  C   UNL A   1      42.584  30.158  34.555  1.00  0.00     0.049 A 
ATOM     57  H   UNL A   1      40.983  30.820  33.349  1.00  0.00     0.167 HD
ATOM     58  C   UNL A   1      42.757  28.774  32.506  1.00  0.00     0.074 A 
ATOM     59  C   UNL A   1      43.390  27.764  31.686  1.00  0.00     0.031 C 
ATOM     60  C   UNL A   1      43.197  29.147  33.733  1.00  0.00     0.037 A 
BRANCH  47  61
ATOM     61  C   UNL A   1      39.850  33.618  36.368  1.00  0.00     0.064 A 
ATOM     62  C   UNL A   1      40.498  34.858  36.460  1.00  0.00     0.173 A 
ATOM     63  C   UNL A   1      38.956  33.269  37.392  1.00  0.00     0.173 A 
ATOM     64  F   UNL A   1      41.371  35.235  35.513  1.00  0.00    -0.203 F 
ATOM     65  C   UNL A   1      40.275  35.706  37.541  1.00  0.00     0.198 A 
ATOM     66  C   UNL A   1      38.712  34.134  38.457  1.00  0.00     0.198 A 
ATOM     67  F   UNL A   1      38.304  32.097  37.353  1.00  0.00    -0.203 F 
ATOM     68  F   UNL A   1      40.937  36.869  37.627  1.00  0.00    -0.200 F 
ATOM     69  C   UNL A   1      39.375  35.348  38.533  1.00  0.00     0.200 A 
ATOM     70  F   UNL A   1      37.828  33.793  39.406  1.00  0.00    -0.200 F 
ATOM     71  F   UNL A   1      39.149  36.172  39.565  1.00  0.00    -0.200 F 
ENDBRANCH  47  61
BRANCH  48  72
ATOM     72  C   UNL A   1      40.900  27.840  28.285  1.00  0.00     0.064 A 
ATOM     73  C   UNL A   1      40.348  26.555  28.191  1.00  0.00     0.173 A 
ATOM     74  C   UNL A   1      41.675  28.297  27.208  1.00  0.00     0.173 A 
ATOM     75  F   UNL A   1      39.618  26.064  29.202  1.00  0.00    -0.203 F 
ATOM     76  C   UNL A   1      40.595  25.744  27.083  1.00  0.00     0.198 A 
ATOM     77  C   UNL A   1      41.890  27.499  26.086  1.00  0.00     0.198 A 
ATOM     78  F   UNL A   1      42.222  29.521  27.244  1.00  0.00    -0.203 F 
ATOM     79  F   UNL A   1      40.111  24.496  27.051  1.00  0.00    -0.200 F 
ATOM     80  C   UNL A   1      41.362  26.218  26.030  1.00  0.00     0.200 A 
ATOM     81  F   UNL A   1      42.618  27.968  25.063  1.00  0.00    -0.200 F 
ATOM     82  F   UNL A   1      41.602  25.438  24.969  1.00  0.00    -0.200 F 
ENDBRANCH  48  72
BRANCH  60  83
ATOM     83  C   UNL A   1      44.398  28.428  34.282  1.00  0.00     0.064 A 
ATOM     84  C   UNL A   1      44.276  27.234  35.007  1.00  0.00     0.173 A 
ATOM     85  C   UNL A   1      45.690  28.926  34.050  1.00  0.00     0.173 A 
ATOM     86  F   UNL A   1      43.064  26.724  35.269  1.00  0.00    -0.203 F 
ATOM     87  C   UNL A   1      45.401  26.582  35.505  1.00  0.00     0.198 A 
ATOM     88  C   UNL A   1      46.813  28.253  34.519  1.00  0.00     0.198 A 
ATOM     89  F   UNL A   1      45.863  30.061  33.355  1.00  0.00    -0.203 F 
ATOM     90  F   UNL A   1      45.258  25.472  36.244  1.00  0.00    -0.200 F 
ATOM     91  C   UNL A   1      46.668  27.087  35.254  1.00  0.00     0.200 A 
ATOM     92  F   UNL A   1      48.038  28.733  34.260  1.00  0.00    -0.200 F 
ATOM     93  F   UNL A   1      47.749  26.453  35.729  1.00  0.00    -0.200 F 
ENDBRANCH  60  83
ENDBRANCH  34  35
ENDBRANCH  26  29
ENDBRANCH  24  25
ENDBRANCH  23  24
ENDBRANCH  22  23
ENDBRANCH   1  22
TORSDOF 15
ENDMDL
