MODEL 1
REMARK VINA RESULT:     -13.1      0.000      0.000
REMARK SMILES COc1ccc2c(c1)c(CC(=O)NCCCCCCNC(=O)c1ccc(-c3c4nc(c(-c5c(F)c(F)c(F)c(F)c5F)c5ccc([nH]5)c(-c5c(F)c(F)c(F)c(F)c5F)c5nc(c(-c6c(F)c(F)c(F)c(F)c6F)c6ccc3[nH]6)C=C5)C=C4)cc1)c(C(F)(F)F)n2C(=O)c1ccc(Cl)cc1
REMARK SMILES IDX 16 1 15 2 14 3 13 4 11 5 12 6 10 8 9 9 3 10 4 11 8 12 5 13
REMARK SMILES IDX 7 14 6 15 91 16 86 17 2 18 1 19 92 20 93 21 94 22 95 23
REMARK SMILES IDX 100 24 96 25 99 26 97 27 98 28 87 29 88 30 89 31 90 32 17 33
REMARK SMILES IDX 18 34 19 35 20 36 21 37 22 39 23 40 24 41 85 42 25 43 84 44
REMARK SMILES IDX 26 45 27 46 28 47 78 48 29 49 83 50 77 51 79 52 30 53 82 54
REMARK SMILES IDX 76 55 75 56 31 58 63 59 43 60 62 61 44 62 47 63 61 64 80 65
REMARK SMILES IDX 45 66 46 67 60 69 81 70 48 71 32 72 33 73 41 74 34 75 35 76
REMARK SMILES IDX 39 77 42 78 36 79 37 80 40 81 38 82 64 83 65 84 73 85 66 86
REMARK SMILES IDX 67 87 71 88 74 89 68 90 69 91 72 92 70 93 49 94 50 95 58 96
REMARK SMILES IDX 51 97 52 98 56 99 59 100 53 101 54 102 57 103 55 104
REMARK H PARENT 13 7 20 38 79 57 47 68
REMARK Flexibility Score: inf
ROOT
ATOM      1  C   UNL A   1      31.083  27.418  26.183  1.00  0.00     0.002 C 
ENDROOT
BRANCH   1   2
ATOM      2  C   UNL A   1      30.404  26.925  24.901  1.00  0.00     0.021 C 
BRANCH   2   3
ATOM      3  C   UNL A   1      29.469  25.738  25.127  1.00  0.00     0.116 C 
BRANCH   3   4
ATOM      4  N   UNL A   1      29.957  24.878  26.187  1.00  0.00    -0.356 N 
ATOM      5  C   UNL A   1      30.707  23.741  26.088  1.00  0.00     0.224 C 
ATOM      6  O   UNL A   1      30.994  23.133  27.120  1.00  0.00    -0.275 OA
ATOM      7  H   UNL A   1      29.716  25.150  27.102  1.00  0.00     0.163 HD
BRANCH   5   8
ATOM      8  C   UNL A   1      31.217  23.283  24.728  1.00  0.00     0.138 C 
BRANCH   8   9
ATOM      9  C   UNL A   1      32.620  22.736  24.759  1.00  0.00     0.000 A 
ATOM     10  C   UNL A   1      32.869  18.931  24.724  1.00  0.00     0.119 A 
ATOM     11  C   UNL A   1      34.247  18.866  24.834  1.00  0.00     0.048 A 
ATOM     12  C   UNL A   1      32.230  20.168  24.661  1.00  0.00     0.057 A 
ATOM     13  C   UNL A   1      35.012  20.033  24.908  1.00  0.00     0.031 A 
ATOM     14  C   UNL A   1      32.983  21.361  24.728  1.00  0.00     0.008 A 
ATOM     15  C   UNL A   1      34.377  21.287  24.814  1.00  0.00     0.057 A 
ATOM     16  N   UNL A   1      34.875  22.596  24.712  1.00  0.00    -0.271 N 
ATOM     17  C   UNL A   1      33.800  23.463  24.904  1.00  0.00     0.135 A 
BRANCH  10  18
ATOM     18  O   UNL A   1      32.064  17.828  24.634  1.00  0.00    -0.497 OA
ATOM     19  C   UNL A   1      32.761  16.601  24.841  1.00  0.00     0.278 C 
ENDBRANCH  10  18
BRANCH  16  20
ATOM     20  C   UNL A   1      36.211  22.975  24.403  1.00  0.00     0.262 C 
ATOM     21  O   UNL A   1      36.456  23.343  23.254  1.00  0.00    -0.268 OA
BRANCH  20  22
ATOM     22  C   UNL A   1      37.350  22.900  25.332  1.00  0.00     0.040 A 
ATOM     23  C   UNL A   1      37.691  24.009  26.116  1.00  0.00     0.015 A 
ATOM     24  C   UNL A   1      38.118  21.731  25.369  1.00  0.00     0.015 A 
ATOM     25  C   UNL A   1      38.861  23.973  26.878  1.00  0.00     0.021 A 
ATOM     26  C   UNL A   1      39.280  21.698  26.145  1.00  0.00     0.021 A 
ATOM     27  C   UNL A   1      39.657  22.826  26.878  1.00  0.00     0.041 A 
ATOM     28  Cl  UNL A   1      41.129  22.810  27.767  1.00  0.00    -0.084 Cl
ENDBRANCH  20  22
ENDBRANCH  16  20
BRANCH  17  29
ATOM     29  C   UNL A   1      33.967  24.923  25.169  1.00  0.00     0.432 C 
ATOM     30  F   UNL A   1      33.359  25.681  24.224  1.00  0.00    -0.165 F 
ATOM     31  F   UNL A   1      33.378  25.255  26.353  1.00  0.00    -0.165 F 
ATOM     32  F   UNL A   1      35.252  25.326  25.289  1.00  0.00    -0.165 F 
ENDBRANCH  17  29
ENDBRANCH   8   9
ENDBRANCH   5   8
ENDBRANCH   3   4
ENDBRANCH   2   3
ENDBRANCH   1   2
BRANCH   1  33
ATOM     33  C   UNL A   1      31.880  28.719  26.030  1.00  0.00     0.002 C 
BRANCH  33  34
ATOM     34  C   UNL A   1      33.140  28.817  26.898  1.00  0.00     0.021 C 
BRANCH  34  35
ATOM     35  C   UNL A   1      34.052  29.995  26.549  1.00  0.00     0.116 C 
BRANCH  35  36
ATOM     36  N   UNL A   1      33.971  31.093  27.492  1.00  0.00    -0.352 N 
ATOM     37  C   UNL A   1      34.830  31.661  28.388  1.00  0.00     0.251 C 
ATOM     38  H   UNL A   1      33.089  31.531  27.484  1.00  0.00     0.163 HD
ATOM     39  O   UNL A   1      34.435  32.688  28.946  1.00  0.00    -0.269 OA
BRANCH  37  40
ATOM     40  C   UNL A   1      36.146  31.096  28.790  1.00  0.00     0.039 A 
ATOM     41  C   UNL A   1      37.263  31.835  29.171  1.00  0.00     0.014 A 
ATOM     42  C   UNL A   1      36.268  29.696  28.685  1.00  0.00     0.014 A 
ATOM     43  C   UNL A   1      38.500  31.215  29.298  1.00  0.00     0.010 A 
ATOM     44  C   UNL A   1      37.496  29.065  28.844  1.00  0.00     0.010 A 
ATOM     45  C   UNL A   1      38.623  29.839  29.084  1.00  0.00    -0.014 A 
BRANCH  45  46
ATOM     46  C   UNL A   1      39.948  29.249  29.238  1.00  0.00     0.031 A 
ATOM     47  C   UNL A   1      40.270  28.866  30.640  1.00  0.00     0.074 A 
ATOM     48  C   UNL A   1      40.790  29.022  28.207  1.00  0.00     0.049 A 
ATOM     49  N   UNL A   1      41.190  29.359  31.403  1.00  0.00    -0.248 NA
ATOM     50  C   UNL A   1      39.364  27.931  31.326  1.00  0.00     0.031 C 
ATOM     51  C   UNL A   1      40.505  29.122  26.774  1.00  0.00     0.029 A 
ATOM     52  N   UNL A   1      42.080  28.573  28.229  1.00  0.00    -0.354 N 
ATOM     53  C   UNL A   1      41.092  28.675  32.614  1.00  0.00     0.074 A 
ATOM     54  C   UNL A   1      39.874  27.913  32.558  1.00  0.00     0.031 C 
ATOM     55  C   UNL A   1      41.499  28.528  26.073  1.00  0.00     0.029 A 
ATOM     56  C   UNL A   1      42.554  28.145  26.993  1.00  0.00     0.049 A 
ATOM     57  H   UNL A   1      42.626  28.553  29.048  1.00  0.00     0.167 HD
ATOM     58  C   UNL A   1      42.152  28.608  33.465  1.00  0.00     0.037 A 
ATOM     59  C   UNL A   1      43.715  27.482  26.764  1.00  0.00     0.037 A 
ATOM     60  C   UNL A   1      43.121  29.626  33.162  1.00  0.00     0.049 A 
ATOM     61  C   UNL A   1      44.613  27.771  27.905  1.00  0.00     0.074 A 
ATOM     62  C   UNL A   1      43.215  30.991  33.317  1.00  0.00     0.029 A 
ATOM     63  N   UNL A   1      44.056  29.255  32.235  1.00  0.00    -0.354 N 
ATOM     64  N   UNL A   1      45.120  28.946  28.151  1.00  0.00    -0.248 NA
ATOM     65  C   UNL A   1      44.692  26.812  28.999  1.00  0.00     0.031 C 
ATOM     66  C   UNL A   1      44.045  31.444  32.248  1.00  0.00     0.029 A 
ATOM     67  C   UNL A   1      44.464  30.338  31.508  1.00  0.00     0.049 A 
ATOM     68  H   UNL A   1      44.389  28.337  32.110  1.00  0.00     0.167 HD
ATOM     69  C   UNL A   1      45.182  29.010  29.530  1.00  0.00     0.074 A 
ATOM     70  C   UNL A   1      45.079  27.628  29.981  1.00  0.00     0.031 C 
ATOM     71  C   UNL A   1      44.999  30.199  30.173  1.00  0.00     0.037 A 
BRANCH  58  72
ATOM     72  C   UNL A   1      42.541  27.358  34.229  1.00  0.00     0.064 A 
ATOM     73  C   UNL A   1      42.414  27.339  35.634  1.00  0.00     0.173 A 
ATOM     74  C   UNL A   1      43.327  26.323  33.679  1.00  0.00     0.173 A 
ATOM     75  F   UNL A   1      41.724  28.298  36.272  1.00  0.00    -0.203 F 
ATOM     76  C   UNL A   1      43.069  26.387  36.424  1.00  0.00     0.198 A 
ATOM     77  C   UNL A   1      43.938  25.347  34.467  1.00  0.00     0.198 A 
ATOM     78  F   UNL A   1      43.638  26.279  32.379  1.00  0.00    -0.203 F 
ATOM     79  F   UNL A   1      43.012  26.477  37.760  1.00  0.00    -0.200 F 
ATOM     80  C   UNL A   1      43.831  25.393  35.839  1.00  0.00     0.200 A 
ATOM     81  F   UNL A   1      44.699  24.412  33.881  1.00  0.00    -0.200 F 
ATOM     82  F   UNL A   1      44.503  24.515  36.594  1.00  0.00    -0.200 F 
ENDBRANCH  58  72
BRANCH  59  83
ATOM     83  C   UNL A   1      43.976  26.345  25.842  1.00  0.00     0.064 A 
ATOM     84  C   UNL A   1      45.281  26.088  25.380  1.00  0.00     0.173 A 
ATOM     85  C   UNL A   1      43.041  25.307  25.675  1.00  0.00     0.173 A 
ATOM     86  F   UNL A   1      46.242  27.014  25.521  1.00  0.00    -0.203 F 
ATOM     87  C   UNL A   1      45.645  24.844  24.855  1.00  0.00     0.198 A 
ATOM     88  C   UNL A   1      43.404  24.067  25.144  1.00  0.00     0.198 A 
ATOM     89  F   UNL A   1      41.785  25.434  26.122  1.00  0.00    -0.203 F 
ATOM     90  F   UNL A   1      46.920  24.608  24.514  1.00  0.00    -0.200 F 
ATOM     91  C   UNL A   1      44.710  23.828  24.757  1.00  0.00     0.200 A 
ATOM     92  F   UNL A   1      42.499  23.081  25.084  1.00  0.00    -0.200 F 
ATOM     93  F   UNL A   1      45.075  22.608  24.336  1.00  0.00    -0.200 F 
ENDBRANCH  59  83
BRANCH  71  94
ATOM     94  C   UNL A   1      45.198  31.451  29.373  1.00  0.00     0.064 A 
ATOM     95  C   UNL A   1      44.186  32.111  28.656  1.00  0.00     0.173 A 
ATOM     96  C   UNL A   1      46.460  32.059  29.425  1.00  0.00     0.173 A 
ATOM     97  F   UNL A   1      42.937  31.631  28.625  1.00  0.00    -0.203 F 
ATOM     98  C   UNL A   1      44.442  33.313  27.997  1.00  0.00     0.198 A 
ATOM     99  C   UNL A   1      46.700  33.277  28.799  1.00  0.00     0.198 A 
ATOM    100  F   UNL A   1      47.451  31.490  30.130  1.00  0.00    -0.203 F 
ATOM    101  F   UNL A   1      43.466  33.922  27.308  1.00  0.00    -0.200 F 
ATOM    102  C   UNL A   1      45.695  33.899  28.078  1.00  0.00     0.200 A 
ATOM    103  F   UNL A   1      47.901  33.860  28.919  1.00  0.00    -0.200 F 
ATOM    104  F   UNL A   1      45.928  35.078  27.483  1.00  0.00    -0.200 F 
ENDBRANCH  71  94
ENDBRANCH  45  46
ENDBRANCH  37  40
ENDBRANCH  35  36
ENDBRANCH  34  35
ENDBRANCH  33  34
ENDBRANCH   1  33
TORSDOF 18
ENDMDL
MODEL 2
REMARK VINA RESULT:     -12.9      1.942      3.476
REMARK SMILES COc1ccc2c(c1)c(CC(=O)NCCCCCCNC(=O)c1ccc(-c3c4nc(c(-c5c(F)c(F)c(F)c(F)c5F)c5ccc([nH]5)c(-c5c(F)c(F)c(F)c(F)c5F)c5nc(c(-c6c(F)c(F)c(F)c(F)c6F)c6ccc3[nH]6)C=C5)C=C4)cc1)c(C(F)(F)F)n2C(=O)c1ccc(Cl)cc1
REMARK SMILES IDX 16 1 15 2 14 3 13 4 11 5 12 6 10 8 9 9 3 10 4 11 8 12 5 13
REMARK SMILES IDX 7 14 6 15 91 16 86 17 2 18 1 19 92 20 93 21 94 22 95 23
REMARK SMILES IDX 100 24 96 25 99 26 97 27 98 28 87 29 88 30 89 31 90 32 17 33
REMARK SMILES IDX 18 34 19 35 20 36 21 37 22 39 23 40 24 41 85 42 25 43 84 44
REMARK SMILES IDX 26 45 27 46 28 47 78 48 29 49 83 50 77 51 79 52 30 53 82 54
REMARK SMILES IDX 76 55 75 56 31 58 63 59 43 60 62 61 44 62 47 63 61 64 80 65
REMARK SMILES IDX 45 66 46 67 60 69 81 70 48 71 32 72 33 73 41 74 34 75 35 76
REMARK SMILES IDX 39 77 42 78 36 79 37 80 40 81 38 82 64 83 65 84 73 85 66 86
REMARK SMILES IDX 67 87 71 88 74 89 68 90 69 91 72 92 70 93 49 94 50 95 58 96
REMARK SMILES IDX 51 97 52 98 56 99 59 100 53 101 54 102 57 103 55 104
REMARK H PARENT 13 7 20 38 79 57 47 68
REMARK Flexibility Score: inf
ROOT
ATOM      1  C   UNL A   1      32.277  28.735  25.102  1.00  0.00     0.002 C 
ENDROOT
BRANCH   1   2
ATOM      2  C   UNL A   1      32.026  28.811  23.592  1.00  0.00     0.021 C 
BRANCH   2   3
ATOM      3  C   UNL A   1      33.231  28.390  22.753  1.00  0.00     0.116 C 
BRANCH   3   4
ATOM      4  N   UNL A   1      32.984  27.138  22.068  1.00  0.00    -0.356 N 
ATOM      5  C   UNL A   1      33.474  25.896  22.354  1.00  0.00     0.224 C 
ATOM      6  O   UNL A   1      33.163  24.957  21.620  1.00  0.00    -0.275 OA
ATOM      7  H   UNL A   1      32.382  27.189  21.290  1.00  0.00     0.163 HD
BRANCH   5   8
ATOM      8  C   UNL A   1      34.338  25.685  23.590  1.00  0.00     0.138 C 
BRANCH   8   9
ATOM      9  C   UNL A   1      33.777  24.676  24.556  1.00  0.00     0.000 A 
ATOM     10  C   UNL A   1      30.137  25.243  25.547  1.00  0.00     0.119 A 
ATOM     11  C   UNL A   1      30.059  24.196  26.450  1.00  0.00     0.048 A 
ATOM     12  C   UNL A   1      31.318  25.471  24.842  1.00  0.00     0.057 A 
ATOM     13  C   UNL A   1      31.163  23.373  26.684  1.00  0.00     0.031 A 
ATOM     14  C   UNL A   1      32.446  24.648  25.059  1.00  0.00     0.008 A 
ATOM     15  C   UNL A   1      32.351  23.578  25.954  1.00  0.00     0.057 A 
ATOM     16  N   UNL A   1      33.546  22.846  25.863  1.00  0.00    -0.271 N 
ATOM     17  C   UNL A   1      34.468  23.645  25.189  1.00  0.00     0.135 A 
BRANCH  10  18
ATOM     18  O   UNL A   1      29.090  26.076  25.262  1.00  0.00    -0.497 OA
ATOM     19  C   UNL A   1      29.066  26.512  23.905  1.00  0.00     0.278 C 
ENDBRANCH  10  18
BRANCH  16  20
ATOM     20  C   UNL A   1      33.762  21.514  26.312  1.00  0.00     0.262 C 
ATOM     21  O   UNL A   1      33.991  21.336  27.508  1.00  0.00    -0.268 OA
BRANCH  20  22
ATOM     22  C   UNL A   1      33.800  20.323  25.446  1.00  0.00     0.040 A 
ATOM     23  C   UNL A   1      32.608  19.716  25.035  1.00  0.00     0.015 A 
ATOM     24  C   UNL A   1      35.041  19.778  25.099  1.00  0.00     0.015 A 
ATOM     25  C   UNL A   1      32.662  18.504  24.341  1.00  0.00     0.021 A 
ATOM     26  C   UNL A   1      35.087  18.573  24.393  1.00  0.00     0.021 A 
ATOM     27  C   UNL A   1      33.898  17.932  24.037  1.00  0.00     0.041 A 
ATOM     28  Cl  UNL A   1      33.958  16.408  23.240  1.00  0.00    -0.084 Cl
ENDBRANCH  20  22
ENDBRANCH  16  20
BRANCH  17  29
ATOM     29  C   UNL A   1      35.932  23.350  25.158  1.00  0.00     0.432 C 
ATOM     30  F   UNL A   1      36.308  22.779  23.988  1.00  0.00    -0.165 F 
ATOM     31  F   UNL A   1      36.645  24.508  25.256  1.00  0.00    -0.165 F 
ATOM     32  F   UNL A   1      36.370  22.579  26.179  1.00  0.00    -0.165 F 
ENDBRANCH  17  29
ENDBRANCH   8   9
ENDBRANCH   5   8
ENDBRANCH   3   4
ENDBRANCH   2   3
ENDBRANCH   1   2
BRANCH   1  33
ATOM     33  C   UNL A   1      32.177  30.076  25.839  1.00  0.00     0.002 C 
BRANCH  33  34
ATOM     34  C   UNL A   1      32.941  30.148  27.167  1.00  0.00     0.021 C 
BRANCH  34  35
ATOM     35  C   UNL A   1      33.880  31.350  27.286  1.00  0.00     0.116 C 
BRANCH  35  36
ATOM     36  N   UNL A   1      34.088  31.792  28.651  1.00  0.00    -0.352 N 
ATOM     37  C   UNL A   1      35.140  31.773  29.521  1.00  0.00     0.251 C 
ATOM     38  H   UNL A   1      33.283  32.200  29.042  1.00  0.00     0.163 HD
ATOM     39  O   UNL A   1      34.974  32.367  30.590  1.00  0.00    -0.269 OA
BRANCH  37  40
ATOM     40  C   UNL A   1      36.413  31.033  29.311  1.00  0.00     0.039 A 
ATOM     41  C   UNL A   1      36.525  29.667  29.058  1.00  0.00     0.014 A 
ATOM     42  C   UNL A   1      37.593  31.786  29.470  1.00  0.00     0.014 A 
ATOM     43  C   UNL A   1      37.766  29.047  29.111  1.00  0.00     0.010 A 
ATOM     44  C   UNL A   1      38.841  31.177  29.492  1.00  0.00     0.010 A 
ATOM     45  C   UNL A   1      38.917  29.796  29.379  1.00  0.00    -0.014 A 
BRANCH  45  46
ATOM     46  C   UNL A   1      40.189  29.084  29.417  1.00  0.00     0.031 A 
ATOM     47  C   UNL A   1      40.719  28.886  30.794  1.00  0.00     0.074 A 
ATOM     48  C   UNL A   1      40.810  28.602  28.319  1.00  0.00     0.049 A 
ATOM     49  N   UNL A   1      41.801  29.378  31.303  1.00  0.00    -0.248 NA
ATOM     50  C   UNL A   1      39.868  28.183  31.768  1.00  0.00     0.031 C 
ATOM     51  C   UNL A   1      40.284  28.512  26.955  1.00  0.00     0.029 A 
ATOM     52  N   UNL A   1      42.036  28.010  28.211  1.00  0.00    -0.354 N 
ATOM     53  C   UNL A   1      41.858  28.905  32.613  1.00  0.00     0.074 A 
ATOM     54  C   UNL A   1      40.586  28.295  32.886  1.00  0.00     0.031 C 
ATOM     55  C   UNL A   1      41.079  27.703  26.217  1.00  0.00     0.029 A 
ATOM     56  C   UNL A   1      42.242  27.343  27.007  1.00  0.00     0.049 A 
ATOM     57  H   UNL A   1      42.716  28.053  28.922  1.00  0.00     0.167 HD
ATOM     58  C   UNL A   1      43.043  28.845  33.282  1.00  0.00     0.037 A 
ATOM     59  C   UNL A   1      43.279  26.519  26.713  1.00  0.00     0.037 A 
ATOM     60  C   UNL A   1      44.030  29.682  32.656  1.00  0.00     0.049 A 
ATOM     61  C   UNL A   1      44.388  26.873  27.628  1.00  0.00     0.074 A 
ATOM     62  C   UNL A   1      44.274  31.033  32.556  1.00  0.00     0.029 A 
ATOM     63  N   UNL A   1      44.749  29.063  31.669  1.00  0.00    -0.354 N 
ATOM     64  N   UNL A   1      45.036  28.002  27.583  1.00  0.00    -0.248 NA
ATOM     65  C   UNL A   1      44.573  26.091  28.843  1.00  0.00     0.031 C 
ATOM     66  C   UNL A   1      44.939  31.214  31.305  1.00  0.00     0.029 A 
ATOM     67  C   UNL A   1      45.117  29.965  30.710  1.00  0.00     0.049 A 
ATOM     68  H   UNL A   1      44.969  28.104  31.653  1.00  0.00     0.167 HD
ATOM     69  C   UNL A   1      45.347  28.271  28.901  1.00  0.00     0.074 A 
ATOM     70  C   UNL A   1      45.202  26.998  29.594  1.00  0.00     0.031 C 
ATOM     71  C   UNL A   1      45.390  29.558  29.350  1.00  0.00     0.037 A 
BRANCH  58  72
ATOM     72  C   UNL A   1      43.446  27.692  34.178  1.00  0.00     0.064 A 
ATOM     73  C   UNL A   1      43.611  26.407  33.619  1.00  0.00     0.173 A 
ATOM     74  C   UNL A   1      43.355  27.731  35.586  1.00  0.00     0.173 A 
ATOM     75  F   UNL A   1      43.669  26.242  32.288  1.00  0.00    -0.203 F 
ATOM     76  C   UNL A   1      43.628  25.252  34.410  1.00  0.00     0.198 A 
ATOM     77  C   UNL A   1      43.421  26.582  36.373  1.00  0.00     0.198 A 
ATOM     78  F   UNL A   1      43.077  28.858  36.250  1.00  0.00    -0.203 F 
ATOM     79  F   UNL A   1      43.671  24.046  33.827  1.00  0.00    -0.200 F 
ATOM     80  C   UNL A   1      43.532  25.341  35.786  1.00  0.00     0.200 A 
ATOM     81  F   UNL A   1      43.294  26.689  37.703  1.00  0.00    -0.200 F 
ATOM     82  F   UNL A   1      43.493  24.236  36.540  1.00  0.00    -0.200 F 
ENDBRANCH  58  72
BRANCH  59  83
ATOM     83  C   UNL A   1      43.267  25.231  25.971  1.00  0.00     0.064 A 
ATOM     84  C   UNL A   1      44.317  24.907  25.090  1.00  0.00     0.173 A 
ATOM     85  C   UNL A   1      42.431  24.168  26.361  1.00  0.00     0.173 A 
ATOM     86  F   UNL A   1      45.176  25.854  24.686  1.00  0.00    -0.203 F 
ATOM     87  C   UNL A   1      44.559  23.589  24.686  1.00  0.00     0.198 A 
ATOM     88  C   UNL A   1      42.670  22.854  25.951  1.00  0.00     0.198 A 
ATOM     89  F   UNL A   1      41.432  24.363  27.231  1.00  0.00    -0.203 F 
ATOM     90  F   UNL A   1      45.625  23.308  23.922  1.00  0.00    -0.200 F 
ATOM     91  C   UNL A   1      43.747  22.562  25.134  1.00  0.00     0.200 A 
ATOM     92  F   UNL A   1      41.897  21.864  26.417  1.00  0.00    -0.200 F 
ATOM     93  F   UNL A   1      44.028  21.289  24.821  1.00  0.00    -0.200 F 
ENDBRANCH  59  83
BRANCH  71  94
ATOM     94  C   UNL A   1      45.558  30.638  28.325  1.00  0.00     0.064 A 
ATOM     95  C   UNL A   1      44.499  31.278  27.658  1.00  0.00     0.173 A 
ATOM     96  C   UNL A   1      46.855  31.112  28.088  1.00  0.00     0.173 A 
ATOM     97  F   UNL A   1      43.227  30.932  27.892  1.00  0.00    -0.203 F 
ATOM     98  C   UNL A   1      44.740  32.326  26.770  1.00  0.00     0.198 A 
ATOM     99  C   UNL A   1      47.087  32.183  27.232  1.00  0.00     0.198 A 
ATOM    100  F   UNL A   1      47.898  30.562  28.730  1.00  0.00    -0.203 F 
ATOM    101  F   UNL A   1      43.717  32.916  26.135  1.00  0.00    -0.200 F 
ATOM    102  C   UNL A   1      46.031  32.783  26.567  1.00  0.00     0.200 A 
ATOM    103  F   UNL A   1      48.334  32.649  27.073  1.00  0.00    -0.200 F 
ATOM    104  F   UNL A   1      46.258  33.821  25.748  1.00  0.00    -0.200 F 
ENDBRANCH  71  94
ENDBRANCH  45  46
ENDBRANCH  37  40
ENDBRANCH  35  36
ENDBRANCH  34  35
ENDBRANCH  33  34
ENDBRANCH   1  33
TORSDOF 18
ENDMDL
MODEL 3
REMARK VINA RESULT:     -12.8      2.213      3.446
REMARK SMILES COc1ccc2c(c1)c(CC(=O)NCCCCCCNC(=O)c1ccc(-c3c4nc(c(-c5c(F)c(F)c(F)c(F)c5F)c5ccc([nH]5)c(-c5c(F)c(F)c(F)c(F)c5F)c5nc(c(-c6c(F)c(F)c(F)c(F)c6F)c6ccc3[nH]6)C=C5)C=C4)cc1)c(C(F)(F)F)n2C(=O)c1ccc(Cl)cc1
REMARK SMILES IDX 16 1 15 2 14 3 13 4 11 5 12 6 10 8 9 9 3 10 4 11 8 12 5 13
REMARK SMILES IDX 7 14 6 15 91 16 86 17 2 18 1 19 92 20 93 21 94 22 95 23
REMARK SMILES IDX 100 24 96 25 99 26 97 27 98 28 87 29 88 30 89 31 90 32 17 33
REMARK SMILES IDX 18 34 19 35 20 36 21 37 22 39 23 40 24 41 85 42 25 43 84 44
REMARK SMILES IDX 26 45 27 46 28 47 78 48 29 49 83 50 77 51 79 52 30 53 82 54
REMARK SMILES IDX 76 55 75 56 31 58 63 59 43 60 62 61 44 62 47 63 61 64 80 65
REMARK SMILES IDX 45 66 46 67 60 69 81 70 48 71 32 72 33 73 41 74 34 75 35 76
REMARK SMILES IDX 39 77 42 78 36 79 37 80 40 81 38 82 64 83 65 84 73 85 66 86
REMARK SMILES IDX 67 87 71 88 74 89 68 90 69 91 72 92 70 93 49 94 50 95 58 96
REMARK SMILES IDX 51 97 52 98 56 99 59 100 53 101 54 102 57 103 55 104
REMARK H PARENT 13 7 20 38 79 57 47 68
REMARK Flexibility Score: inf
ROOT
ATOM      1  C   UNL A   1      33.270  29.406  25.705  1.00  0.00     0.002 C 
ENDROOT
BRANCH   1   2
ATOM      2  C   UNL A   1      31.752  29.232  25.587  1.00  0.00     0.021 C 
BRANCH   2   3
ATOM      3  C   UNL A   1      31.342  28.047  24.714  1.00  0.00     0.116 C 
BRANCH   3   4
ATOM      4  N   UNL A   1      30.591  27.069  25.475  1.00  0.00    -0.356 N 
ATOM      5  C   UNL A   1      31.052  25.981  26.159  1.00  0.00     0.224 C 
ATOM      6  O   UNL A   1      30.236  25.249  26.721  1.00  0.00    -0.275 OA
ATOM      7  H   UNL A   1      29.616  27.207  25.503  1.00  0.00     0.163 HD
BRANCH   5   8
ATOM      8  C   UNL A   1      32.550  25.726  26.263  1.00  0.00     0.138 C 
BRANCH   8   9
ATOM      9  C   UNL A   1      33.022  24.545  25.457  1.00  0.00     0.000 A 
ATOM     10  C   UNL A   1      32.857  25.008  21.674  1.00  0.00     0.119 A 
ATOM     11  C   UNL A   1      33.285  23.732  21.345  1.00  0.00     0.048 A 
ATOM     12  C   UNL A   1      32.764  25.389  23.012  1.00  0.00     0.057 A 
ATOM     13  C   UNL A   1      33.603  22.808  22.343  1.00  0.00     0.031 A 
ATOM     14  C   UNL A   1      33.086  24.473  24.037  1.00  0.00     0.008 A 
ATOM     15  C   UNL A   1      33.540  23.195  23.696  1.00  0.00     0.057 A 
ATOM     16  N   UNL A   1      33.927  22.555  24.884  1.00  0.00    -0.271 N 
ATOM     17  C   UNL A   1      33.402  23.295  25.942  1.00  0.00     0.135 A 
BRANCH  10  18
ATOM     18  O   UNL A   1      32.543  25.963  20.747  1.00  0.00    -0.497 OA
ATOM     19  C   UNL A   1      32.439  25.452  19.420  1.00  0.00     0.278 C 
ENDBRANCH  10  18
BRANCH  16  20
ATOM     20  C   UNL A   1      34.758  21.406  24.998  1.00  0.00     0.262 C 
ATOM     21  O   UNL A   1      35.947  21.576  25.265  1.00  0.00    -0.268 OA
BRANCH  20  22
ATOM     22  C   UNL A   1      34.325  20.020  24.755  1.00  0.00     0.040 A 
ATOM     23  C   UNL A   1      32.962  19.708  24.710  1.00  0.00     0.015 A 
ATOM     24  C   UNL A   1      35.296  19.019  24.635  1.00  0.00     0.015 A 
ATOM     25  C   UNL A   1      32.569  18.369  24.629  1.00  0.00     0.021 A 
ATOM     26  C   UNL A   1      34.895  17.684  24.541  1.00  0.00     0.021 A 
ATOM     27  C   UNL A   1      33.536  17.364  24.560  1.00  0.00     0.041 A 
ATOM     28  Cl  UNL A   1      33.048  15.715  24.527  1.00  0.00    -0.084 Cl
ENDBRANCH  20  22
ENDBRANCH  16  20
BRANCH  17  29
ATOM     29  C   UNL A   1      33.336  22.783  27.343  1.00  0.00     0.432 C 
ATOM     30  F   UNL A   1      32.368  23.400  28.063  1.00  0.00    -0.165 F 
ATOM     31  F   UNL A   1      33.016  21.457  27.342  1.00  0.00    -0.165 F 
ATOM     32  F   UNL A   1      34.502  22.864  28.023  1.00  0.00    -0.165 F 
ENDBRANCH  17  29
ENDBRANCH   8   9
ENDBRANCH   5   8
ENDBRANCH   3   4
ENDBRANCH   2   3
ENDBRANCH   1   2
BRANCH   1  33
ATOM     33  C   UNL A   1      33.856  29.025  27.070  1.00  0.00     0.002 C 
BRANCH  33  34
ATOM     34  C   UNL A   1      35.001  29.921  27.560  1.00  0.00     0.021 C 
BRANCH  34  35
ATOM     35  C   UNL A   1      34.634  31.402  27.671  1.00  0.00     0.116 C 
BRANCH  35  36
ATOM     36  N   UNL A   1      34.448  31.854  29.034  1.00  0.00    -0.352 N 
ATOM     37  C   UNL A   1      35.231  31.895  30.153  1.00  0.00     0.251 C 
ATOM     38  H   UNL A   1      33.547  32.217  29.192  1.00  0.00     0.163 HD
ATOM     39  O   UNL A   1      34.755  32.479  31.130  1.00  0.00    -0.269 OA
BRANCH  37  40
ATOM     40  C   UNL A   1      36.551  31.228  30.299  1.00  0.00     0.039 A 
ATOM     41  C   UNL A   1      37.789  31.814  30.044  1.00  0.00     0.014 A 
ATOM     42  C   UNL A   1      36.513  29.862  30.645  1.00  0.00     0.014 A 
ATOM     43  C   UNL A   1      38.935  31.031  29.988  1.00  0.00     0.010 A 
ATOM     44  C   UNL A   1      37.660  29.079  30.623  1.00  0.00     0.010 A 
ATOM     45  C   UNL A   1      38.859  29.655  30.229  1.00  0.00    -0.014 A 
BRANCH  45  46
ATOM     46  C   UNL A   1      40.100  28.890  30.159  1.00  0.00     0.031 A 
ATOM     47  C   UNL A   1      40.782  28.743  31.473  1.00  0.00     0.074 A 
ATOM     48  C   UNL A   1      40.567  28.324  29.026  1.00  0.00     0.049 A 
ATOM     49  N   UNL A   1      41.935  29.212  31.823  1.00  0.00    -0.248 NA
ATOM     50  C   UNL A   1      40.028  28.130  32.579  1.00  0.00     0.031 C 
ATOM     51  C   UNL A   1      39.879  28.185  27.740  1.00  0.00     0.029 A 
ATOM     52  N   UNL A   1      41.748  27.674  28.809  1.00  0.00    -0.354 N 
ATOM     53  C   UNL A   1      42.130  28.808  33.143  1.00  0.00     0.074 A 
ATOM     54  C   UNL A   1      40.877  28.269  33.598  1.00  0.00     0.031 C 
ATOM     55  C   UNL A   1      40.550  27.304  26.962  1.00  0.00     0.029 A 
ATOM     56  C   UNL A   1      41.784  26.936  27.630  1.00  0.00     0.049 A 
ATOM     57  H   UNL A   1      42.509  27.724  29.432  1.00  0.00     0.167 HD
ATOM     58  C   UNL A   1      43.382  28.731  33.671  1.00  0.00     0.037 A 
ATOM     59  C   UNL A   1      42.747  26.053  27.264  1.00  0.00     0.037 A 
ATOM     60  C   UNL A   1      44.319  29.489  32.887  1.00  0.00     0.049 A 
ATOM     61  C   UNL A   1      43.969  26.405  28.021  1.00  0.00     0.074 A 
ATOM     62  C   UNL A   1      44.600  30.820  32.681  1.00  0.00     0.029 A 
ATOM     63  N   UNL A   1      44.891  28.788  31.860  1.00  0.00    -0.354 N 
ATOM     64  N   UNL A   1      44.649  27.500  27.836  1.00  0.00    -0.248 NA
ATOM     65  C   UNL A   1      44.269  25.681  29.250  1.00  0.00     0.031 C 
ATOM     66  C   UNL A   1      45.117  30.906  31.353  1.00  0.00     0.029 A 
ATOM     67  C   UNL A   1      45.176  29.620  30.814  1.00  0.00     0.049 A 
ATOM     68  H   UNL A   1      45.071  27.820  31.873  1.00  0.00     0.167 HD
ATOM     69  C   UNL A   1      45.125  27.825  29.091  1.00  0.00     0.074 A 
ATOM     70  C   UNL A   1      45.016  26.598  29.869  1.00  0.00     0.031 C 
ATOM     71  C   UNL A   1      45.270  29.131  29.457  1.00  0.00     0.037 A 
BRANCH  58  72
ATOM     72  C   UNL A   1      43.846  27.609  34.578  1.00  0.00     0.064 A 
ATOM     73  C   UNL A   1      43.825  26.281  34.103  1.00  0.00     0.173 A 
ATOM     74  C   UNL A   1      43.992  27.749  35.976  1.00  0.00     0.173 A 
ATOM     75  F   UNL A   1      43.650  26.025  32.797  1.00  0.00    -0.203 F 
ATOM     76  C   UNL A   1      43.891  25.183  34.969  1.00  0.00     0.198 A 
ATOM     77  C   UNL A   1      44.107  26.653  36.830  1.00  0.00     0.198 A 
ATOM     78  F   UNL A   1      43.908  28.937  36.585  1.00  0.00    -0.203 F 
ATOM     79  F   UNL A   1      43.752  23.942  34.484  1.00  0.00    -0.200 F 
ATOM     80  C   UNL A   1      44.031  25.371  36.331  1.00  0.00     0.200 A 
ATOM     81  F   UNL A   1      44.209  26.857  38.151  1.00  0.00    -0.200 F 
ATOM     82  F   UNL A   1      44.039  24.325  37.167  1.00  0.00    -0.200 F 
ENDBRANCH  58  72
BRANCH  59  83
ATOM     83  C   UNL A   1      42.598  24.729  26.605  1.00  0.00     0.064 A 
ATOM     84  C   UNL A   1      43.259  24.460  25.391  1.00  0.00     0.173 A 
ATOM     85  C   UNL A   1      42.102  23.613  27.304  1.00  0.00     0.173 A 
ATOM     86  F   UNL A   1      43.784  25.463  24.671  1.00  0.00    -0.203 F 
ATOM     87  C   UNL A   1      43.476  23.152  24.945  1.00  0.00     0.198 A 
ATOM     88  C   UNL A   1      42.314  22.308  26.854  1.00  0.00     0.198 A 
ATOM     89  F   UNL A   1      41.498  23.757  28.491  1.00  0.00    -0.203 F 
ATOM     90  F   UNL A   1      44.192  22.934  23.832  1.00  0.00    -0.200 F 
ATOM     91  C   UNL A   1      43.021  22.077  25.688  1.00  0.00     0.200 A 
ATOM     92  F   UNL A   1      41.897  21.274  27.598  1.00  0.00    -0.200 F 
ATOM     93  F   UNL A   1      43.303  20.822  25.309  1.00  0.00    -0.200 F 
ENDBRANCH  59  83
BRANCH  71  94
ATOM     94  C   UNL A   1      45.354  30.147  28.359  1.00  0.00     0.064 A 
ATOM     95  C   UNL A   1      44.248  30.791  27.780  1.00  0.00     0.173 A 
ATOM     96  C   UNL A   1      46.631  30.556  27.950  1.00  0.00     0.173 A 
ATOM     97  F   UNL A   1      43.000  30.509  28.174  1.00  0.00    -0.203 F 
ATOM     98  C   UNL A   1      44.419  31.779  26.811  1.00  0.00     0.198 A 
ATOM     99  C   UNL A   1      46.799  31.569  27.013  1.00  0.00     0.198 A 
ATOM    100  F   UNL A   1      47.722  30.000  28.502  1.00  0.00    -0.203 F 
ATOM    101  F   UNL A   1      43.351  32.374  26.261  1.00  0.00    -0.200 F 
ATOM    102  C   UNL A   1      45.694  32.174  26.437  1.00  0.00     0.200 A 
ATOM    103  F   UNL A   1      48.033  31.977  26.689  1.00  0.00    -0.200 F 
ATOM    104  F   UNL A   1      45.860  33.157  25.540  1.00  0.00    -0.200 F 
ENDBRANCH  71  94
ENDBRANCH  45  46
ENDBRANCH  37  40
ENDBRANCH  35  36
ENDBRANCH  34  35
ENDBRANCH  33  34
ENDBRANCH   1  33
TORSDOF 18
ENDMDL
