MODEL 1
REMARK VINA RESULT:     -12.2      0.000      0.000
REMARK SMILES C[C@](NC(=O)C[C@@H]1CCCCO1)(C(=O)NCCCCCCNC(=O)c1ccc(-c2c3nc(c(-c4c(F)c(F)c(F)c(F)c4F)c4ccc([nH]4)c(-c4c(F)c(F)c(F)c(F)c4F)c4nc(c(-c5c(F)c(F)c(F)c(F)c5F)c5ccc2[nH]5)C=C4)C=C3)cc1)c1ccccc1
REMARK SMILES IDX 18 1 17 2 16 3 15 4 13 5 14 6 2 8 1 9 88 10 89 11 93 12
REMARK SMILES IDX 90 13 92 14 91 15 3 16 4 17 5 19 6 20 7 21 8 22 12 23 9 24
REMARK SMILES IDX 11 25 10 26 19 27 20 28 21 29 22 30 23 31 24 33 25 34 26 35
REMARK SMILES IDX 87 36 27 37 86 38 28 39 29 40 30 41 80 42 31 43 85 44 79 45
REMARK SMILES IDX 81 46 32 47 84 48 78 49 77 50 33 52 65 53 45 54 64 55 46 56
REMARK SMILES IDX 49 57 63 58 82 59 47 60 48 61 62 63 83 64 50 65 34 66 35 67
REMARK SMILES IDX 43 68 36 69 37 70 41 71 44 72 38 73 39 74 42 75 40 76 66 77
REMARK SMILES IDX 67 78 75 79 68 80 69 81 73 82 76 83 70 84 71 85 74 86 72 87
REMARK SMILES IDX 51 88 52 89 60 90 53 91 54 92 58 93 61 94 55 95 56 96 59 97
REMARK SMILES IDX 57 98
REMARK H PARENT 15 7 3 18 22 32 81 51 49 62
REMARK Flexibility Score: inf
ROOT
ATOM      1  C   UNL A   1      36.829  22.482  24.832  1.00  0.00     0.002 C 
ENDROOT
BRANCH   1   2
ATOM      2  C   UNL A   1      36.133  23.503  25.745  1.00  0.00     0.021 C 
BRANCH   2   3
ATOM      3  C   UNL A   1      34.731  23.879  25.270  1.00  0.00     0.116 C 
BRANCH   3   4
ATOM      4  N   UNL A   1      33.769  23.545  26.307  1.00  0.00    -0.354 N 
ATOM      5  C   UNL A   1      32.541  24.026  26.651  1.00  0.00     0.250 C 
ATOM      6  O   UNL A   1      31.979  23.401  27.557  1.00  0.00    -0.272 OA
ATOM      7  H   UNL A   1      34.070  22.810  26.889  1.00  0.00     0.163 HD
BRANCH   5   8
ATOM      8  C   UNL A   1      31.803  25.102  25.776  1.00  0.00     0.141 C 
ATOM      9  C   UNL A   1      30.305  24.747  25.975  1.00  0.00     0.051 C 
BRANCH   8  10
ATOM     10  C   UNL A   1      32.263  26.495  26.218  1.00  0.00    -0.013 A 
ATOM     11  C   UNL A   1      31.414  27.309  26.999  1.00  0.00     0.007 A 
ATOM     12  C   UNL A   1      33.535  26.997  25.901  1.00  0.00     0.007 A 
ATOM     13  C   UNL A   1      31.881  28.483  27.585  1.00  0.00     0.000 A 
ATOM     14  C   UNL A   1      34.005  28.169  26.495  1.00  0.00     0.000 A 
ATOM     15  C   UNL A   1      33.192  28.892  27.364  1.00  0.00     0.000 A 
ENDBRANCH   8  10
BRANCH   8  16
ATOM     16  N   UNL A   1      32.093  24.930  24.335  1.00  0.00    -0.338 N 
ATOM     17  C   UNL A   1      31.458  25.348  23.214  1.00  0.00     0.223 C 
ATOM     18  H   UNL A   1      32.909  24.408  24.156  1.00  0.00     0.164 HD
ATOM     19  O   UNL A   1      31.727  24.696  22.194  1.00  0.00    -0.275 OA
BRANCH  17  20
ATOM     20  C   UNL A   1      30.637  26.627  23.062  1.00  0.00     0.132 C 
BRANCH  20  21
ATOM     21  C   UNL A   1      31.097  27.974  22.494  1.00  0.00     0.127 C 
ATOM     22  C   UNL A   1      31.712  29.028  23.414  1.00  0.00     0.033 C 
ATOM     23  O   UNL A   1      29.994  28.591  21.781  1.00  0.00    -0.378 OA
ATOM     24  C   UNL A   1      30.708  29.683  24.340  1.00  0.00     0.005 C 
ATOM     25  C   UNL A   1      28.975  29.144  22.615  1.00  0.00     0.160 C 
ATOM     26  C   UNL A   1      29.531  30.216  23.540  1.00  0.00     0.029 C 
ENDBRANCH  20  21
ENDBRANCH  17  20
ENDBRANCH   8  16
ENDBRANCH   5   8
ENDBRANCH   3   4
ENDBRANCH   2   3
ENDBRANCH   1   2
BRANCH   1  27
ATOM     27  C   UNL A   1      36.641  21.023  25.261  1.00  0.00     0.002 C 
BRANCH  27  28
ATOM     28  C   UNL A   1      37.836  20.123  24.950  1.00  0.00     0.021 C 
BRANCH  28  29
ATOM     29  C   UNL A   1      39.095  20.489  25.724  1.00  0.00     0.116 C 
BRANCH  29  30
ATOM     30  N   UNL A   1      40.001  19.358  25.856  1.00  0.00    -0.352 N 
ATOM     31  C   UNL A   1      41.354  19.366  26.064  1.00  0.00     0.251 C 
ATOM     32  H   UNL A   1      39.586  18.468  25.785  1.00  0.00     0.163 HD
ATOM     33  O   UNL A   1      42.015  18.336  25.960  1.00  0.00    -0.269 OA
BRANCH  31  34
ATOM     34  C   UNL A   1      42.014  20.642  26.391  1.00  0.00     0.039 A 
ATOM     35  C   UNL A   1      42.407  21.485  25.351  1.00  0.00     0.014 A 
ATOM     36  C   UNL A   1      42.192  21.020  27.726  1.00  0.00     0.014 A 
ATOM     37  C   UNL A   1      42.926  22.743  25.653  1.00  0.00     0.010 A 
ATOM     38  C   UNL A   1      42.631  22.304  28.021  1.00  0.00     0.010 A 
ATOM     39  C   UNL A   1      43.004  23.177  26.987  1.00  0.00    -0.014 A 
BRANCH  39  40
ATOM     40  C   UNL A   1      43.461  24.547  27.322  1.00  0.00     0.031 A 
ATOM     41  C   UNL A   1      42.477  25.570  27.810  1.00  0.00     0.074 A 
ATOM     42  C   UNL A   1      44.748  24.884  27.114  1.00  0.00     0.049 A 
ATOM     43  N   UNL A   1      42.668  26.835  28.087  1.00  0.00    -0.248 NA
ATOM     44  C   UNL A   1      41.088  25.119  27.985  1.00  0.00     0.031 C 
ATOM     45  C   UNL A   1      45.781  23.989  26.590  1.00  0.00     0.029 A 
ATOM     46  N   UNL A   1      45.402  26.074  27.304  1.00  0.00    -0.354 N 
ATOM     47  C   UNL A   1      41.425  27.330  28.457  1.00  0.00     0.074 A 
ATOM     48  C   UNL A   1      40.477  26.248  28.309  1.00  0.00     0.031 C 
ATOM     49  C   UNL A   1      46.942  24.657  26.514  1.00  0.00     0.029 A 
ATOM     50  C   UNL A   1      46.726  26.036  26.940  1.00  0.00     0.049 A 
ATOM     51  H   UNL A   1      44.965  26.879  27.665  1.00  0.00     0.167 HD
ATOM     52  C   UNL A   1      41.110  28.569  28.905  1.00  0.00     0.037 A 
ATOM     53  C   UNL A   1      47.657  27.010  26.936  1.00  0.00     0.037 A 
ATOM     54  C   UNL A   1      42.064  29.637  29.056  1.00  0.00     0.049 A 
ATOM     55  C   UNL A   1      47.280  28.384  27.416  1.00  0.00     0.074 A 
ATOM     56  C   UNL A   1      41.861  30.910  29.557  1.00  0.00     0.029 A 
ATOM     57  N   UNL A   1      43.401  29.559  28.693  1.00  0.00    -0.354 N 
ATOM     58  N   UNL A   1      46.120  28.821  27.844  1.00  0.00    -0.248 NA
ATOM     59  C   UNL A   1      48.342  29.399  27.423  1.00  0.00     0.031 C 
ATOM     60  C   UNL A   1      43.059  31.622  29.438  1.00  0.00     0.029 A 
ATOM     61  C   UNL A   1      44.028  30.773  28.926  1.00  0.00     0.049 A 
ATOM     62  H   UNL A   1      43.841  28.759  28.324  1.00  0.00     0.167 HD
ATOM     63  C   UNL A   1      46.315  30.152  28.188  1.00  0.00     0.074 A 
ATOM     64  C   UNL A   1      47.712  30.445  27.939  1.00  0.00     0.031 C 
ATOM     65  C   UNL A   1      45.419  31.050  28.667  1.00  0.00     0.037 A 
BRANCH  52  66
ATOM     66  C   UNL A   1      39.673  28.833  29.254  1.00  0.00     0.064 A 
ATOM     67  C   UNL A   1      38.756  29.307  28.302  1.00  0.00     0.173 A 
ATOM     68  C   UNL A   1      39.200  28.594  30.554  1.00  0.00     0.173 A 
ATOM     69  F   UNL A   1      39.156  29.561  27.047  1.00  0.00    -0.203 F 
ATOM     70  C   UNL A   1      37.434  29.572  28.648  1.00  0.00     0.198 A 
ATOM     71  C   UNL A   1      37.869  28.826  30.887  1.00  0.00     0.198 A 
ATOM     72  F   UNL A   1      40.030  28.135  31.502  1.00  0.00    -0.203 F 
ATOM     73  F   UNL A   1      36.594  30.084  27.738  1.00  0.00    -0.200 F 
ATOM     74  C   UNL A   1      36.989  29.325  29.938  1.00  0.00     0.200 A 
ATOM     75  F   UNL A   1      37.436  28.571  32.129  1.00  0.00    -0.200 F 
ATOM     76  F   UNL A   1      35.715  29.577  30.269  1.00  0.00    -0.200 F 
ENDBRANCH  52  66
BRANCH  53  77
ATOM     77  C   UNL A   1      49.034  26.710  26.463  1.00  0.00     0.064 A 
ATOM     78  C   UNL A   1      50.007  26.207  27.337  1.00  0.00     0.173 A 
ATOM     79  C   UNL A   1      49.400  26.908  25.122  1.00  0.00     0.173 A 
ATOM     80  F   UNL A   1      49.711  26.018  28.630  1.00  0.00    -0.203 F 
ATOM     81  C   UNL A   1      51.299  25.931  26.892  1.00  0.00     0.198 A 
ATOM     82  C   UNL A   1      50.682  26.601  24.673  1.00  0.00     0.198 A 
ATOM     83  F   UNL A   1      48.504  27.380  24.243  1.00  0.00    -0.203 F 
ATOM     84  F   UNL A   1      52.223  25.491  27.758  1.00  0.00    -0.200 F 
ATOM     85  C   UNL A   1      51.633  26.120  25.560  1.00  0.00     0.200 A 
ATOM     86  F   UNL A   1      50.994  26.767  23.380  1.00  0.00    -0.200 F 
ATOM     87  F   UNL A   1      52.873  25.844  25.132  1.00  0.00    -0.200 F 
ENDBRANCH  53  77
BRANCH  65  88
ATOM     88  C   UNL A   1      45.925  32.431  28.975  1.00  0.00     0.064 A 
ATOM     89  C   UNL A   1      45.873  33.463  28.027  1.00  0.00     0.173 A 
ATOM     90  C   UNL A   1      46.422  32.736  30.251  1.00  0.00     0.173 A 
ATOM     91  F   UNL A   1      45.420  33.221  26.788  1.00  0.00    -0.203 F 
ATOM     92  C   UNL A   1      46.324  34.744  28.338  1.00  0.00     0.198 A 
ATOM     93  C   UNL A   1      46.840  34.025  30.570  1.00  0.00     0.198 A 
ATOM     94  F   UNL A   1      46.487  31.787  31.197  1.00  0.00    -0.203 F 
ATOM     95  F   UNL A   1      46.312  35.702  27.401  1.00  0.00    -0.200 F 
ATOM     96  C   UNL A   1      46.798  35.026  29.611  1.00  0.00     0.200 A 
ATOM     97  F   UNL A   1      47.283  34.299  31.804  1.00  0.00    -0.200 F 
ATOM     98  F   UNL A   1      47.221  36.261  29.911  1.00  0.00    -0.200 F 
ENDBRANCH  65  88
ENDBRANCH  39  40
ENDBRANCH  31  34
ENDBRANCH  29  30
ENDBRANCH  28  29
ENDBRANCH  27  28
ENDBRANCH   1  27
TORSDOF 17
ENDMDL
MODEL 2
REMARK VINA RESULT:     -12.1      5.388     10.823
REMARK SMILES C[C@](NC(=O)C[C@@H]1CCCCO1)(C(=O)NCCCCCCNC(=O)c1ccc(-c2c3nc(c(-c4c(F)c(F)c(F)c(F)c4F)c4ccc([nH]4)c(-c4c(F)c(F)c(F)c(F)c4F)c4nc(c(-c5c(F)c(F)c(F)c(F)c5F)c5ccc2[nH]5)C=C4)C=C3)cc1)c1ccccc1
REMARK SMILES IDX 18 1 17 2 16 3 15 4 13 5 14 6 2 8 1 9 88 10 89 11 93 12
REMARK SMILES IDX 90 13 92 14 91 15 3 16 4 17 5 19 6 20 7 21 8 22 12 23 9 24
REMARK SMILES IDX 11 25 10 26 19 27 20 28 21 29 22 30 23 31 24 33 25 34 26 35
REMARK SMILES IDX 87 36 27 37 86 38 28 39 29 40 30 41 80 42 31 43 85 44 79 45
REMARK SMILES IDX 81 46 32 47 84 48 78 49 77 50 33 52 65 53 45 54 64 55 46 56
REMARK SMILES IDX 49 57 63 58 82 59 47 60 48 61 62 63 83 64 50 65 34 66 35 67
REMARK SMILES IDX 43 68 36 69 37 70 41 71 44 72 38 73 39 74 42 75 40 76 66 77
REMARK SMILES IDX 67 78 75 79 68 80 69 81 73 82 76 83 70 84 71 85 74 86 72 87
REMARK SMILES IDX 51 88 52 89 60 90 53 91 54 92 58 93 61 94 55 95 56 96 59 97
REMARK SMILES IDX 57 98
REMARK H PARENT 15 7 3 18 22 32 81 51 49 62
REMARK Flexibility Score: inf
ROOT
ATOM      1  C   UNL A   1      33.283  29.965  26.936  1.00  0.00     0.002 C 
ENDROOT
BRANCH   1   2
ATOM      2  C   UNL A   1      33.745  28.847  25.989  1.00  0.00     0.021 C 
BRANCH   2   3
ATOM      3  C   UNL A   1      32.693  28.465  24.951  1.00  0.00     0.116 C 
BRANCH   3   4
ATOM      4  N   UNL A   1      33.342  28.250  23.668  1.00  0.00    -0.354 N 
ATOM      5  C   UNL A   1      33.546  27.156  22.881  1.00  0.00     0.250 C 
ATOM      6  O   UNL A   1      34.069  27.400  21.788  1.00  0.00    -0.272 OA
ATOM      7  H   UNL A   1      33.715  29.075  23.284  1.00  0.00     0.163 HD
BRANCH   5   8
ATOM      8  C   UNL A   1      32.914  25.761  23.229  1.00  0.00     0.141 C 
ATOM      9  C   UNL A   1      32.237  25.342  21.896  1.00  0.00     0.051 C 
BRANCH   8  10
ATOM     10  C   UNL A   1      34.013  24.847  23.781  1.00  0.00    -0.013 A 
ATOM     11  C   UNL A   1      34.440  23.723  23.041  1.00  0.00     0.007 A 
ATOM     12  C   UNL A   1      34.652  25.102  25.004  1.00  0.00     0.007 A 
ATOM     13  C   UNL A   1      35.571  23.001  23.418  1.00  0.00     0.000 A 
ATOM     14  C   UNL A   1      35.789  24.384  25.376  1.00  0.00     0.000 A 
ATOM     15  C   UNL A   1      36.268  23.357  24.566  1.00  0.00     0.000 A 
ENDBRANCH   8  10
BRANCH   8  16
ATOM     16  N   UNL A   1      31.834  25.883  24.234  1.00  0.00    -0.338 N 
ATOM     17  C   UNL A   1      30.833  25.053  24.611  1.00  0.00     0.223 C 
ATOM     18  H   UNL A   1      31.846  26.737  24.725  1.00  0.00     0.164 HD
ATOM     19  O   UNL A   1      29.879  25.615  25.170  1.00  0.00    -0.275 OA
BRANCH  17  20
ATOM     20  C   UNL A   1      30.868  23.526  24.598  1.00  0.00     0.132 C 
BRANCH  20  21
ATOM     21  C   UNL A   1      30.800  22.576  25.798  1.00  0.00     0.127 C 
ATOM     22  C   UNL A   1      31.389  22.992  27.144  1.00  0.00     0.033 C 
ATOM     23  O   UNL A   1      31.384  21.301  25.428  1.00  0.00    -0.378 OA
ATOM     24  C   UNL A   1      32.904  23.014  27.162  1.00  0.00     0.005 C 
ATOM     25  C   UNL A   1      32.810  21.297  25.342  1.00  0.00     0.160 C 
ATOM     26  C   UNL A   1      33.450  21.686  26.666  1.00  0.00     0.029 C 
ENDBRANCH  20  21
ENDBRANCH  17  20
ENDBRANCH   8  16
ENDBRANCH   5   8
ENDBRANCH   3   4
ENDBRANCH   2   3
ENDBRANCH   1   2
BRANCH   1  27
ATOM     27  C   UNL A   1      31.833  30.413  26.722  1.00  0.00     0.002 C 
BRANCH  27  28
ATOM     28  C   UNL A   1      31.634  31.926  26.773  1.00  0.00     0.021 C 
BRANCH  28  29
ATOM     29  C   UNL A   1      32.819  32.681  27.360  1.00  0.00     0.116 C 
BRANCH  29  30
ATOM     30  N   UNL A   1      32.498  34.074  27.632  1.00  0.00    -0.352 N 
ATOM     31  C   UNL A   1      33.016  34.899  28.593  1.00  0.00     0.251 C 
ATOM     32  H   UNL A   1      31.816  34.476  27.046  1.00  0.00     0.163 HD
ATOM     33  O   UNL A   1      32.508  35.992  28.827  1.00  0.00    -0.269 OA
BRANCH  31  34
ATOM     34  C   UNL A   1      34.183  34.441  29.367  1.00  0.00     0.039 A 
ATOM     35  C   UNL A   1      33.975  33.793  30.584  1.00  0.00     0.014 A 
ATOM     36  C   UNL A   1      35.475  34.610  28.857  1.00  0.00     0.014 A 
ATOM     37  C   UNL A   1      35.066  33.255  31.266  1.00  0.00     0.010 A 
ATOM     38  C   UNL A   1      36.548  34.002  29.495  1.00  0.00     0.010 A 
ATOM     39  C   UNL A   1      36.353  33.320  30.706  1.00  0.00    -0.014 A 
BRANCH  39  40
ATOM     40  C   UNL A   1      37.510  32.670  31.368  1.00  0.00     0.031 A 
ATOM     41  C   UNL A   1      38.186  31.497  30.719  1.00  0.00     0.074 A 
ATOM     42  C   UNL A   1      37.898  33.092  32.586  1.00  0.00     0.049 A 
ATOM     43  N   UNL A   1      39.163  30.752  31.169  1.00  0.00    -0.248 NA
ATOM     44  C   UNL A   1      37.678  31.090  29.400  1.00  0.00     0.031 C 
ATOM     45  C   UNL A   1      37.280  34.185  33.337  1.00  0.00     0.029 A 
ATOM     46  N   UNL A   1      38.897  32.642  33.412  1.00  0.00    -0.354 N 
ATOM     47  C   UNL A   1      39.379  29.787  30.196  1.00  0.00     0.074 A 
ATOM     48  C   UNL A   1      38.391  30.000  29.161  1.00  0.00     0.031 C 
ATOM     49  C   UNL A   1      37.922  34.331  34.507  1.00  0.00     0.029 A 
ATOM     50  C   UNL A   1      38.966  33.315  34.607  1.00  0.00     0.049 A 
ATOM     51  H   UNL A   1      39.506  31.906  33.171  1.00  0.00     0.167 HD
ATOM     52  C   UNL A   1      40.332  28.826  30.159  1.00  0.00     0.037 A 
ATOM     53  C   UNL A   1      39.768  33.123  35.670  1.00  0.00     0.037 A 
ATOM     54  C   UNL A   1      41.317  28.627  31.191  1.00  0.00     0.049 A 
ATOM     55  C   UNL A   1      40.806  32.035  35.616  1.00  0.00     0.074 A 
ATOM     56  C   UNL A   1      42.362  27.722  31.223  1.00  0.00     0.029 A 
ATOM     57  N   UNL A   1      41.366  29.337  32.382  1.00  0.00    -0.354 N 
ATOM     58  N   UNL A   1      41.057  31.179  34.655  1.00  0.00    -0.248 NA
ATOM     59  C   UNL A   1      41.678  31.891  36.789  1.00  0.00     0.031 C 
ATOM     60  C   UNL A   1      43.006  27.842  32.459  1.00  0.00     0.029 A 
ATOM     61  C   UNL A   1      42.404  28.868  33.172  1.00  0.00     0.049 A 
ATOM     62  H   UNL A   1      40.755  30.068  32.630  1.00  0.00     0.167 HD
ATOM     63  C   UNL A   1      42.125  30.410  35.097  1.00  0.00     0.074 A 
ATOM     64  C   UNL A   1      42.488  30.915  36.405  1.00  0.00     0.031 C 
ATOM     65  C   UNL A   1      42.749  29.378  34.475  1.00  0.00     0.037 A 
BRANCH  52  66
ATOM     66  C   UNL A   1      40.348  27.913  28.965  1.00  0.00     0.064 A 
ATOM     67  C   UNL A   1      39.626  26.709  28.946  1.00  0.00     0.173 A 
ATOM     68  C   UNL A   1      41.080  28.254  27.817  1.00  0.00     0.173 A 
ATOM     69  F   UNL A   1      38.916  26.329  30.019  1.00  0.00    -0.203 F 
ATOM     70  C   UNL A   1      39.672  25.862  27.842  1.00  0.00     0.198 A 
ATOM     71  C   UNL A   1      41.094  27.421  26.702  1.00  0.00     0.198 A 
ATOM     72  F   UNL A   1      41.783  29.395  27.777  1.00  0.00    -0.203 F 
ATOM     73  F   UNL A   1      39.026  24.688  27.873  1.00  0.00    -0.200 F 
ATOM     74  C   UNL A   1      40.400  26.221  26.718  1.00  0.00     0.200 A 
ATOM     75  F   UNL A   1      41.785  27.778  25.610  1.00  0.00    -0.200 F 
ATOM     76  F   UNL A   1      40.440  25.407  25.655  1.00  0.00    -0.200 F 
ENDBRANCH  52  66
BRANCH  53  77
ATOM     77  C   UNL A   1      39.620  33.986  36.871  1.00  0.00     0.064 A 
ATOM     78  C   UNL A   1      38.835  33.585  37.960  1.00  0.00     0.173 A 
ATOM     79  C   UNL A   1      40.273  35.226  36.958  1.00  0.00     0.173 A 
ATOM     80  F   UNL A   1      38.177  32.418  37.917  1.00  0.00    -0.203 F 
ATOM     81  C   UNL A   1      38.694  34.399  39.084  1.00  0.00     0.198 A 
ATOM     82  C   UNL A   1      40.157  36.023  38.094  1.00  0.00     0.198 A 
ATOM     83  F   UNL A   1      41.043  35.653  35.947  1.00  0.00    -0.203 F 
ATOM     84  F   UNL A   1      37.903  34.011  40.093  1.00  0.00    -0.200 F 
ATOM     85  C   UNL A   1      39.361  35.613  39.153  1.00  0.00     0.200 A 
ATOM     86  F   UNL A   1      40.819  37.186  38.165  1.00  0.00    -0.200 F 
ATOM     87  F   UNL A   1      39.232  36.389  40.238  1.00  0.00    -0.200 F 
ENDBRANCH  53  77
BRANCH  65  88
ATOM     88  C   UNL A   1      43.904  28.739  35.192  1.00  0.00     0.064 A 
ATOM     89  C   UNL A   1      43.723  27.650  36.057  1.00  0.00     0.173 A 
ATOM     90  C   UNL A   1      45.214  29.192  34.971  1.00  0.00     0.173 A 
ATOM     91  F   UNL A   1      42.490  27.188  36.313  1.00  0.00    -0.203 F 
ATOM     92  C   UNL A   1      44.809  27.054  36.695  1.00  0.00     0.198 A 
ATOM     93  C   UNL A   1      46.300  28.572  35.583  1.00  0.00     0.198 A 
ATOM     94  F   UNL A   1      45.443  30.226  34.149  1.00  0.00    -0.203 F 
ATOM     95  F   UNL A   1      44.607  26.047  37.556  1.00  0.00    -0.200 F 
ATOM     96  C   UNL A   1      46.096  27.509  36.450  1.00  0.00     0.200 A 
ATOM     97  F   UNL A   1      47.544  29.002  35.334  1.00  0.00    -0.200 F 
ATOM     98  F   UNL A   1      47.140  26.927  37.055  1.00  0.00    -0.200 F 
ENDBRANCH  65  88
ENDBRANCH  39  40
ENDBRANCH  31  34
ENDBRANCH  29  30
ENDBRANCH  28  29
ENDBRANCH  27  28
ENDBRANCH   1  27
TORSDOF 17
ENDMDL
MODEL 3
REMARK VINA RESULT:     -12.0      0.702      1.733
REMARK SMILES C[C@](NC(=O)C[C@@H]1CCCCO1)(C(=O)NCCCCCCNC(=O)c1ccc(-c2c3nc(c(-c4c(F)c(F)c(F)c(F)c4F)c4ccc([nH]4)c(-c4c(F)c(F)c(F)c(F)c4F)c4nc(c(-c5c(F)c(F)c(F)c(F)c5F)c5ccc2[nH]5)C=C4)C=C3)cc1)c1ccccc1
REMARK SMILES IDX 18 1 17 2 16 3 15 4 13 5 14 6 2 8 1 9 88 10 89 11 93 12
REMARK SMILES IDX 90 13 92 14 91 15 3 16 4 17 5 19 6 20 7 21 8 22 12 23 9 24
REMARK SMILES IDX 11 25 10 26 19 27 20 28 21 29 22 30 23 31 24 33 25 34 26 35
REMARK SMILES IDX 87 36 27 37 86 38 28 39 29 40 30 41 80 42 31 43 85 44 79 45
REMARK SMILES IDX 81 46 32 47 84 48 78 49 77 50 33 52 65 53 45 54 64 55 46 56
REMARK SMILES IDX 49 57 63 58 82 59 47 60 48 61 62 63 83 64 50 65 34 66 35 67
REMARK SMILES IDX 43 68 36 69 37 70 41 71 44 72 38 73 39 74 42 75 40 76 66 77
REMARK SMILES IDX 67 78 75 79 68 80 69 81 73 82 76 83 70 84 71 85 74 86 72 87
REMARK SMILES IDX 51 88 52 89 60 90 53 91 54 92 58 93 61 94 55 95 56 96 59 97
REMARK SMILES IDX 57 98
REMARK H PARENT 15 7 3 18 22 32 81 51 49 62
REMARK Flexibility Score: inf
ROOT
ATOM      1  C   UNL A   1      37.326  22.123  25.575  1.00  0.00     0.002 C 
ENDROOT
BRANCH   1   2
ATOM      2  C   UNL A   1      36.946  23.251  24.603  1.00  0.00     0.021 C 
BRANCH   2   3
ATOM      3  C   UNL A   1      36.038  24.305  25.232  1.00  0.00     0.116 C 
BRANCH   3   4
ATOM      4  N   UNL A   1      35.120  23.657  26.154  1.00  0.00    -0.354 N 
ATOM      5  C   UNL A   1      33.777  23.745  26.372  1.00  0.00     0.250 C 
ATOM      6  O   UNL A   1      33.338  22.941  27.202  1.00  0.00    -0.272 OA
ATOM      7  H   UNL A   1      35.565  23.013  26.750  1.00  0.00     0.163 HD
BRANCH   5   8
ATOM      8  C   UNL A   1      32.845  24.603  25.444  1.00  0.00     0.141 C 
ATOM      9  C   UNL A   1      31.550  23.751  25.364  1.00  0.00     0.051 C 
BRANCH   8  10
ATOM     10  C   UNL A   1      32.727  26.013  26.034  1.00  0.00    -0.013 A 
ATOM     11  C   UNL A   1      31.489  26.473  26.530  1.00  0.00     0.007 A 
ATOM     12  C   UNL A   1      33.830  26.875  26.134  1.00  0.00     0.007 A 
ATOM     13  C   UNL A   1      31.400  27.661  27.254  1.00  0.00     0.000 A 
ATOM     14  C   UNL A   1      33.743  28.059  26.867  1.00  0.00     0.000 A 
ATOM     15  C   UNL A   1      32.538  28.434  27.456  1.00  0.00     0.000 A 
ENDBRANCH   8  10
BRANCH   8  16
ATOM     16  N   UNL A   1      33.379  24.697  24.067  1.00  0.00    -0.338 N 
ATOM     17  C   UNL A   1      32.802  24.988  22.877  1.00  0.00     0.223 C 
ATOM     18  H   UNL A   1      34.344  24.510  24.003  1.00  0.00     0.164 HD
ATOM     19  O   UNL A   1      33.428  24.581  21.886  1.00  0.00    -0.275 OA
BRANCH  17  20
ATOM     20  C   UNL A   1      31.610  25.915  22.650  1.00  0.00     0.132 C 
BRANCH  20  21
ATOM     21  C   UNL A   1      31.611  27.303  22.001  1.00  0.00     0.127 C 
ATOM     22  C   UNL A   1      32.539  28.397  22.524  1.00  0.00     0.033 C 
ATOM     23  O   UNL A   1      30.258  27.827  21.998  1.00  0.00    -0.378 OA
ATOM     24  C   UNL A   1      32.122  28.952  23.871  1.00  0.00     0.005 C 
ATOM     25  C   UNL A   1      29.787  28.280  23.268  1.00  0.00     0.160 C 
ATOM     26  C   UNL A   1      30.667  29.388  23.827  1.00  0.00     0.029 C 
ENDBRANCH  20  21
ENDBRANCH  17  20
ENDBRANCH   8  16
ENDBRANCH   5   8
ENDBRANCH   3   4
ENDBRANCH   2   3
ENDBRANCH   1   2
BRANCH   1  27
ATOM     27  C   UNL A   1      36.956  20.719  25.084  1.00  0.00     0.002 C 
BRANCH  27  28
ATOM     28  C   UNL A   1      38.153  19.787  24.901  1.00  0.00     0.021 C 
BRANCH  28  29
ATOM     29  C   UNL A   1      39.359  20.165  25.750  1.00  0.00     0.116 C 
BRANCH  29  30
ATOM     30  N   UNL A   1      40.283  19.053  25.911  1.00  0.00    -0.352 N 
ATOM     31  C   UNL A   1      41.635  19.088  26.120  1.00  0.00     0.251 C 
ATOM     32  H   UNL A   1      39.882  18.155  25.861  1.00  0.00     0.163 HD
ATOM     33  O   UNL A   1      42.313  18.067  26.041  1.00  0.00    -0.269 OA
BRANCH  31  34
ATOM     34  C   UNL A   1      42.274  20.383  26.416  1.00  0.00     0.039 A 
ATOM     35  C   UNL A   1      42.873  21.094  25.377  1.00  0.00     0.014 A 
ATOM     36  C   UNL A   1      42.229  20.908  27.712  1.00  0.00     0.014 A 
ATOM     37  C   UNL A   1      43.377  22.369  25.625  1.00  0.00     0.010 A 
ATOM     38  C   UNL A   1      42.656  22.210  27.937  1.00  0.00     0.010 A 
ATOM     39  C   UNL A   1      43.235  22.952  26.897  1.00  0.00    -0.014 A 
BRANCH  39  40
ATOM     40  C   UNL A   1      43.677  24.344  27.154  1.00  0.00     0.031 A 
ATOM     41  C   UNL A   1      42.690  25.371  27.629  1.00  0.00     0.074 A 
ATOM     42  C   UNL A   1      44.949  24.694  26.888  1.00  0.00     0.049 A 
ATOM     43  N   UNL A   1      42.865  26.650  27.842  1.00  0.00    -0.248 NA
ATOM     44  C   UNL A   1      41.316  24.903  27.870  1.00  0.00     0.031 C 
ATOM     45  C   UNL A   1      45.982  23.796  26.371  1.00  0.00     0.029 A 
ATOM     46  N   UNL A   1      45.586  25.904  27.003  1.00  0.00    -0.354 N 
ATOM     47  C   UNL A   1      41.625  27.139  28.232  1.00  0.00     0.074 A 
ATOM     48  C   UNL A   1      40.694  26.034  28.163  1.00  0.00     0.031 C 
ATOM     49  C   UNL A   1      47.127  24.480  26.226  1.00  0.00     0.029 A 
ATOM     50  C   UNL A   1      46.898  25.873  26.598  1.00  0.00     0.049 A 
ATOM     51  H   UNL A   1      45.145  26.716  27.342  1.00  0.00     0.167 HD
ATOM     52  C   UNL A   1      41.301  28.391  28.634  1.00  0.00     0.037 A 
ATOM     53  C   UNL A   1      47.809  26.862  26.518  1.00  0.00     0.037 A 
ATOM     54  C   UNL A   1      42.238  29.482  28.705  1.00  0.00     0.049 A 
ATOM     55  C   UNL A   1      47.421  28.250  26.950  1.00  0.00     0.074 A 
ATOM     56  C   UNL A   1      42.027  30.772  29.155  1.00  0.00     0.029 A 
ATOM     57  N   UNL A   1      43.564  29.411  28.301  1.00  0.00    -0.354 N 
ATOM     58  N   UNL A   1      46.267  28.685  27.396  1.00  0.00    -0.248 NA
ATOM     59  C   UNL A   1      48.463  29.282  26.875  1.00  0.00     0.031 C 
ATOM     60  C   UNL A   1      43.207  31.500  28.965  1.00  0.00     0.029 A 
ATOM     61  C   UNL A   1      44.174  30.646  28.459  1.00  0.00     0.049 A 
ATOM     62  H   UNL A   1      44.007  28.603  27.954  1.00  0.00     0.167 HD
ATOM     63  C   UNL A   1      46.448  30.033  27.673  1.00  0.00     0.074 A 
ATOM     64  C   UNL A   1      47.830  30.339  27.365  1.00  0.00     0.031 C 
ATOM     65  C   UNL A   1      45.551  30.936  28.142  1.00  0.00     0.037 A 
BRANCH  52  66
ATOM     66  C   UNL A   1      39.871  28.645  29.019  1.00  0.00     0.064 A 
ATOM     67  C   UNL A   1      39.413  28.443  30.331  1.00  0.00     0.173 A 
ATOM     68  C   UNL A   1      38.949  29.111  28.070  1.00  0.00     0.173 A 
ATOM     69  F   UNL A   1      40.248  27.989  31.277  1.00  0.00    -0.203 F 
ATOM     70  C   UNL A   1      38.078  28.658  30.666  1.00  0.00     0.198 A 
ATOM     71  C   UNL A   1      37.624  29.359  28.417  1.00  0.00     0.198 A 
ATOM     72  F   UNL A   1      39.333  29.328  26.803  1.00  0.00    -0.203 F 
ATOM     73  F   UNL A   1      37.651  28.397  31.909  1.00  0.00    -0.200 F 
ATOM     74  C   UNL A   1      37.187  29.122  29.711  1.00  0.00     0.200 A 
ATOM     75  F   UNL A   1      36.768  29.823  27.497  1.00  0.00    -0.200 F 
ATOM     76  F   UNL A   1      35.903  29.332  30.036  1.00  0.00    -0.200 F 
ENDBRANCH  52  66
BRANCH  53  77
ATOM     77  C   UNL A   1      49.175  26.566  26.014  1.00  0.00     0.064 A 
ATOM     78  C   UNL A   1      49.537  26.850  24.690  1.00  0.00     0.173 A 
ATOM     79  C   UNL A   1      50.152  26.003  26.851  1.00  0.00     0.173 A 
ATOM     80  F   UNL A   1      48.635  27.371  23.847  1.00  0.00    -0.203 F 
ATOM     81  C   UNL A   1      50.819  26.567  24.218  1.00  0.00     0.198 A 
ATOM     82  C   UNL A   1      51.440  25.752  26.387  1.00  0.00     0.198 A 
ATOM     83  F   UNL A   1      49.859  25.719  28.129  1.00  0.00    -0.203 F 
ATOM     84  F   UNL A   1      51.126  26.810  22.937  1.00  0.00    -0.200 F 
ATOM     85  C   UNL A   1      51.771  26.027  25.068  1.00  0.00     0.200 A 
ATOM     86  F   UNL A   1      52.363  25.247  27.217  1.00  0.00    -0.200 F 
ATOM     87  F   UNL A   1      53.005  25.765  24.616  1.00  0.00    -0.200 F 
ENDBRANCH  53  77
BRANCH  65  88
ATOM     88  C   UNL A   1      46.039  32.338  28.371  1.00  0.00     0.064 A 
ATOM     89  C   UNL A   1      45.943  33.323  27.377  1.00  0.00     0.173 A 
ATOM     90  C   UNL A   1      46.566  32.711  29.617  1.00  0.00     0.173 A 
ATOM     91  F   UNL A   1      45.461  33.015  26.164  1.00  0.00    -0.203 F 
ATOM     92  C   UNL A   1      46.379  34.625  27.616  1.00  0.00     0.198 A 
ATOM     93  C   UNL A   1      46.969  34.021  29.863  1.00  0.00     0.198 A 
ATOM     94  F   UNL A   1      46.674  31.809  30.603  1.00  0.00    -0.203 F 
ATOM     95  F   UNL A   1      46.323  35.537  26.636  1.00  0.00    -0.200 F 
ATOM     96  C   UNL A   1      46.882  34.974  28.860  1.00  0.00     0.200 A 
ATOM     97  F   UNL A   1      47.440  34.360  31.070  1.00  0.00    -0.200 F 
ATOM     98  F   UNL A   1      47.290  36.229  29.091  1.00  0.00    -0.200 F 
ENDBRANCH  65  88
ENDBRANCH  39  40
ENDBRANCH  31  34
ENDBRANCH  29  30
ENDBRANCH  28  29
ENDBRANCH  27  28
ENDBRANCH   1  27
TORSDOF 17
ENDMDL
