MODEL 1
REMARK VINA RESULT:     -12.0      0.000      0.000
REMARK SMILES O=C(C[C@H]1CN(S(=O)(=O)N2CCCCC2)CCO1)NCCCCCCNC(=O)c1ccc(-c2c3nc(c(-c4c(F)c(F)c(F)c(F)c4F)c4ccc([nH]4)c(-c4c(F)c(F)c(F)c(F)c4F)c4nc(c(-c5c(F)c(F)c(F)c(F)c5F)c5ccc2[nH]5)C=C4)C=C3)cc1
REMARK SMILES IDX 22 1 21 2 20 3 19 4 1 5 2 6 3 8 4 9 5 10 18 11 6 12 17 13
REMARK SMILES IDX 16 14 7 15 8 16 9 17 10 18 11 19 15 20 12 21 14 22 13 23
REMARK SMILES IDX 23 24 24 25 25 26 26 27 27 28 28 30 29 31 30 32 91 33 31 34
REMARK SMILES IDX 90 35 32 36 33 37 34 38 84 39 35 40 89 41 83 42 85 43 36 44
REMARK SMILES IDX 88 45 82 46 81 47 37 49 69 50 49 51 68 52 50 53 53 54 67 55
REMARK SMILES IDX 86 56 51 57 52 58 66 60 87 61 54 62 38 63 39 64 47 65 40 66
REMARK SMILES IDX 41 67 45 68 48 69 42 70 43 71 46 72 44 73 70 74 71 75 79 76
REMARK SMILES IDX 72 77 73 78 77 79 80 80 74 81 75 82 78 83 76 84 55 85 56 86
REMARK SMILES IDX 64 87 57 88 58 89 62 90 65 91 59 92 60 93 63 94 61 95
REMARK H PARENT 19 7 26 29 85 48 53 59
REMARK Flexibility Score: inf
ROOT
ATOM      1  C   UNL A   1      31.611  29.897  25.148  1.00  0.00     0.002 C 
ENDROOT
BRANCH   1   2
ATOM      2  C   UNL A   1      32.682  28.948  24.596  1.00  0.00     0.021 C 
BRANCH   2   3
ATOM      3  C   UNL A   1      32.199  28.077  23.445  1.00  0.00     0.116 C 
BRANCH   3   4
ATOM      4  N   UNL A   1      32.569  26.696  23.619  1.00  0.00    -0.356 N 
ATOM      5  O   UNL A   1      33.803  26.512  21.708  1.00  0.00    -0.275 OA
ATOM      6  C   UNL A   1      33.428  26.040  22.778  1.00  0.00     0.222 C 
ATOM      7  H   UNL A   1      32.187  26.201  24.379  1.00  0.00     0.163 HD
BRANCH   6   8
ATOM      8  C   UNL A   1      33.748  24.616  23.187  1.00  0.00     0.133 C 
BRANCH   8   9
ATOM      9  C   UNL A   1      32.660  23.522  23.110  1.00  0.00     0.142 C 
ATOM     10  C   UNL A   1      32.964  22.194  23.831  1.00  0.00     0.136 C 
ATOM     11  O   UNL A   1      31.302  23.940  23.328  1.00  0.00    -0.375 OA
ATOM     12  N   UNL A   1      32.602  22.163  25.273  1.00  0.00    -0.184 NA
ATOM     13  C   UNL A   1      30.902  23.909  24.711  1.00  0.00     0.177 C 
ATOM     14  C   UNL A   1      31.153  22.557  25.382  1.00  0.00     0.132 C 
BRANCH  12  15
ATOM     15  S   UNL A   1      33.582  22.868  26.461  1.00  0.00     0.282 S 
ATOM     16  O   UNL A   1      33.297  24.279  26.477  1.00  0.00    -0.195 OA
ATOM     17  O   UNL A   1      33.401  22.081  27.657  1.00  0.00    -0.195 OA
BRANCH  15  18
ATOM     18  N   UNL A   1      35.161  22.641  25.927  1.00  0.00    -0.189 NA
ATOM     19  C   UNL A   1      36.102  23.758  26.136  1.00  0.00     0.103 C 
ATOM     20  C   UNL A   1      35.735  21.280  25.887  1.00  0.00     0.103 C 
ATOM     21  C   UNL A   1      37.303  23.628  25.203  1.00  0.00     0.017 C 
ATOM     22  C   UNL A   1      37.011  21.177  25.062  1.00  0.00     0.017 C 
ATOM     23  C   UNL A   1      37.990  22.288  25.408  1.00  0.00     0.003 C 
ENDBRANCH  15  18
ENDBRANCH  12  15
ENDBRANCH   8   9
ENDBRANCH   6   8
ENDBRANCH   3   4
ENDBRANCH   2   3
ENDBRANCH   1   2
BRANCH   1  24
ATOM     24  C   UNL A   1      31.879  30.431  26.558  1.00  0.00     0.002 C 
BRANCH  24  25
ATOM     25  C   UNL A   1      31.631  31.929  26.731  1.00  0.00     0.021 C 
BRANCH  25  26
ATOM     26  C   UNL A   1      32.821  32.698  27.288  1.00  0.00     0.116 C 
BRANCH  26  27
ATOM     27  N   UNL A   1      32.489  34.084  27.584  1.00  0.00    -0.352 N 
ATOM     28  C   UNL A   1      33.003  34.902  28.558  1.00  0.00     0.251 C 
ATOM     29  H   UNL A   1      31.802  34.489  27.006  1.00  0.00     0.163 HD
ATOM     30  O   UNL A   1      32.483  35.986  28.805  1.00  0.00    -0.269 OA
BRANCH  28  31
ATOM     31  C   UNL A   1      34.175  34.450  29.332  1.00  0.00     0.039 A 
ATOM     32  C   UNL A   1      33.975  33.875  30.587  1.00  0.00     0.014 A 
ATOM     33  C   UNL A   1      35.462  34.558  28.797  1.00  0.00     0.014 A 
ATOM     34  C   UNL A   1      35.062  33.340  31.278  1.00  0.00     0.010 A 
ATOM     35  C   UNL A   1      36.530  33.953  29.448  1.00  0.00     0.010 A 
ATOM     36  C   UNL A   1      36.341  33.336  30.694  1.00  0.00    -0.014 A 
BRANCH  36  37
ATOM     37  C   UNL A   1      37.485  32.668  31.362  1.00  0.00     0.031 A 
ATOM     38  C   UNL A   1      38.141  31.475  30.729  1.00  0.00     0.074 A 
ATOM     39  C   UNL A   1      37.884  33.095  32.576  1.00  0.00     0.049 A 
ATOM     40  N   UNL A   1      39.104  30.718  31.189  1.00  0.00    -0.248 NA
ATOM     41  C   UNL A   1      37.626  31.061  29.415  1.00  0.00     0.031 C 
ATOM     42  C   UNL A   1      37.289  34.208  33.316  1.00  0.00     0.029 A 
ATOM     43  N   UNL A   1      38.873  32.633  33.408  1.00  0.00    -0.354 N 
ATOM     44  C   UNL A   1      39.306  29.739  30.227  1.00  0.00     0.074 A 
ATOM     45  C   UNL A   1      38.322  29.957  29.189  1.00  0.00     0.031 C 
ATOM     46  C   UNL A   1      37.933  34.354  34.484  1.00  0.00     0.029 A 
ATOM     47  C   UNL A   1      38.953  33.315  34.597  1.00  0.00     0.049 A 
ATOM     48  H   UNL A   1      39.467  31.884  33.175  1.00  0.00     0.167 HD
ATOM     49  C   UNL A   1      40.243  28.760  30.200  1.00  0.00     0.037 A 
ATOM     50  C   UNL A   1      39.744  33.115  35.668  1.00  0.00     0.037 A 
ATOM     51  C   UNL A   1      41.218  28.549  31.240  1.00  0.00     0.049 A 
ATOM     52  C   UNL A   1      40.757  32.003  35.631  1.00  0.00     0.074 A 
ATOM     53  C   UNL A   1      42.244  27.623  31.285  1.00  0.00     0.029 A 
ATOM     54  N   UNL A   1      41.275  29.268  32.427  1.00  0.00    -0.354 N 
ATOM     55  N   UNL A   1      40.997  31.133  34.680  1.00  0.00    -0.248 NA
ATOM     56  C   UNL A   1      41.616  31.849  36.813  1.00  0.00     0.031 C 
ATOM     57  C   UNL A   1      42.880  27.735  32.526  1.00  0.00     0.029 A 
ATOM     58  C   UNL A   1      42.297  28.779  33.227  1.00  0.00     0.049 A 
ATOM     59  H   UNL A   1      40.680  30.014  32.665  1.00  0.00     0.167 HD
ATOM     60  C   UNL A   1      42.042  30.342  35.138  1.00  0.00     0.074 A 
ATOM     61  C   UNL A   1      42.406  30.851  36.444  1.00  0.00     0.031 C 
ATOM     62  C   UNL A   1      42.645  29.290  34.530  1.00  0.00     0.037 A 
BRANCH  49  63
ATOM     63  C   UNL A   1      40.246  27.839  29.013  1.00  0.00     0.064 A 
ATOM     64  C   UNL A   1      39.524  26.634  29.010  1.00  0.00     0.173 A 
ATOM     65  C   UNL A   1      40.970  28.168  27.857  1.00  0.00     0.173 A 
ATOM     66  F   UNL A   1      38.821  26.265  30.091  1.00  0.00    -0.203 F 
ATOM     67  C   UNL A   1      39.564  25.776  27.914  1.00  0.00     0.198 A 
ATOM     68  C   UNL A   1      40.975  27.326  26.748  1.00  0.00     0.198 A 
ATOM     69  F   UNL A   1      41.671  29.310  27.799  1.00  0.00    -0.203 F 
ATOM     70  F   UNL A   1      38.921  24.600  27.963  1.00  0.00    -0.200 F 
ATOM     71  C   UNL A   1      40.284  26.124  26.782  1.00  0.00     0.200 A 
ATOM     72  F   UNL A   1      41.658  27.673  25.648  1.00  0.00    -0.200 F 
ATOM     73  F   UNL A   1      40.319  25.299  25.728  1.00  0.00    -0.200 F 
ENDBRANCH  49  63
BRANCH  50  74
ATOM     74  C   UNL A   1      39.604  33.990  36.861  1.00  0.00     0.064 A 
ATOM     75  C   UNL A   1      38.812  33.610  37.952  1.00  0.00     0.173 A 
ATOM     76  C   UNL A   1      40.276  35.221  36.940  1.00  0.00     0.173 A 
ATOM     77  F   UNL A   1      38.137  32.452  37.919  1.00  0.00    -0.203 F 
ATOM     78  C   UNL A   1      38.682  34.434  39.070  1.00  0.00     0.198 A 
ATOM     79  C   UNL A   1      40.171  36.028  38.070  1.00  0.00     0.198 A 
ATOM     80  F   UNL A   1      41.052  35.629  35.925  1.00  0.00    -0.203 F 
ATOM     81  F   UNL A   1      37.884  34.066  40.081  1.00  0.00    -0.200 F 
ATOM     82  C   UNL A   1      39.368  35.638  39.131  1.00  0.00     0.200 A 
ATOM     83  F   UNL A   1      40.851  37.180  38.133  1.00  0.00    -0.200 F 
ATOM     84  F   UNL A   1      39.252  36.424  40.210  1.00  0.00    -0.200 F 
ENDBRANCH  50  74
BRANCH  62  85
ATOM     85  C   UNL A   1      43.780  28.629  35.261  1.00  0.00     0.064 A 
ATOM     86  C   UNL A   1      45.111  29.031  35.077  1.00  0.00     0.173 A 
ATOM     87  C   UNL A   1      43.525  27.610  36.192  1.00  0.00     0.173 A 
ATOM     88  F   UNL A   1      45.411  29.990  34.188  1.00  0.00    -0.203 F 
ATOM     89  C   UNL A   1      46.147  28.421  35.781  1.00  0.00     0.198 A 
ATOM     90  C   UNL A   1      44.560  27.028  36.920  1.00  0.00     0.198 A 
ATOM     91  F   UNL A   1      42.270  27.192  36.411  1.00  0.00    -0.203 F 
ATOM     92  F   UNL A   1      47.416  28.787  35.553  1.00  0.00    -0.200 F 
ATOM     93  C   UNL A   1      45.870  27.428  36.708  1.00  0.00     0.200 A 
ATOM     94  F   UNL A   1      44.287  26.080  37.828  1.00  0.00    -0.200 F 
ATOM     95  F   UNL A   1      46.867  26.851  37.393  1.00  0.00    -0.200 F 
ENDBRANCH  62  85
ENDBRANCH  36  37
ENDBRANCH  28  31
ENDBRANCH  26  27
ENDBRANCH  25  26
ENDBRANCH  24  25
ENDBRANCH   1  24
TORSDOF 16
ENDMDL
MODEL 2
REMARK VINA RESULT:     -11.9      1.594      2.743
REMARK SMILES O=C(C[C@H]1CN(S(=O)(=O)N2CCCCC2)CCO1)NCCCCCCNC(=O)c1ccc(-c2c3nc(c(-c4c(F)c(F)c(F)c(F)c4F)c4ccc([nH]4)c(-c4c(F)c(F)c(F)c(F)c4F)c4nc(c(-c5c(F)c(F)c(F)c(F)c5F)c5ccc2[nH]5)C=C4)C=C3)cc1
REMARK SMILES IDX 22 1 21 2 20 3 19 4 1 5 2 6 3 8 4 9 5 10 18 11 6 12 17 13
REMARK SMILES IDX 16 14 7 15 8 16 9 17 10 18 11 19 15 20 12 21 14 22 13 23
REMARK SMILES IDX 23 24 24 25 25 26 26 27 27 28 28 30 29 31 30 32 91 33 31 34
REMARK SMILES IDX 90 35 32 36 33 37 34 38 84 39 35 40 89 41 83 42 85 43 36 44
REMARK SMILES IDX 88 45 82 46 81 47 37 49 69 50 49 51 68 52 50 53 53 54 67 55
REMARK SMILES IDX 86 56 51 57 52 58 66 60 87 61 54 62 38 63 39 64 47 65 40 66
REMARK SMILES IDX 41 67 45 68 48 69 42 70 43 71 46 72 44 73 70 74 71 75 79 76
REMARK SMILES IDX 72 77 73 78 77 79 80 80 74 81 75 82 78 83 76 84 55 85 56 86
REMARK SMILES IDX 64 87 57 88 58 89 62 90 65 91 59 92 60 93 63 94 61 95
REMARK H PARENT 19 7 26 29 85 48 53 59
REMARK Flexibility Score: inf
ROOT
ATOM      1  C   UNL A   1      32.879  29.675  27.260  1.00  0.00     0.002 C 
ENDROOT
BRANCH   1   2
ATOM      2  C   UNL A   1      33.472  28.406  26.636  1.00  0.00     0.021 C 
BRANCH   2   3
ATOM      3  C   UNL A   1      32.482  27.615  25.792  1.00  0.00     0.116 C 
BRANCH   3   4
ATOM      4  N   UNL A   1      32.673  26.194  25.925  1.00  0.00    -0.356 N 
ATOM      5  O   UNL A   1      30.547  25.704  26.593  1.00  0.00    -0.275 OA
ATOM      6  C   UNL A   1      31.657  25.327  26.227  1.00  0.00     0.222 C 
ATOM      7  H   UNL A   1      33.577  25.828  25.791  1.00  0.00     0.163 HD
BRANCH   6   8
ATOM      8  C   UNL A   1      32.057  23.864  26.239  1.00  0.00     0.133 C 
BRANCH   8   9
ATOM      9  C   UNL A   1      33.488  23.454  26.650  1.00  0.00     0.142 C 
ATOM     10  C   UNL A   1      33.705  21.969  27.004  1.00  0.00     0.136 C 
ATOM     11  O   UNL A   1      34.566  23.966  25.849  1.00  0.00    -0.375 OA
ATOM     12  N   UNL A   1      34.003  21.082  25.848  1.00  0.00    -0.184 NA
ATOM     13  C   UNL A   1      34.901  23.129  24.726  1.00  0.00     0.177 C 
ATOM     14  C   UNL A   1      35.178  21.676  25.117  1.00  0.00     0.132 C 
BRANCH  12  15
ATOM     15  S   UNL A   1      32.787  20.511  24.816  1.00  0.00     0.282 S 
ATOM     16  O   UNL A   1      31.528  20.682  25.494  1.00  0.00    -0.195 OA
ATOM     17  O   UNL A   1      33.010  21.142  23.537  1.00  0.00    -0.195 OA
BRANCH  15  18
ATOM     18  N   UNL A   1      33.088  18.866  24.641  1.00  0.00    -0.189 NA
ATOM     19  C   UNL A   1      32.644  17.987  25.739  1.00  0.00     0.103 C 
ATOM     20  C   UNL A   1      33.153  18.270  23.291  1.00  0.00     0.103 C 
ATOM     21  C   UNL A   1      33.387  16.655  25.693  1.00  0.00     0.017 C 
ATOM     22  C   UNL A   1      33.778  16.881  23.263  1.00  0.00     0.017 C 
ATOM     23  C   UNL A   1      33.193  15.985  24.343  1.00  0.00     0.003 C 
ENDBRANCH  15  18
ENDBRANCH  12  15
ENDBRANCH   8   9
ENDBRANCH   6   8
ENDBRANCH   3   4
ENDBRANCH   2   3
ENDBRANCH   1   2
BRANCH   1  24
ATOM     24  C   UNL A   1      31.952  30.478  26.342  1.00  0.00     0.002 C 
BRANCH  24  25
ATOM     25  C   UNL A   1      31.624  31.886  26.839  1.00  0.00     0.021 C 
BRANCH  25  26
ATOM     26  C   UNL A   1      32.832  32.671  27.332  1.00  0.00     0.116 C 
BRANCH  26  27
ATOM     27  N   UNL A   1      32.506  34.062  27.609  1.00  0.00    -0.352 N 
ATOM     28  C   UNL A   1      33.022  34.890  28.574  1.00  0.00     0.251 C 
ATOM     29  H   UNL A   1      31.823  34.463  27.026  1.00  0.00     0.163 HD
ATOM     30  O   UNL A   1      32.507  35.979  28.806  1.00  0.00    -0.269 OA
BRANCH  28  31
ATOM     31  C   UNL A   1      34.190  34.441  29.356  1.00  0.00     0.039 A 
ATOM     32  C   UNL A   1      33.980  33.730  30.538  1.00  0.00     0.014 A 
ATOM     33  C   UNL A   1      35.487  34.690  28.898  1.00  0.00     0.014 A 
ATOM     34  C   UNL A   1      35.073  33.202  31.225  1.00  0.00     0.010 A 
ATOM     35  C   UNL A   1      36.568  34.096  29.538  1.00  0.00     0.010 A 
ATOM     36  C   UNL A   1      36.372  33.344  30.706  1.00  0.00    -0.014 A 
BRANCH  36  37
ATOM     37  C   UNL A   1      37.533  32.691  31.360  1.00  0.00     0.031 A 
ATOM     38  C   UNL A   1      38.221  31.532  30.700  1.00  0.00     0.074 A 
ATOM     39  C   UNL A   1      37.919  33.099  32.585  1.00  0.00     0.049 A 
ATOM     40  N   UNL A   1      39.203  30.789  31.144  1.00  0.00    -0.248 NA
ATOM     41  C   UNL A   1      37.719  31.136  29.376  1.00  0.00     0.031 C 
ATOM     42  C   UNL A   1      37.293  34.178  33.350  1.00  0.00     0.029 A 
ATOM     43  N   UNL A   1      38.918  32.643  33.407  1.00  0.00    -0.354 N 
ATOM     44  C   UNL A   1      39.432  29.839  30.159  1.00  0.00     0.074 A 
ATOM     45  C   UNL A   1      38.444  30.056  29.124  1.00  0.00     0.031 C 
ATOM     46  C   UNL A   1      37.932  34.312  34.523  1.00  0.00     0.029 A 
ATOM     47  C   UNL A   1      38.978  33.299  34.612  1.00  0.00     0.049 A 
ATOM     48  H   UNL A   1      39.532  31.916  33.158  1.00  0.00     0.167 HD
ATOM     49  C   UNL A   1      40.395  28.886  30.111  1.00  0.00     0.037 A 
ATOM     50  C   UNL A   1      39.773  33.093  35.680  1.00  0.00     0.037 A 
ATOM     51  C   UNL A   1      41.373  28.676  31.147  1.00  0.00     0.049 A 
ATOM     52  C   UNL A   1      40.816  32.010  35.619  1.00  0.00     0.074 A 
ATOM     53  C   UNL A   1      42.423  27.776  31.171  1.00  0.00     0.029 A 
ATOM     54  N   UNL A   1      41.410  29.367  32.351  1.00  0.00    -0.354 N 
ATOM     55  N   UNL A   1      41.079  31.169  34.647  1.00  0.00    -0.248 NA
ATOM     56  C   UNL A   1      41.677  31.850  36.798  1.00  0.00     0.031 C 
ATOM     57  C   UNL A   1      43.055  27.875  32.416  1.00  0.00     0.029 A 
ATOM     58  C   UNL A   1      42.443  28.886  33.141  1.00  0.00     0.049 A 
ATOM     59  H   UNL A   1      40.794  30.091  32.605  1.00  0.00     0.167 HD
ATOM     60  C   UNL A   1      42.144  30.396  35.088  1.00  0.00     0.074 A 
ATOM     61  C   UNL A   1      42.493  30.883  36.407  1.00  0.00     0.031 C 
ATOM     62  C   UNL A   1      42.776  29.375  34.456  1.00  0.00     0.037 A 
BRANCH  49  63
ATOM     63  C   UNL A   1      40.424  27.994  28.902  1.00  0.00     0.064 A 
ATOM     64  C   UNL A   1      39.743  26.766  28.872  1.00  0.00     0.173 A 
ATOM     65  C   UNL A   1      41.130  28.376  27.751  1.00  0.00     0.173 A 
ATOM     66  F   UNL A   1      39.058  26.347  29.947  1.00  0.00    -0.203 F 
ATOM     67  C   UNL A   1      39.807  25.935  27.756  1.00  0.00     0.198 A 
ATOM     68  C   UNL A   1      41.159  27.561  26.622  1.00  0.00     0.198 A 
ATOM     69  F   UNL A   1      41.791  29.542  27.718  1.00  0.00    -0.203 F 
ATOM     70  F   UNL A   1      39.205  24.738  27.779  1.00  0.00    -0.200 F 
ATOM     71  C   UNL A   1      40.510  26.335  26.630  1.00  0.00     0.200 A 
ATOM     72  F   UNL A   1      41.824  27.957  25.528  1.00  0.00    -0.200 F 
ATOM     73  F   UNL A   1      40.568  25.537  25.556  1.00  0.00    -0.200 F 
ENDBRANCH  49  63
BRANCH  50  74
ATOM     74  C   UNL A   1      39.609  33.936  36.894  1.00  0.00     0.064 A 
ATOM     75  C   UNL A   1      40.224  35.191  36.996  1.00  0.00     0.173 A 
ATOM     76  C   UNL A   1      38.818  33.508  37.971  1.00  0.00     0.173 A 
ATOM     77  F   UNL A   1      41.003  35.638  36.001  1.00  0.00    -0.203 F 
ATOM     78  C   UNL A   1      40.068  35.978  38.136  1.00  0.00     0.198 A 
ATOM     79  C   UNL A   1      38.637  34.309  39.096  1.00  0.00     0.198 A 
ATOM     80  F   UNL A   1      38.202  32.317  37.922  1.00  0.00    -0.203 F 
ATOM     81  F   UNL A   1      40.702  37.155  38.226  1.00  0.00    -0.200 F 
ATOM     82  C   UNL A   1      39.269  35.540  39.181  1.00  0.00     0.200 A 
ATOM     83  F   UNL A   1      37.848  33.890  40.094  1.00  0.00    -0.200 F 
ATOM     84  F   UNL A   1      39.111  36.303  40.271  1.00  0.00    -0.200 F 
ENDBRANCH  50  74
BRANCH  62  85
ATOM     85  C   UNL A   1      43.927  28.727  35.173  1.00  0.00     0.064 A 
ATOM     86  C   UNL A   1      43.747  27.603  35.993  1.00  0.00     0.173 A 
ATOM     87  C   UNL A   1      45.233  29.209  34.999  1.00  0.00     0.173 A 
ATOM     88  F   UNL A   1      42.517  27.110  36.205  1.00  0.00    -0.203 F 
ATOM     89  C   UNL A   1      44.830  27.002  36.631  1.00  0.00     0.198 A 
ATOM     90  C   UNL A   1      46.317  28.584  35.611  1.00  0.00     0.198 A 
ATOM     91  F   UNL A   1      45.462  30.277  34.222  1.00  0.00    -0.203 F 
ATOM     92  F   UNL A   1      44.628  25.960  37.450  1.00  0.00    -0.200 F 
ATOM     93  C   UNL A   1      46.114  27.486  36.432  1.00  0.00     0.200 A 
ATOM     94  F   UNL A   1      47.558  29.043  35.402  1.00  0.00    -0.200 F 
ATOM     95  F   UNL A   1      47.155  26.898  37.037  1.00  0.00    -0.200 F 
ENDBRANCH  62  85
ENDBRANCH  36  37
ENDBRANCH  28  31
ENDBRANCH  26  27
ENDBRANCH  25  26
ENDBRANCH  24  25
ENDBRANCH   1  24
TORSDOF 16
ENDMDL
MODEL 3
REMARK VINA RESULT:     -11.8      1.468      7.703
REMARK SMILES O=C(C[C@H]1CN(S(=O)(=O)N2CCCCC2)CCO1)NCCCCCCNC(=O)c1ccc(-c2c3nc(c(-c4c(F)c(F)c(F)c(F)c4F)c4ccc([nH]4)c(-c4c(F)c(F)c(F)c(F)c4F)c4nc(c(-c5c(F)c(F)c(F)c(F)c5F)c5ccc2[nH]5)C=C4)C=C3)cc1
REMARK SMILES IDX 22 1 21 2 20 3 19 4 1 5 2 6 3 8 4 9 5 10 18 11 6 12 17 13
REMARK SMILES IDX 16 14 7 15 8 16 9 17 10 18 11 19 15 20 12 21 14 22 13 23
REMARK SMILES IDX 23 24 24 25 25 26 26 27 27 28 28 30 29 31 30 32 91 33 31 34
REMARK SMILES IDX 90 35 32 36 33 37 34 38 84 39 35 40 89 41 83 42 85 43 36 44
REMARK SMILES IDX 88 45 82 46 81 47 37 49 69 50 49 51 68 52 50 53 53 54 67 55
REMARK SMILES IDX 86 56 51 57 52 58 66 60 87 61 54 62 38 63 39 64 47 65 40 66
REMARK SMILES IDX 41 67 45 68 48 69 42 70 43 71 46 72 44 73 70 74 71 75 79 76
REMARK SMILES IDX 72 77 73 78 77 79 80 80 74 81 75 82 78 83 76 84 55 85 56 86
REMARK SMILES IDX 64 87 57 88 58 89 62 90 65 91 59 92 60 93 63 94 61 95
REMARK H PARENT 19 7 26 29 85 48 53 59
REMARK Flexibility Score: inf
ROOT
ATOM      1  C   UNL A   1      32.712  29.997  26.989  1.00  0.00     0.002 C 
ENDROOT
BRANCH   1   2
ATOM      2  C   UNL A   1      33.580  29.050  26.149  1.00  0.00     0.021 C 
BRANCH   2   3
ATOM      3  C   UNL A   1      32.792  28.221  25.145  1.00  0.00     0.116 C 
BRANCH   3   4
ATOM      4  N   UNL A   1      32.963  26.808  25.357  1.00  0.00    -0.356 N 
ATOM      5  O   UNL A   1      31.228  26.550  26.818  1.00  0.00    -0.275 OA
ATOM      6  C   UNL A   1      32.103  26.055  26.111  1.00  0.00     0.222 C 
ATOM      7  H   UNL A   1      33.735  26.362  24.941  1.00  0.00     0.163 HD
BRANCH   6   8
ATOM      8  C   UNL A   1      32.420  24.573  26.140  1.00  0.00     0.133 C 
BRANCH   8   9
ATOM      9  C   UNL A   1      33.882  24.094  26.280  1.00  0.00     0.142 C 
ATOM     10  C   UNL A   1      34.092  22.594  26.566  1.00  0.00     0.136 C 
ATOM     11  O   UNL A   1      34.821  24.580  25.307  1.00  0.00    -0.375 OA
ATOM     12  N   UNL A   1      34.139  21.723  25.361  1.00  0.00    -0.184 NA
ATOM     13  C   UNL A   1      34.911  23.757  24.128  1.00  0.00     0.177 C 
ATOM     14  C   UNL A   1      35.189  22.285  24.440  1.00  0.00     0.132 C 
BRANCH  12  15
ATOM     15  S   UNL A   1      32.733  21.227  24.556  1.00  0.00     0.282 S 
ATOM     16  O   UNL A   1      31.674  21.167  25.531  1.00  0.00    -0.195 OA
ATOM     17  O   UNL A   1      32.604  22.081  23.400  1.00  0.00    -0.195 OA
BRANCH  15  18
ATOM     18  N   UNL A   1      33.057  19.668  24.014  1.00  0.00    -0.189 NA
ATOM     19  C   UNL A   1      33.778  18.776  24.942  1.00  0.00     0.103 C 
ATOM     20  C   UNL A   1      32.155  19.028  23.035  1.00  0.00     0.103 C 
ATOM     21  C   UNL A   1      34.422  17.620  24.182  1.00  0.00     0.017 C 
ATOM     22  C   UNL A   1      32.748  17.793  22.370  1.00  0.00     0.017 C 
ATOM     23  C   UNL A   1      33.372  16.855  23.392  1.00  0.00     0.003 C 
ENDBRANCH  15  18
ENDBRANCH  12  15
ENDBRANCH   8   9
ENDBRANCH   6   8
ENDBRANCH   3   4
ENDBRANCH   2   3
ENDBRANCH   1   2
BRANCH   1  24
ATOM     24  C   UNL A   1      31.641  30.762  26.207  1.00  0.00     0.002 C 
BRANCH  24  25
ATOM     25  C   UNL A   1      31.425  32.204  26.663  1.00  0.00     0.021 C 
BRANCH  25  26
ATOM     26  C   UNL A   1      32.632  32.829  27.351  1.00  0.00     0.116 C 
BRANCH  26  27
ATOM     27  N   UNL A   1      32.416  34.232  27.670  1.00  0.00    -0.352 N 
ATOM     28  C   UNL A   1      33.019  34.997  28.636  1.00  0.00     0.251 C 
ATOM     29  H   UNL A   1      31.746  34.696  27.117  1.00  0.00     0.163 HD
ATOM     30  O   UNL A   1      32.592  36.114  28.909  1.00  0.00    -0.269 OA
BRANCH  28  31
ATOM     31  C   UNL A   1      34.175  34.446  29.370  1.00  0.00     0.039 A 
ATOM     32  C   UNL A   1      33.956  33.791  30.583  1.00  0.00     0.014 A 
ATOM     33  C   UNL A   1      35.464  34.544  28.839  1.00  0.00     0.014 A 
ATOM     34  C   UNL A   1      35.023  33.168  31.229  1.00  0.00     0.010 A 
ATOM     35  C   UNL A   1      36.510  33.854  29.441  1.00  0.00     0.010 A 
ATOM     36  C   UNL A   1      36.300  33.157  30.640  1.00  0.00    -0.014 A 
BRANCH  36  37
ATOM     37  C   UNL A   1      37.420  32.401  31.253  1.00  0.00     0.031 A 
ATOM     38  C   UNL A   1      37.948  32.792  32.603  1.00  0.00     0.074 A 
ATOM     39  C   UNL A   1      38.007  31.408  30.558  1.00  0.00     0.049 A 
ATOM     40  N   UNL A   1      38.960  32.299  33.271  1.00  0.00    -0.248 NA
ATOM     41  C   UNL A   1      37.264  33.903  33.281  1.00  0.00     0.031 C 
ATOM     42  C   UNL A   1      37.619  30.974  29.215  1.00  0.00     0.029 A 
ATOM     43  N   UNL A   1      39.066  30.595  30.877  1.00  0.00    -0.354 N 
ATOM     44  C   UNL A   1      39.037  33.042  34.441  1.00  0.00     0.074 A 
ATOM     45  C   UNL A   1      38.012  34.060  34.363  1.00  0.00     0.031 C 
ATOM     46  C   UNL A   1      38.416  29.966  28.831  1.00  0.00     0.029 A 
ATOM     47  C   UNL A   1      39.402  29.714  29.879  1.00  0.00     0.049 A 
ATOM     48  H   UNL A   1      39.540  30.641  31.738  1.00  0.00     0.167 HD
ATOM     49  C   UNL A   1      39.871  32.874  35.495  1.00  0.00     0.037 A 
ATOM     50  C   UNL A   1      40.405  28.818  29.805  1.00  0.00     0.037 A 
ATOM     51  C   UNL A   1      40.890  31.858  35.562  1.00  0.00     0.049 A 
ATOM     52  C   UNL A   1      41.339  28.669  30.974  1.00  0.00     0.074 A 
ATOM     53  C   UNL A   1      41.751  31.568  36.606  1.00  0.00     0.029 A 
ATOM     54  N   UNL A   1      41.195  30.974  34.535  1.00  0.00    -0.354 N 
ATOM     55  N   UNL A   1      41.352  29.321  32.112  1.00  0.00    -0.248 NA
ATOM     56  C   UNL A   1      42.396  27.655  30.853  1.00  0.00     0.031 C 
ATOM     57  C   UNL A   1      42.621  30.555  36.186  1.00  0.00     0.029 A 
ATOM     58  C   UNL A   1      42.257  30.164  34.907  1.00  0.00     0.049 A 
ATOM     59  H   UNL A   1      40.727  30.930  33.671  1.00  0.00     0.167 HD
ATOM     60  C   UNL A   1      42.400  28.785  32.848  1.00  0.00     0.074 A 
ATOM     61  C   UNL A   1      42.987  27.739  32.036  1.00  0.00     0.031 C 
ATOM     62  C   UNL A   1      42.836  29.129  34.086  1.00  0.00     0.037 A 
BRANCH  49  63
ATOM     63  C   UNL A   1      39.721  33.820  36.652  1.00  0.00     0.064 A 
ATOM     64  C   UNL A   1      40.371  35.066  36.679  1.00  0.00     0.173 A 
ATOM     65  C   UNL A   1      38.907  33.486  37.745  1.00  0.00     0.173 A 
ATOM     66  F   UNL A   1      41.167  35.434  35.664  1.00  0.00    -0.203 F 
ATOM     67  C   UNL A   1      40.247  35.917  37.773  1.00  0.00     0.198 A 
ATOM     68  C   UNL A   1      38.755  34.358  38.821  1.00  0.00     0.198 A 
ATOM     69  F   UNL A   1      38.255  32.315  37.771  1.00  0.00    -0.203 F 
ATOM     70  F   UNL A   1      40.932  37.070  37.804  1.00  0.00    -0.200 F 
ATOM     71  C   UNL A   1      39.435  35.566  38.841  1.00  0.00     0.200 A 
ATOM     72  F   UNL A   1      37.955  34.025  39.844  1.00  0.00    -0.200 F 
ATOM     73  F   UNL A   1      39.315  36.388  39.892  1.00  0.00    -0.200 F 
ENDBRANCH  49  63
BRANCH  50  74
ATOM     74  C   UNL A   1      40.569  27.997  28.577  1.00  0.00     0.064 A 
ATOM     75  C   UNL A   1      41.349  28.444  27.503  1.00  0.00     0.173 A 
ATOM     76  C   UNL A   1      39.961  26.737  28.461  1.00  0.00     0.173 A 
ATOM     77  F   UNL A   1      41.937  29.648  27.557  1.00  0.00    -0.203 F 
ATOM     78  C   UNL A   1      41.500  27.672  26.352  1.00  0.00     0.198 A 
ATOM     79  C   UNL A   1      40.139  25.953  27.324  1.00  0.00     0.198 A 
ATOM     80  F   UNL A   1      39.209  26.259  29.463  1.00  0.00    -0.203 F 
ATOM     81  F   UNL A   1      42.216  28.142  25.322  1.00  0.00    -0.200 F 
ATOM     82  C   UNL A   1      40.902  26.423  26.267  1.00  0.00     0.200 A 
ATOM     83  F   UNL A   1      39.576  24.739  27.256  1.00  0.00    -0.200 F 
ATOM     84  F   UNL A   1      41.058  25.677  25.166  1.00  0.00    -0.200 F 
ENDBRANCH  50  74
BRANCH  62  85
ATOM     85  C   UNL A   1      43.993  28.353  34.651  1.00  0.00     0.064 A 
ATOM     86  C   UNL A   1      43.806  27.148  35.344  1.00  0.00     0.173 A 
ATOM     87  C   UNL A   1      45.309  28.799  34.454  1.00  0.00     0.173 A 
ATOM     88  F   UNL A   1      42.567  26.685  35.573  1.00  0.00    -0.203 F 
ATOM     89  C   UNL A   1      44.892  26.432  35.840  1.00  0.00     0.198 A 
ATOM     90  C   UNL A   1      46.394  28.061  34.921  1.00  0.00     0.198 A 
ATOM     91  F   UNL A   1      45.546  29.941  33.793  1.00  0.00    -0.203 F 
ATOM     92  F   UNL A   1      44.687  25.309  36.543  1.00  0.00    -0.200 F 
ATOM     93  C   UNL A   1      46.184  26.883  35.620  1.00  0.00     0.200 A 
ATOM     94  F   UNL A   1      47.642  28.491  34.692  1.00  0.00    -0.200 F 
ATOM     95  F   UNL A   1      47.228  26.184  36.088  1.00  0.00    -0.200 F 
ENDBRANCH  62  85
ENDBRANCH  36  37
ENDBRANCH  28  31
ENDBRANCH  26  27
ENDBRANCH  25  26
ENDBRANCH  24  25
ENDBRANCH   1  24
TORSDOF 16
ENDMDL
