MODEL 1
REMARK VINA RESULT:     -12.4      0.000      0.000
REMARK SMILES Cc1c(F)cc(C(=O)NCCCCCCNC(=O)c2ccc(-c3c4nc(c(-c5c(F)c(F)c(F)c(F)c5F)c5ccc([nH]5)c(-c5c(F)c(F)c(F)c(F)c5F)c5nc(c(-c6c(F)c(F)c(F)c(F)c6F)c6ccc3[nH]6)C=C5)C=C4)cc2)cc1S(=O)(=O)NC#N
REMARK SMILES IDX 12 1 11 2 10 3 9 4 7 5 8 6 6 8 1 9 2 10 3 11 83 12 4 13 5 14
REMARK SMILES IDX 82 15 84 16 85 17 86 18 87 19 88 21 89 22 13 23 14 24 15 25
REMARK SMILES IDX 16 26 17 27 18 29 19 30 20 31 81 32 21 33 80 34 22 35 23 36
REMARK SMILES IDX 24 37 74 38 25 39 79 40 73 41 75 42 26 43 78 44 72 45 71 46
REMARK SMILES IDX 27 48 59 49 39 50 58 51 40 52 43 53 57 54 76 55 41 56 42 57
REMARK SMILES IDX 56 59 77 60 44 61 28 62 29 63 37 64 30 65 31 66 35 67 38 68
REMARK SMILES IDX 32 69 33 70 36 71 34 72 60 73 61 74 69 75 62 76 63 77 67 78
REMARK SMILES IDX 70 79 64 80 65 81 68 82 66 83 45 84 46 85 54 86 47 87 48 88
REMARK SMILES IDX 52 89 55 90 49 91 50 92 53 93 51 94
REMARK H PARENT 9 7 87 20 16 28 75 47 43 58
REMARK Flexibility Score: inf
ROOT
ATOM      1  C   UNL A   1      34.491  21.038  25.126  1.00  0.00     0.002 C 
ENDROOT
BRANCH   1   2
ATOM      2  C   UNL A   1      33.263  21.215  26.030  1.00  0.00     0.021 C 
BRANCH   2   3
ATOM      3  C   UNL A   1      32.002  21.464  25.204  1.00  0.00     0.116 C 
BRANCH   3   4
ATOM      4  N   UNL A   1      31.018  22.099  26.046  1.00  0.00    -0.352 N 
ATOM      5  C   UNL A   1      30.768  23.393  26.389  1.00  0.00     0.251 C 
ATOM      6  O   UNL A   1      29.937  23.582  27.277  1.00  0.00    -0.269 OA
ATOM      7  H   UNL A   1      30.394  21.461  26.462  1.00  0.00     0.163 HD
BRANCH   5   8
ATOM      8  C   UNL A   1      31.377  24.570  25.708  1.00  0.00     0.044 A 
ATOM      9  C   UNL A   1      33.511  27.980  24.110  1.00  0.00     0.049 C 
ATOM     10  C   UNL A   1      32.654  26.875  24.622  1.00  0.00     0.005 A 
ATOM     11  C   UNL A   1      33.247  26.069  25.618  1.00  0.00     0.128 A 
ATOM     12  C   UNL A   1      31.364  26.548  24.211  1.00  0.00     0.095 A 
ATOM     13  F   UNL A   1      34.471  26.377  26.076  1.00  0.00    -0.207 F 
ATOM     14  C   UNL A   1      32.624  24.960  26.170  1.00  0.00     0.053 A 
ATOM     15  C   UNL A   1      30.802  25.332  24.690  1.00  0.00     0.036 A 
BRANCH  12  16
ATOM     16  S   UNL A   1      30.139  27.468  23.279  1.00  0.00     0.270 S 
ATOM     17  O   UNL A   1      30.622  27.390  21.911  1.00  0.00    -0.201 OA
ATOM     18  O   UNL A   1      28.872  26.845  23.607  1.00  0.00    -0.201 OA
BRANCH  16  19
ATOM     19  N   UNL A   1      29.937  29.083  23.471  1.00  0.00    -0.215 NA
ATOM     20  H   UNL A   1      30.171  29.458  24.351  1.00  0.00     0.193 HD
BRANCH  19  21
ATOM     21  C   UNL A   1      29.493  29.928  22.565  1.00  0.00     0.191 C 
ATOM     22  N   UNL A   1      29.132  30.535  21.657  1.00  0.00    -0.172 NA
ENDBRANCH  19  21
ENDBRANCH  16  19
ENDBRANCH  12  16
ENDBRANCH   5   8
ENDBRANCH   3   4
ENDBRANCH   2   3
ENDBRANCH   1   2
BRANCH   1  23
ATOM     23  C   UNL A   1      35.135  22.368  24.699  1.00  0.00     0.002 C 
BRANCH  23  24
ATOM     24  C   UNL A   1      35.787  23.149  25.852  1.00  0.00     0.021 C 
BRANCH  24  25
ATOM     25  C   UNL A   1      37.174  23.585  25.468  1.00  0.00     0.116 C 
BRANCH  25  26
ATOM     26  N   UNL A   1      38.148  22.688  26.082  1.00  0.00    -0.352 N 
ATOM     27  C   UNL A   1      39.415  23.005  26.486  1.00  0.00     0.251 C 
ATOM     28  H   UNL A   1      37.861  21.756  26.222  1.00  0.00     0.163 HD
ATOM     29  O   UNL A   1      40.308  22.171  26.521  1.00  0.00    -0.269 OA
BRANCH  27  30
ATOM     30  C   UNL A   1      39.624  24.368  26.975  1.00  0.00     0.039 A 
ATOM     31  C   UNL A   1      40.288  25.334  26.214  1.00  0.00     0.014 A 
ATOM     32  C   UNL A   1      39.228  24.618  28.288  1.00  0.00     0.014 A 
ATOM     33  C   UNL A   1      40.600  26.543  26.816  1.00  0.00     0.010 A 
ATOM     34  C   UNL A   1      39.331  25.858  28.797  1.00  0.00     0.010 A 
ATOM     35  C   UNL A   1      40.142  26.754  28.116  1.00  0.00    -0.014 A 
BRANCH  35  36
ATOM     36  C   UNL A   1      40.409  27.909  28.928  1.00  0.00     0.031 A 
ATOM     37  C   UNL A   1      39.406  28.966  28.832  1.00  0.00     0.074 A 
ATOM     38  C   UNL A   1      41.393  27.716  29.841  1.00  0.00     0.049 A 
ATOM     39  N   UNL A   1      39.665  30.217  28.899  1.00  0.00    -0.248 NA
ATOM     40  C   UNL A   1      37.994  28.702  28.518  1.00  0.00     0.031 C 
ATOM     41  C   UNL A   1      41.708  28.379  31.090  1.00  0.00     0.029 A 
ATOM     42  N   UNL A   1      42.427  26.761  29.725  1.00  0.00    -0.354 N 
ATOM     43  C   UNL A   1      38.454  30.817  29.167  1.00  0.00     0.074 A 
ATOM     44  C   UNL A   1      37.455  29.920  28.650  1.00  0.00     0.031 C 
ATOM     45  C   UNL A   1      42.991  28.112  31.414  1.00  0.00     0.029 A 
ATOM     46  C   UNL A   1      43.561  27.333  30.325  1.00  0.00     0.049 A 
ATOM     47  H   UNL A   1      42.366  25.872  29.307  1.00  0.00     0.167 HD
ATOM     48  C   UNL A   1      38.433  31.818  30.092  1.00  0.00     0.037 A 
ATOM     49  C   UNL A   1      44.599  27.703  29.518  1.00  0.00     0.037 A 
ATOM     50  C   UNL A   1      39.760  31.919  30.697  1.00  0.00     0.049 A 
ATOM     51  C   UNL A   1      44.695  29.204  29.455  1.00  0.00     0.074 A 
ATOM     52  C   UNL A   1      40.283  31.428  31.882  1.00  0.00     0.029 A 
ATOM     53  N   UNL A   1      40.846  32.222  29.891  1.00  0.00    -0.354 N 
ATOM     54  N   UNL A   1      43.677  30.013  29.586  1.00  0.00    -0.248 NA
ATOM     55  C   UNL A   1      45.968  29.900  29.372  1.00  0.00     0.031 C 
ATOM     56  C   UNL A   1      41.699  31.505  31.798  1.00  0.00     0.029 A 
ATOM     57  C   UNL A   1      42.032  32.003  30.550  1.00  0.00     0.049 A 
ATOM     58  H   UNL A   1      40.776  32.550  28.966  1.00  0.00     0.167 HD
ATOM     59  C   UNL A   1      44.134  31.305  29.687  1.00  0.00     0.074 A 
ATOM     60  C   UNL A   1      45.573  31.172  29.546  1.00  0.00     0.031 C 
ATOM     61  C   UNL A   1      43.291  32.362  29.912  1.00  0.00     0.037 A 
BRANCH  48  62
ATOM     62  C   UNL A   1      37.227  32.497  30.691  1.00  0.00     0.064 A 
ATOM     63  C   UNL A   1      36.477  33.415  29.916  1.00  0.00     0.173 A 
ATOM     64  C   UNL A   1      36.708  32.248  31.975  1.00  0.00     0.173 A 
ATOM     65  F   UNL A   1      36.812  33.713  28.655  1.00  0.00    -0.203 F 
ATOM     66  C   UNL A   1      35.335  34.055  30.396  1.00  0.00     0.198 A 
ATOM     67  C   UNL A   1      35.571  32.905  32.462  1.00  0.00     0.198 A 
ATOM     68  F   UNL A   1      37.246  31.326  32.783  1.00  0.00    -0.203 F 
ATOM     69  F   UNL A   1      34.673  34.909  29.602  1.00  0.00    -0.200 F 
ATOM     70  C   UNL A   1      34.884  33.806  31.672  1.00  0.00     0.200 A 
ATOM     71  F   UNL A   1      35.132  32.644  33.702  1.00  0.00    -0.200 F 
ATOM     72  F   UNL A   1      33.781  34.415  32.130  1.00  0.00    -0.200 F 
ENDBRANCH  48  62
BRANCH  49  73
ATOM     73  C   UNL A   1      44.762  26.734  28.382  1.00  0.00     0.064 A 
ATOM     74  C   UNL A   1      44.498  27.260  27.096  1.00  0.00     0.173 A 
ATOM     75  C   UNL A   1      45.666  25.666  28.466  1.00  0.00     0.173 A 
ATOM     76  F   UNL A   1      43.598  28.247  26.951  1.00  0.00    -0.203 F 
ATOM     77  C   UNL A   1      45.308  26.939  26.012  1.00  0.00     0.198 A 
ATOM     78  C   UNL A   1      46.431  25.301  27.354  1.00  0.00     0.198 A 
ATOM     79  F   UNL A   1      45.919  25.081  29.646  1.00  0.00    -0.203 F 
ATOM     80  F   UNL A   1      45.204  27.637  24.871  1.00  0.00    -0.200 F 
ATOM     81  C   UNL A   1      46.305  25.991  26.155  1.00  0.00     0.200 A 
ATOM     82  F   UNL A   1      47.365  24.346  27.474  1.00  0.00    -0.200 F 
ATOM     83  F   UNL A   1      47.170  25.783  25.153  1.00  0.00    -0.200 F 
ENDBRANCH  49  73
BRANCH  61  84
ATOM     84  C   UNL A   1      43.541  33.842  29.633  1.00  0.00     0.064 A 
ATOM     85  C   UNL A   1      43.629  34.418  28.358  1.00  0.00     0.173 A 
ATOM     86  C   UNL A   1      43.573  34.794  30.697  1.00  0.00     0.173 A 
ATOM     87  F   UNL A   1      43.521  33.697  27.241  1.00  0.00    -0.203 F 
ATOM     88  C   UNL A   1      43.781  35.794  28.162  1.00  0.00     0.198 A 
ATOM     89  C   UNL A   1      43.634  36.169  30.495  1.00  0.00     0.198 A 
ATOM     90  F   UNL A   1      43.522  34.447  31.989  1.00  0.00    -0.203 F 
ATOM     91  F   UNL A   1      43.917  36.266  26.916  1.00  0.00    -0.200 F 
ATOM     92  C   UNL A   1      43.761  36.671  29.225  1.00  0.00     0.200 A 
ATOM     93  F   UNL A   1      43.552  36.997  31.547  1.00  0.00    -0.200 F 
ATOM     94  F   UNL A   1      43.848  37.992  29.025  1.00  0.00    -0.200 F 
ENDBRANCH  61  84
ENDBRANCH  35  36
ENDBRANCH  27  30
ENDBRANCH  25  26
ENDBRANCH  24  25
ENDBRANCH  23  24
ENDBRANCH   1  23
TORSDOF 16
ENDMDL
MODEL 2
REMARK VINA RESULT:     -12.2      3.846      9.227
REMARK SMILES Cc1c(F)cc(C(=O)NCCCCCCNC(=O)c2ccc(-c3c4nc(c(-c5c(F)c(F)c(F)c(F)c5F)c5ccc([nH]5)c(-c5c(F)c(F)c(F)c(F)c5F)c5nc(c(-c6c(F)c(F)c(F)c(F)c6F)c6ccc3[nH]6)C=C5)C=C4)cc2)cc1S(=O)(=O)NC#N
REMARK SMILES IDX 12 1 11 2 10 3 9 4 7 5 8 6 6 8 1 9 2 10 3 11 83 12 4 13 5 14
REMARK SMILES IDX 82 15 84 16 85 17 86 18 87 19 88 21 89 22 13 23 14 24 15 25
REMARK SMILES IDX 16 26 17 27 18 29 19 30 20 31 81 32 21 33 80 34 22 35 23 36
REMARK SMILES IDX 24 37 74 38 25 39 79 40 73 41 75 42 26 43 78 44 72 45 71 46
REMARK SMILES IDX 27 48 59 49 39 50 58 51 40 52 43 53 57 54 76 55 41 56 42 57
REMARK SMILES IDX 56 59 77 60 44 61 28 62 29 63 37 64 30 65 31 66 35 67 38 68
REMARK SMILES IDX 32 69 33 70 36 71 34 72 60 73 61 74 69 75 62 76 63 77 67 78
REMARK SMILES IDX 70 79 64 80 65 81 68 82 66 83 45 84 46 85 54 86 47 87 48 88
REMARK SMILES IDX 52 89 55 90 49 91 50 92 53 93 51 94
REMARK H PARENT 9 7 87 20 16 28 75 47 43 58
REMARK Flexibility Score: inf
ROOT
ATOM      1  C   UNL A   1      35.216  29.994  27.115  1.00  0.00     0.002 C 
ENDROOT
BRANCH   1   2
ATOM      2  C   UNL A   1      33.849  29.298  27.139  1.00  0.00     0.021 C 
BRANCH   2   3
ATOM      3  C   UNL A   1      33.814  28.114  26.173  1.00  0.00     0.116 C 
BRANCH   3   4
ATOM      4  N   UNL A   1      34.039  28.606  24.836  1.00  0.00    -0.352 N 
ATOM      5  C   UNL A   1      33.274  28.651  23.710  1.00  0.00     0.251 C 
ATOM      6  O   UNL A   1      33.837  28.994  22.670  1.00  0.00    -0.269 OA
ATOM      7  H   UNL A   1      34.937  28.990  24.709  1.00  0.00     0.163 HD
BRANCH   5   8
ATOM      8  C   UNL A   1      31.809  28.389  23.685  1.00  0.00     0.044 A 
ATOM      9  C   UNL A   1      27.673  27.113  23.618  1.00  0.00     0.049 C 
ATOM     10  C   UNL A   1      29.056  27.658  23.550  1.00  0.00     0.005 A 
ATOM     11  C   UNL A   1      30.080  26.733  23.851  1.00  0.00     0.128 A 
ATOM     12  C   UNL A   1      29.435  28.964  23.248  1.00  0.00     0.095 A 
ATOM     13  F   UNL A   1      29.762  25.454  24.102  1.00  0.00    -0.207 F 
ATOM     14  C   UNL A   1      31.424  27.074  23.895  1.00  0.00     0.053 A 
ATOM     15  C   UNL A   1      30.800  29.320  23.433  1.00  0.00     0.036 A 
BRANCH  12  16
ATOM     16  S   UNL A   1      28.543  30.319  22.484  1.00  0.00     0.270 S 
ATOM     17  O   UNL A   1      28.218  29.811  21.161  1.00  0.00    -0.201 OA
ATOM     18  O   UNL A   1      27.460  30.619  23.399  1.00  0.00    -0.201 OA
BRANCH  16  19
ATOM     19  N   UNL A   1      29.269  31.743  22.126  1.00  0.00    -0.215 NA
ATOM     20  H   UNL A   1      30.055  31.704  21.533  1.00  0.00     0.193 HD
BRANCH  19  21
ATOM     21  C   UNL A   1      28.906  32.935  22.550  1.00  0.00     0.191 C 
ATOM     22  N   UNL A   1      28.607  33.908  23.084  1.00  0.00    -0.172 NA
ENDBRANCH  19  21
ENDBRANCH  16  19
ENDBRANCH  12  16
ENDBRANCH   5   8
ENDBRANCH   3   4
ENDBRANCH   2   3
ENDBRANCH   1   2
BRANCH   1  23
ATOM     23  C   UNL A   1      35.337  31.145  28.128  1.00  0.00     0.002 C 
BRANCH  23  24
ATOM     24  C   UNL A   1      34.136  32.105  28.134  1.00  0.00     0.021 C 
BRANCH  24  25
ATOM     25  C   UNL A   1      34.610  33.533  28.122  1.00  0.00     0.116 C 
BRANCH  25  26
ATOM     26  N   UNL A   1      34.239  34.173  29.381  1.00  0.00    -0.352 N 
ATOM     27  C   UNL A   1      34.712  33.867  30.627  1.00  0.00     0.251 C 
ATOM     28  H   UNL A   1      33.581  34.903  29.326  1.00  0.00     0.163 HD
ATOM     29  O   UNL A   1      34.048  34.062  31.634  1.00  0.00    -0.269 OA
BRANCH  27  30
ATOM     30  C   UNL A   1      36.094  33.390  30.703  1.00  0.00     0.039 A 
ATOM     31  C   UNL A   1      37.121  33.977  29.960  1.00  0.00     0.014 A 
ATOM     32  C   UNL A   1      36.308  32.245  31.469  1.00  0.00     0.014 A 
ATOM     33  C   UNL A   1      38.362  33.359  29.953  1.00  0.00     0.010 A 
ATOM     34  C   UNL A   1      37.556  31.774  31.638  1.00  0.00     0.010 A 
ATOM     35  C   UNL A   1      38.530  32.241  30.769  1.00  0.00    -0.014 A 
BRANCH  35  36
ATOM     36  C   UNL A   1      39.714  31.430  30.858  1.00  0.00     0.031 A 
ATOM     37  C   UNL A   1      39.643  30.168  30.128  1.00  0.00     0.074 A 
ATOM     38  C   UNL A   1      40.783  32.084  31.376  1.00  0.00     0.049 A 
ATOM     39  N   UNL A   1      40.194  29.078  30.511  1.00  0.00    -0.248 NA
ATOM     40  C   UNL A   1      38.817  29.986  28.925  1.00  0.00     0.031 C 
ATOM     41  C   UNL A   1      42.210  31.855  31.272  1.00  0.00     0.029 A 
ATOM     42  N   UNL A   1      40.708  33.205  32.231  1.00  0.00    -0.354 N 
ATOM     43  C   UNL A   1      40.230  28.284  29.386  1.00  0.00     0.074 A 
ATOM     44  C   UNL A   1      39.153  28.745  28.551  1.00  0.00     0.031 C 
ATOM     45  C   UNL A   1      42.830  32.505  32.280  1.00  0.00     0.029 A 
ATOM     46  C   UNL A   1      41.797  33.102  33.112  1.00  0.00     0.049 A 
ATOM     47  H   UNL A   1      40.028  33.917  32.214  1.00  0.00     0.167 HD
ATOM     48  C   UNL A   1      41.369  27.574  29.148  1.00  0.00     0.037 A 
ATOM     49  C   UNL A   1      41.540  32.811  34.422  1.00  0.00     0.037 A 
ATOM     50  C   UNL A   1      42.372  27.961  30.139  1.00  0.00     0.049 A 
ATOM     51  C   UNL A   1      42.004  31.415  34.742  1.00  0.00     0.074 A 
ATOM     52  C   UNL A   1      43.436  28.847  30.089  1.00  0.00     0.029 A 
ATOM     53  N   UNL A   1      42.110  27.745  31.482  1.00  0.00    -0.354 N 
ATOM     54  N   UNL A   1      42.049  30.438  33.875  1.00  0.00    -0.248 NA
ATOM     55  C   UNL A   1      42.572  31.060  36.031  1.00  0.00     0.031 C 
ATOM     56  C   UNL A   1      43.849  29.106  31.423  1.00  0.00     0.029 A 
ATOM     57  C   UNL A   1      43.013  28.409  32.279  1.00  0.00     0.049 A 
ATOM     58  H   UNL A   1      41.373  27.188  31.822  1.00  0.00     0.167 HD
ATOM     59  C   UNL A   1      42.707  29.368  34.432  1.00  0.00     0.074 A 
ATOM     60  C   UNL A   1      43.010  29.815  35.780  1.00  0.00     0.031 C 
ATOM     61  C   UNL A   1      42.975  28.226  33.722  1.00  0.00     0.037 A 
BRANCH  48  62
ATOM     62  C   UNL A   1      41.727  26.788  27.911  1.00  0.00     0.064 A 
ATOM     63  C   UNL A   1      42.351  27.439  26.819  1.00  0.00     0.173 A 
ATOM     64  C   UNL A   1      41.560  25.401  27.754  1.00  0.00     0.173 A 
ATOM     65  F   UNL A   1      42.629  28.748  26.842  1.00  0.00    -0.203 F 
ATOM     66  C   UNL A   1      42.736  26.769  25.659  1.00  0.00     0.198 A 
ATOM     67  C   UNL A   1      41.932  24.732  26.580  1.00  0.00     0.198 A 
ATOM     68  F   UNL A   1      41.083  24.634  28.742  1.00  0.00    -0.203 F 
ATOM     69  F   UNL A   1      43.326  27.451  24.667  1.00  0.00    -0.200 F 
ATOM     70  C   UNL A   1      42.521  25.415  25.535  1.00  0.00     0.200 A 
ATOM     71  F   UNL A   1      41.730  23.410  26.475  1.00  0.00    -0.200 F 
ATOM     72  F   UNL A   1      42.900  24.771  24.422  1.00  0.00    -0.200 F 
ENDBRANCH  48  62
BRANCH  49  73
ATOM     73  C   UNL A   1      40.271  33.474  34.876  1.00  0.00     0.064 A 
ATOM     74  C   UNL A   1      39.214  32.594  35.204  1.00  0.00     0.173 A 
ATOM     75  C   UNL A   1      40.295  34.718  35.520  1.00  0.00     0.173 A 
ATOM     76  F   UNL A   1      39.111  31.411  34.577  1.00  0.00    -0.203 F 
ATOM     77  C   UNL A   1      38.412  32.824  36.318  1.00  0.00     0.198 A 
ATOM     78  C   UNL A   1      39.439  34.972  36.597  1.00  0.00     0.198 A 
ATOM     79  F   UNL A   1      41.235  35.624  35.214  1.00  0.00    -0.203 F 
ATOM     80  F   UNL A   1      37.592  31.859  36.760  1.00  0.00    -0.200 F 
ATOM     81  C   UNL A   1      38.558  33.994  37.040  1.00  0.00     0.200 A 
ATOM     82  F   UNL A   1      39.541  36.127  37.270  1.00  0.00    -0.200 F 
ATOM     83  F   UNL A   1      37.884  34.152  38.188  1.00  0.00    -0.200 F 
ENDBRANCH  49  73
BRANCH  61  84
ATOM     84  C   UNL A   1      43.289  26.834  34.264  1.00  0.00     0.064 A 
ATOM     85  C   UNL A   1      42.353  25.963  34.839  1.00  0.00     0.173 A 
ATOM     86  C   UNL A   1      44.583  26.255  34.091  1.00  0.00     0.173 A 
ATOM     87  F   UNL A   1      41.070  26.293  34.991  1.00  0.00    -0.203 F 
ATOM     88  C   UNL A   1      42.682  24.666  35.246  1.00  0.00     0.198 A 
ATOM     89  C   UNL A   1      44.883  24.936  34.415  1.00  0.00     0.198 A 
ATOM     90  F   UNL A   1      45.621  26.927  33.578  1.00  0.00    -0.203 F 
ATOM     91  F   UNL A   1      41.750  23.912  35.843  1.00  0.00    -0.200 F 
ATOM     92  C   UNL A   1      43.937  24.144  35.016  1.00  0.00     0.200 A 
ATOM     93  F   UNL A   1      46.095  24.441  34.123  1.00  0.00    -0.200 F 
ATOM     94  F   UNL A   1      44.227  22.883  35.355  1.00  0.00    -0.200 F 
ENDBRANCH  61  84
ENDBRANCH  35  36
ENDBRANCH  27  30
ENDBRANCH  25  26
ENDBRANCH  24  25
ENDBRANCH  23  24
ENDBRANCH   1  23
TORSDOF 16
ENDMDL
MODEL 3
REMARK VINA RESULT:     -11.9      2.732      4.392
REMARK SMILES Cc1c(F)cc(C(=O)NCCCCCCNC(=O)c2ccc(-c3c4nc(c(-c5c(F)c(F)c(F)c(F)c5F)c5ccc([nH]5)c(-c5c(F)c(F)c(F)c(F)c5F)c5nc(c(-c6c(F)c(F)c(F)c(F)c6F)c6ccc3[nH]6)C=C5)C=C4)cc2)cc1S(=O)(=O)NC#N
REMARK SMILES IDX 12 1 11 2 10 3 9 4 7 5 8 6 6 8 1 9 2 10 3 11 83 12 4 13 5 14
REMARK SMILES IDX 82 15 84 16 85 17 86 18 87 19 88 21 89 22 13 23 14 24 15 25
REMARK SMILES IDX 16 26 17 27 18 29 19 30 20 31 81 32 21 33 80 34 22 35 23 36
REMARK SMILES IDX 24 37 74 38 25 39 79 40 73 41 75 42 26 43 78 44 72 45 71 46
REMARK SMILES IDX 27 48 59 49 39 50 58 51 40 52 43 53 57 54 76 55 41 56 42 57
REMARK SMILES IDX 56 59 77 60 44 61 28 62 29 63 37 64 30 65 31 66 35 67 38 68
REMARK SMILES IDX 32 69 33 70 36 71 34 72 60 73 61 74 69 75 62 76 63 77 67 78
REMARK SMILES IDX 70 79 64 80 65 81 68 82 66 83 45 84 46 85 54 86 47 87 48 88
REMARK SMILES IDX 52 89 55 90 49 91 50 92 53 93 51 94
REMARK H PARENT 9 7 87 20 16 28 75 47 43 58
REMARK Flexibility Score: inf
ROOT
ATOM      1  C   UNL A   1      40.412  22.553  26.637  1.00  0.00     0.002 C 
ENDROOT
BRANCH   1   2
ATOM      2  C   UNL A   1      39.476  23.699  27.045  1.00  0.00     0.021 C 
BRANCH   2   3
ATOM      3  C   UNL A   1      38.180  23.668  26.233  1.00  0.00     0.116 C 
BRANCH   3   4
ATOM      4  N   UNL A   1      38.196  22.502  25.386  1.00  0.00    -0.352 N 
ATOM      5  C   UNL A   1      37.232  21.643  24.950  1.00  0.00     0.251 C 
ATOM      6  O   UNL A   1      37.614  20.634  24.358  1.00  0.00    -0.269 OA
ATOM      7  H   UNL A   1      39.094  22.277  25.051  1.00  0.00     0.163 HD
BRANCH   5   8
ATOM      8  C   UNL A   1      35.770  21.894  25.080  1.00  0.00     0.044 A 
ATOM      9  C   UNL A   1      31.541  22.327  25.898  1.00  0.00     0.049 C 
ATOM     10  C   UNL A   1      32.960  22.170  25.476  1.00  0.00     0.005 A 
ATOM     11  C   UNL A   1      33.825  21.652  26.465  1.00  0.00     0.128 A 
ATOM     12  C   UNL A   1      33.514  22.495  24.240  1.00  0.00     0.095 A 
ATOM     13  F   UNL A   1      33.324  21.282  27.653  1.00  0.00    -0.207 F 
ATOM     14  C   UNL A   1      35.189  21.491  26.273  1.00  0.00     0.053 A 
ATOM     15  C   UNL A   1      34.931  22.451  24.114  1.00  0.00     0.036 A 
BRANCH  12  16
ATOM     16  S   UNL A   1      32.764  22.824  22.645  1.00  0.00     0.270 S 
ATOM     17  O   UNL A   1      33.872  23.307  21.839  1.00  0.00    -0.201 OA
ATOM     18  O   UNL A   1      32.120  21.581  22.270  1.00  0.00    -0.201 OA
BRANCH  16  19
ATOM     19  N   UNL A   1      31.657  24.013  22.436  1.00  0.00    -0.215 NA
ATOM     20  H   UNL A   1      31.237  24.077  21.548  1.00  0.00     0.193 HD
BRANCH  19  21
ATOM     21  C   UNL A   1      31.271  24.891  23.338  1.00  0.00     0.191 C 
ATOM     22  N   UNL A   1      30.977  25.532  24.246  1.00  0.00    -0.172 NA
ENDBRANCH  19  21
ENDBRANCH  16  19
ENDBRANCH  12  16
ENDBRANCH   5   8
ENDBRANCH   3   4
ENDBRANCH   2   3
ENDBRANCH   1   2
BRANCH   1  23
ATOM     23  C   UNL A   1      40.996  21.783  27.834  1.00  0.00     0.002 C 
BRANCH  23  24
ATOM     24  C   UNL A   1      41.793  20.527  27.445  1.00  0.00     0.021 C 
BRANCH  24  25
ATOM     25  C   UNL A   1      42.268  20.632  26.022  1.00  0.00     0.116 C 
BRANCH  25  26
ATOM     26  N   UNL A   1      43.722  20.502  25.989  1.00  0.00    -0.352 N 
ATOM     27  C   UNL A   1      44.629  21.500  25.760  1.00  0.00     0.251 C 
ATOM     28  H   UNL A   1      44.088  19.603  26.151  1.00  0.00     0.163 HD
ATOM     29  O   UNL A   1      45.726  21.273  25.270  1.00  0.00    -0.269 OA
BRANCH  27  30
ATOM     30  C   UNL A   1      44.263  22.838  26.227  1.00  0.00     0.039 A 
ATOM     31  C   UNL A   1      43.881  23.850  25.344  1.00  0.00     0.014 A 
ATOM     32  C   UNL A   1      44.429  23.079  27.590  1.00  0.00     0.014 A 
ATOM     33  C   UNL A   1      43.722  25.133  25.846  1.00  0.00     0.010 A 
ATOM     34  C   UNL A   1      44.063  24.263  28.111  1.00  0.00     0.010 A 
ATOM     35  C   UNL A   1      43.859  25.308  27.222  1.00  0.00    -0.014 A 
BRANCH  35  36
ATOM     36  C   UNL A   1      43.790  26.560  27.926  1.00  0.00     0.031 A 
ATOM     37  C   UNL A   1      42.448  27.123  28.037  1.00  0.00     0.074 A 
ATOM     38  C   UNL A   1      44.929  26.871  28.593  1.00  0.00     0.049 A 
ATOM     39  N   UNL A   1      42.183  28.375  28.015  1.00  0.00    -0.248 NA
ATOM     40  C   UNL A   1      41.233  26.294  28.062  1.00  0.00     0.031 C 
ATOM     41  C   UNL A   1      45.191  27.743  29.721  1.00  0.00     0.029 A 
ATOM     42  N   UNL A   1      46.215  26.390  28.265  1.00  0.00    -0.354 N 
ATOM     43  C   UNL A   1      40.914  28.480  28.539  1.00  0.00     0.074 A 
ATOM     44  C   UNL A   1      40.284  27.211  28.286  1.00  0.00     0.031 C 
ATOM     45  C   UNL A   1      46.508  28.036  29.748  1.00  0.00     0.029 A 
ATOM     46  C   UNL A   1      47.114  27.424  28.576  1.00  0.00     0.049 A 
ATOM     47  H   UNL A   1      46.438  25.507  27.892  1.00  0.00     0.167 HD
ATOM     48  C   UNL A   1      40.674  29.491  29.421  1.00  0.00     0.037 A 
ATOM     49  C   UNL A   1      47.727  28.076  27.544  1.00  0.00     0.037 A 
ATOM     50  C   UNL A   1      41.938  30.170  29.703  1.00  0.00     0.049 A 
ATOM     51  C   UNL A   1      47.191  29.477  27.427  1.00  0.00     0.074 A 
ATOM     52  C   UNL A   1      42.840  30.061  30.747  1.00  0.00     0.029 A 
ATOM     53  N   UNL A   1      42.621  30.780  28.663  1.00  0.00    -0.354 N 
ATOM     54  N   UNL A   1      45.981  29.833  27.769  1.00  0.00    -0.248 NA
ATOM     55  C   UNL A   1      48.027  30.600  27.038  1.00  0.00     0.031 C 
ATOM     56  C   UNL A   1      44.055  30.675  30.339  1.00  0.00     0.029 A 
ATOM     57  C   UNL A   1      43.900  31.119  29.038  1.00  0.00     0.049 A 
ATOM     58  H   UNL A   1      42.240  30.948  27.771  1.00  0.00     0.167 HD
ATOM     59  C   UNL A   1      45.884  31.204  27.732  1.00  0.00     0.074 A 
ATOM     60  C   UNL A   1      47.193  31.628  27.269  1.00  0.00     0.031 C 
ATOM     61  C   UNL A   1      44.748  31.866  28.120  1.00  0.00     0.037 A 
BRANCH  48  62
ATOM     62  C   UNL A   1      39.443  29.709  30.265  1.00  0.00     0.064 A 
ATOM     63  C   UNL A   1      38.577  30.793  29.982  1.00  0.00     0.173 A 
ATOM     64  C   UNL A   1      39.011  28.865  31.304  1.00  0.00     0.173 A 
ATOM     65  F   UNL A   1      38.823  31.652  28.985  1.00  0.00    -0.203 F 
ATOM     66  C   UNL A   1      37.408  31.036  30.701  1.00  0.00     0.198 A 
ATOM     67  C   UNL A   1      37.845  29.120  32.038  1.00  0.00     0.198 A 
ATOM     68  F   UNL A   1      39.667  27.741  31.614  1.00  0.00    -0.203 F 
ATOM     69  F   UNL A   1      36.635  32.081  30.374  1.00  0.00    -0.200 F 
ATOM     70  C   UNL A   1      37.043  30.203  31.735  1.00  0.00     0.200 A 
ATOM     71  F   UNL A   1      37.492  28.294  33.033  1.00  0.00    -0.200 F 
ATOM     72  F   UNL A   1      35.914  30.431  32.420  1.00  0.00    -0.200 F 
ENDBRANCH  48  62
BRANCH  49  73
ATOM     73  C   UNL A   1      48.039  27.125  26.423  1.00  0.00     0.064 A 
ATOM     74  C   UNL A   1      47.337  27.360  25.218  1.00  0.00     0.173 A 
ATOM     75  C   UNL A   1      49.293  26.508  26.326  1.00  0.00     0.173 A 
ATOM     76  F   UNL A   1      46.107  27.899  25.257  1.00  0.00    -0.203 F 
ATOM     77  C   UNL A   1      47.976  27.259  23.987  1.00  0.00     0.198 A 
ATOM     78  C   UNL A   1      49.905  26.345  25.079  1.00  0.00     0.198 A 
ATOM     79  F   UNL A   1      49.988  26.202  27.431  1.00  0.00    -0.203 F 
ATOM     80  F   UNL A   1      47.376  27.730  22.883  1.00  0.00    -0.200 F 
ATOM     81  C   UNL A   1      49.277  26.794  23.924  1.00  0.00     0.200 A 
ATOM     82  F   UNL A   1      51.147  25.847  25.006  1.00  0.00    -0.200 F 
ATOM     83  F   UNL A   1      49.936  26.827  22.757  1.00  0.00    -0.200 F 
ENDBRANCH  49  73
BRANCH  61  84
ATOM     84  C   UNL A   1      44.314  33.283  27.757  1.00  0.00     0.064 A 
ATOM     85  C   UNL A   1      43.827  33.681  26.504  1.00  0.00     0.173 A 
ATOM     86  C   UNL A   1      44.252  34.308  28.750  1.00  0.00     0.173 A 
ATOM     87  F   UNL A   1      43.718  32.834  25.479  1.00  0.00    -0.203 F 
ATOM     88  C   UNL A   1      43.369  34.978  26.251  1.00  0.00     0.198 A 
ATOM     89  C   UNL A   1      43.713  35.569  28.518  1.00  0.00     0.198 A 
ATOM     90  F   UNL A   1      44.686  34.136  30.004  1.00  0.00    -0.203 F 
ATOM     91  F   UNL A   1      42.974  35.302  25.013  1.00  0.00    -0.200 F 
ATOM     92  C   UNL A   1      43.291  35.914  27.260  1.00  0.00     0.200 A 
ATOM     93  F   UNL A   1      43.595  36.437  29.534  1.00  0.00    -0.200 F 
ATOM     94  F   UNL A   1      42.796  37.136  27.023  1.00  0.00    -0.200 F 
ENDBRANCH  61  84
ENDBRANCH  35  36
ENDBRANCH  27  30
ENDBRANCH  25  26
ENDBRANCH  24  25
ENDBRANCH  23  24
ENDBRANCH   1  23
TORSDOF 16
ENDMDL
